#       Name:                AV-unprocessed.smi:1018
#       Creating user name   scv26
#       Creation time:       Fri Mar 27 02:40:09 2020


#       File generated by GOLD software.
#

@<TRIPOS>MOLECULE
AV-unprocessed.smi:1018
    60    61     1
SMALL
NO_CHARGES


@<TRIPOS>ATOM
      1 ****        -6.4704   2.1829  -2.7081 C.3            1 S1                 0.0000
      2 ****        -5.4589   2.4875  -1.5982 C.3            1 S1                 0.0000
      3 ****        -4.4295   1.3550  -1.4335 C.3            1 S1                 0.0000
      4 ****        -3.5647   1.6212  -0.2889 N.3            1 S1                 0.0000
      5 ****        -2.3652   0.8798  -0.2259 C.ar           1 S1                 0.0000
      6 ****        -1.4899   0.8451  -1.3370 C.ar           1 S1                 0.0000
      7 ****        -0.2908   0.1126  -1.2485 C.ar           1 S1                 0.0000
      8 ****         0.0122  -0.5619  -0.0431 C.ar           1 S1                 0.0000
      9 ****         1.1857  -1.3338   0.1730 N.am           1 S1                 0.0000
     10 ****         2.3685  -1.2522  -0.4604 C.2            1 S1                 0.0000
     11 ****         2.6236  -0.5027  -1.4027 O.2            1 S1                 0.0000
     12 ****         3.2637  -2.0887   0.0807 N.am           1 S1                 0.0000
     13 ****         4.6591  -2.2102  -0.3393 C.3            1 S1                 0.0000
     14 ****         5.5887  -2.7308   0.7902 C.3            1 S1                 0.0000
     15 ****         5.1568  -4.1603   1.1992 C.3            1 S1                 0.0000
     16 ****         7.0386  -2.8079   0.2642 C.3            1 S1                 0.0000
     17 ****         5.5380  -1.7823   2.0156 C.2            1 S1                 0.0000
     18 ****         5.9893  -0.5345   1.8505 N.am           1 S1                 0.0000
     19 ****         5.0910  -2.1587   3.0983 O.2            1 S1                 0.0000
     20 ****        -0.9282  -0.4825   1.0028 C.ar           1 S1                 0.0000
     21 ****        -2.0780   0.2191   0.9223 N.ar           1 S1                 0.0000
     22 ****        -4.3034   1.8519   0.9505 C.3            1 S1                 0.0000
     23 ****        -5.3670   2.9513   0.7616 C.3            1 S1                 0.0000
     24 ****        -4.7759   4.3716   0.7091 C.3            1 S1                 0.0000
     25 ****        -6.1796   2.6621  -0.3785 O.3            1 S1                 0.0000
     26 ****        -5.9709   2.0508  -3.6681 H              1 S1                 0.0000
     27 ****        -7.1875   2.9970  -2.8162 H              1 S1                 0.0000
     28 ****        -7.0302   1.2721  -2.4932 H              1 S1                 0.0000
     29 ****        -4.9449   3.4133  -1.8572 H              1 S1                 0.0000
     30 ****        -4.9396   0.4046  -1.2698 H              1 S1                 0.0000
     31 ****        -3.8618   1.2518  -2.3569 H              1 S1                 0.0000
     32 ****        -1.7137   1.3819  -2.2468 H              1 S1                 0.0000
     33 ****         0.3635   0.0816  -2.1057 H              1 S1                 0.0000
     34 ****         1.1516  -1.9572   0.9664 H              1 S1                 0.0000
     35 ****         2.9703  -2.6666   0.8550 H              1 S1                 0.0000
     36 ****         4.6962  -2.8863  -1.1945 H              1 S1                 0.0000
     37 ****         5.0237  -1.2469  -0.7016 H              1 S1                 0.0000
     38 ****         5.1860  -4.8389   0.3460 H              1 S1                 0.0000
     39 ****         4.1413  -4.1875   1.5965 H              1 S1                 0.0000
     40 ****         5.8171  -4.5745   1.9626 H              1 S1                 0.0000
     41 ****         7.1222  -3.5250  -0.5533 H              1 S1                 0.0000
     42 ****         7.7324  -3.1237   1.0447 H              1 S1                 0.0000
     43 ****         7.3869  -1.8476  -0.1182 H              1 S1                 0.0000
     44 ****         5.9759   0.1131   2.6249 H              1 S1                 0.0000
     45 ****         6.3450  -0.2453   0.9509 H              1 S1                 0.0000
     46 ****        -0.7505  -0.9900   1.9396 H              1 S1                 0.0000
     47 ****        -4.7869   0.9200   1.2469 H              1 S1                 0.0000
     48 ****        -3.6261   2.1338   1.7578 H              1 S1                 0.0000
     49 ****        -6.0329   2.9198   1.6244 H              1 S1                 0.0000
     50 ****        -4.2779   4.6167   1.6474 H              1 S1                 0.0000
     51 ****        -5.5587   5.1128   0.5474 H              1 S1                 0.0000
     52 ****        -4.0383   4.4844  -0.0851 H              1 S1                 0.0000
     53 ****        -3.1593   2.5181  -0.4657 LP             1 S1                 0.0000
     54 ****         1.9195   0.1129  -1.7568 LP             1 S1                 0.0000
     55 ****         3.5350  -0.5093  -1.8143 LP             1 S1                 0.0000
     56 ****         4.7508  -3.0934   3.2011 LP             1 S1                 0.0000
     57 ****         5.0679  -1.5299   3.8755 LP             1 S1                 0.0000
     58 ****        -2.7085   0.2511   1.6978 LP             1 S1                 0.0000
     59 ****        -6.6868   1.8204  -0.1936 LP             1 S1                 0.0000
     60 ****        -6.8223   3.4181  -0.5024 LP             1 S1                 0.0000
@<TRIPOS>BOND
    1    1    2 1     
    2    1   26 1     
    3    1   27 1     
    4    1   28 1     
    5    2   25 1     
    6    2    3 1     
    7    2   29 1     
    8    3    4 1     
    9    3   30 1     
   10    3   31 1     
   11    4    5 1     
   12    4   22 1     
   13    5   21 ar    
   14    5    6 ar    
   15    6    7 ar    
   16    6   32 1     
   17    7    8 ar    
   18    7   33 1     
   19    8    9 1     
   20    8   20 ar    
   21    9   10 am    
   22    9   34 1     
   23   10   11 2     
   24   10   12 am    
   25   12   13 1     
   26   12   35 1     
   27   13   14 1     
   28   13   36 1     
   29   13   37 1     
   30   14   15 1     
   31   14   16 1     
   32   14   17 1     
   33   15   38 1     
   34   15   39 1     
   35   15   40 1     
   36   16   41 1     
   37   16   42 1     
   38   16   43 1     
   39   17   18 am    
   40   17   19 2     
   41   18   44 1     
   42   18   45 1     
   43   20   21 ar    
   44   20   46 1     
   45   22   23 1     
   46   22   47 1     
   47   22   48 1     
   48   23   24 1     
   49   23   25 1     
   50   23   49 1     
   51   24   50 1     
   52   24   51 1     
   53   24   52 1     
   54    4   53 1     
   55   11   54 1     
   56   11   55 1     
   57   19   56 1     
   58   19   57 1     
   59   21   58 1     
   60   25   59 1     
   61   25   60 1     
@<TRIPOS>SUBSTRUCTURE
      1 S1             1
@<TRIPOS>SET
LONE_PAIRS      STATIC     ATOMS    <user>   **** ""
8 53 54 55 56 57 58 59 60
DONOR_HYDROGENS      STATIC     ATOMS    <user>   **** ""
4 34 35 44 45
ATOM$BLUE        STATIC     ATOMS    COLORGROUP SYSTEM
8 53 54 55 56 57 58 59 60
ATOM$RED        STATIC     ATOMS    COLORGROUP SYSTEM
4 34 35 44 45
