AV-unprocessed.smi:2302|AV-procd|sdf|9237|dock8
  -GOLD-   2272012453D 1   1.00000     0.00000
 Structure written by MMmdl.
 40 41  0  0  0  0  0  0  0  0  2 V2000
  151.1250  145.4351  159.3777 C   0  0  0  0  0  0  0  0  0  0  0  0
  151.7578  144.0733  159.5727 C   0  0  0  0  0  0  0  0  0  0  0  0
  152.6953  143.8515  160.6001 C   0  0  0  0  0  0  0  0  0  0  0  0
  153.2488  142.5649  160.7261 C   0  0  0  0  0  0  0  0  0  0  0  0
  152.8468  141.5608  159.8242 C   0  0  0  0  0  0  0  0  0  0  0  0
  151.9020  141.8668  158.8192 C   0  0  0  0  0  0  0  0  0  0  0  0
  151.5643  140.7872  157.9598 N   0  0  0  0  0  0  0  0  0  0  0  0
  152.2698  139.6688  157.7162 C   0  0  0  0  0  0  0  0  0  0  0  0
  153.3618  139.3907  158.2132 O   0  0  0  0  0  0  0  0  0  0  0  0
  151.6344  138.8696  156.8470 N   0  0  0  0  0  0  0  0  0  0  0  0
  152.1296  137.5751  156.3905 C   0  0  0  0  0  0  0  0  0  0  0  0
  150.9894  136.5640  156.1740 C   0  0  1  0  0  0  0  0  0  0  0  0
  150.2930  136.7717  154.8120 C   0  0  0  0  0  0  0  0  0  0  0  0
  149.2646  135.7333  154.5616 N   0  3  2  0  0  0  0  0  0  0  0  0
  147.9961  135.9599  155.2927 C   0  0  0  0  0  0  0  0  0  0  0  0
  149.8234  134.3728  154.7438 C   0  0  0  0  0  0  0  0  0  0  0  0
  150.5458  134.2400  156.0973 C   0  0  0  0  0  0  0  0  0  0  0  0
  151.5407  135.2506  156.2090 O   0  0  0  0  0  0  0  0  0  0  0  0
  151.3724  143.1106  158.7075 N   0  0  0  0  0  0  0  0  0  0  0  0
  151.2477  146.0561  160.2657 H   0  0  0  0  0  0  0  0  0  0  0  0
  150.0573  145.3391  159.1781 H   0  0  0  0  0  0  0  0  0  0  0  0
  151.5881  145.9477  158.5342 H   0  0  0  0  0  0  0  0  0  0  0  0
  152.9847  144.6445  161.2743 H   0  0  0  0  0  0  0  0  0  0  0  0
  153.9706  142.3513  161.5004 H   0  0  0  0  0  0  0  0  0  0  0  0
  153.2640  140.5676  159.9061 H   0  0  0  0  0  0  0  0  0  0  0  0
  150.6803  140.8750  157.4808 H   0  0  0  0  0  0  0  0  0  0  0  0
  150.7427  139.1716  156.4821 H   0  0  0  0  0  0  0  0  0  0  0  0
  152.6953  137.7109  155.4671 H   0  0  0  0  0  0  0  0  0  0  0  0
  152.8342  137.1942  157.1305 H   0  0  0  0  0  0  0  0  0  0  0  0
  150.2590  136.6721  156.9773 H   0  0  0  0  0  0  0  0  0  0  0  0
  149.8452  137.7645  154.7517 H   0  0  0  0  0  0  0  0  0  0  0  0
  151.0331  136.7171  154.0123 H   0  0  0  0  0  0  0  0  0  0  0  0
  148.1292  135.8913  156.3723 H   0  0  0  0  0  0  0  0  0  0  0  0
  147.2491  135.2230  154.9967 H   0  0  0  0  0  0  0  0  0  0  0  0
  147.5933  136.9467  155.0627 H   0  0  0  0  0  0  0  0  0  0  0  0
  149.0384  133.6218  154.6462 H   0  0  0  0  0  0  0  0  0  0  0  0
  150.5336  134.1850  153.9374 H   0  0  0  0  0  0  0  0  0  0  0  0
  149.8456  134.3061  156.9311 H   0  0  0  0  0  0  0  0  0  0  0  0
  151.0277  133.2648  156.1687 H   0  0  0  0  0  0  0  0  0  0  0  0
  149.0199  135.8094  153.5843 H   0  0  0  0  0  0  0  0  0  0  0  0
  1  2  1  0  0  0  0
  1 20  1  0  0  0  0
  1 21  1  0  0  0  0
  1 22  1  0  0  0  0
  2 19  1  0  0  0  0
  2  3  2  0  0  0  0
  3  4  1  0  0  0  0
  3 23  1  0  0  0  0
  4  5  2  0  0  0  0
  4 24  1  0  0  0  0
  5  6  1  0  0  0  0
  5 25  1  0  0  0  0
  6  7  1  0  0  0  0
  6 19  2  0  0  0  0
  7  8  1  0  0  0  0
  7 26  1  0  0  0  0
  8  9  2  0  0  0  0
  8 10  1  0  0  0  0
 10 11  1  0  0  0  0
 10 27  1  0  0  0  0
 11 12  1  0  0  0  0
 11 28  1  0  0  0  0
 11 29  1  0  0  0  0
 12 18  1  0  0  0  0
 12 13  1  0  0  0  0
 12 30  1  0  0  0  0
 13 14  1  0  0  0  0
 13 31  1  0  0  0  0
 13 32  1  0  0  0  0
 14 15  1  0  0  0  0
 14 16  1  0  0  0  0
 14 40  1  0  0  0  0
 15 33  1  0  0  0  0
 15 34  1  0  0  0  0
 15 35  1  0  0  0  0
 16 17  1  0  0  0  0
 16 36  1  0  0  0  0
 16 37  1  0  0  0  0
 17 18  1  0  0  0  0
 17 38  1  0  0  0  0
 17 39  1  0  0  0  0
M  CHG  1  14   1
M  END
> <s_m_source_file>
AV-unprocessed.smi

> <i_m_source_file_index>
2302

> <i_lp_mmshare_version>
43012

> <i_f3d_flags>
0

> <s_epik_input>
W0NIM11jMVtjSF1bY0hdW2NIXWMobjEpW05IXUMoPU8pW05IXVtDSDJdW0NAQEhdMltDSDJdTihbQ0gzXSlbQ0gyXVtDSDJdTzI=

> <s_epik_cmdline>
J2VwaWtfcHl0aG9uJywgJy1waCcsICc3LjAnLCAnLXRuJywgJzgnLCAnLW1hJywgJzIwMCcsICctbWV0YWxfYmluZGluZycsICctaW1hZScsICc8aW5maWxlLm1hZT4nLCAnLW9tYWUnLCAnPG91dGZpbGUubWFlPic=

> <r_epik_Ionization_Penalty>
0.204647

> <r_epik_Ionization_Penalty_Charging>
0.204578

> <r_epik_Ionization_Penalty_Neutral>
6.91954e-05

> <r_epik_State_Penalty>
0.194513

> <r_epik_Charging_Adjusted_Penalty>
0.399091

> <i_epik_Tot_Q>
1

> <i_epik_Tot_abs_Q>
1

> <r_epik_Metal_State_Penalty>
0.194515

> <b_epik_Metal_Only>
0

> <s_lp_Force_Field>
OPLS_2005

> <r_lp_Energy>
17.5871

> <b_lp_Chiralities_Consistent>
1

> <s_lp_Variant>
AV-unprocessed.smi:2302-2

> <Gold.Version>
5.8.1

> <Gold.Id.Protein>
6NUR|6NUR_protein|mol2

> <Gold.PLP.Fitness>
43.5440

> <Gold.PLP.PLP>
-32.4833

> <Gold.PLP.part.hbond>
-3.0000

> <Gold.PLP.part.metal>
0.0000

> <Gold.PLP.part.buried>
-5.4327

> <Gold.PLP.part.nonpolar>
-25.0409

> <Gold.PLP.part.repulsive>
0.2185

> <Gold.PLP.ligand.clash>
0.0000

> <Gold.PLP.ligand.torsion>
0.4711

> <Gold.PLP.Chemscore.Hbond>
4.0000

> <Gold.PLP.Chemscore.CHOScore>
0.0000

> <Gold.PLP.Chemscore.Metal>
0.0000

> <Gold.Chemscore.Hbonds>
donor molecule, donor type, donor heavy atom, donor atom, acceptor molecule, acceptor atom, score
      L1  H    14    40       P1  7948  2.00
      P1  H  7997  8008       L1     9  0.95
      P1  H 10752 10765       L1    18  1.00

> <Gold.PLP.Chemscore.Internal.Correction>
0.0029

> <Gold.Rescore>
     Score         DG    S(hbond)    S(metal)    S(lipo)     H(rot)  DE(clash)    DE(int)     intcor
     19.47     -21.39       2.89        0.00      81.26       1.27       0.02       1.90       ----

> <Gold.Chemscore.Fitness>
19.4697

> <Gold.Chemscore.DG>
-21.3918

> <Gold.Chemscore.ZeroCoef>
-5.4800

> <Gold.Chemscore.Hbond>
2.8937

> <Gold.Chemscore.Metal>
0.0000

> <Gold.Chemscore.Lipo>
81.2574

> <Gold.Chemscore.Internal_Hbond>
0.0000

> <Gold.Chemscore.DEClash>
0.0189

> <Gold.Chemscore.DEInternal>
1.9032

> <Gold.Chemscore.Rot>
1.2736

> <Gold.Chemscore.Internal.Correction>
   9.000000E+99

> <Gold.Chemscore.Hbonds>
donor molecule, donor type, donor heavy atom, donor atom, acceptor molecule, acceptor atom, score
      L1  H    14    40       P1  7948  0.88
      P1  H  7997  8008       L1     9  0.21
      P1  H 10752 10765       L1    18  0.29

> <Gold.Chemscore.Hbond.Weighted>
-9.6650

> <Gold.Chemscore.Metal.Weighted>
-0.0000

> <Gold.Chemscore.Lipo.Weighted>
-9.5071

> <Gold.Chemscore.Internal_Hbond.Weighted>
0.0000

> <Gold.Chemscore.DEClash.Weighted>
0.0189

> <Gold.Chemscore.DEInternal.Weighted>
1.9032

> <Gold.Chemscore.Rot.Weighted>
3.2603

> <Gold.Chemscore.Internal.Correction.Weighted>
   9.000000E+99

> <Gold.Protein.RotatedTorsions>
[ 6907 6896 6895 6894 ] final  -20.80 input  -60.11 | X-H torsion
[ 7974 7965 7964 7962 ] final -114.43 input  175.53 | X-H torsion
[ 8008 7997 7996 7995 ] final  -73.69 input   59.86 | X-H torsion
[ 10167 10162 10161 10158 ] final  -49.75 input  -65.29 | X-H torsion
[ 10718 10713 10712 10709 ] final   95.42 input   66.30 | X-H torsion
[ 10763 10752 10751 10750 ] final -155.77 input  -60.55 | X-H torsion
[ 11005 11000 10999 10996 ] final  -63.55 input  -57.11 | X-H torsion

> <Gold.Protein.ActiveResidues>
 VAL166  LYS551  ARG553  GLY616  TRP617  ASP618  TYR619  PRO620  LYS621  CYS622 
 ASP623  PHE694  ASN695  SER759  ASP760  ASP761  ALA762  ILE779  LEU786  VAL792 
 PHE793  MET794  SER795  GLU796  ALA797  LYS798  CYS799  TRP800  GLU811  SER814 

> <Gold.Protein.RotatedAtoms>
  151.2428  135.0595  159.9031 H   0  0  0  0  0  0  0  0  0  0  0  0  # atno 6907 bound_to 6896
  152.5391  134.0415  159.8080 H   0  0  0  0  0  0  0  0  0  0  0  0  # atno 6908 bound_to 6896
  151.0612  133.5494  159.2665 H   0  0  0  0  0  0  0  0  0  0  0  0  # atno 6909 bound_to 6896
  145.1202  140.8665  143.3818 H   0  0  0  0  0  0  0  0  0  0  0  0  # atno 7974 bound_to 7965
  154.5268  140.0774  156.8274 H   0  0  0  0  0  0  0  0  0  0  0  0  # atno 8008 bound_to 7997
  155.3458  140.3410  155.4221 H   0  0  0  0  0  0  0  0  0  0  0  0  # atno 8009 bound_to 7997
  156.1740  140.1629  156.8383 H   0  0  0  0  0  0  0  0  0  0  0  0  # atno 8010 bound_to 7997
  140.6670  143.2685  151.4260 H   0  0  0  0  0  0  0  0  0  0  0  0  # atno 10167 bound_to 10162
  157.6939  131.0545  150.4336 H   0  0  0  0  0  0  0  0  0  0  0  0  # atno 10718 bound_to 10713
  154.7762  135.3160  154.8086 H   0  0  0  0  0  0  0  0  0  0  0  0  # atno 10763 bound_to 10752
  153.8808  135.6835  153.4771 H   0  0  0  0  0  0  0  0  0  0  0  0  # atno 10764 bound_to 10752
  153.1387  135.4748  154.9398 H   0  0  0  0  0  0  0  0  0  0  0  0  # atno 10765 bound_to 10752
  141.1397  133.6653  156.5698 H   0  0  0  0  0  0  0  0  0  0  0  0  # atno 11005 bound_to 11000
  145.0748  139.3004  143.5813 LP  0  0  0  0  0  0  0  0  0  0  0  0  # atno 17320 bound_to 7965
  146.3521  140.0235  142.8656 LP  0  0  0  0  0  0  0  0  0  0  0  0  # atno 17321 bound_to 7965
  139.5923  144.1472  152.2103 LP  0  0  0  0  0  0  0  0  0  0  0  0  # atno 17342 bound_to 10162
  140.0831  144.5684  150.7108 LP  0  0  0  0  0  0  0  0  0  0  0  0  # atno 17343 bound_to 10162
  156.4700  130.4050  149.6524 LP  0  0  0  0  0  0  0  0  0  0  0  0  # atno 17370 bound_to 10713
  156.3607  130.7480  151.2452 LP  0  0  0  0  0  0  0  0  0  0  0  0  # atno 17371 bound_to 10713
  140.3922  134.7430  157.4728 LP  0  0  0  0  0  0  0  0  0  0  0  0  # atno 17394 bound_to 11000
  140.0558  134.6066  155.8807 LP  0  0  0  0  0  0  0  0  0  0  0  0  # atno 17395 bound_to 11000

$$$$
