AV-unprocessed.smi:249|AV-procd|sdf|1918|dock3
  -GOLD-   2262021 23D 1   1.00000     0.00000
 Structure written by MMmdl.
 64 67  0  0  0  0  0  0  0  0  2 V2000
  146.7323  133.4242  150.4299 C   0  0  0  0  0  0  0  0  0  0  0  0
  146.2429  133.9985  151.7668 C   0  0  0  0  0  0  0  0  0  0  0  0
  147.3642  134.3136  152.6893 N   0  3  2  0  0  0  0  0  0  0  0  0
  148.2525  133.1527  152.9675 C   0  0  0  0  0  0  0  0  0  0  0  0
  149.5018  133.5915  153.7467 C   0  0  0  0  0  0  0  0  0  0  0  0
  149.1184  134.3007  155.0613 C   0  0  1  0  0  0  0  0  0  0  0  0
  150.2713  134.6875  155.8854 N   0  0  0  0  0  0  0  0  0  0  0  0
  151.2189  133.6416  156.2514 C   0  0  0  0  0  0  0  0  0  0  0  0
  150.0744  135.6177  156.8500 C   0  0  0  0  0  0  0  0  0  0  0  0
  149.4682  135.2121  157.9940 N   0  0  0  0  0  0  0  0  0  0  0  0
  149.2431  136.0855  158.9802 C   0  0  0  0  0  0  0  0  0  0  0  0
  149.5380  137.3862  159.0262 N   0  0  0  0  0  0  0  0  0  0  0  0
  150.1416  137.7981  157.8750 C   0  0  0  0  0  0  0  0  0  0  0  0
  150.4434  136.9893  156.7436 C   0  0  0  0  0  0  0  0  0  0  0  0
  151.0624  137.7589  155.7647 N   0  0  0  0  0  0  0  0  0  0  0  0
  151.1189  138.9543  156.2861 C   0  0  0  0  0  0  0  0  0  0  0  0
  150.5960  139.0641  157.5544 N   0  0  0  0  0  0  0  0  0  0  0  0
  150.5338  140.2614  158.3732 C   0  0  0  0  0  0  0  0  0  0  0  0
  151.0462  141.5254  157.6391 C   0  0  1  0  0  0  0  0  0  0  0  0
  150.2517  141.8256  156.3449 C   0  0  0  0  0  0  0  0  0  0  0  0
  148.8949  142.1040  156.6247 O   0  0  0  0  0  0  0  0  0  0  0  0
  151.1144  142.7482  158.5882 C   0  0  2  0  0  0  0  0  0  0  0  0
  151.7556  143.9877  157.9890 C   0  0  0  0  0  0  0  0  0  0  0  0
  152.1076  144.8023  159.2288 C   0  0  0  0  0  0  0  0  0  0  0  0
  152.3944  143.8502  160.2469 O   0  0  0  0  0  0  0  0  0  0  0  0
  152.0013  142.5493  159.8217 C   0  0  0  0  0  0  0  0  0  0  0  0
  148.1744  135.4798  154.7395 C   0  0  0  0  0  0  0  0  0  0  0  0
  146.9407  135.0319  153.9282 C   0  0  2  0  0  0  0  0  0  0  0  0
  145.9297  134.2380  154.7843 C   0  0  0  0  0  0  0  0  0  0  0  0
  145.8955  133.2811  149.7460 H   0  0  0  0  0  0  0  0  0  0  0  0
  147.2181  132.4566  150.5520 H   0  0  0  0  0  0  0  0  0  0  0  0
  147.4404  134.0984  149.9470 H   0  0  0  0  0  0  0  0  0  0  0  0
  145.6857  134.9110  151.5506 H   0  0  0  0  0  0  0  0  0  0  0  0
  145.5424  133.3122  152.2446 H   0  0  0  0  0  0  0  0  0  0  0  0
  147.7098  132.3836  153.5177 H   0  0  0  0  0  0  0  0  0  0  0  0
  148.5720  132.6931  152.0329 H   0  0  0  0  0  0  0  0  0  0  0  0
  150.1268  132.7231  153.9580 H   0  0  0  0  0  0  0  0  0  0  0  0
  150.0902  134.2542  153.1108 H   0  0  0  0  0  0  0  0  0  0  0  0
  148.5630  133.5810  155.6633 H   0  0  0  0  0  0  0  0  0  0  0  0
  152.0682  134.0563  156.7964 H   0  0  0  0  0  0  0  0  0  0  0  0
  151.6058  133.1571  155.3548 H   0  0  0  0  0  0  0  0  0  0  0  0
  150.7535  132.8776  156.8735 H   0  0  0  0  0  0  0  0  0  0  0  0
  148.7570  135.6853  159.8578 H   0  0  0  0  0  0  0  0  0  0  0  0
  151.5547  139.7924  155.7613 H   0  0  0  0  0  0  0  0  0  0  0  0
  149.5036  140.4047  158.7014 H   0  0  0  0  0  0  0  0  0  0  0  0
  151.1199  140.0736  159.2730 H   0  0  0  0  0  0  0  0  0  0  0  0
  152.0691  141.3130  157.3241 H   0  0  0  0  0  0  0  0  0  0  0  0
  150.6808  142.6748  155.8136 H   0  0  0  0  0  0  0  0  0  0  0  0
  150.3003  140.9860  155.6513 H   0  0  0  0  0  0  0  0  0  0  0  0
  148.7272  143.0135  156.4302 H   0  0  0  0  0  0  0  0  0  0  0  0
  150.1093  143.0072  158.9253 H   0  0  0  0  0  0  0  0  0  0  0  0
  152.6641  143.7232  157.4460 H   0  0  0  0  0  0  0  0  0  0  0  0
  151.0968  144.5297  157.3098 H   0  0  0  0  0  0  0  0  0  0  0  0
  152.9503  145.4735  159.0613 H   0  0  0  0  0  0  0  0  0  0  0  0
  151.2534  145.4021  159.5456 H   0  0  0  0  0  0  0  0  0  0  0  0
  151.4886  142.0164  160.6230 H   0  0  0  0  0  0  0  0  0  0  0  0
  152.9011  141.9879  159.5662 H   0  0  0  0  0  0  0  0  0  0  0  0
  147.8489  135.9756  155.6542 H   0  0  0  0  0  0  0  0  0  0  0  0
  148.7139  136.2320  154.1628 H   0  0  0  0  0  0  0  0  0  0  0  0
  146.4340  135.9436  153.6081 H   0  0  0  0  0  0  0  0  0  0  0  0
  145.6426  134.8094  155.6673 H   0  0  0  0  0  0  0  0  0  0  0  0
  146.3329  133.2879  155.1329 H   0  0  0  0  0  0  0  0  0  0  0  0
  145.0132  134.0259  154.2340 H   0  0  0  0  0  0  0  0  0  0  0  0
  147.9362  134.9799  152.1903 H   0  0  0  0  0  0  0  0  0  0  0  0
  1  2  1  0  0  0  0
  1 30  1  0  0  0  0
  1 31  1  0  0  0  0
  1 32  1  0  0  0  0
  2  3  1  0  0  0  0
  2 33  1  0  0  0  0
  2 34  1  0  0  0  0
  3 28  1  0  0  0  0
  3  4  1  0  0  0  0
  3 64  1  0  0  0  0
  4  5  1  0  0  0  0
  4 35  1  0  0  0  0
  4 36  1  0  0  0  0
  5  6  1  0  0  0  0
  5 37  1  0  0  0  0
  5 38  1  0  0  0  0
  6  7  1  0  0  0  0
  6 27  1  0  0  0  0
  6 39  1  0  0  0  0
  7  8  1  0  0  0  0
  7  9  1  0  0  0  0
  8 40  1  0  0  0  0
  8 41  1  0  0  0  0
  8 42  1  0  0  0  0
  9 14  1  0  0  0  0
  9 10  2  0  0  0  0
 10 11  1  0  0  0  0
 11 12  2  0  0  0  0
 11 43  1  0  0  0  0
 12 13  1  0  0  0  0
 13 17  1  0  0  0  0
 13 14  2  0  0  0  0
 14 15  1  0  0  0  0
 15 16  2  0  0  0  0
 16 17  1  0  0  0  0
 16 44  1  0  0  0  0
 17 18  1  0  0  0  0
 18 19  1  0  0  0  0
 18 45  1  0  0  0  0
 18 46  1  0  0  0  0
 19 20  1  0  0  0  0
 19 22  1  0  0  0  0
 19 47  1  0  0  0  0
 20 21  1  0  0  0  0
 20 48  1  0  0  0  0
 20 49  1  0  0  0  0
 21 50  1  0  0  0  0
 22 26  1  0  0  0  0
 22 23  1  0  0  0  0
 22 51  1  0  0  0  0
 23 24  1  0  0  0  0
 23 52  1  0  0  0  0
 23 53  1  0  0  0  0
 24 25  1  0  0  0  0
 24 54  1  0  0  0  0
 24 55  1  0  0  0  0
 25 26  1  0  0  0  0
 26 56  1  0  0  0  0
 26 57  1  0  0  0  0
 27 28  1  0  0  0  0
 27 58  1  0  0  0  0
 27 59  1  0  0  0  0
 28 29  1  0  0  0  0
 28 60  1  0  0  0  0
 29 61  1  0  0  0  0
 29 62  1  0  0  0  0
 29 63  1  0  0  0  0
M  CHG  1   3   1
M  END
> <s_m_source_file>
AV-unprocessed.smi

> <i_m_source_file_index>
249

> <i_lp_mmshare_version>
43012

> <i_f3d_flags>
0

> <s_epik_input>
W0NIM11bQ0gyXU4xW0NIMl1bQ0gyXVtDQEhdKFtDSDJdW0NASF0xW0NIM10pTihbQ0gzXSljKG5bY0hdbjIpYyhjMjMpbltjSF1uM1tDSDJdW0NASF0oW0NIMl1bT0hdKVtDQEBIXTRbQ0gyXVtDSDJdT1tDSDJdNA==

> <s_epik_cmdline>
J2VwaWtfcHl0aG9uJywgJy1waCcsICc3LjAnLCAnLXRuJywgJzgnLCAnLW1hJywgJzIwMCcsICctbWV0YWxfYmluZGluZycsICctaW1hZScsICc8aW5maWxlLm1hZT4nLCAnLW9tYWUnLCAnPG91dGZpbGUubWFlPic=

> <r_lp_tautomer_probability>
1

> <r_epik_Ionization_Penalty>
0.00294688

> <r_epik_Ionization_Penalty_Charging>
0.00169971

> <r_epik_Ionization_Penalty_Neutral>
0.00124717

> <r_epik_State_Penalty>
-0

> <r_epik_Charging_Adjusted_Penalty>
0.00169971

> <i_epik_Tot_Q>
1

> <i_epik_Tot_abs_Q>
1

> <r_epik_Metal_State_Penalty>
-0

> <b_epik_Metal_Only>
0

> <s_lp_Force_Field>
OPLS_2005

> <r_lp_Energy>
53.4352

> <b_lp_Chiralities_Consistent>
1

> <s_lp_Variant>
AV-unprocessed.smi:249-21

> <Gold.Version>
5.8.1

> <Gold.Id.Protein>
6NUR|6NUR_protein|mol2

> <Gold.PLP.Fitness>
56.3955

> <Gold.PLP.PLP>
-45.2248

> <Gold.PLP.part.hbond>
-3.5062

> <Gold.PLP.part.metal>
0.0000

> <Gold.PLP.part.buried>
-5.2481

> <Gold.PLP.part.nonpolar>
-36.9626

> <Gold.PLP.part.repulsive>
0.0583

> <Gold.PLP.ligand.clash>
0.0015

> <Gold.PLP.ligand.torsion>
0.5543

> <Gold.PLP.Chemscore.Hbond>
3.7500

> <Gold.PLP.Chemscore.CHOScore>
0.0000

> <Gold.PLP.Chemscore.Metal>
0.0000

> <Gold.Chemscore.Hbonds>
donor molecule, donor type, donor heavy atom, donor atom, acceptor molecule, acceptor atom, score
      L1  H     3    64       P1  7948  2.00
      L1  H    21    50       P1  8028  1.00
      P1  H  6896  6909       L1    10  0.05

> <Gold.PLP.Chemscore.Internal.Correction>
1.0309

> <Gold.Rescore>
     Score         DG    S(hbond)    S(metal)    S(lipo)     H(rot)  DE(clash)    DE(int)     intcor
     16.13     -17.00       1.98        0.00     105.51       2.90       0.06       0.81       ----

> <Gold.Chemscore.Fitness>
16.1274

> <Gold.Chemscore.DG>
-17.0027

> <Gold.Chemscore.ZeroCoef>
-5.4800

> <Gold.Chemscore.Hbond>
1.9771

> <Gold.Chemscore.Metal>
0.0000

> <Gold.Chemscore.Lipo>
105.5101

> <Gold.Chemscore.Internal_Hbond>
0.0000

> <Gold.Chemscore.DEClash>
0.0624

> <Gold.Chemscore.DEInternal>
0.8130

> <Gold.Chemscore.Rot>
2.9006

> <Gold.Chemscore.Internal.Correction>
   9.000000E+99

> <Gold.Chemscore.Hbonds>
donor molecule, donor type, donor heavy atom, donor atom, acceptor molecule, acceptor atom, score
      L1  H     3    64       P1  7948  0.73
      L1  H    21    50       P1  8028  0.95

> <Gold.Chemscore.Hbond.Weighted>
-6.6037

> <Gold.Chemscore.Metal.Weighted>
-0.0000

> <Gold.Chemscore.Lipo.Weighted>
-12.3447

> <Gold.Chemscore.Internal_Hbond.Weighted>
0.0000

> <Gold.Chemscore.DEClash.Weighted>
0.0624

> <Gold.Chemscore.DEInternal.Weighted>
0.8130

> <Gold.Chemscore.Rot.Weighted>
7.4256

> <Gold.Chemscore.Internal.Correction.Weighted>
   9.000000E+99

> <Gold.Protein.RotatedTorsions>
[ 6907 6896 6895 6894 ] final   34.89 input  -60.11 | X-H torsion
[ 7974 7965 7964 7962 ] final    9.51 input  175.53 | X-H torsion
[ 8008 7997 7996 7995 ] final   -6.23 input   59.86 | X-H torsion
[ 10167 10162 10161 10158 ] final -135.27 input  -65.29 | X-H torsion
[ 10718 10713 10712 10709 ] final  -60.24 input   66.30 | X-H torsion
[ 10763 10752 10751 10750 ] final  -63.07 input  -60.55 | X-H torsion
[ 11005 11000 10999 10996 ] final  172.17 input  -57.11 | X-H torsion

> <Gold.Protein.ActiveResidues>
 VAL166  LYS551  ARG553  GLY616  TRP617  ASP618  TYR619  PRO620  LYS621  CYS622 
 ASP623  PHE694  ASN695  SER759  ASP760  ASP761  ALA762  ILE779  LEU786  VAL792 
 PHE793  MET794  SER795  GLU796  ALA797  LYS798  CYS799  TRP800  GLU811  SER814 

> <Gold.Protein.RotatedAtoms>
  152.1087  134.9290  160.0567 H   0  0  0  0  0  0  0  0  0  0  0  0  # atno 6907 bound_to 6896
  152.0476  133.4000  159.4371 H   0  0  0  0  0  0  0  0  0  0  0  0  # atno 6908 bound_to 6896
  150.6842  134.3265  159.4852 H   0  0  0  0  0  0  0  0  0  0  0  0  # atno 6909 bound_to 6896
  146.2402  139.9773  142.8440 H   0  0  0  0  0  0  0  0  0  0  0  0  # atno 7974 bound_to 7965
  154.5959  140.2438  155.7858 H   0  0  0  0  0  0  0  0  0  0  0  0  # atno 8008 bound_to 7997
  156.2278  140.2976  156.0065 H   0  0  0  0  0  0  0  0  0  0  0  0  # atno 8009 bound_to 7997
  155.2294  140.0403  157.2950 H   0  0  0  0  0  0  0  0  0  0  0  0  # atno 8010 bound_to 7997
  139.8796  143.6856  152.2629 H   0  0  0  0  0  0  0  0  0  0  0  0  # atno 10167 bound_to 10162
  156.1005  130.4187  150.0826 H   0  0  0  0  0  0  0  0  0  0  0  0  # atno 10718 bound_to 10713
  154.3094  135.6218  153.5459 H   0  0  0  0  0  0  0  0  0  0  0  0  # atno 10763 bound_to 10752
  152.9831  135.5697  154.5194 H   0  0  0  0  0  0  0  0  0  0  0  0  # atno 10764 bound_to 10752
  154.4840  135.2864  155.1524 H   0  0  0  0  0  0  0  0  0  0  0  0  # atno 10765 bound_to 10752
  140.3269  134.7390  157.4105 H   0  0  0  0  0  0  0  0  0  0  0  0  # atno 11005 bound_to 11000
  145.1625  140.9680  143.4369 LP  0  0  0  0  0  0  0  0  0  0  0  0  # atno 17320 bound_to 7965
  145.0103  139.3516  143.6123 LP  0  0  0  0  0  0  0  0  0  0  0  0  # atno 17321 bound_to 7965
  139.7208  144.7603  151.0958 LP  0  0  0  0  0  0  0  0  0  0  0  0  # atno 17342 bound_to 10162
  140.7747  143.5210  150.9537 LP  0  0  0  0  0  0  0  0  0  0  0  0  # atno 17343 bound_to 10162
  156.8814  130.9558  151.3599 LP  0  0  0  0  0  0  0  0  0  0  0  0  # atno 17370 bound_to 10713
  157.6174  130.8629  149.9051 LP  0  0  0  0  0  0  0  0  0  0  0  0  # atno 17371 bound_to 10713
  140.0894  134.5622  155.8460 LP  0  0  0  0  0  0  0  0  0  0  0  0  # atno 17394 bound_to 11000
  141.2073  133.6663  156.6297 LP  0  0  0  0  0  0  0  0  0  0  0  0  # atno 17395 bound_to 11000

$$$$
