AV-unprocessed.smi:2247|AV-procd|sdf|9091|dock5
  -GOLD-   2272012293D 1   1.00000     0.00000
 Structure written by MMmdl.
 34 35  0  0  0  0  0  0  0  0  1 V2000
  152.8017  143.1930  161.8984 C   0  0  0  0  0  0  0  0  0  0  0  0
  152.8499  141.9880  160.9448 C   0  0  0  0  0  0  0  0  0  0  0  0
  154.2619  141.4044  160.7849 C   0  0  0  0  0  0  0  0  0  0  0  0
  152.2607  142.2940  159.6343 N   0  0  0  0  0  0  0  0  0  0  0  0
  151.8442  143.6406  159.2744 C   0  0  0  0  0  0  0  0  0  0  0  0
  151.0724  143.4692  157.9629 C   0  0  0  0  0  0  0  0  0  0  0  0
  151.5126  142.1157  157.3835 C   0  0  2  0  0  0  0  0  0  0  0  0
  150.3559  141.3992  156.8476 N   0  0  0  0  0  0  0  0  0  0  0  0
  150.3780  140.5365  155.8201 C   0  0  0  0  0  0  0  0  0  0  0  0
  151.4235  140.2717  155.2178 O   0  0  0  0  0  0  0  0  0  0  0  0
  149.0991  140.0669  155.5602 N   0  0  0  0  0  0  0  0  0  0  0  0
  148.2001  140.8833  155.1016 C   0  0  0  0  0  0  0  0  0  0  0  0
  148.2186  142.2438  154.8047 N   0  0  0  0  0  0  0  0  0  0  0  0
  146.9767  142.5997  154.3585 C   0  0  0  0  0  0  0  0  0  0  0  0
  146.2080  141.5148  154.3718 C   0  0  0  0  0  0  0  0  0  0  0  0
  146.9289  140.4492  154.8214 O   0  0  0  0  0  0  0  0  0  0  0  0
  152.0741  141.4269  158.6285 C   0  0  0  0  0  0  0  0  0  0  0  0
  152.3442  140.2259  158.6561 O   0  0  0  0  0  0  0  0  0  0  0  0
  153.1155  142.9040  162.9019 H   0  0  0  0  0  0  0  0  0  0  0  0
  151.7913  143.5962  161.9741 H   0  0  0  0  0  0  0  0  0  0  0  0
  153.4627  143.9961  161.5722 H   0  0  0  0  0  0  0  0  0  0  0  0
  152.2452  141.2114  161.4164 H   0  0  0  0  0  0  0  0  0  0  0  0
  154.6703  141.1010  161.7492 H   0  0  0  0  0  0  0  0  0  0  0  0
  154.9475  142.1322  160.3501 H   0  0  0  0  0  0  0  0  0  0  0  0
  154.2534  140.5255  160.1394 H   0  0  0  0  0  0  0  0  0  0  0  0
  151.2218  144.1081  160.0371 H   0  0  0  0  0  0  0  0  0  0  0  0
  152.7275  144.2627  159.1251 H   0  0  0  0  0  0  0  0  0  0  0  0
  150.0023  143.4688  158.1787 H   0  0  0  0  0  0  0  0  0  0  0  0
  151.2599  144.2902  157.2702 H   0  0  0  0  0  0  0  0  0  0  0  0
  152.3052  142.2448  156.6448 H   0  0  0  0  0  0  0  0  0  0  0  0
  149.4673  141.5744  157.2937 H   0  0  0  0  0  0  0  0  0  0  0  0
  148.9893  142.8914  154.8878 H   0  0  0  0  0  0  0  0  0  0  0  0
  146.7701  143.6203  154.0716 H   0  0  0  0  0  0  0  0  0  0  0  0
  145.1754  141.3447  154.1050 H   0  0  0  0  0  0  0  0  0  0  0  0
  1  2  1  0  0  0  0
  1 19  1  0  0  0  0
  1 20  1  0  0  0  0
  1 21  1  0  0  0  0
  2  3  1  0  0  0  0
  2  4  1  0  0  0  0
  2 22  1  0  0  0  0
  3 23  1  0  0  0  0
  3 24  1  0  0  0  0
  3 25  1  0  0  0  0
  4 17  1  0  0  0  0
  4  5  1  0  0  0  0
  5  6  1  0  0  0  0
  5 26  1  0  0  0  0
  5 27  1  0  0  0  0
  6  7  1  0  0  0  0
  6 28  1  0  0  0  0
  6 29  1  0  0  0  0
  7  8  1  0  0  0  0
  7 17  1  0  0  0  0
  7 30  1  0  0  0  0
  8 31  1  0  0  0  0
  8  9  1  0  0  0  0
  9 11  1  0  0  0  0
  9 10  2  0  0  0  0
 11 12  2  0  0  0  0
 12 16  1  0  0  0  0
 12 13  1  0  0  0  0
 13 32  1  0  0  0  0
 13 14  1  0  0  0  0
 14 33  1  0  0  0  0
 14 15  2  0  0  0  0
 15 34  1  0  0  0  0
 15 16  1  0  0  0  0
 17 18  2  0  0  0  0
M  END
> <s_m_source_file>
AV-unprocessed.smi

> <i_m_source_file_index>
2247

> <i_lp_mmshare_version>
43012

> <i_f3d_flags>
0

> <s_epik_input>
W0NIM11bQ0hdKFtDSDNdKU4xW0NIMl1bQ0gyXVtDQEhdKEMxPU8pW05IXUMoPU8pW05IXWMybltjSF1bY0hdbzI=

> <s_epik_cmdline>
J2VwaWtfcHl0aG9uJywgJy1waCcsICc3LjAnLCAnLXRuJywgJzgnLCAnLW1hJywgJzIwMCcsICctbWV0YWxfYmluZGluZycsICctaW1hZScsICc8aW5maWxlLm1hZT4nLCAnLW9tYWUnLCAnPG91dGZpbGUubWFlPic=

> <r_lp_tautomer_probability>
0.107061

> <r_epik_Ionization_Penalty>
0.180736

> <r_epik_Ionization_Penalty_Charging>
0.180388

> <r_epik_Ionization_Penalty_Neutral>
0.000348501

> <r_epik_State_Penalty>
2.44396

> <r_epik_Charging_Adjusted_Penalty>
2.62435

> <i_epik_Tot_Q>
0

> <i_epik_Tot_abs_Q>
0

> <r_epik_Metal_State_Penalty>
4.38331

> <b_epik_Metal_Only>
0

> <s_lp_Force_Field>
OPLS_2005

> <r_lp_Energy>
46.2393

> <b_lp_Chiralities_Consistent>
1

> <s_lp_Variant>
AV-unprocessed.smi:2247-6

> <Gold.Version>
5.8.1

> <Gold.Id.Protein>
6NUR|6NUR_protein|mol2

> <Gold.PLP.Fitness>
41.4077

> <Gold.PLP.PLP>
-35.6985

> <Gold.PLP.part.hbond>
-2.0000

> <Gold.PLP.part.metal>
0.0000

> <Gold.PLP.part.buried>
-5.1435

> <Gold.PLP.part.nonpolar>
-29.2154

> <Gold.PLP.part.repulsive>
0.3717

> <Gold.PLP.ligand.clash>
0.0000

> <Gold.PLP.ligand.torsion>
1.0231

> <Gold.PLP.Chemscore.Hbond>
1.5040

> <Gold.PLP.Chemscore.CHOScore>
1.0489

> <Gold.PLP.Chemscore.Metal>
0.0000

> <Gold.Chemscore.Hbonds>
donor molecule, donor type, donor heavy atom, donor atom, acceptor molecule, acceptor atom, score
      L1  H    13    32       P1  8028  0.51
      P1  H  7989  7998       L1    10  0.99
      L1  C    14    33       P1  8028  0.05
      L1  C    15    34       P1 10175  1.00

> <Gold.PLP.Chemscore.Internal.Correction>
0.0967

> <Gold.Rescore>
     Score         DG    S(hbond)    S(metal)    S(lipo)     H(rot)  DE(clash)    DE(int)     intcor
     15.45     -16.48       1.85        0.00      70.49       1.33       0.01       1.02       ----

> <Gold.Chemscore.Fitness>
15.4521

> <Gold.Chemscore.DG>
-16.4822

> <Gold.Chemscore.ZeroCoef>
-5.4800

> <Gold.Chemscore.Hbond>
1.8470

> <Gold.Chemscore.Metal>
0.0000

> <Gold.Chemscore.Lipo>
70.4933

> <Gold.Chemscore.Internal_Hbond>
0.0000

> <Gold.Chemscore.DEClash>
0.0108

> <Gold.Chemscore.DEInternal>
1.0194

> <Gold.Chemscore.Rot>
1.3338

> <Gold.Chemscore.Internal.Correction>
   9.000000E+99

> <Gold.Chemscore.Hbonds>
donor molecule, donor type, donor heavy atom, donor atom, acceptor molecule, acceptor atom, score
      L1  H    13    32       P1  8028  0.49
      P1  H  7989  7998       L1    10  0.91

> <Gold.Chemscore.Hbond.Weighted>
-6.1690

> <Gold.Chemscore.Metal.Weighted>
-0.0000

> <Gold.Chemscore.Lipo.Weighted>
-8.2477

> <Gold.Chemscore.Internal_Hbond.Weighted>
0.0000

> <Gold.Chemscore.DEClash.Weighted>
0.0108

> <Gold.Chemscore.DEInternal.Weighted>
1.0194

> <Gold.Chemscore.Rot.Weighted>
3.4145

> <Gold.Chemscore.Internal.Correction.Weighted>
   9.000000E+99

> <Gold.Protein.RotatedTorsions>
[ 6907 6896 6895 6894 ] final -165.35 input  -60.11 | X-H torsion
[ 7974 7965 7964 7962 ] final  154.39 input  175.53 | X-H torsion
[ 8008 7997 7996 7995 ] final -147.31 input   59.86 | X-H torsion
[ 10167 10162 10161 10158 ] final   94.77 input  -65.29 | X-H torsion
[ 10718 10713 10712 10709 ] final   37.44 input   66.30 | X-H torsion
[ 10763 10752 10751 10750 ] final  -73.13 input  -60.55 | X-H torsion
[ 11005 11000 10999 10996 ] final  -76.48 input  -57.11 | X-H torsion

> <Gold.Protein.ActiveResidues>
 VAL166  LYS551  ARG553  GLY616  TRP617  ASP618  TYR619  PRO620  LYS621  CYS622 
 ASP623  PHE694  ASN695  SER759  ASP760  ASP761  ALA762  ILE779  LEU786  VAL792 
 PHE793  MET794  SER795  GLU796  ALA797  LYS798  CYS799  TRP800  GLU811  SER814 

> <Gold.Protein.RotatedAtoms>
  151.4263  133.3683  159.2762 H   0  0  0  0  0  0  0  0  0  0  0  0  # atno 6907 bound_to 6896
  150.9257  134.8675  159.7529 H   0  0  0  0  0  0  0  0  0  0  0  0  # atno 6908 bound_to 6896
  152.5004  134.4204  159.9530 H   0  0  0  0  0  0  0  0  0  0  0  0  # atno 6909 bound_to 6896
  144.8092  139.6928  143.6149 H   0  0  0  0  0  0  0  0  0  0  0  0  # atno 7974 bound_to 7965
  155.5734  140.0636  157.2801 H   0  0  0  0  0  0  0  0  0  0  0  0  # atno 8008 bound_to 7997
  154.4354  140.1865  156.0948 H   0  0  0  0  0  0  0  0  0  0  0  0  # atno 8009 bound_to 7997
  156.0359  140.3301  155.7194 H   0  0  0  0  0  0  0  0  0  0  0  0  # atno 8010 bound_to 7997
  139.8052  144.6797  150.9712 H   0  0  0  0  0  0  0  0  0  0  0  0  # atno 10167 bound_to 10162
  157.3470  130.7578  149.6951 H   0  0  0  0  0  0  0  0  0  0  0  0  # atno 10718 bound_to 10713
  154.4552  135.5907  153.6218 H   0  0  0  0  0  0  0  0  0  0  0  0  # atno 10763 bound_to 10752
  152.9817  135.6030  154.3555 H   0  0  0  0  0  0  0  0  0  0  0  0  # atno 10764 bound_to 10752
  154.3421  135.2841  155.2396 H   0  0  0  0  0  0  0  0  0  0  0  0  # atno 10765 bound_to 10752
  141.1654  133.6985  156.7676 H   0  0  0  0  0  0  0  0  0  0  0  0  # atno 11005 bound_to 11000
  146.2388  139.5958  142.9506 LP  0  0  0  0  0  0  0  0  0  0  0  0  # atno 17320 bound_to 7965
  145.5365  141.0423  143.2354 LP  0  0  0  0  0  0  0  0  0  0  0  0  # atno 17321 bound_to 7965
  140.7819  143.4241  151.0796 LP  0  0  0  0  0  0  0  0  0  0  0  0  # atno 17342 bound_to 10162
  139.7910  143.8218  152.3151 LP  0  0  0  0  0  0  0  0  0  0  0  0  # atno 17343 bound_to 10162
  155.9716  130.4151  150.4167 LP  0  0  0  0  0  0  0  0  0  0  0  0  # atno 17370 bound_to 10713
  157.2223  131.0485  151.2539 LP  0  0  0  0  0  0  0  0  0  0  0  0  # atno 17371 bound_to 10713
  140.2488  134.8557  157.3646 LP  0  0  0  0  0  0  0  0  0  0  0  0  # atno 17394 bound_to 11000
  140.1723  134.4593  155.7824 LP  0  0  0  0  0  0  0  0  0  0  0  0  # atno 17395 bound_to 11000

$$$$
