AV-unprocessed.smi:246|AV-procd|sdf|1885|dock7
  -GOLD-   2262020543D 1   1.00000     0.00000
 Structure written by MMmdl.
 57 60  0  0  0  0  0  0  0  0  1 V2000
  146.5843  129.4405  152.4558 C   0  0  0  0  0  0  0  0  0  0  0  0
  147.9542  129.0818  153.0474 C   0  0  0  0  0  0  0  0  0  0  0  0
  148.2780  129.9019  154.1615 O   0  0  0  0  0  0  0  0  0  0  0  0
  149.5080  130.6001  154.0334 C   0  0  0  0  0  0  0  0  0  0  0  0
  149.6370  131.5956  155.1896 C   0  0  0  0  0  0  0  0  0  0  0  0
  149.5278  132.9152  154.6775 O   0  0  0  0  0  0  0  0  0  0  0  0
  150.3291  133.8615  155.3694 C   0  0  2  0  0  0  0  0  0  0  0  0
  149.7517  134.1575  156.7529 C   0  0  0  0  0  0  0  0  0  0  0  0
  150.3281  135.5359  157.0704 C   0  0  0  0  0  0  0  0  0  0  0  0
  150.4046  136.2111  155.7819 N   0  0  0  0  0  0  0  0  0  0  0  0
  151.0229  137.4116  155.6359 C   0  0  0  0  0  0  0  0  0  0  0  0
  152.1546  137.4761  154.8851 N   0  0  0  0  0  0  0  0  0  0  0  0
  152.7887  138.6388  154.7099 C   0  0  0  0  0  0  0  0  0  0  0  0
  152.4730  139.8415  155.1918 N   0  0  0  0  0  0  0  0  0  0  0  0
  151.3484  139.7851  155.9600 C   0  0  0  0  0  0  0  0  0  0  0  0
  150.5689  138.6243  156.2347 C   0  0  0  0  0  0  0  0  0  0  0  0
  149.5051  138.9643  157.0644 N   0  0  0  0  0  0  0  0  0  0  0  0
  149.6405  140.2474  157.2571 C   0  0  0  0  0  0  0  0  0  0  0  0
  150.7189  140.8218  156.6261 N   0  0  0  0  0  0  0  0  0  0  0  0
  151.0957  142.2239  156.6644 C   0  0  0  0  0  0  0  0  0  0  0  0
  150.9140  142.8380  158.0660 C   0  0  2  0  0  0  0  0  0  0  0  0
  150.4383  144.1643  157.9352 O   0  0  0  0  0  0  0  0  0  0  0  0
  152.2264  142.8556  158.8706 C   0  0  1  0  0  0  0  0  0  0  0  0
  152.0726  143.2972  160.3272 C   0  0  0  0  0  0  0  0  0  0  0  0
  153.2472  142.6355  161.0308 C   0  0  0  0  0  0  0  0  0  0  0  0
  153.7318  141.5790  160.0345 C   0  0  0  0  0  0  0  0  0  0  0  0
  152.7365  141.5396  159.0218 O   0  0  0  0  0  0  0  0  0  0  0  0
  150.3582  135.2411  154.6958 C   0  0  0  0  0  0  0  0  0  0  0  0
  151.3476  133.4883  155.4931 H   0  0  0  0  0  0  0  0  0  0  0  0
  146.3936  128.8642  151.5505 H   0  0  0  0  0  0  0  0  0  0  0  0
  146.5381  130.4972  152.1925 H   0  0  0  0  0  0  0  0  0  0  0  0
  145.7725  129.2315  153.1519 H   0  0  0  0  0  0  0  0  0  0  0  0
  148.0040  128.0243  153.3110 H   0  0  0  0  0  0  0  0  0  0  0  0
  148.7176  129.2466  152.2870 H   0  0  0  0  0  0  0  0  0  0  0  0
  150.3614  129.9220  154.0251 H   0  0  0  0  0  0  0  0  0  0  0  0
  149.5123  131.1437  153.0877 H   0  0  0  0  0  0  0  0  0  0  0  0
  148.8334  131.4228  155.9069 H   0  0  0  0  0  0  0  0  0  0  0  0
  150.5817  131.4465  155.7140 H   0  0  0  0  0  0  0  0  0  0  0  0
  148.6637  134.2183  156.6978 H   0  0  0  0  0  0  0  0  0  0  0  0
  150.0118  133.4038  157.4964 H   0  0  0  0  0  0  0  0  0  0  0  0
  149.7014  136.0826  157.7757 H   0  0  0  0  0  0  0  0  0  0  0  0
  151.3279  135.4406  157.4967 H   0  0  0  0  0  0  0  0  0  0  0  0
  153.6747  138.5999  154.0933 H   0  0  0  0  0  0  0  0  0  0  0  0
  148.9513  140.8149  157.8657 H   0  0  0  0  0  0  0  0  0  0  0  0
  152.1374  142.3004  156.3505 H   0  0  0  0  0  0  0  0  0  0  0  0
  150.5080  142.7696  155.9250 H   0  0  0  0  0  0  0  0  0  0  0  0
  150.1647  142.2653  158.6145 H   0  0  0  0  0  0  0  0  0  0  0  0
  149.8052  144.1880  157.2339 H   0  0  0  0  0  0  0  0  0  0  0  0
  152.9767  143.4717  158.3704 H   0  0  0  0  0  0  0  0  0  0  0  0
  152.0689  144.3818  160.4389 H   0  0  0  0  0  0  0  0  0  0  0  0
  151.1385  142.9143  160.7408 H   0  0  0  0  0  0  0  0  0  0  0  0
  154.0401  143.3526  161.2461 H   0  0  0  0  0  0  0  0  0  0  0  0
  152.9333  142.1881  161.9742 H   0  0  0  0  0  0  0  0  0  0  0  0
  154.6832  141.8767  159.5915 H   0  0  0  0  0  0  0  0  0  0  0  0
  153.8620  140.5992  160.4942 H   0  0  0  0  0  0  0  0  0  0  0  0
  151.2120  135.3255  154.0229 H   0  0  0  0  0  0  0  0  0  0  0  0
  149.4475  135.4110  154.1205 H   0  0  0  0  0  0  0  0  0  0  0  0
  1  2  1  0  0  0  0
  1 30  1  0  0  0  0
  1 31  1  0  0  0  0
  1 32  1  0  0  0  0
  2  3  1  0  0  0  0
  2 33  1  0  0  0  0
  2 34  1  0  0  0  0
  3  4  1  0  0  0  0
  4  5  1  0  0  0  0
  4 35  1  0  0  0  0
  4 36  1  0  0  0  0
  5  6  1  0  0  0  0
  5 37  1  0  0  0  0
  5 38  1  0  0  0  0
  6  7  1  0  0  0  0
  7 29  1  0  0  0  0
  7 28  1  0  0  0  0
  7  8  1  0  0  0  0
  8  9  1  0  0  0  0
  8 39  1  0  0  0  0
  8 40  1  0  0  0  0
  9 10  1  0  0  0  0
  9 41  1  0  0  0  0
  9 42  1  0  0  0  0
 10 11  1  0  0  0  0
 10 28  1  0  0  0  0
 11 16  1  0  0  0  0
 11 12  2  0  0  0  0
 12 13  1  0  0  0  0
 13 14  2  0  0  0  0
 13 43  1  0  0  0  0
 14 15  1  0  0  0  0
 15 19  1  0  0  0  0
 15 16  2  0  0  0  0
 16 17  1  0  0  0  0
 17 18  2  0  0  0  0
 18 19  1  0  0  0  0
 18 44  1  0  0  0  0
 19 20  1  0  0  0  0
 20 21  1  0  0  0  0
 20 45  1  0  0  0  0
 20 46  1  0  0  0  0
 21 22  1  0  0  0  0
 21 23  1  0  0  0  0
 21 47  1  0  0  0  0
 22 48  1  0  0  0  0
 23 27  1  0  0  0  0
 23 24  1  0  0  0  0
 23 49  1  0  0  0  0
 24 25  1  0  0  0  0
 24 50  1  0  0  0  0
 24 51  1  0  0  0  0
 25 26  1  0  0  0  0
 25 52  1  0  0  0  0
 25 53  1  0  0  0  0
 26 27  1  0  0  0  0
 26 54  1  0  0  0  0
 26 55  1  0  0  0  0
 28 56  1  0  0  0  0
 28 57  1  0  0  0  0
M  END
> <s_m_source_file>
AV-unprocessed.smi

> <i_m_source_file_index>
246

> <i_lp_mmshare_version>
43012

> <i_f3d_flags>
0

> <s_epik_input>
W0NIM11bQ0gyXU9bQ0gyXVtDSDJdT1tDQEhdMVtDSDJdW0NIMl1OKFtDSDJdMSljKG5bY0hdbjIpYyhjMjMpbltjSF1uM1tDSDJdW0NASF0oW09IXSlbQ0BASF00W0NIMl1bQ0gyXVtDSDJdTzQ=

> <s_epik_cmdline>
J2VwaWtfcHl0aG9uJywgJy1waCcsICc3LjAnLCAnLXRuJywgJzgnLCAnLW1hJywgJzIwMCcsICctbWV0YWxfYmluZGluZycsICctaW1hZScsICc8aW5maWxlLm1hZT4nLCAnLW9tYWUnLCAnPG91dGZpbGUubWFlPic=

> <r_lp_tautomer_probability>
1

> <r_epik_Ionization_Penalty>
0.0024631

> <r_epik_Ionization_Penalty_Charging>
0

> <r_epik_Ionization_Penalty_Neutral>
0.0024631

> <r_epik_State_Penalty>
0.00162428

> <r_epik_Charging_Adjusted_Penalty>
0.00162428

> <i_epik_Tot_Q>
0

> <i_epik_Tot_abs_Q>
0

> <r_epik_Metal_State_Penalty>
-0

> <b_epik_Metal_Only>
0

> <s_lp_Force_Field>
OPLS_2005

> <r_lp_Energy>
48.9745

> <b_lp_Chiralities_Consistent>
1

> <s_lp_Variant>
AV-unprocessed.smi:246-6

> <Gold.Version>
5.8.1

> <Gold.Id.Protein>
6NUR|6NUR_protein|mol2

> <Gold.PLP.Fitness>
53.5197

> <Gold.PLP.PLP>
-49.8956

> <Gold.PLP.part.hbond>
-4.2524

> <Gold.PLP.part.metal>
0.0000

> <Gold.PLP.part.buried>
-8.5831

> <Gold.PLP.part.nonpolar>
-38.9402

> <Gold.PLP.part.repulsive>
0.1922

> <Gold.PLP.ligand.clash>
0.0000

> <Gold.PLP.ligand.torsion>
2.7141

> <Gold.PLP.Chemscore.Hbond>
2.8418

> <Gold.PLP.Chemscore.CHOScore>
0.0000

> <Gold.PLP.Chemscore.Metal>
0.0000

> <Gold.Chemscore.Hbonds>
donor molecule, donor type, donor heavy atom, donor atom, acceptor molecule, acceptor atom, score
      L1  H    22    48       P1  8028  1.00
      P1  H  7989  7998       L1    14  0.46
      P1  H  7997  8010       L1    14  0.55
      P1  H 10752 10765       L1    12  0.75

> <Gold.PLP.Chemscore.Internal.Correction>
0.5269

> <Gold.Rescore>
     Score         DG    S(hbond)    S(metal)    S(lipo)     H(rot)  DE(clash)    DE(int)     intcor
     13.74     -17.05       2.00        0.00     109.82       3.10       0.58       2.73       ----

> <Gold.Chemscore.Fitness>
13.7357

> <Gold.Chemscore.DG>
-17.0507

> <Gold.Chemscore.ZeroCoef>
-5.4800

> <Gold.Chemscore.Hbond>
1.9955

> <Gold.Chemscore.Metal>
0.0000

> <Gold.Chemscore.Lipo>
109.8163

> <Gold.Chemscore.Internal_Hbond>
0.0000

> <Gold.Chemscore.DEClash>
0.5832

> <Gold.Chemscore.DEInternal>
2.7318

> <Gold.Chemscore.Rot>
3.1026

> <Gold.Chemscore.Internal.Correction>
   9.000000E+99

> <Gold.Chemscore.Hbonds>
donor molecule, donor type, donor heavy atom, donor atom, acceptor molecule, acceptor atom, score
      L1  H    22    48       P1  8028  0.55
      P1  H  7989  7998       L1    14  0.05
      P1  H  7997  8010       L1    14  0.06
      P1  H 10752 10765       L1    12  0.62

> <Gold.Chemscore.Hbond.Weighted>
-6.6648

> <Gold.Chemscore.Metal.Weighted>
-0.0000

> <Gold.Chemscore.Lipo.Weighted>
-12.8485

> <Gold.Chemscore.Internal_Hbond.Weighted>
0.0000

> <Gold.Chemscore.DEClash.Weighted>
0.5832

> <Gold.Chemscore.DEInternal.Weighted>
2.7318

> <Gold.Chemscore.Rot.Weighted>
7.9426

> <Gold.Chemscore.Internal.Correction.Weighted>
   9.000000E+99

> <Gold.Protein.RotatedTorsions>
[ 6907 6896 6895 6894 ] final -153.78 input  -60.11 | X-H torsion
[ 7974 7965 7964 7962 ] final   16.96 input  175.53 | X-H torsion
[ 8008 7997 7996 7995 ] final   93.55 input   59.86 | X-H torsion
[ 10167 10162 10161 10158 ] final  -58.06 input  -65.29 | X-H torsion
[ 10718 10713 10712 10709 ] final  -42.97 input   66.30 | X-H torsion
[ 10763 10752 10751 10750 ] final  167.25 input  -60.55 | X-H torsion
[ 11005 11000 10999 10996 ] final  175.64 input  -57.11 | X-H torsion

> <Gold.Protein.ActiveResidues>
 VAL166  LYS551  ARG553  GLY616  TRP617  ASP618  TYR619  PRO620  LYS621  CYS622 
 ASP623  PHE694  ASN695  SER759  ASP760  ASP761  ALA762  ILE779  LEU786  VAL792 
 PHE793  MET794  SER795  GLU796  ALA797  LYS798  CYS799  TRP800  GLU811  SER814 

> <Gold.Protein.RotatedAtoms>
  151.2476  133.4367  159.2609 H   0  0  0  0  0  0  0  0  0  0  0  0  # atno 6907 bound_to 6896
  151.0647  134.9760  159.8288 H   0  0  0  0  0  0  0  0  0  0  0  0  # atno 6908 bound_to 6896
  152.5403  134.2425  159.8920 H   0  0  0  0  0  0  0  0  0  0  0  0  # atno 6909 bound_to 6896
  146.2233  139.8672  142.8594 H   0  0  0  0  0  0  0  0  0  0  0  0  # atno 7974 bound_to 7965
  156.0480  140.3311  155.7318 H   0  0  0  0  0  0  0  0  0  0  0  0  # atno 8008 bound_to 7997
  155.5644  140.0622  157.2839 H   0  0  0  0  0  0  0  0  0  0  0  0  # atno 8009 bound_to 7997
  154.4423  140.1872  156.0804 H   0  0  0  0  0  0  0  0  0  0  0  0  # atno 8010 bound_to 7997
  140.6220  143.2423  151.5457 H   0  0  0  0  0  0  0  0  0  0  0  0  # atno 10167 bound_to 10162
  156.2539  130.4190  149.8618 H   0  0  0  0  0  0  0  0  0  0  0  0  # atno 10718 bound_to 10713
  154.3510  135.2753  155.2372 H   0  0  0  0  0  0  0  0  0  0  0  0  # atno 10763 bound_to 10752
  154.4601  135.5909  153.6253 H   0  0  0  0  0  0  0  0  0  0  0  0  # atno 10764 bound_to 10752
  152.9850  135.6063  154.3720 H   0  0  0  0  0  0  0  0  0  0  0  0  # atno 10765 bound_to 10752
  140.3644  134.7085  157.4352 H   0  0  0  0  0  0  0  0  0  0  0  0  # atno 11005 bound_to 11000
  145.2645  141.0088  143.3807 LP  0  0  0  0  0  0  0  0  0  0  0  0  # atno 17320 bound_to 7965
  144.9272  139.4341  143.6512 LP  0  0  0  0  0  0  0  0  0  0  0  0  # atno 17321 bound_to 7965
  139.5447  144.2553  152.1419 LP  0  0  0  0  0  0  0  0  0  0  0  0  # atno 17342 bound_to 10162
  140.1776  144.4876  150.6546 LP  0  0  0  0  0  0  0  0  0  0  0  0  # atno 17343 bound_to 10162
  156.6157  130.8605  151.3464 LP  0  0  0  0  0  0  0  0  0  0  0  0  # atno 17370 bound_to 10713
  157.7225  130.9577  150.1497 LP  0  0  0  0  0  0  0  0  0  0  0  0  # atno 17371 bound_to 10713
  140.0601  134.6008  155.8759 LP  0  0  0  0  0  0  0  0  0  0  0  0  # atno 17394 bound_to 11000
  141.1974  133.6596  156.5740 LP  0  0  0  0  0  0  0  0  0  0  0  0  # atno 17395 bound_to 11000

$$$$
