AV-unprocessed.smi:3314|AV-procd|sdf|12743|dock3
  -GOLD-   2272019 83D 1   1.00000     0.00000
 Structure written by MMmdl.
 37 38  0  0  0  0  0  0  0  0  3 V2000
  151.9292  145.4964  159.2418 C   0  0  0  0  0  0  0  0  0  0  0  0
  152.0762  144.0096  158.9961 C   0  0  0  0  0  0  0  0  0  0  0  0
  152.9868  143.2396  159.7443 C   0  0  0  0  0  0  0  0  0  0  0  0
  153.0797  141.8631  159.4608 C   0  0  0  0  0  0  0  0  0  0  0  0
  154.0376  140.9750  160.2267 C   0  0  0  0  0  0  0  0  0  0  0  0
  152.3371  141.2530  158.5120 N   0  0  0  0  0  0  0  0  0  0  0  0
  151.4508  141.9807  157.7916 C   0  0  0  0  0  0  0  0  0  0  0  0
  150.7275  141.3645  156.8455 N   0  5  0  0  0  0  0  0  0  0  0  0
  151.3173  140.4696  156.0158 C   0  0  0  0  0  0  0  0  0  0  0  0
  152.4971  140.1149  155.9757 O   0  0  0  0  0  0  0  0  0  0  0  0
  150.3157  139.8729  155.0169 C   0  0  2  0  0  0  0  0  0  0  0  0
  149.2708  140.9135  154.5584 C   0  0  0  0  0  0  0  0  0  0  0  0
  148.2738  140.2785  153.6668 N   0  3  2  0  0  0  0  0  0  0  0  0
  147.2740  141.2385  153.1531 C   0  0  0  0  0  0  0  0  0  0  0  0
  147.6556  139.1025  154.3199 C   0  0  0  0  0  0  0  0  0  0  0  0
  148.7419  138.1230  154.7938 C   0  0  0  0  0  0  0  0  0  0  0  0
  149.6429  138.7961  155.6632 O   0  0  0  0  0  0  0  0  0  0  0  0
  151.3021  143.3707  158.0068 C   0  0  0  0  0  0  0  0  0  0  0  0
  152.4393  145.7984  160.1569 H   0  0  0  0  0  0  0  0  0  0  0  0
  150.8763  145.7635  159.3356 H   0  0  0  0  0  0  0  0  0  0  0  0
  152.3545  146.0584  158.4101 H   0  0  0  0  0  0  0  0  0  0  0  0
  153.5980  143.6910  160.5121 H   0  0  0  0  0  0  0  0  0  0  0  0
  154.7753  141.5674  160.7682 H   0  0  0  0  0  0  0  0  0  0  0  0
  154.5713  140.3098  159.5472 H   0  0  0  0  0  0  0  0  0  0  0  0
  153.4908  140.3658  160.9468 H   0  0  0  0  0  0  0  0  0  0  0  0
  150.8400  139.4858  154.1389 H   0  0  0  0  0  0  0  0  0  0  0  0
  148.7569  141.3520  155.4161 H   0  0  0  0  0  0  0  0  0  0  0  0
  149.7648  141.7291  154.0282 H   0  0  0  0  0  0  0  0  0  0  0  0
  146.6834  141.6624  153.9666 H   0  0  0  0  0  0  0  0  0  0  0  0
  146.5942  140.7490  152.4552 H   0  0  0  0  0  0  0  0  0  0  0  0
  147.7636  142.0560  152.6230 H   0  0  0  0  0  0  0  0  0  0  0  0
  147.0531  139.4288  155.1691 H   0  0  0  0  0  0  0  0  0  0  0  0
  146.9838  138.6025  153.6213 H   0  0  0  0  0  0  0  0  0  0  0  0
  148.2884  137.2904  155.3318 H   0  0  0  0  0  0  0  0  0  0  0  0
  149.2823  137.6979  153.9467 H   0  0  0  0  0  0  0  0  0  0  0  0
  150.5984  143.9421  157.4186 H   0  0  0  0  0  0  0  0  0  0  0  0
  148.7841  139.9315  152.8670 H   0  0  0  0  0  0  0  0  0  0  0  0
  1  2  1  0  0  0  0
  1 19  1  0  0  0  0
  1 20  1  0  0  0  0
  1 21  1  0  0  0  0
  2 18  2  0  0  0  0
  2  3  1  0  0  0  0
  3  4  2  0  0  0  0
  3 22  1  0  0  0  0
  4  5  1  0  0  0  0
  4  6  1  0  0  0  0
  5 23  1  0  0  0  0
  5 24  1  0  0  0  0
  5 25  1  0  0  0  0
  6  7  2  0  0  0  0
  7  8  1  0  0  0  0
  7 18  1  0  0  0  0
  8  9  1  0  0  0  0
  9 10  2  0  0  0  0
  9 11  1  0  0  0  0
 11 17  1  0  0  0  0
 11 12  1  0  0  0  0
 11 26  1  0  0  0  0
 12 13  1  0  0  0  0
 12 27  1  0  0  0  0
 12 28  1  0  0  0  0
 13 14  1  0  0  0  0
 13 15  1  0  0  0  0
 13 37  1  0  0  0  0
 14 29  1  0  0  0  0
 14 30  1  0  0  0  0
 14 31  1  0  0  0  0
 15 16  1  0  0  0  0
 15 32  1  0  0  0  0
 15 33  1  0  0  0  0
 16 17  1  0  0  0  0
 16 34  1  0  0  0  0
 16 35  1  0  0  0  0
 18 36  1  0  0  0  0
M  CHG  1   8  -1
M  CHG  1  13   1
M  END
> <s_m_source_file>
AV-unprocessed.smi

> <i_m_source_file_index>
3314

> <i_lp_mmshare_version>
43012

> <i_f3d_flags>
0

> <s_epik_input>
W0NIM11jMVtjSF1jKFtDSDNdKW5jKFtjSF0xKVtOSF1DKD1PKVtDQEBIXTJbQ0gyXU4oW0NIM10pW0NIMl1bQ0gyXU8y

> <s_epik_cmdline>
J2VwaWtfcHl0aG9uJywgJy1waCcsICc3LjAnLCAnLXRuJywgJzgnLCAnLW1hJywgJzIwMCcsICctbWV0YWxfYmluZGluZycsICctaW1hZScsICc8aW5maWxlLm1hZT4nLCAnLW9tYWUnLCAnPG91dGZpbGUubWFlPic=

> <r_epik_Ionization_Penalty>
13.8964

> <r_epik_Ionization_Penalty_Charging>
7.88995

> <r_epik_Ionization_Penalty_Neutral>
6.00641

> <r_epik_State_Penalty>
8.39989

> <r_epik_Charging_Adjusted_Penalty>
16.2898

> <i_epik_Tot_Q>
0

> <i_epik_Tot_abs_Q>
2

> <r_epik_Metal_State_Penalty>
4.31145

> <b_epik_Metal_Only>
1

> <s_lp_Force_Field>
OPLS_2005

> <r_lp_Energy>
9.48457

> <b_lp_Chiralities_Consistent>
1

> <s_lp_Variant>
AV-unprocessed.smi:3314-13

> <Gold.Version>
5.8.1

> <Gold.Id.Protein>
6NUR|6NUR_protein|mol2

> <Gold.PLP.Fitness>
41.9883

> <Gold.PLP.PLP>
-38.0706

> <Gold.PLP.part.hbond>
-2.0000

> <Gold.PLP.part.metal>
0.0000

> <Gold.PLP.part.buried>
-3.4171

> <Gold.PLP.part.nonpolar>
-32.7589

> <Gold.PLP.part.repulsive>
0.1918

> <Gold.PLP.ligand.clash>
0.0430

> <Gold.PLP.ligand.torsion>
1.0244

> <Gold.PLP.Chemscore.Hbond>
2.0000

> <Gold.PLP.Chemscore.CHOScore>
0.0000

> <Gold.PLP.Chemscore.Metal>
0.0000

> <Gold.Chemscore.Hbonds>
donor molecule, donor type, donor heavy atom, donor atom, acceptor molecule, acceptor atom, score
      L1  H    13    37       P1  7957  1.00
      P1  H  7997  8009       L1    10  1.00

> <Gold.PLP.Chemscore.Internal.Correction>
0.0095

> <Gold.Rescore>
     Score         DG    S(hbond)    S(metal)    S(lipo)     H(rot)  DE(clash)    DE(int)     intcor
     18.34     -20.98       1.90        0.00     100.20       1.00       0.16       2.49       ----

> <Gold.Chemscore.Fitness>
18.3403

> <Gold.Chemscore.DG>
-20.9845

> <Gold.Chemscore.ZeroCoef>
-5.4800

> <Gold.Chemscore.Hbond>
1.8984

> <Gold.Chemscore.Metal>
0.0000

> <Gold.Chemscore.Lipo>
100.2045

> <Gold.Chemscore.Internal_Hbond>
0.0000

> <Gold.Chemscore.DEClash>
0.1580

> <Gold.Chemscore.DEInternal>
2.4863

> <Gold.Chemscore.Rot>
1.0000

> <Gold.Chemscore.Internal.Correction>
   9.000000E+99

> <Gold.Chemscore.Hbonds>
donor molecule, donor type, donor heavy atom, donor atom, acceptor molecule, acceptor atom, score
      L1  H    13    37       P1  7957  0.98
      P1  H  7997  8009       L1    10  0.96

> <Gold.Chemscore.Hbond.Weighted>
-6.3406

> <Gold.Chemscore.Metal.Weighted>
-0.0000

> <Gold.Chemscore.Lipo.Weighted>
-11.7239

> <Gold.Chemscore.Internal_Hbond.Weighted>
0.0000

> <Gold.Chemscore.DEClash.Weighted>
0.1580

> <Gold.Chemscore.DEInternal.Weighted>
2.4863

> <Gold.Chemscore.Rot.Weighted>
2.5600

> <Gold.Chemscore.Internal.Correction.Weighted>
   9.000000E+99

> <Gold.Protein.RotatedTorsions>
[ 6907 6896 6895 6894 ] final -126.56 input  -60.11 | X-H torsion
[ 7974 7965 7964 7962 ] final -162.47 input  175.53 | X-H torsion
[ 8008 7997 7996 7995 ] final -169.68 input   59.86 | X-H torsion
[ 10167 10162 10161 10158 ] final   43.36 input  -65.29 | X-H torsion
[ 10718 10713 10712 10709 ] final  -20.36 input   66.30 | X-H torsion
[ 10763 10752 10751 10750 ] final  157.31 input  -60.55 | X-H torsion
[ 11005 11000 10999 10996 ] final -126.32 input  -57.11 | X-H torsion

> <Gold.Protein.ActiveResidues>
 VAL166  LYS551  ARG553  GLY616  TRP617  ASP618  TYR619  PRO620  LYS621  CYS622 
 ASP623  PHE694  ASN695  SER759  ASP760  ASP761  ALA762  ILE779  LEU786  VAL792 
 PHE793  MET794  SER795  GLU796  ALA797  LYS798  CYS799  TRP800  GLU811  SER814 

> <Gold.Protein.RotatedAtoms>
  150.8981  133.7154  159.2885 H   0  0  0  0  0  0  0  0  0  0  0  0  # atno 6907 bound_to 6896
  151.4681  135.1042  159.9753 H   0  0  0  0  0  0  0  0  0  0  0  0  # atno 6908 bound_to 6896
  152.4861  133.8328  159.7167 H   0  0  0  0  0  0  0  0  0  0  0  0  # atno 6909 bound_to 6896
  144.7356  140.3248  143.6164 H   0  0  0  0  0  0  0  0  0  0  0  0  # atno 7974 bound_to 7965
  155.9083  140.1053  157.1299 H   0  0  0  0  0  0  0  0  0  0  0  0  # atno 8008 bound_to 7997
  154.4035  140.1279  156.4589 H   0  0  0  0  0  0  0  0  0  0  0  0  # atno 8009 bound_to 7997
  155.7341  140.3468  155.5075 H   0  0  0  0  0  0  0  0  0  0  0  0  # atno 8010 bound_to 7997
  140.3451  144.2421  150.6151 H   0  0  0  0  0  0  0  0  0  0  0  0  # atno 10167 bound_to 10162
  156.5330  130.4659  149.6537 H   0  0  0  0  0  0  0  0  0  0  0  0  # atno 10718 bound_to 10713
  154.1981  135.2791  155.3000 H   0  0  0  0  0  0  0  0  0  0  0  0  # atno 10763 bound_to 10752
  154.5876  135.5570  153.7249 H   0  0  0  0  0  0  0  0  0  0  0  0  # atno 10764 bound_to 10752
  153.0095  135.6360  154.2120 H   0  0  0  0  0  0  0  0  0  0  0  0  # atno 10765 bound_to 10752
  140.9691  134.0830  157.3888 H   0  0  0  0  0  0  0  0  0  0  0  0  # atno 11005 bound_to 11000
  145.7532  139.1800  143.2309 LP  0  0  0  0  0  0  0  0  0  0  0  0  # atno 17320 bound_to 7965
  146.1044  140.7504  142.9533 LP  0  0  0  0  0  0  0  0  0  0  0  0  # atno 17321 bound_to 7965
  140.5272  143.2251  151.8296 LP  0  0  0  0  0  0  0  0  0  0  0  0  # atno 17342 bound_to 10162
  139.4834  144.4765  151.9360 LP  0  0  0  0  0  0  0  0  0  0  0  0  # atno 17343 bound_to 10162
  156.3042  130.7194  151.2072 LP  0  0  0  0  0  0  0  0  0  0  0  0  # atno 17370 bound_to 10713
  157.7418  131.0498  150.5067 LP  0  0  0  0  0  0  0  0  0  0  0  0  # atno 17371 bound_to 10713
  139.8905  135.0112  156.6742 LP  0  0  0  0  0  0  0  0  0  0  0  0  # atno 17394 bound_to 11000
  140.7355  133.9022  155.8241 LP  0  0  0  0  0  0  0  0  0  0  0  0  # atno 17395 bound_to 11000

$$$$
