AV-unprocessed.smi:1994|AV-procd|sdf|8072|dock10
  -GOLD-   2272010283D 1   1.00000     0.00000
 Structure written by MMmdl.
 39 41  0  0  0  0  0  0  0  0  1 V2000
  151.4647  139.8494  155.9705 C   0  0  0  0  0  0  0  0  0  0  0  0
  151.9485  140.4128  157.2689 C   0  0  0  0  0  0  0  0  0  0  0  0
  153.0057  139.9145  157.9103 N   0  0  0  0  0  0  0  0  0  0  0  0
  153.0802  140.7116  159.0363 C   0  0  0  0  0  0  0  0  0  0  0  0
  153.9889  140.6896  160.1186 C   0  0  0  0  0  0  0  0  0  0  0  0
  153.8644  141.6167  161.1742 C   0  0  0  0  0  0  0  0  0  0  0  0
  152.8330  142.5781  161.1619 C   0  0  0  0  0  0  0  0  0  0  0  0
  151.9184  142.6188  160.0920 C   0  0  0  0  0  0  0  0  0  0  0  0
  152.0457  141.6901  159.0418 C   0  0  0  0  0  0  0  0  0  0  0  0
  151.3330  141.4615  157.8682 N   0  0  0  0  0  0  0  0  0  0  0  0
  150.1683  142.2020  157.4018 C   0  0  0  0  0  0  0  0  0  0  0  0
  148.8645  141.7657  158.1006 C   0  0  2  0  0  0  0  0  0  0  0  0
  148.3994  140.5537  157.5405 O   0  0  0  0  0  0  0  0  0  0  0  0
  147.7512  142.8154  157.9722 C   0  0  0  0  0  0  0  0  0  0  0  0
  147.6661  143.5513  159.1854 O   0  0  0  0  0  0  0  0  0  0  0  0
  146.5781  143.3374  160.0052 C   0  0  0  0  0  0  0  0  0  0  0  0
  145.4984  142.4751  159.6849 C   0  0  0  0  0  0  0  0  0  0  0  0
  144.4250  142.3118  160.5822 C   0  0  0  0  0  0  0  0  0  0  0  0
  144.4150  143.0057  161.8061 C   0  0  0  0  0  0  0  0  0  0  0  0
  145.4812  143.8636  162.1326 C   0  0  0  0  0  0  0  0  0  0  0  0
  146.5558  144.0269  161.2367 C   0  0  0  0  0  0  0  0  0  0  0  0
  147.5763  144.8556  161.5633 F   0  0  0  0  0  0  0  0  0  0  0  0
  152.1118  139.0348  155.6431 H   0  0  0  0  0  0  0  0  0  0  0  0
  151.4647  140.6174  155.1976 H   0  0  0  0  0  0  0  0  0  0  0  0
  150.4531  139.4586  156.0821 H   0  0  0  0  0  0  0  0  0  0  0  0
  154.7826  139.9573  160.1370 H   0  0  0  0  0  0  0  0  0  0  0  0
  154.5636  141.5898  161.9972 H   0  0  0  0  0  0  0  0  0  0  0  0
  152.7445  143.2844  161.9745 H   0  0  0  0  0  0  0  0  0  0  0  0
  151.1291  143.3555  160.0783 H   0  0  0  0  0  0  0  0  0  0  0  0
  150.3457  143.2663  157.5574 H   0  0  0  0  0  0  0  0  0  0  0  0
  150.0812  142.0682  156.3229 H   0  0  0  0  0  0  0  0  0  0  0  0
  149.0562  141.5826  159.1581 H   0  0  0  0  0  0  0  0  0  0  0  0
  148.6677  139.8424  158.1020 H   0  0  0  0  0  0  0  0  0  0  0  0
  147.9587  143.4795  157.1311 H   0  0  0  0  0  0  0  0  0  0  0  0
  146.7986  142.3170  157.7839 H   0  0  0  0  0  0  0  0  0  0  0  0
  145.4697  141.9251  158.7566 H   0  0  0  0  0  0  0  0  0  0  0  0
  143.6078  141.6518  160.3303 H   0  0  0  0  0  0  0  0  0  0  0  0
  143.5913  142.8801  162.4933 H   0  0  0  0  0  0  0  0  0  0  0  0
  145.4760  144.3975  163.0715 H   0  0  0  0  0  0  0  0  0  0  0  0
  1  2  1  0  0  0  0
  1 23  1  0  0  0  0
  1 24  1  0  0  0  0
  1 25  1  0  0  0  0
  2 10  1  0  0  0  0
  2  3  2  0  0  0  0
  3  4  1  0  0  0  0
  4  9  2  0  0  0  0
  4  5  1  0  0  0  0
  5  6  2  0  0  0  0
  5 26  1  0  0  0  0
  6  7  1  0  0  0  0
  6 27  1  0  0  0  0
  7  8  2  0  0  0  0
  7 28  1  0  0  0  0
  8  9  1  0  0  0  0
  8 29  1  0  0  0  0
  9 10  1  0  0  0  0
 10 11  1  0  0  0  0
 11 12  1  0  0  0  0
 11 30  1  0  0  0  0
 11 31  1  0  0  0  0
 12 13  1  0  0  0  0
 12 14  1  0  0  0  0
 12 32  1  0  0  0  0
 13 33  1  0  0  0  0
 14 15  1  0  0  0  0
 14 34  1  0  0  0  0
 14 35  1  0  0  0  0
 15 16  1  0  0  0  0
 16 21  1  0  0  0  0
 16 17  2  0  0  0  0
 17 18  1  0  0  0  0
 17 36  1  0  0  0  0
 18 19  2  0  0  0  0
 18 37  1  0  0  0  0
 19 20  1  0  0  0  0
 19 38  1  0  0  0  0
 20 21  2  0  0  0  0
 20 39  1  0  0  0  0
 21 22  1  0  0  0  0
M  END
> <s_m_source_file>
AV-unprocessed.smi

> <i_m_source_file_index>
1994

> <i_lp_mmshare_version>
43012

> <i_f3d_flags>
0

> <s_epik_input>
W2NIXTFbY0hdW2NIXVtjSF1jKGMxMiluKGMobjIpW0NIM10pW0NIMl1bQ0BIXShbT0hdKVtDSDJdT2MzW2NIXVtjSF1bY0hdW2NIXWMzRg==

> <s_epik_cmdline>
J2VwaWtfcHl0aG9uJywgJy1waCcsICc3LjAnLCAnLXRuJywgJzgnLCAnLW1hJywgJzIwMCcsICctbWV0YWxfYmluZGluZycsICctaW1hZScsICc8aW5maWxlLm1hZT4nLCAnLW9tYWUnLCAnPG91dGZpbGUubWFlPic=

> <r_lp_tautomer_probability>
1

> <r_epik_Ionization_Penalty>
0.112614

> <r_epik_Ionization_Penalty_Charging>
0

> <r_epik_Ionization_Penalty_Neutral>
0.112614

> <r_epik_State_Penalty>
0.10231

> <r_epik_Charging_Adjusted_Penalty>
0.10231

> <i_epik_Tot_Q>
0

> <i_epik_Tot_abs_Q>
0

> <r_epik_Metal_State_Penalty>
0.000111664

> <b_epik_Metal_Only>
0

> <s_lp_Force_Field>
OPLS_2005

> <r_lp_Energy>
14.6988

> <b_lp_Chiralities_Consistent>
1

> <s_lp_Variant>
AV-unprocessed.smi:1994-1

> <Gold.Version>
5.8.1

> <Gold.Id.Protein>
6NUR|6NUR_protein|mol2

> <Gold.PLP.Fitness>
44.5668

> <Gold.PLP.PLP>
-44.3118

> <Gold.PLP.part.hbond>
-1.0000

> <Gold.PLP.part.metal>
0.0000

> <Gold.PLP.part.buried>
-4.5138

> <Gold.PLP.part.nonpolar>
-38.7072

> <Gold.PLP.part.repulsive>
1.0163

> <Gold.PLP.ligand.clash>
0.0000

> <Gold.PLP.ligand.torsion>
1.3863

> <Gold.PLP.Chemscore.Hbond>
1.0000

> <Gold.PLP.Chemscore.CHOScore>
0.0000

> <Gold.PLP.Chemscore.Metal>
0.0000

> <Gold.Chemscore.Hbonds>
donor molecule, donor type, donor heavy atom, donor atom, acceptor molecule, acceptor atom, score
      P1  H  7997  8010       L1     3  1.00

> <Gold.PLP.Chemscore.Internal.Correction>
0.0275

> <Gold.Rescore>
     Score         DG    S(hbond)    S(metal)    S(lipo)     H(rot)  DE(clash)    DE(int)     intcor
     13.63     -15.14       0.78        0.00     108.26       2.19       0.11       1.39       ----

> <Gold.Chemscore.Fitness>
13.6321

> <Gold.Chemscore.DG>
-15.1383

> <Gold.Chemscore.ZeroCoef>
-5.4800

> <Gold.Chemscore.Hbond>
0.7770

> <Gold.Chemscore.Metal>
0.0000

> <Gold.Chemscore.Lipo>
108.2558

> <Gold.Chemscore.Internal_Hbond>
0.0000

> <Gold.Chemscore.DEClash>
0.1139

> <Gold.Chemscore.DEInternal>
1.3923

> <Gold.Chemscore.Rot>
2.1886

> <Gold.Chemscore.Internal.Correction>
   9.000000E+99

> <Gold.Chemscore.Hbonds>
donor molecule, donor type, donor heavy atom, donor atom, acceptor molecule, acceptor atom, score
      P1  H  7997  8010       L1     3  0.55

> <Gold.Chemscore.Hbond.Weighted>
-2.5952

> <Gold.Chemscore.Metal.Weighted>
-0.0000

> <Gold.Chemscore.Lipo.Weighted>
-12.6659

> <Gold.Chemscore.Internal_Hbond.Weighted>
0.0000

> <Gold.Chemscore.DEClash.Weighted>
0.1139

> <Gold.Chemscore.DEInternal.Weighted>
1.3923

> <Gold.Chemscore.Rot.Weighted>
5.6028

> <Gold.Chemscore.Internal.Correction.Weighted>
   9.000000E+99

> <Gold.Protein.RotatedTorsions>
[ 6907 6896 6895 6894 ] final -107.17 input  -60.11 | X-H torsion
[ 7974 7965 7964 7962 ] final  129.36 input  175.53 | X-H torsion
[ 8008 7997 7996 7995 ] final   31.24 input   59.86 | X-H torsion
[ 10167 10162 10161 10158 ] final -159.57 input  -65.29 | X-H torsion
[ 10718 10713 10712 10709 ] final   87.73 input   66.30 | X-H torsion
[ 10763 10752 10751 10750 ] final  -87.02 input  -60.55 | X-H torsion
[ 11005 11000 10999 10996 ] final -158.17 input  -57.11 | X-H torsion

> <Gold.Protein.ActiveResidues>
 VAL166  LYS551  ARG553  GLY616  TRP617  ASP618  TYR619  PRO620  LYS621  CYS622 
 ASP623  PHE694  ASN695  SER759  ASP760  ASP761  ALA762  ILE779  LEU786  VAL792 
 PHE793  MET794  SER795  GLU796  ALA797  LYS798  CYS799  TRP800  GLU811  SER814 

> <Gold.Protein.RotatedAtoms>
  150.7429  133.9866  159.3593 H   0  0  0  0  0  0  0  0  0  0  0  0  # atno 6907 bound_to 6896
  151.7811  135.0759  160.0383 H   0  0  0  0  0  0  0  0  0  0  0  0  # atno 6908 bound_to 6896
  152.3273  133.5883  159.5822 H   0  0  0  0  0  0  0  0  0  0  0  0  # atno 6909 bound_to 6896
  145.0295  139.4059  143.5157 H   0  0  0  0  0  0  0  0  0  0  0  0  # atno 7974 bound_to 7965
  155.1033  140.3231  155.4541 H   0  0  0  0  0  0  0  0  0  0  0  0  # atno 8008 bound_to 7997
  156.2711  140.2057  156.6105 H   0  0  0  0  0  0  0  0  0  0  0  0  # atno 8009 bound_to 7997
  154.6812  140.0526  157.0255 H   0  0  0  0  0  0  0  0  0  0  0  0  # atno 8010 bound_to 7997
  139.6605  143.9922  152.2222 H   0  0  0  0  0  0  0  0  0  0  0  0  # atno 10167 bound_to 10162
  157.6943  131.0267  150.3167 H   0  0  0  0  0  0  0  0  0  0  0  0  # atno 10718 bound_to 10713
  154.6290  135.5428  153.7659 H   0  0  0  0  0  0  0  0  0  0  0  0  # atno 10763 bound_to 10752
  153.0275  135.6431  154.1329 H   0  0  0  0  0  0  0  0  0  0  0  0  # atno 10764 bound_to 10752
  154.1260  135.2917  155.3177 H   0  0  0  0  0  0  0  0  0  0  0  0  # atno 10765 bound_to 10752
  140.6565  134.4394  157.5235 H   0  0  0  0  0  0  0  0  0  0  0  0  # atno 11005 bound_to 11000
  146.3496  139.9838  142.8693 LP  0  0  0  0  0  0  0  0  0  0  0  0  # atno 17320 bound_to 7965
  145.1789  140.9757  143.4278 LP  0  0  0  0  0  0  0  0  0  0  0  0  # atno 17321 bound_to 7965
  139.9659  144.6526  150.8035 LP  0  0  0  0  0  0  0  0  0  0  0  0  # atno 17342 bound_to 10162
  140.7578  143.3093  151.2884 LP  0  0  0  0  0  0  0  0  0  0  0  0  # atno 17343 bound_to 10162
  156.3661  130.3855  149.7213 LP  0  0  0  0  0  0  0  0  0  0  0  0  # atno 17370 bound_to 10713
  156.4643  130.7966  151.2986 LP  0  0  0  0  0  0  0  0  0  0  0  0  # atno 17371 bound_to 10713
  139.9027  134.8518  156.1828 LP  0  0  0  0  0  0  0  0  0  0  0  0  # atno 17394 bound_to 11000
  141.0497  133.6895  156.1749 LP  0  0  0  0  0  0  0  0  0  0  0  0  # atno 17395 bound_to 11000

$$$$
