AV-unprocessed.smi:1472|AV-procd|sdf|5965|dock5
  -GOLD-   22720 6 53D 1   1.00000     0.00000
 Structure written by MMmdl.
 42 43  0  0  0  0  0  0  0  0  2 V2000
  154.4304  133.4564  164.8833 C   0  0  0  0  0  0  0  0  0  0  0  0
  155.7497  134.4317  164.0515 S   0  0  0  0  0  0  0  0  0  0  0  0
  157.0089  134.2165  164.7806 O   0  0  0  0  0  0  0  0  0  0  0  0
  155.6857  134.1509  162.6091 O   0  0  0  0  0  0  0  0  0  0  0  0
  155.2697  136.0873  164.2918 N   0  0  0  0  0  0  0  0  0  0  0  0
  156.2828  137.1047  164.6340 C   0  0  0  0  0  0  0  0  0  0  0  0
  156.6713  137.9552  163.4111 C   0  0  0  0  0  0  0  0  0  0  0  0
  155.4354  138.5837  162.7408 C   0  0  0  0  0  0  0  0  0  0  0  0
  155.7917  139.4328  161.5014 C   0  0  0  0  0  0  0  0  0  0  0  0
  154.8910  140.5672  161.3172 N   0  0  0  0  0  0  0  0  0  0  0  0
  154.2620  140.8718  160.1731 C   0  0  0  0  0  0  0  0  0  0  0  0
  154.3949  140.2258  159.1340 O   0  0  0  0  0  0  0  0  0  0  0  0
  153.4960  141.9680  160.3129 N   0  0  0  0  0  0  0  0  0  0  0  0
  152.6397  142.5788  159.3560 C   0  0  0  0  0  0  0  0  0  0  0  0
  152.0316  141.7421  158.3937 C   0  0  0  0  0  0  0  0  0  0  0  0
  151.1904  142.3061  157.4127 C   0  0  0  0  0  0  0  0  0  0  0  0
  150.9788  143.6395  157.3941 N   0  3  0  0  0  0  0  0  0  0  0  0
  151.5479  144.4810  158.2836 C   0  0  0  0  0  0  0  0  0  0  0  0
  152.3990  143.9751  159.2872 C   0  0  0  0  0  0  0  0  0  0  0  0
  154.4480  137.4626  162.3791 C   0  0  0  0  0  0  0  0  0  0  0  0
  154.0731  136.6174  163.6089 C   0  0  0  0  0  0  0  0  0  0  0  0
  154.6594  132.3954  164.7879 H   0  0  0  0  0  0  0  0  0  0  0  0
  153.4700  133.6527  164.4100 H   0  0  0  0  0  0  0  0  0  0  0  0
  154.3861  133.7153  165.9394 H   0  0  0  0  0  0  0  0  0  0  0  0
  155.8720  137.7503  165.4111 H   0  0  0  0  0  0  0  0  0  0  0  0
  157.1653  136.6314  165.0636 H   0  0  0  0  0  0  0  0  0  0  0  0
  157.3648  138.7334  163.7310 H   0  0  0  0  0  0  0  0  0  0  0  0
  157.2128  137.3464  162.6882 H   0  0  0  0  0  0  0  0  0  0  0  0
  154.9468  139.2323  163.4696 H   0  0  0  0  0  0  0  0  0  0  0  0
  156.8066  139.8202  161.5951 H   0  0  0  0  0  0  0  0  0  0  0  0
  155.7835  138.8132  160.6029 H   0  0  0  0  0  0  0  0  0  0  0  0
  154.7331  141.1558  162.1220 H   0  0  0  0  0  0  0  0  0  0  0  0
  153.5632  142.4443  161.2006 H   0  0  0  0  0  0  0  0  0  0  0  0
  152.2019  140.6751  158.4059 H   0  0  0  0  0  0  0  0  0  0  0  0
  150.6863  141.7349  156.6470 H   0  0  0  0  0  0  0  0  0  0  0  0
  151.3129  145.5285  158.1632 H   0  0  0  0  0  0  0  0  0  0  0  0
  152.8594  144.6690  159.9739 H   0  0  0  0  0  0  0  0  0  0  0  0
  153.5419  137.8920  161.9501 H   0  0  0  0  0  0  0  0  0  0  0  0
  154.8760  136.8267  161.6051 H   0  0  0  0  0  0  0  0  0  0  0  0
  153.4068  135.8042  163.3223 H   0  0  0  0  0  0  0  0  0  0  0  0
  153.5180  137.2326  164.3180 H   0  0  0  0  0  0  0  0  0  0  0  0
  150.3679  144.0279  156.6749 H   0  0  0  0  0  0  0  0  0  0  0  0
  1  2  1  0  0  0  0
  1 22  1  0  0  0  0
  1 23  1  0  0  0  0
  1 24  1  0  0  0  0
  2  3  2  0  0  0  0
  2  4  2  0  0  0  0
  2  5  1  0  0  0  0
  5 21  1  0  0  0  0
  5  6  1  0  0  0  0
  6  7  1  0  0  0  0
  6 25  1  0  0  0  0
  6 26  1  0  0  0  0
  7  8  1  0  0  0  0
  7 27  1  0  0  0  0
  7 28  1  0  0  0  0
  8  9  1  0  0  0  0
  8 20  1  0  0  0  0
  8 29  1  0  0  0  0
  9 10  1  0  0  0  0
  9 30  1  0  0  0  0
  9 31  1  0  0  0  0
 10 11  1  0  0  0  0
 10 32  1  0  0  0  0
 11 12  2  0  0  0  0
 11 13  1  0  0  0  0
 13 14  1  0  0  0  0
 13 33  1  0  0  0  0
 14 19  1  0  0  0  0
 14 15  2  0  0  0  0
 15 16  1  0  0  0  0
 15 34  1  0  0  0  0
 16 17  2  0  0  0  0
 16 35  1  0  0  0  0
 17 18  1  0  0  0  0
 17 42  1  0  0  0  0
 18 19  2  0  0  0  0
 18 36  1  0  0  0  0
 19 37  1  0  0  0  0
 20 21  1  0  0  0  0
 20 38  1  0  0  0  0
 20 39  1  0  0  0  0
 21 40  1  0  0  0  0
 21 41  1  0  0  0  0
M  CHG  1  17   1
M  END
> <s_m_source_file>
AV-unprocessed.smi

> <i_m_source_file_index>
1472

> <i_lp_mmshare_version>
43012

> <i_f3d_flags>
0

> <s_epik_input>
W0NIM11TKD1PKSg9TylOMVtDSDJdW0NIMl1bQ0hdKFtDSDJdW0NIMl0xKVtDSDJdW05IXUMoPU8pW05IXWMyW2NIXVtjSF1uW2NIXVtjSF0y

> <s_epik_cmdline>
J2VwaWtfcHl0aG9uJywgJy1waCcsICc3LjAnLCAnLXRuJywgJzgnLCAnLW1hJywgJzIwMCcsICctbWV0YWxfYmluZGluZycsICctaW1hZScsICc8aW5maWxlLm1hZT4nLCAnLW9tYWUnLCAnPG91dGZpbGUubWFlPic=

> <r_epik_Ionization_Penalty>
1.02593

> <r_epik_Ionization_Penalty_Charging>
1.02591

> <r_epik_Ionization_Penalty_Neutral>
2.05222e-05

> <r_epik_State_Penalty>
1.07662

> <r_epik_Charging_Adjusted_Penalty>
2.10252

> <i_epik_Tot_Q>
1

> <i_epik_Tot_abs_Q>
1

> <r_epik_Metal_State_Penalty>
1.17465

> <b_epik_Metal_Only>
0

> <s_lp_Force_Field>
OPLS_2005

> <r_lp_Energy>
12.5629

> <b_lp_Chiralities_Consistent>
1

> <s_lp_Variant>
AV-unprocessed.smi:1472-2

> <Gold.Version>
5.8.1

> <Gold.Id.Protein>
6NUR|6NUR_protein|mol2

> <Gold.PLP.Fitness>
50.6246

> <Gold.PLP.PLP>
-43.2049

> <Gold.PLP.part.hbond>
-2.2598

> <Gold.PLP.part.metal>
0.0000

> <Gold.PLP.part.buried>
-5.4638

> <Gold.PLP.part.nonpolar>
-35.1150

> <Gold.PLP.part.repulsive>
0.1175

> <Gold.PLP.ligand.clash>
0.0000

> <Gold.PLP.ligand.torsion>
1.7373

> <Gold.PLP.Chemscore.Hbond>
2.9440

> <Gold.PLP.Chemscore.CHOScore>
0.0000

> <Gold.PLP.Chemscore.Metal>
0.0000

> <Gold.Chemscore.Hbonds>
donor molecule, donor type, donor heavy atom, donor atom, acceptor molecule, acceptor atom, score
      L1  H    17    42       P1  8028  2.00
      P1  H  7997  8009       L1    12  0.91

> <Gold.PLP.Chemscore.Internal.Correction>
2.0624

> <Gold.Rescore>
     Score         DG    S(hbond)    S(metal)    S(lipo)     H(rot)  DE(clash)    DE(int)     intcor
     17.59     -20.50       1.91        0.00     102.42       1.30       0.01       2.91       ----

> <Gold.Chemscore.Fitness>
17.5911

> <Gold.Chemscore.DG>
-20.5030

> <Gold.Chemscore.ZeroCoef>
-5.4800

> <Gold.Chemscore.Hbond>
1.9088

> <Gold.Chemscore.Metal>
0.0000

> <Gold.Chemscore.Lipo>
102.4240

> <Gold.Chemscore.Internal_Hbond>
0.0000

> <Gold.Chemscore.DEClash>
0.0060

> <Gold.Chemscore.DEInternal>
2.9060

> <Gold.Chemscore.Rot>
1.3031

> <Gold.Chemscore.Internal.Correction>
   9.000000E+99

> <Gold.Chemscore.Hbonds>
donor molecule, donor type, donor heavy atom, donor atom, acceptor molecule, acceptor atom, score
      L1  H    17    42       P1  8028  1.00
      P1  H  7997  8009       L1    12  0.89

> <Gold.Chemscore.Hbond.Weighted>
-6.3754

> <Gold.Chemscore.Metal.Weighted>
-0.0000

> <Gold.Chemscore.Lipo.Weighted>
-11.9836

> <Gold.Chemscore.Internal_Hbond.Weighted>
0.0000

> <Gold.Chemscore.DEClash.Weighted>
0.0060

> <Gold.Chemscore.DEInternal.Weighted>
2.9060

> <Gold.Chemscore.Rot.Weighted>
3.3359

> <Gold.Chemscore.Internal.Correction.Weighted>
   9.000000E+99

> <Gold.Protein.RotatedTorsions>
[ 6907 6896 6895 6894 ] final   37.00 input  -60.11 | X-H torsion
[ 7974 7965 7964 7962 ] final  155.29 input  175.53 | X-H torsion
[ 8008 7997 7996 7995 ] final  127.12 input   59.86 | X-H torsion
[ 10167 10162 10161 10158 ] final  -95.88 input  -65.29 | X-H torsion
[ 10718 10713 10712 10709 ] final  -17.18 input   66.30 | X-H torsion
[ 10763 10752 10751 10750 ] final  -73.98 input  -60.55 | X-H torsion
[ 11005 11000 10999 10996 ] final  119.19 input  -57.11 | X-H torsion

> <Gold.Protein.ActiveResidues>
 VAL166  LYS551  ARG553  GLY616  TRP617  ASP618  TYR619  PRO620  LYS621  CYS622 
 ASP623  PHE694  ASN695  SER759  ASP760  ASP761  ALA762  ILE779  LEU786  VAL792 
 PHE793  MET794  SER795  GLU796  ALA797  LYS798  CYS799  TRP800  GLU811  SER814 

> <Gold.Protein.RotatedAtoms>
  152.1373  134.9089  160.0555 H   0  0  0  0  0  0  0  0  0  0  0  0  # atno 6907 bound_to 6896
  152.0171  133.3879  159.4251 H   0  0  0  0  0  0  0  0  0  0  0  0  # atno 6908 bound_to 6896
  150.6861  134.3588  159.4985 H   0  0  0  0  0  0  0  0  0  0  0  0  # atno 6909 bound_to 6896
  144.8034  139.7048  143.6172 H   0  0  0  0  0  0  0  0  0  0  0  0  # atno 7974 bound_to 7965
  156.2882  140.2676  156.2222 H   0  0  0  0  0  0  0  0  0  0  0  0  # atno 8008 bound_to 7997
  155.0157  140.0387  157.2435 H   0  0  0  0  0  0  0  0  0  0  0  0  # atno 8009 bound_to 7997
  154.7479  140.2737  155.6322 H   0  0  0  0  0  0  0  0  0  0  0  0  # atno 8010 bound_to 7997
  140.2996  143.3170  152.0262 H   0  0  0  0  0  0  0  0  0  0  0  0  # atno 10167 bound_to 10162
  156.5772  130.4764  149.6336 H   0  0  0  0  0  0  0  0  0  0  0  0  # atno 10718 bound_to 10713
  154.4668  135.5879  153.6294 H   0  0  0  0  0  0  0  0  0  0  0  0  # atno 10763 bound_to 10752
  152.9829  135.6057  154.3416 H   0  0  0  0  0  0  0  0  0  0  0  0  # atno 10764 bound_to 10752
  154.3294  135.2842  155.2458 H   0  0  0  0  0  0  0  0  0  0  0  0  # atno 10765 bound_to 10752
  139.9137  134.9626  156.7617 H   0  0  0  0  0  0  0  0  0  0  0  0  # atno 11005 bound_to 11000
  146.2320  139.5833  142.9548 LP  0  0  0  0  0  0  0  0  0  0  0  0  # atno 17320 bound_to 7965
  145.5497  141.0414  143.2285 LP  0  0  0  0  0  0  0  0  0  0  0  0  # atno 17321 bound_to 7965
  139.4918  144.6465  151.6766 LP  0  0  0  0  0  0  0  0  0  0  0  0  # atno 17342 bound_to 10162
  140.5662  144.0185  150.6194 LP  0  0  0  0  0  0  0  0  0  0  0  0  # atno 17343 bound_to 10162
  156.2663  130.6991  151.1775 LP  0  0  0  0  0  0  0  0  0  0  0  0  # atno 17370 bound_to 10713
  157.7335  131.0590  150.5574 LP  0  0  0  0  0  0  0  0  0  0  0  0  # atno 17371 bound_to 10713
  140.6692  133.9575  155.7847 LP  0  0  0  0  0  0  0  0  0  0  0  0  # atno 17394 bound_to 11000
  141.0589  134.0375  157.3684 LP  0  0  0  0  0  0  0  0  0  0  0  0  # atno 17395 bound_to 11000

$$$$
