AV-unprocessed.smi:1762|AV-procd|sdf|7102|dock1
  -GOLD-   22720 8323D 1   1.00000     0.00000
 Structure written by MMmdl.
 52 53  0  0  0  0  0  0  0  0  1 V2000
  152.8261  138.4539  155.4327 C   0  0  0  0  0  0  0  0  0  0  0  0
  151.4344  138.4317  154.7914 C   0  0  1  0  0  0  0  0  0  0  0  0
  150.4169  137.6331  155.6283 C   0  0  0  0  0  0  0  0  0  0  0  0
  149.0638  137.6673  155.0606 N   0  0  0  0  0  0  0  0  0  0  0  0
  148.0820  136.8697  155.8478 C   0  0  1  0  0  0  0  0  0  0  0  0
  146.7220  136.7033  155.1288 C   0  0  0  0  0  0  0  0  0  0  0  0
  145.6718  136.9819  155.7087 O   0  0  0  0  0  0  0  0  0  0  0  0
  146.7581  136.2162  153.8783 N   0  0  0  0  0  0  0  0  0  0  0  0
  145.5875  135.9420  153.0543 C   0  0  0  0  0  0  0  0  0  0  0  0
  145.9842  135.3143  151.7075 C   0  0  0  0  0  0  0  0  0  0  0  0
  145.4142  133.9195  151.5348 C   0  0  0  0  0  0  0  0  0  0  0  0
  146.2641  132.7930  151.5058 C   0  0  0  0  0  0  0  0  0  0  0  0
  145.6843  131.5188  151.3525 C   0  0  0  0  0  0  0  0  0  0  0  0
  144.2844  131.4206  151.2360 C   0  0  0  0  0  0  0  0  0  0  0  0
  143.5235  132.6059  151.2775 C   0  0  0  0  0  0  0  0  0  0  0  0
  144.0693  133.8327  151.4242 N   0  0  0  0  0  0  0  0  0  0  0  0
  148.6106  135.4901  156.3664 C   0  0  0  0  0  0  0  0  0  0  0  0
  148.7264  134.4113  155.2714 C   0  0  0  0  0  0  0  0  0  0  0  0
  147.8231  134.9457  157.5752 C   0  0  0  0  0  0  0  0  0  0  0  0
  148.6779  139.0757  154.8611 C   0  0  0  0  0  0  0  0  0  0  0  0
  149.7107  139.8693  154.0376 C   0  0  1  0  0  0  0  0  0  0  0  0
  149.3461  141.3538  153.9233 C   0  0  0  0  0  0  0  0  0  0  0  0
  150.9834  139.7738  154.6640 O   0  0  0  0  0  0  0  0  0  0  0  0
  153.2254  137.4450  155.5394 H   0  0  0  0  0  0  0  0  0  0  0  0
  152.7971  138.9098  156.4228 H   0  0  0  0  0  0  0  0  0  0  0  0
  153.5264  139.0255  154.8231 H   0  0  0  0  0  0  0  0  0  0  0  0
  151.5160  137.9885  153.7971 H   0  0  0  0  0  0  0  0  0  0  0  0
  150.7872  136.6112  155.6811 H   0  0  0  0  0  0  0  0  0  0  0  0
  150.4003  138.0163  156.6502 H   0  0  0  0  0  0  0  0  0  0  0  0
  147.8642  137.4512  156.7464 H   0  0  0  0  0  0  0  0  0  0  0  0
  147.6601  136.0065  153.4760 H   0  0  0  0  0  0  0  0  0  0  0  0
  144.8952  135.2908  153.5907 H   0  0  0  0  0  0  0  0  0  0  0  0
  145.0625  136.8831  152.8882 H   0  0  0  0  0  0  0  0  0  0  0  0
  145.6376  135.9428  150.8858 H   0  0  0  0  0  0  0  0  0  0  0  0
  147.0703  135.2676  151.6183 H   0  0  0  0  0  0  0  0  0  0  0  0
  147.3346  132.9009  151.6010 H   0  0  0  0  0  0  0  0  0  0  0  0
  146.3018  130.6331  151.3260 H   0  0  0  0  0  0  0  0  0  0  0  0
  143.8049  130.4600  151.1180 H   0  0  0  0  0  0  0  0  0  0  0  0
  142.4476  132.5678  151.1914 H   0  0  0  0  0  0  0  0  0  0  0  0
  149.6133  135.6484  156.7601 H   0  0  0  0  0  0  0  0  0  0  0  0
  147.7520  134.1200  154.8807 H   0  0  0  0  0  0  0  0  0  0  0  0
  149.2000  133.5111  155.6641 H   0  0  0  0  0  0  0  0  0  0  0  0
  149.3331  134.7537  154.4329 H   0  0  0  0  0  0  0  0  0  0  0  0
  146.8138  134.6361  157.3028 H   0  0  0  0  0  0  0  0  0  0  0  0
  147.7434  135.6956  158.3628 H   0  0  0  0  0  0  0  0  0  0  0  0
  148.3219  134.0759  158.0035 H   0  0  0  0  0  0  0  0  0  0  0  0
  147.7287  139.1566  154.3325 H   0  0  0  0  0  0  0  0  0  0  0  0
  148.5371  139.5572  155.8303 H   0  0  0  0  0  0  0  0  0  0  0  0
  149.7770  139.4479  153.0329 H   0  0  0  0  0  0  0  0  0  0  0  0
  148.3794  141.4853  153.4369 H   0  0  0  0  0  0  0  0  0  0  0  0
  150.0895  141.8933  153.3359 H   0  0  0  0  0  0  0  0  0  0  0  0
  149.2938  141.8238  154.9060 H   0  0  0  0  0  0  0  0  0  0  0  0
  1  2  1  0  0  0  0
  1 24  1  0  0  0  0
  1 25  1  0  0  0  0
  1 26  1  0  0  0  0
  2 23  1  0  0  0  0
  2  3  1  0  0  0  0
  2 27  1  0  0  0  0
  3  4  1  0  0  0  0
  3 28  1  0  0  0  0
  3 29  1  0  0  0  0
  4  5  1  0  0  0  0
  4 20  1  0  0  0  0
  5  6  1  0  0  0  0
  5 17  1  0  0  0  0
  5 30  1  0  0  0  0
  6  7  2  0  0  0  0
  6  8  1  0  0  0  0
  8  9  1  0  0  0  0
  8 31  1  0  0  0  0
  9 10  1  0  0  0  0
  9 32  1  0  0  0  0
  9 33  1  0  0  0  0
 10 11  1  0  0  0  0
 10 34  1  0  0  0  0
 10 35  1  0  0  0  0
 11 16  1  0  0  0  0
 11 12  2  0  0  0  0
 12 13  1  0  0  0  0
 12 36  1  0  0  0  0
 13 14  2  0  0  0  0
 13 37  1  0  0  0  0
 14 15  1  0  0  0  0
 14 38  1  0  0  0  0
 15 16  2  0  0  0  0
 15 39  1  0  0  0  0
 17 18  1  0  0  0  0
 17 19  1  0  0  0  0
 17 40  1  0  0  0  0
 18 41  1  0  0  0  0
 18 42  1  0  0  0  0
 18 43  1  0  0  0  0
 19 44  1  0  0  0  0
 19 45  1  0  0  0  0
 19 46  1  0  0  0  0
 20 21  1  0  0  0  0
 20 47  1  0  0  0  0
 20 48  1  0  0  0  0
 21 22  1  0  0  0  0
 21 23  1  0  0  0  0
 21 49  1  0  0  0  0
 22 50  1  0  0  0  0
 22 51  1  0  0  0  0
 22 52  1  0  0  0  0
M  END
> <s_m_source_file>
AV-unprocessed.smi

> <i_m_source_file_index>
1762

> <i_lp_mmshare_version>
43012

> <i_f3d_flags>
0

> <s_epik_input>
W0NIM11bQ0BASF0xW0NIMl1OKFtDSDJdW0NASF0oTzEpW0NIM10pW0NAQEhdKFtDSF0oW0NIM10pW0NIM10pQyg9TylbTkhdW0NIMl1bQ0gyXWMyW2NIXVtjSF1bY0hdW2NIXW4y

> <s_epik_cmdline>
J2VwaWtfcHl0aG9uJywgJy1waCcsICc3LjAnLCAnLXRuJywgJzgnLCAnLW1hJywgJzIwMCcsICctbWV0YWxfYmluZGluZycsICctaW1hZScsICc8aW5maWxlLm1hZT4nLCAnLW9tYWUnLCAnPG91dGZpbGUubWFlPic=

> <r_epik_Ionization_Penalty>
0.0399736

> <r_epik_Ionization_Penalty_Charging>
0

> <r_epik_Ionization_Penalty_Neutral>
0.0399736

> <r_epik_State_Penalty>
0.0317634

> <r_epik_Charging_Adjusted_Penalty>
0.0317634

> <i_epik_Tot_Q>
0

> <i_epik_Tot_abs_Q>
0

> <r_epik_Metal_State_Penalty>
0.0307795

> <b_epik_Metal_Only>
0

> <s_lp_Force_Field>
OPLS_2005

> <r_lp_Energy>
24.971

> <b_lp_Chiralities_Consistent>
1

> <s_lp_Variant>
AV-unprocessed.smi:1762-4

> <Gold.Version>
5.8.1

> <Gold.Id.Protein>
6NUR|6NUR_protein|mol2

> <Gold.PLP.Fitness>
44.2248

> <Gold.PLP.PLP>
-37.5754

> <Gold.PLP.part.hbond>
-2.0000

> <Gold.PLP.part.metal>
0.0000

> <Gold.PLP.part.buried>
-1.1148

> <Gold.PLP.part.nonpolar>
-33.6648

> <Gold.PLP.part.repulsive>
0.4251

> <Gold.PLP.ligand.clash>
0.0000

> <Gold.PLP.ligand.torsion>
1.1038

> <Gold.PLP.Chemscore.Hbond>
2.0000

> <Gold.PLP.Chemscore.CHOScore>
0.8239

> <Gold.PLP.Chemscore.Metal>
0.0000

> <Gold.Chemscore.Hbonds>
donor molecule, donor type, donor heavy atom, donor atom, acceptor molecule, acceptor atom, score
      L1  H     8    31       P1  7948  0.84
      P1  H  7989  7998       L1    23  0.50
      L1  C    15    39       P1 10186  0.16

> <Gold.PLP.Chemscore.Internal.Correction>
0.3851

> <Gold.Rescore>
     Score         DG    S(hbond)    S(metal)    S(lipo)     H(rot)  DE(clash)    DE(int)     intcor
     14.79     -17.45       1.10        0.00     105.83       1.60       1.14       1.52       ----

> <Gold.Chemscore.Fitness>
14.7886

> <Gold.Chemscore.DG>
-17.4504

> <Gold.Chemscore.ZeroCoef>
-5.4800

> <Gold.Chemscore.Hbond>
1.1024

> <Gold.Chemscore.Metal>
0.0000

> <Gold.Chemscore.Lipo>
105.8340

> <Gold.Chemscore.Internal_Hbond>
0.0000

> <Gold.Chemscore.DEClash>
1.1381

> <Gold.Chemscore.DEInternal>
1.5237

> <Gold.Chemscore.Rot>
1.5993

> <Gold.Chemscore.Internal.Correction>
   9.000000E+99

> <Gold.Chemscore.Hbonds>
donor molecule, donor type, donor heavy atom, donor atom, acceptor molecule, acceptor atom, score
      L1  H     8    31       P1  7948  0.79
      P1  H  7989  7998       L1    23  0.02

> <Gold.Chemscore.Hbond.Weighted>
-3.6819

> <Gold.Chemscore.Metal.Weighted>
-0.0000

> <Gold.Chemscore.Lipo.Weighted>
-12.3826

> <Gold.Chemscore.Internal_Hbond.Weighted>
0.0000

> <Gold.Chemscore.DEClash.Weighted>
1.1381

> <Gold.Chemscore.DEInternal.Weighted>
1.5237

> <Gold.Chemscore.Rot.Weighted>
4.0941

> <Gold.Chemscore.Internal.Correction.Weighted>
   9.000000E+99

> <Gold.Protein.RotatedTorsions>
[ 6907 6896 6895 6894 ] final -134.28 input  -60.11 | X-H torsion
[ 7974 7965 7964 7962 ] final   11.92 input  175.53 | X-H torsion
[ 8008 7997 7996 7995 ] final   70.69 input   59.86 | X-H torsion
[ 10167 10162 10161 10158 ] final  -43.71 input  -65.29 | X-H torsion
[ 10718 10713 10712 10709 ] final  133.69 input   66.30 | X-H torsion
[ 10763 10752 10751 10750 ] final  -50.79 input  -60.55 | X-H torsion
[ 11005 11000 10999 10996 ] final  -89.66 input  -57.11 | X-H torsion

> <Gold.Protein.ActiveResidues>
 VAL166  LYS551  ARG553  GLY616  TRP617  ASP618  TYR619  PRO620  LYS621  CYS622 
 ASP623  PHE694  ASN695  SER759  ASP760  ASP761  ALA762  ILE779  LEU786  VAL792 
 PHE793  MET794  SER795  GLU796  ALA797  LYS798  CYS799  TRP800  GLU811  SER814 

> <Gold.Protein.RotatedAtoms>
  150.9840  133.6216  159.2717 H   0  0  0  0  0  0  0  0  0  0  0  0  # atno 6907 bound_to 6896
  151.3461  135.0873  159.9397 H   0  0  0  0  0  0  0  0  0  0  0  0  # atno 6908 bound_to 6896
  152.5225  133.9442  159.7695 H   0  0  0  0  0  0  0  0  0  0  0  0  # atno 6909 bound_to 6896
  146.2362  139.9414  142.8482 H   0  0  0  0  0  0  0  0  0  0  0  0  # atno 7974 bound_to 7965
  155.7427  140.3490  155.5112 H   0  0  0  0  0  0  0  0  0  0  0  0  # atno 8008 bound_to 7997
  155.9079  140.1045  157.1322 H   0  0  0  0  0  0  0  0  0  0  0  0  # atno 8009 bound_to 7997
  154.4052  140.1273  156.4507 H   0  0  0  0  0  0  0  0  0  0  0  0  # atno 8010 bound_to 7997
  140.6924  143.2968  151.3392 H   0  0  0  0  0  0  0  0  0  0  0  0  # atno 10167 bound_to 10162
  157.4748  131.1082  150.9757 H   0  0  0  0  0  0  0  0  0  0  0  0  # atno 10718 bound_to 10713
  154.1160  135.6542  153.4894 H   0  0  0  0  0  0  0  0  0  0  0  0  # atno 10763 bound_to 10752
  153.0241  135.5259  154.7144 H   0  0  0  0  0  0  0  0  0  0  0  0  # atno 10764 bound_to 10752
  154.6338  135.2979  155.0155 H   0  0  0  0  0  0  0  0  0  0  0  0  # atno 10765 bound_to 10752
  141.1580  133.7643  156.9626 H   0  0  0  0  0  0  0  0  0  0  0  0  # atno 11005 bound_to 11000
  145.1949  140.9828  143.4189 LP  0  0  0  0  0  0  0  0  0  0  0  0  # atno 17320 bound_to 7965
  144.9824  139.3770  143.6255 LP  0  0  0  0  0  0  0  0  0  0  0  0  # atno 17321 bound_to 7965
  139.6340  144.0666  152.2500 LP  0  0  0  0  0  0  0  0  0  0  0  0  # atno 17342 bound_to 10162
  140.0150  144.6196  150.7615 LP  0  0  0  0  0  0  0  0  0  0  0  0  # atno 17343 bound_to 10162
  157.0510  130.5787  149.5370 LP  0  0  0  0  0  0  0  0  0  0  0  0  # atno 17370 bound_to 10713
  156.0091  130.5181  150.7930 LP  0  0  0  0  0  0  0  0  0  0  0  0  # atno 17371 bound_to 10713
  140.1183  134.9433  157.2166 LP  0  0  0  0  0  0  0  0  0  0  0  0  # atno 17394 bound_to 11000
  140.3105  134.3029  155.7268 LP  0  0  0  0  0  0  0  0  0  0  0  0  # atno 17395 bound_to 11000

$$$$
