AV-unprocessed.smi:199|AV-procd|sdf|1567|dock2
  -GOLD-   2262019443D 1   1.00000     0.00000
 Structure written by MMmdl.
 51 55  0  0  0  0  0  0  0  0  1 V2000
  151.2034  140.8922  157.1419 C   0  0  0  0  0  0  0  0  0  0  0  0
  151.5017  140.3468  155.7367 C   0  0  1  0  0  0  0  0  0  0  0  0
  152.6273  139.4787  155.8455 O   0  0  0  0  0  0  0  0  0  0  0  0
  152.5097  138.4460  154.8829 C   0  0  0  0  0  0  0  0  0  0  0  0
  151.0231  138.1285  154.9230 C   0  0  0  0  0  0  0  0  0  0  0  0
  150.3816  139.5064  155.0599 C   0  0  2  0  0  0  0  0  0  0  0  0
  150.1873  140.0267  153.7547 O   0  0  0  0  0  0  0  0  0  0  0  0
  149.0043  139.4845  155.7747 C   0  0  0  0  0  0  0  0  0  0  0  0
  147.9767  138.7733  155.0285 N   0  0  0  0  0  0  0  0  0  0  0  0
  146.9617  139.3337  154.2885 C   0  0  0  0  0  0  0  0  0  0  0  0
  146.1637  138.4815  153.7075 N   0  0  0  0  0  0  0  0  0  0  0  0
  146.6602  137.2344  154.0706 C   0  0  0  0  0  0  0  0  0  0  0  0
  146.2881  135.8847  153.7918 C   0  0  0  0  0  0  0  0  0  0  0  0
  145.2381  135.5073  153.0097 N   0  0  0  0  0  0  0  0  0  0  0  0
  145.2904  135.5992  151.5577 C   0  0  2  0  0  0  0  0  0  0  0  0
  143.8474  135.2517  151.1538 C   0  0  0  0  0  0  0  0  0  0  0  0
  143.4762  134.2144  152.2229 C   0  0  0  0  0  0  0  0  0  0  0  0
  144.7897  134.1204  153.0211 C   0  0  1  0  0  0  0  0  0  0  0  0
  145.8952  133.3869  152.2173 C   0  0  1  0  0  0  0  0  0  0  0  0
  145.5387  131.9869  151.6844 C   0  0  0  0  0  0  0  0  0  0  0  0
  146.4207  131.6296  150.6417 O   0  0  0  0  0  0  0  0  0  0  0  0
  146.2164  134.4392  151.1383 C   0  0  0  0  0  0  0  0  0  0  0  0
  147.0314  134.9055  154.3722 N   0  0  0  0  0  0  0  0  0  0  0  0
  148.0734  135.2103  155.1494 C   0  0  0  0  0  0  0  0  0  0  0  0
  148.5403  136.4137  155.4816 N   0  0  0  0  0  0  0  0  0  0  0  0
  147.7963  137.4056  154.9149 C   0  0  0  0  0  0  0  0  0  0  0  0
  150.3545  141.5757  157.1335 H   0  0  0  0  0  0  0  0  0  0  0  0
  152.0607  141.4439  157.5283 H   0  0  0  0  0  0  0  0  0  0  0  0
  150.9895  140.0879  157.8462 H   0  0  0  0  0  0  0  0  0  0  0  0
  151.7895  141.1837  155.0975 H   0  0  0  0  0  0  0  0  0  0  0  0
  152.8090  138.8177  153.9017 H   0  0  0  0  0  0  0  0  0  0  0  0
  153.1323  137.5874  155.1349 H   0  0  0  0  0  0  0  0  0  0  0  0
  150.6780  137.5633  154.0562 H   0  0  0  0  0  0  0  0  0  0  0  0
  150.8207  137.5307  155.8123 H   0  0  0  0  0  0  0  0  0  0  0  0
  149.2670  140.2064  153.6381 H   0  0  0  0  0  0  0  0  0  0  0  0
  149.0884  139.0128  156.7540 H   0  0  0  0  0  0  0  0  0  0  0  0
  148.6506  140.5013  155.9519 H   0  0  0  0  0  0  0  0  0  0  0  0
  146.8337  140.4016  154.1882 H   0  0  0  0  0  0  0  0  0  0  0  0
  145.5910  136.5637  151.1536 H   0  0  0  0  0  0  0  0  0  0  0  0
  143.1996  136.1260  151.2278 H   0  0  0  0  0  0  0  0  0  0  0  0
  143.7761  134.8608  150.1381 H   0  0  0  0  0  0  0  0  0  0  0  0
  142.6753  134.5987  152.8558 H   0  0  0  0  0  0  0  0  0  0  0  0
  143.1373  133.2661  151.8085 H   0  0  0  0  0  0  0  0  0  0  0  0
  144.6340  133.6997  154.0153 H   0  0  0  0  0  0  0  0  0  0  0  0
  146.7641  133.2822  152.8701 H   0  0  0  0  0  0  0  0  0  0  0  0
  145.6226  131.2457  152.4797 H   0  0  0  0  0  0  0  0  0  0  0  0
  144.5188  131.9470  151.3031 H   0  0  0  0  0  0  0  0  0  0  0  0
  147.2527  131.3910  151.0214 H   0  0  0  0  0  0  0  0  0  0  0  0
  146.0157  134.0962  150.1227 H   0  0  0  0  0  0  0  0  0  0  0  0
  147.2655  134.7328  151.1906 H   0  0  0  0  0  0  0  0  0  0  0  0
  148.6089  134.3692  155.5642 H   0  0  0  0  0  0  0  0  0  0  0  0
  1  2  1  0  0  0  0
  1 27  1  0  0  0  0
  1 28  1  0  0  0  0
  1 29  1  0  0  0  0
  2  6  1  0  0  0  0
  2  3  1  0  0  0  0
  2 30  1  0  0  0  0
  3  4  1  0  0  0  0
  4  5  1  0  0  0  0
  4 31  1  0  0  0  0
  4 32  1  0  0  0  0
  5  6  1  0  0  0  0
  5 33  1  0  0  0  0
  5 34  1  0  0  0  0
  6  7  1  0  0  0  0
  6  8  1  0  0  0  0
  7 35  1  0  0  0  0
  8  9  1  0  0  0  0
  8 36  1  0  0  0  0
  8 37  1  0  0  0  0
  9 26  1  0  0  0  0
  9 10  1  0  0  0  0
 10 11  2  0  0  0  0
 10 38  1  0  0  0  0
 11 12  1  0  0  0  0
 12 26  2  0  0  0  0
 12 13  1  0  0  0  0
 13 14  1  0  0  0  0
 13 23  2  0  0  0  0
 14 18  1  0  0  0  0
 14 15  1  0  0  0  0
 15 22  1  0  0  0  0
 15 16  1  0  0  0  0
 15 39  1  0  0  0  0
 16 17  1  0  0  0  0
 16 40  1  0  0  0  0
 16 41  1  0  0  0  0
 17 18  1  0  0  0  0
 17 42  1  0  0  0  0
 17 43  1  0  0  0  0
 18 19  1  0  0  0  0
 18 44  1  0  0  0  0
 19 20  1  0  0  0  0
 19 22  1  0  0  0  0
 19 45  1  0  0  0  0
 20 21  1  0  0  0  0
 20 46  1  0  0  0  0
 20 47  1  0  0  0  0
 21 48  1  0  0  0  0
 22 49  1  0  0  0  0
 22 50  1  0  0  0  0
 23 24  1  0  0  0  0
 24 25  2  0  0  0  0
 24 51  1  0  0  0  0
 25 26  1  0  0  0  0
M  END
> <s_m_source_file>
AV-unprocessed.smi

> <i_m_source_file_index>
199

> <i_lp_mmshare_version>
43012

> <i_f3d_flags>
0

> <s_epik_input>
W0NIMl0xW0NIMl1PW0NAQEhdKFtDSDNdKVtDQEBdMShbT0hdKVtDSDJdbihbY0hdbjIpYyhjMjMpbltjSF1uYzNOKFtDQEBIXTQ1KVtDQEhdKFtDSDJdW0NIMl00KVtDQEhdKFtDSDJdNSlbQ0gyXVtPSF0=

> <s_epik_cmdline>
J2VwaWtfcHl0aG9uJywgJy1waCcsICc3LjAnLCAnLXRuJywgJzgnLCAnLW1hJywgJzIwMCcsICctbWV0YWxfYmluZGluZycsICctaW1hZScsICc8aW5maWxlLm1hZT4nLCAnLW9tYWUnLCAnPG91dGZpbGUubWFlPic=

> <r_lp_tautomer_probability>
1

> <r_epik_Ionization_Penalty>
0.00583903

> <r_epik_Ionization_Penalty_Charging>
0

> <r_epik_Ionization_Penalty_Neutral>
0.00583903

> <r_epik_State_Penalty>
-0

> <r_epik_Charging_Adjusted_Penalty>
0

> <i_epik_Tot_Q>
0

> <i_epik_Tot_abs_Q>
0

> <r_epik_Metal_State_Penalty>
-0

> <b_epik_Metal_Only>
0

> <s_lp_Force_Field>
OPLS_2005

> <r_lp_Energy>
84.1045

> <b_lp_Chiralities_Consistent>
1

> <s_lp_Variant>
AV-unprocessed.smi:199-8

> <Gold.Version>
5.8.1

> <Gold.Id.Protein>
6NUR|6NUR_protein|mol2

> <Gold.PLP.Fitness>
42.5152

> <Gold.PLP.PLP>
-35.4220

> <Gold.PLP.part.hbond>
-4.0000

> <Gold.PLP.part.metal>
0.0000

> <Gold.PLP.part.buried>
-6.5426

> <Gold.PLP.part.nonpolar>
-25.8765

> <Gold.PLP.part.repulsive>
0.4204

> <Gold.PLP.ligand.clash>
0.0000

> <Gold.PLP.ligand.torsion>
0.7237

> <Gold.PLP.Chemscore.Hbond>
2.8240

> <Gold.PLP.Chemscore.CHOScore>
0.0000

> <Gold.PLP.Chemscore.Metal>
0.0000

> <Gold.Chemscore.Hbonds>
donor molecule, donor type, donor heavy atom, donor atom, acceptor molecule, acceptor atom, score
      L1  H    21    48       P1 10747  0.67
      P1  H  7989  7998       L1     7  0.83
      P1  H  7997  8010       L1     3  1.00

> <Gold.PLP.Chemscore.Internal.Correction>
0.0685

> <Gold.Rescore>
     Score         DG    S(hbond)    S(metal)    S(lipo)     H(rot)  DE(clash)    DE(int)     intcor
     13.18     -15.30       2.74        0.00      72.94       3.07       0.00       2.12       ----

> <Gold.Chemscore.Fitness>
13.1823

> <Gold.Chemscore.DG>
-15.3009

> <Gold.Chemscore.ZeroCoef>
-5.4800

> <Gold.Chemscore.Hbond>
2.7406

> <Gold.Chemscore.Metal>
0.0000

> <Gold.Chemscore.Lipo>
72.9407

> <Gold.Chemscore.Internal_Hbond>
0.0000

> <Gold.Chemscore.DEClash>
0.0033

> <Gold.Chemscore.DEInternal>
2.1153

> <Gold.Chemscore.Rot>
3.0729

> <Gold.Chemscore.Internal.Correction>
   9.000000E+99

> <Gold.Chemscore.Hbonds>
donor molecule, donor type, donor heavy atom, donor atom, acceptor molecule, acceptor atom, score
      L1  H    21    48       P1 10747  0.67
      P1  H  7989  7998       L1     7  0.33
      P1  H  7997  8010       L1     3  0.96

> <Gold.Chemscore.Hbond.Weighted>
-9.1535

> <Gold.Chemscore.Metal.Weighted>
-0.0000

> <Gold.Chemscore.Lipo.Weighted>
-8.5341

> <Gold.Chemscore.Internal_Hbond.Weighted>
0.0000

> <Gold.Chemscore.DEClash.Weighted>
0.0033

> <Gold.Chemscore.DEInternal.Weighted>
2.1153

> <Gold.Chemscore.Rot.Weighted>
7.8667

> <Gold.Chemscore.Internal.Correction.Weighted>
   9.000000E+99

> <Gold.Protein.RotatedTorsions>
[ 6907 6896 6895 6894 ] final   19.38 input  -60.11 | X-H torsion
[ 7974 7965 7964 7962 ] final   25.11 input  175.53 | X-H torsion
[ 8008 7997 7996 7995 ] final   80.49 input   59.86 | X-H torsion
[ 10167 10162 10161 10158 ] final  120.59 input  -65.29 | X-H torsion
[ 10718 10713 10712 10709 ] final  -60.02 input   66.30 | X-H torsion
[ 10763 10752 10751 10750 ] final  110.90 input  -60.55 | X-H torsion
[ 11005 11000 10999 10996 ] final   97.61 input  -57.11 | X-H torsion

> <Gold.Protein.ActiveResidues>
 VAL166  LYS551  ARG553  GLY616  TRP617  ASP618  TYR619  PRO620  LYS621  CYS622 
 ASP623  PHE694  ASN695  SER759  ASP760  ASP761  ALA762  ILE779  LEU786  VAL792 
 PHE793  MET794  SER795  GLU796  ALA797  LYS798  CYS799  TRP800  GLU811  SER814 

> <Gold.Protein.RotatedAtoms>
  151.8800  135.0457  160.0487 H   0  0  0  0  0  0  0  0  0  0  0  0  # atno 6907 bound_to 6896
  152.2520  133.5219  159.5339 H   0  0  0  0  0  0  0  0  0  0  0  0  # atno 6908 bound_to 6896
  150.7087  134.0863  159.3958 H   0  0  0  0  0  0  0  0  0  0  0  0  # atno 6909 bound_to 6896
  146.1904  139.7511  142.8835 H   0  0  0  0  0  0  0  0  0  0  0  0  # atno 7974 bound_to 7965
  155.8842  140.3442  155.5909 H   0  0  0  0  0  0  0  0  0  0  0  0  # atno 8008 bound_to 7997
  155.7685  140.0842  157.2139 H   0  0  0  0  0  0  0  0  0  0  0  0  # atno 8009 bound_to 7997
  154.4027  140.1522  156.2902 H   0  0  0  0  0  0  0  0  0  0  0  0  # atno 8010 bound_to 7997
  139.5973  144.7045  151.3146 H   0  0  0  0  0  0  0  0  0  0  0  0  # atno 10167 bound_to 10162
  156.1020  130.4185  150.0796 H   0  0  0  0  0  0  0  0  0  0  0  0  # atno 10718 bound_to 10713
  153.4555  135.3734  155.2308 H   0  0  0  0  0  0  0  0  0  0  0  0  # atno 10763 bound_to 10752
  154.8757  135.3896  154.3987 H   0  0  0  0  0  0  0  0  0  0  0  0  # atno 10764 bound_to 10752
  153.4552  135.7086  153.6148 H   0  0  0  0  0  0  0  0  0  0  0  0  # atno 10765 bound_to 10752
  139.8775  134.9009  156.4333 H   0  0  0  0  0  0  0  0  0  0  0  0  # atno 11005 bound_to 11000
  145.3808  141.0358  143.3178 LP  0  0  0  0  0  0  0  0  0  0  0  0  # atno 17320 bound_to 7965
  144.8477  139.5371  143.6871 LP  0  0  0  0  0  0  0  0  0  0  0  0  # atno 17321 bound_to 7965
  140.7222  143.7105  150.7773 LP  0  0  0  0  0  0  0  0  0  0  0  0  # atno 17342 bound_to 10162
  140.0674  143.5095  152.2597 LP  0  0  0  0  0  0  0  0  0  0  0  0  # atno 17343 bound_to 10162
  156.8781  130.9547  151.3602 LP  0  0  0  0  0  0  0  0  0  0  0  0  # atno 17370 bound_to 10713
  157.6191  130.8641  149.9079 LP  0  0  0  0  0  0  0  0  0  0  0  0  # atno 17371 bound_to 10713
  140.9051  133.7751  155.9725 LP  0  0  0  0  0  0  0  0  0  0  0  0  # atno 17394 bound_to 11000
  140.8608  134.2843  157.5235 LP  0  0  0  0  0  0  0  0  0  0  0  0  # atno 17395 bound_to 11000

$$$$
