#       Name:                AV-unprocessed.smi:1111
#       Creating user name   scv26
#       Creation time:       Fri Mar 27 03:33:59 2020


#       File generated by GOLD software.
#

@<TRIPOS>MOLECULE
AV-unprocessed.smi:1111
    35    36     1
SMALL
NO_CHARGES


@<TRIPOS>ATOM
      1 ****        -2.0865   2.2309   0.6411 C.3            1 S1                 0.0000
      2 ****        -1.4565   0.8312   0.4846 C.3            1 S1                 0.0000
      3 ****         0.0072   0.9234   0.4245 N.am           1 S1                 0.0000
      4 ****         0.7696   1.5351  -0.4986 C.2            1 S1                 0.0000
      5 ****         0.3247   2.2189  -1.4194 O.2            1 S1                 0.0000
      6 ****         2.2760   1.3102  -0.3753 C.3            1 S1                 0.0000
      7 ****         2.6224  -0.0422  -0.7715 N.pl3          1 S1                 0.0000
      8 ****         2.7443  -1.1542   0.0529 C.2            1 S1                 0.0000
      9 ****         3.0642  -2.2152  -0.7636 C.2            1 S1                 0.0000
     10 ****         3.1452  -1.7824  -2.0851 N.2            1 S1                 0.0000
     11 ****         2.8698  -0.4868  -2.0117 C.2            1 S1                 0.0000
     12 ****        -1.8058  -0.0511   1.7072 C.3            1 S1                 0.0000
     13 ****        -1.5089  -1.5229   1.3872 C.3            1 S1                 0.0000
     14 ****        -1.7899  -1.7075  -0.4122 S.o2           1 S1                 0.0000
     15 ****        -0.5441  -2.1732  -1.0402 O.2            1 S1                 0.0000
     16 ****        -3.0643  -2.4032  -0.6469 O.2            1 S1                 0.0000
     17 ****        -2.0099   0.0814  -0.7489 C.3            1 S1                 0.0000
     18 ****        -3.1661   2.1642   0.7790 H              1 S1                 0.0000
     19 ****        -1.9166   2.8563  -0.2352 H              1 S1                 0.0000
     20 ****        -1.6782   2.7538   1.5067 H              1 S1                 0.0000
     21 ****         0.5007   0.4002   1.1333 H              1 S1                 0.0000
     22 ****         2.8176   2.0163  -1.0064 H              1 S1                 0.0000
     23 ****         2.5995   1.4775   0.6530 H              1 S1                 0.0000
     24 ****         2.5919  -1.1017   1.1207 H              1 S1                 0.0000
     25 ****         3.2384  -3.2489  -0.5039 H              1 S1                 0.0000
     26 ****         2.8427   0.1538  -2.8813 H              1 S1                 0.0000
     27 ****        -1.2871   0.2719   2.6108 H              1 S1                 0.0000
     28 ****        -2.8727   0.0397   1.9167 H              1 S1                 0.0000
     29 ****        -0.4660  -1.7659   1.5919 H              1 S1                 0.0000
     30 ****        -2.1435  -2.2145   1.9413 H              1 S1                 0.0000
     31 ****        -3.0805   0.2595  -0.8548 H              1 S1                 0.0000
     32 ****        -1.5371   0.3447  -1.6948 H              1 S1                 0.0000
     33 ****        -0.6624   2.3474  -1.5151 LP             1 S1                 0.0000
     34 ****         0.9501   2.6463  -2.0723 LP             1 S1                 0.0000
     35 ****         3.3606  -2.3221  -2.8989 LP             1 S1                 0.0000
@<TRIPOS>BOND
    1    1    2 1     
    2    1   18 1     
    3    1   19 1     
    4    1   20 1     
    5    2   17 1     
    6    2    3 1     
    7    2   12 1     
    8    3    4 am    
    9    3   21 1     
   10    4    5 2     
   11    4    6 1     
   12    6    7 1     
   13    6   22 1     
   14    6   23 1     
   15    7   11 1     
   16    7    8 1     
   17    8    9 2     
   18    8   24 1     
   19    9   10 1     
   20    9   25 1     
   21   10   11 2     
   22   11   26 1     
   23   12   13 1     
   24   12   27 1     
   25   12   28 1     
   26   13   14 1     
   27   13   29 1     
   28   13   30 1     
   29   14   15 2     
   30   14   16 2     
   31   14   17 1     
   32   17   31 1     
   33   17   32 1     
   34    5   33 1     
   35    5   34 1     
   36   10   35 1     
@<TRIPOS>SUBSTRUCTURE
      1 S1             1
@<TRIPOS>SET
LONE_PAIRS      STATIC     ATOMS    <user>   **** ""
5 33 34 35 15 16
DONOR_HYDROGENS      STATIC     ATOMS    <user>   **** ""
1 21
ATOM$BLUE        STATIC     ATOMS    COLORGROUP SYSTEM
5 33 34 35 15 16
ATOM$RED        STATIC     ATOMS    COLORGROUP SYSTEM
1 21
