AV-unprocessed.smi:2360|AV-procd|sdf|9409|dock7
  -GOLD-   2272013 43D 1   1.00000     0.00000
 Structure written by MMmdl.
 34 35  0  0  0  0  0  0  0  0  1 V2000
  147.4082  139.4959  153.3501 C   0  0  0  0  0  0  0  0  0  0  0  0
  148.5296  139.9720  154.2566 C   0  0  0  0  0  0  0  0  0  0  0  0
  148.7039  141.3573  154.3247 N   0  0  0  0  0  0  0  0  0  0  0  0
  149.6379  141.8541  155.0680 C   0  0  0  0  0  0  0  0  0  0  0  0
  150.4968  141.0353  155.8190 N   0  0  0  0  0  0  0  0  0  0  0  0
  151.5198  141.7258  156.6226 C   0  0  0  0  0  0  0  0  0  0  0  0
  150.9348  142.9065  157.4290 C   0  0  2  0  0  0  0  0  0  0  0  0
  151.1950  144.1070  156.7283 O   0  0  0  0  0  0  0  0  0  0  0  0
  151.5189  142.9478  158.8330 C   0  0  0  0  0  0  0  0  0  0  0  0
  151.0969  143.9429  159.7408 C   0  0  0  0  0  0  0  0  0  0  0  0
  151.6246  143.9836  161.0460 C   0  0  0  0  0  0  0  0  0  0  0  0
  152.5757  143.0280  161.4525 C   0  0  0  0  0  0  0  0  0  0  0  0
  153.0817  143.0687  162.7078 F   0  0  0  0  0  0  0  0  0  0  0  0
  152.9975  142.0296  160.5528 C   0  0  0  0  0  0  0  0  0  0  0  0
  153.9098  141.1074  160.9418 F   0  0  0  0  0  0  0  0  0  0  0  0
  152.4697  141.9887  159.2476 C   0  0  0  0  0  0  0  0  0  0  0  0
  150.3891  139.6749  155.8182 C   0  0  0  0  0  0  0  0  0  0  0  0
  151.1385  138.9664  156.4935 O   0  0  0  0  0  0  0  0  0  0  0  0
  149.3244  139.1238  154.9644 C   0  0  0  0  0  0  0  0  0  0  0  0
  149.1818  137.6072  154.9294 C   0  0  0  0  0  0  0  0  0  0  0  0
  147.8017  138.8541  152.5615 H   0  0  0  0  0  0  0  0  0  0  0  0
  146.8988  140.3345  152.8736 H   0  0  0  0  0  0  0  0  0  0  0  0
  146.6675  138.9351  153.9206 H   0  0  0  0  0  0  0  0  0  0  0  0
  149.8124  142.9276  155.1593 H   0  0  0  0  0  0  0  0  0  0  0  0
  151.9479  140.9976  157.3145 H   0  0  0  0  0  0  0  0  0  0  0  0
  152.3701  142.0556  156.0216 H   0  0  0  0  0  0  0  0  0  0  0  0
  149.8521  142.8056  157.5147 H   0  0  0  0  0  0  0  0  0  0  0  0
  150.3696  144.5241  156.5330 H   0  0  0  0  0  0  0  0  0  0  0  0
  150.3645  144.6781  159.4404 H   0  0  0  0  0  0  0  0  0  0  0  0
  151.2982  144.7477  161.7360 H   0  0  0  0  0  0  0  0  0  0  0  0
  152.7955  141.2167  158.5660 H   0  0  0  0  0  0  0  0  0  0  0  0
  148.9747  137.2258  155.9297 H   0  0  0  0  0  0  0  0  0  0  0  0
  150.1078  137.1510  154.5779 H   0  0  0  0  0  0  0  0  0  0  0  0
  148.3805  137.2656  154.2763 H   0  0  0  0  0  0  0  0  0  0  0  0
  1  2  1  0  0  0  0
  1 21  1  0  0  0  0
  1 22  1  0  0  0  0
  1 23  1  0  0  0  0
  2 19  2  0  0  0  0
  2  3  1  0  0  0  0
  3  4  2  0  0  0  0
  4  5  1  0  0  0  0
  4 24  1  0  0  0  0
  5  6  1  0  0  0  0
  5 17  1  0  0  0  0
  6  7  1  0  0  0  0
  6 25  1  0  0  0  0
  6 26  1  0  0  0  0
  7  8  1  0  0  0  0
  7  9  1  0  0  0  0
  7 27  1  0  0  0  0
  8 28  1  0  0  0  0
  9 16  1  0  0  0  0
  9 10  2  0  0  0  0
 10 11  1  0  0  0  0
 10 29  1  0  0  0  0
 11 12  2  0  0  0  0
 11 30  1  0  0  0  0
 12 13  1  0  0  0  0
 12 14  1  0  0  0  0
 14 15  1  0  0  0  0
 14 16  2  0  0  0  0
 16 31  1  0  0  0  0
 17 18  2  0  0  0  0
 17 19  1  0  0  0  0
 19 20  1  0  0  0  0
 20 32  1  0  0  0  0
 20 33  1  0  0  0  0
 20 34  1  0  0  0  0
M  END
> <s_m_source_file>
AV-unprocessed.smi

> <i_m_source_file_index>
2360

> <i_lp_mmshare_version>
43012

> <i_f3d_flags>
0

> <s_epik_input>
W0NIM11jMW5bY0hdbihjKD1PKWMxW0NIM10pW0NIMl1bQ0BIXShbT0hdKWMyW2NIXVtjSF1jKEYpYyhGKVtjSF0y

> <s_epik_cmdline>
J2VwaWtfcHl0aG9uJywgJy1waCcsICc3LjAnLCAnLXRuJywgJzgnLCAnLW1hJywgJzIwMCcsICctbWV0YWxfYmluZGluZycsICctaW1hZScsICc8aW5maWxlLm1hZT4nLCAnLW9tYWUnLCAnPG91dGZpbGUubWFlPic=

> <r_lp_tautomer_probability>
1

> <r_epik_Ionization_Penalty>
5.07449e-05

> <r_epik_Ionization_Penalty_Charging>
7.56727e-08

> <r_epik_Ionization_Penalty_Neutral>
5.06692e-05

> <r_epik_State_Penalty>
-0

> <r_epik_Charging_Adjusted_Penalty>
7.56727e-08

> <i_epik_Tot_Q>
0

> <i_epik_Tot_abs_Q>
0

> <r_epik_Metal_State_Penalty>
-0

> <b_epik_Metal_Only>
0

> <s_lp_Force_Field>
OPLS_2005

> <r_lp_Energy>
18.6732

> <b_lp_Chiralities_Consistent>
1

> <s_lp_Variant>
AV-unprocessed.smi:2360-1

> <Gold.Version>
5.8.1

> <Gold.Id.Protein>
6NUR|6NUR_protein|mol2

> <Gold.PLP.Fitness>
47.7191

> <Gold.PLP.PLP>
-43.1346

> <Gold.PLP.part.hbond>
-1.2644

> <Gold.PLP.part.metal>
0.0000

> <Gold.PLP.part.buried>
-3.8250

> <Gold.PLP.part.nonpolar>
-37.8164

> <Gold.PLP.part.repulsive>
0.1519

> <Gold.PLP.ligand.clash>
0.0000

> <Gold.PLP.ligand.torsion>
0.7104

> <Gold.PLP.Chemscore.Hbond>
1.0000

> <Gold.PLP.Chemscore.CHOScore>
1.0000

> <Gold.PLP.Chemscore.Metal>
0.0000

> <Gold.Chemscore.Hbonds>
donor molecule, donor type, donor heavy atom, donor atom, acceptor molecule, acceptor atom, score
      L1  H     8    28       P1  8028  1.00
      L1  C     4    24       P1  8028  1.00

> <Gold.PLP.Chemscore.Internal.Correction>
0.0053

> <Gold.Rescore>
     Score         DG    S(hbond)    S(metal)    S(lipo)     H(rot)  DE(clash)    DE(int)     intcor
     13.41     -14.92       1.00        0.00      98.42       2.11       0.79       0.72       ----

> <Gold.Chemscore.Fitness>
13.4110

> <Gold.Chemscore.DG>
-14.9232

> <Gold.Chemscore.ZeroCoef>
-5.4800

> <Gold.Chemscore.Hbond>
0.9967

> <Gold.Chemscore.Metal>
0.0000

> <Gold.Chemscore.Lipo>
98.4214

> <Gold.Chemscore.Internal_Hbond>
0.0000

> <Gold.Chemscore.DEClash>
0.7935

> <Gold.Chemscore.DEInternal>
0.7187

> <Gold.Chemscore.Rot>
2.1097

> <Gold.Chemscore.Internal.Correction>
   9.000000E+99

> <Gold.Chemscore.Hbonds>
donor molecule, donor type, donor heavy atom, donor atom, acceptor molecule, acceptor atom, score
      L1  H     8    28       P1  8028  0.96

> <Gold.Chemscore.Hbond.Weighted>
-3.3288

> <Gold.Chemscore.Metal.Weighted>
-0.0000

> <Gold.Chemscore.Lipo.Weighted>
-11.5153

> <Gold.Chemscore.Internal_Hbond.Weighted>
0.0000

> <Gold.Chemscore.DEClash.Weighted>
0.7935

> <Gold.Chemscore.DEInternal.Weighted>
0.7187

> <Gold.Chemscore.Rot.Weighted>
5.4009

> <Gold.Chemscore.Internal.Correction.Weighted>
   9.000000E+99

> <Gold.Protein.RotatedTorsions>
[ 6907 6896 6895 6894 ] final   -3.42 input  -60.11 | X-H torsion
[ 7974 7965 7964 7962 ] final  100.03 input  175.53 | X-H torsion
[ 8008 7997 7996 7995 ] final  -29.43 input   59.86 | X-H torsion
[ 10167 10162 10161 10158 ] final   51.52 input  -65.29 | X-H torsion
[ 10718 10713 10712 10709 ] final -124.25 input   66.30 | X-H torsion
[ 10763 10752 10751 10750 ] final   41.59 input  -60.55 | X-H torsion
[ 11005 11000 10999 10996 ] final   90.96 input  -57.11 | X-H torsion

> <Gold.Protein.ActiveResidues>
 VAL166  LYS551  ARG553  GLY616  TRP617  ASP618  TYR619  PRO620  LYS621  CYS622 
 ASP623  PHE694  ASN695  SER759  ASP760  ASP761  ALA762  ILE779  LEU786  VAL792 
 PHE793  MET794  SER795  GLU796  ALA797  LYS798  CYS799  TRP800  GLU811  SER814 

> <Gold.Protein.RotatedAtoms>
  151.5140  135.1065  159.9861 H   0  0  0  0  0  0  0  0  0  0  0  0  # atno 6907 bound_to 6896
  152.4649  133.7898  159.6906 H   0  0  0  0  0  0  0  0  0  0  0  0  # atno 6908 bound_to 6896
  150.8628  133.7554  159.3012 H   0  0  0  0  0  0  0  0  0  0  0  0  # atno 6909 bound_to 6896
  145.3909  139.2363  143.3352 H   0  0  0  0  0  0  0  0  0  0  0  0  # atno 7974 bound_to 7965
  154.4290  140.1818  156.1247 H   0  0  0  0  0  0  0  0  0  0  0  0  # atno 8008 bound_to 7997
  156.0115  140.3350  155.6920 H   0  0  0  0  0  0  0  0  0  0  0  0  # atno 8009 bound_to 7997
  155.6104  140.0649  157.2698 H   0  0  0  0  0  0  0  0  0  0  0  0  # atno 8010 bound_to 7997
  140.2610  144.3373  150.6318 H   0  0  0  0  0  0  0  0  0  0  0  0  # atno 10167 bound_to 10162
  156.1572  130.6576  150.9998 H   0  0  0  0  0  0  0  0  0  0  0  0  # atno 10718 bound_to 10713
  152.9904  135.6157  154.2813 H   0  0  0  0  0  0  0  0  0  0  0  0  # atno 10763 bound_to 10752
  154.2542  135.2784  155.2806 H   0  0  0  0  0  0  0  0  0  0  0  0  # atno 10764 bound_to 10752
  154.5262  135.5801  153.6778 H   0  0  0  0  0  0  0  0  0  0  0  0  # atno 10765 bound_to 10752
  139.8847  134.8645  156.3359 H   0  0  0  0  0  0  0  0  0  0  0  0  # atno 11005 bound_to 11000
  146.2798  140.4592  142.8781 LP  0  0  0  0  0  0  0  0  0  0  0  0  # atno 17320 bound_to 7965
  144.8441  140.6901  143.6211 LP  0  0  0  0  0  0  0  0  0  0  0  0  # atno 17321 bound_to 7965
  140.5966  143.2167  151.7153 LP  0  0  0  0  0  0  0  0  0  0  0  0  # atno 17342 bound_to 10162
  139.5017  144.3858  152.0330 LP  0  0  0  0  0  0  0  0  0  0  0  0  # atno 17343 bound_to 10162
  157.6704  131.0862  150.7626 LP  0  0  0  0  0  0  0  0  0  0  0  0  # atno 17370 bound_to 10713
  156.7691  130.4823  149.5422 LP  0  0  0  0  0  0  0  0  0  0  0  0  # atno 17371 bound_to 10713
  140.9691  133.7338  156.0510 LP  0  0  0  0  0  0  0  0  0  0  0  0  # atno 17394 bound_to 11000
  140.7893  134.3636  157.5468 LP  0  0  0  0  0  0  0  0  0  0  0  0  # atno 17395 bound_to 11000

$$$$
