AV-unprocessed.smi:1|AV-procd|sdf|8|dock5
  -GOLD-   2262015 93D 1   1.00000     0.00000
 Structure written by MMmdl.
 57 62  0  0  0  0  0  0  0  0  1 V2000
  151.3218  140.9793  157.8332 O   0  0  0  0  0  0  0  0  0  0  0  0
  152.0326  141.1883  158.8169 C   0  0  0  0  0  0  0  0  0  0  0  0
  153.0399  140.2401  159.2591 N   0  0  0  0  0  0  0  0  0  0  0  0
  153.3116  139.0127  158.7570 C   0  0  0  0  0  0  0  0  0  0  0  0
  152.9582  138.6462  157.4979 N   0  0  0  0  0  0  0  0  0  0  0  0
  153.2477  137.4228  157.0497 C   0  0  0  0  0  0  0  0  0  0  0  0
  153.8733  136.4301  157.6846 N   0  0  0  0  0  0  0  0  0  0  0  0
  154.2397  136.7864  158.9512 C   0  0  0  0  0  0  0  0  0  0  0  0
  153.9903  138.0533  159.5525 C   0  0  0  0  0  0  0  0  0  0  0  0
  154.4864  138.0684  160.8481 N   0  0  0  0  0  0  0  0  0  0  0  0
  154.9975  136.8782  161.0023 C   0  0  0  0  0  0  0  0  0  0  0  0
  154.9087  136.0426  159.9101 N   0  0  0  0  0  0  0  0  0  0  0  0
  155.4187  134.6294  159.8316 C   0  0  1  0  0  0  0  0  0  0  0  0
  154.3867  133.7640  159.4701 O   0  0  0  0  0  0  0  0  0  0  0  0
  154.4948  133.4315  158.0913 C   0  0  2  0  0  0  0  0  0  0  0  0
  153.7402  132.1325  157.7974 C   0  0  0  0  0  0  0  0  0  0  0  0
  152.3661  132.4377  157.6294 O   0  0  0  0  0  0  0  0  0  0  0  0
  151.5036  131.4859  157.2269 C   0  0  0  0  0  0  0  0  0  0  0  0
  151.6763  130.2811  157.4223 O   0  0  0  0  0  0  0  0  0  0  0  0
  150.3189  132.0444  156.5133 C   0  0  0  0  0  0  0  0  0  0  0  0
  149.4346  131.1684  155.8415 C   0  0  0  0  0  0  0  0  0  0  0  0
  148.3099  131.6706  155.1577 C   0  0  0  0  0  0  0  0  0  0  0  0
  148.0553  133.0545  155.1386 C   0  0  0  0  0  0  0  0  0  0  0  0
  148.9260  133.9361  155.8056 C   0  0  0  0  0  0  0  0  0  0  0  0
  150.0507  133.4351  156.4897 C   0  0  0  0  0  0  0  0  0  0  0  0
  156.0050  133.3336  157.8893 C   0  0  1  0  0  0  0  0  0  0  0  0
  156.3769  133.5772  156.5439 O   0  0  0  0  0  0  0  0  0  0  0  0
  156.7106  135.2044  156.3632 S   0  0  0  0  0  0  0  0  0  0  0  0
  158.0960  135.3394  155.8883 O   0  0  0  0  0  0  0  0  0  0  0  0
  155.5727  135.8374  155.6792 O   0  0  0  0  0  0  0  0  0  0  0  0
  156.6621  135.6482  157.9713 O   0  0  0  0  0  0  0  0  0  0  0  0
  156.5263  134.4799  158.7679 C   0  0  1  0  0  0  0  0  0  0  0  0
  151.9621  142.4790  159.5802 C   0  0  0  0  0  0  0  0  0  0  0  0
  151.0956  143.5082  159.1482 C   0  0  0  0  0  0  0  0  0  0  0  0
  151.0094  144.7165  159.8664 C   0  0  0  0  0  0  0  0  0  0  0  0
  151.7837  144.9035  161.0269 C   0  0  0  0  0  0  0  0  0  0  0  0
  152.6410  143.8793  161.4713 C   0  0  0  0  0  0  0  0  0  0  0  0
  152.7280  142.6703  160.7539 C   0  0  0  0  0  0  0  0  0  0  0  0
  153.5943  140.5233  160.0539 H   0  0  0  0  0  0  0  0  0  0  0  0
  152.9340  137.2119  156.0383 H   0  0  0  0  0  0  0  0  0  0  0  0
  155.4693  136.5743  161.9256 H   0  0  0  0  0  0  0  0  0  0  0  0
  155.7550  134.4100  160.8456 H   0  0  0  0  0  0  0  0  0  0  0  0
  154.0972  134.2469  157.4858 H   0  0  0  0  0  0  0  0  0  0  0  0
  154.1238  131.6843  156.8798 H   0  0  0  0  0  0  0  0  0  0  0  0
  153.8788  131.4115  158.6040 H   0  0  0  0  0  0  0  0  0  0  0  0
  149.6108  130.1023  155.8417 H   0  0  0  0  0  0  0  0  0  0  0  0
  147.6423  130.9923  154.6473 H   0  0  0  0  0  0  0  0  0  0  0  0
  147.1928  133.4393  154.6145 H   0  0  0  0  0  0  0  0  0  0  0  0
  148.7315  134.9984  155.7945 H   0  0  0  0  0  0  0  0  0  0  0  0
  150.6966  134.1364  156.9959 H   0  0  0  0  0  0  0  0  0  0  0  0
  156.3877  132.3743  158.2401 H   0  0  0  0  0  0  0  0  0  0  0  0
  157.4797  134.2394  159.2390 H   0  0  0  0  0  0  0  0  0  0  0  0
  150.4939  143.3797  158.2598 H   0  0  0  0  0  0  0  0  0  0  0  0
  150.3478  145.4997  159.5265 H   0  0  0  0  0  0  0  0  0  0  0  0
  151.7172  145.8302  161.5777 H   0  0  0  0  0  0  0  0  0  0  0  0
  153.2307  144.0198  162.3651 H   0  0  0  0  0  0  0  0  0  0  0  0
  153.3857  141.8944  161.1183 H   0  0  0  0  0  0  0  0  0  0  0  0
  1  2  2  0  0  0  0
  2  3  1  0  0  0  0
  2 33  1  0  0  0  0
  3  4  1  0  0  0  0
  3 39  1  0  0  0  0
  4  9  1  0  0  0  0
  4  5  2  0  0  0  0
  5  6  1  0  0  0  0
  6  7  2  0  0  0  0
  6 40  1  0  0  0  0
  7  8  1  0  0  0  0
  8 12  1  0  0  0  0
  8  9  2  0  0  0  0
  9 10  1  0  0  0  0
 10 11  2  0  0  0  0
 11 12  1  0  0  0  0
 11 41  1  0  0  0  0
 12 13  1  0  0  0  0
 13 32  1  0  0  0  0
 13 14  1  0  0  0  0
 13 42  1  0  0  0  0
 14 15  1  0  0  0  0
 15 16  1  0  0  0  0
 15 26  1  0  0  0  0
 15 43  1  0  0  0  0
 16 17  1  0  0  0  0
 16 44  1  0  0  0  0
 16 45  1  0  0  0  0
 17 18  1  0  0  0  0
 18 19  2  0  0  0  0
 18 20  1  0  0  0  0
 20 25  1  0  0  0  0
 20 21  2  0  0  0  0
 21 22  1  0  0  0  0
 21 46  1  0  0  0  0
 22 23  2  0  0  0  0
 22 47  1  0  0  0  0
 23 24  1  0  0  0  0
 23 48  1  0  0  0  0
 24 25  2  0  0  0  0
 24 49  1  0  0  0  0
 25 50  1  0  0  0  0
 26 32  1  0  0  0  0
 26 27  1  0  0  0  0
 26 51  1  0  0  0  0
 27 28  1  0  0  0  0
 28 29  2  0  0  0  0
 28 30  2  0  0  0  0
 28 31  1  0  0  0  0
 31 32  1  0  0  0  0
 32 52  1  0  0  0  0
 33 38  1  0  0  0  0
 33 34  2  0  0  0  0
 34 35  1  0  0  0  0
 34 53  1  0  0  0  0
 35 36  2  0  0  0  0
 35 54  1  0  0  0  0
 36 37  1  0  0  0  0
 36 55  1  0  0  0  0
 37 38  2  0  0  0  0
 37 56  1  0  0  0  0
 38 57  1  0  0  0  0
M  END
> <s_m_source_file>
AV-unprocessed.smi

> <i_m_source_file_index>
1

> <i_lp_mmshare_version>
43012

> <i_f3d_flags>
0

> <s_epik_input>
W2NIXTFbY0hdW2NIXVtjSF1bY0hdYzFDKD1PKVtOSF1jKG5bY0hdbjIpYyhjMjMpbltjSF1uM1tDQEBIXShbQ0BIXShbQ0BIXTQ1KU9TKE81KSg9Tyk9TylPW0NASF00W0NIMl1PQyg9TyljNltjSF1bY0hdW2NIXVtjSF1bY0hdNg==

> <s_epik_cmdline>
J2VwaWtfcHl0aG9uJywgJy1waCcsICc3LjAnLCAnLXRuJywgJzgnLCAnLW1hJywgJzIwMCcsICctbWV0YWxfYmluZGluZycsICctaW1hZScsICc8aW5maWxlLm1hZT4nLCAnLW9tYWUnLCAnPG91dGZpbGUubWFlPic=

> <r_lp_tautomer_probability>
1

> <r_epik_Ionization_Penalty>
0.00195722

> <r_epik_Ionization_Penalty_Charging>
0

> <r_epik_Ionization_Penalty_Neutral>
0.00195722

> <r_epik_State_Penalty>
0.00633741

> <r_epik_Charging_Adjusted_Penalty>
0.00633741

> <i_epik_Tot_Q>
0

> <i_epik_Tot_abs_Q>
0

> <r_epik_Metal_State_Penalty>
0.341185

> <b_epik_Metal_Only>
0

> <s_epik_Chemistry_Notes>
This compound has an ester and may undergo hydrolysis at high or low pH. This compound contains an acetal/aminal-like group ( X-CH(R)-Y where X, Y are N, S, or O) that may be acid/base labile, releasing an aldehyde.

> <s_lp_Force_Field>
OPLS_2005

> <r_lp_Energy>
42.577

> <b_lp_Chiralities_Consistent>
1

> <s_lp_Variant>
AV-unprocessed.smi:1-8

> <Gold.Version>
5.8.1

> <Gold.Id.Protein>
6NUR|6NUR_protein|mol2

> <Gold.PLP.Fitness>
59.9953

> <Gold.PLP.PLP>
-52.4952

> <Gold.PLP.part.hbond>
-3.0000

> <Gold.PLP.part.metal>
0.0000

> <Gold.PLP.part.buried>
-6.4768

> <Gold.PLP.part.nonpolar>
-41.6150

> <Gold.PLP.part.repulsive>
0.1712

> <Gold.PLP.ligand.clash>
0.0000

> <Gold.PLP.ligand.torsion>
0.7528

> <Gold.PLP.Chemscore.Hbond>
2.9600

> <Gold.PLP.Chemscore.CHOScore>
0.0000

> <Gold.PLP.Chemscore.Metal>
0.0000

> <Gold.Chemscore.Hbonds>
donor molecule, donor type, donor heavy atom, donor atom, acceptor molecule, acceptor atom, score
      P1  H  6896  6907       L1    14  1.00
      P1  H  7997  8008       L1     5  0.35
      P1  H 10752 10763       L1    30  0.16

> <Gold.PLP.Chemscore.Internal.Correction>
0.1258

> <Gold.Rescore>
     Score         DG    S(hbond)    S(metal)    S(lipo)     H(rot)  DE(clash)    DE(int)     intcor
     14.86     -21.69       2.35        0.00     118.25       2.13       0.21       6.62       ----

> <Gold.Chemscore.Fitness>
14.8582

> <Gold.Chemscore.DG>
-21.6922

> <Gold.Chemscore.ZeroCoef>
-5.4800

> <Gold.Chemscore.Hbond>
2.3467

> <Gold.Chemscore.Metal>
0.0000

> <Gold.Chemscore.Lipo>
118.2519

> <Gold.Chemscore.Internal_Hbond>
0.0000

> <Gold.Chemscore.DEClash>
0.2101

> <Gold.Chemscore.DEInternal>
6.6239

> <Gold.Chemscore.Rot>
2.1333

> <Gold.Chemscore.Internal.Correction>
   9.000000E+99

> <Gold.Chemscore.Hbonds>
donor molecule, donor type, donor heavy atom, donor atom, acceptor molecule, acceptor atom, score
      P1  H  6896  6907       L1    14  0.45
      P1  H  7997  8008       L1     5  0.02
      P1  H 10752 10763       L1    30  0.18

> <Gold.Chemscore.Hbond.Weighted>
-7.8381

> <Gold.Chemscore.Metal.Weighted>
-0.0000

> <Gold.Chemscore.Lipo.Weighted>
-13.8355

> <Gold.Chemscore.Internal_Hbond.Weighted>
0.0000

> <Gold.Chemscore.DEClash.Weighted>
0.2101

> <Gold.Chemscore.DEInternal.Weighted>
6.6239

> <Gold.Chemscore.Rot.Weighted>
5.4614

> <Gold.Chemscore.Internal.Correction.Weighted>
   9.000000E+99

> <Gold.Protein.RotatedTorsions>
[ 6907 6896 6895 6894 ] final  105.53 input  -60.11 | X-H torsion
[ 7974 7965 7964 7962 ] final  -96.35 input  175.53 | X-H torsion
[ 8008 7997 7996 7995 ] final  -58.08 input   59.86 | X-H torsion
[ 10167 10162 10161 10158 ] final  -65.28 input  -65.29 | X-H torsion
[ 10718 10713 10712 10709 ] final -152.88 input   66.30 | X-H torsion
[ 10763 10752 10751 10750 ] final -166.65 input  -60.55 | X-H torsion
[ 11005 11000 10999 10996 ] final  -83.45 input  -57.11 | X-H torsion

> <Gold.Protein.ActiveResidues>
 VAL166  LYS551  ARG553  GLY616  TRP617  ASP618  TYR619  PRO620  LYS621  CYS622 
 ASP623  PHE694  ASN695  SER759  ASP760  ASP761  ALA762  ILE779  LEU786  VAL792 
 PHE793  MET794  SER795  GLU796  ALA797  LYS798  CYS799  TRP800  GLU811  SER814 

> <Gold.Protein.RotatedAtoms>
  152.5227  133.9515  159.7673 H   0  0  0  0  0  0  0  0  0  0  0  0  # atno 6907 bound_to 6896
  150.9824  133.6224  159.2727 H   0  0  0  0  0  0  0  0  0  0  0  0  # atno 6908 bound_to 6896
  151.3396  135.0866  159.9419 H   0  0  0  0  0  0  0  0  0  0  0  0  # atno 6909 bound_to 6896
  145.3480  140.9471  143.2570 H   0  0  0  0  0  0  0  0  0  0  0  0  # atno 7974 bound_to 7965
  154.4294  140.1092  156.5900 H   0  0  0  0  0  0  0  0  0  0  0  0  # atno 8008 bound_to 7997
  155.6022  140.3493  155.4578 H   0  0  0  0  0  0  0  0  0  0  0  0  # atno 8009 bound_to 7997
  156.0164  140.1230  157.0391 H   0  0  0  0  0  0  0  0  0  0  0  0  # atno 8010 bound_to 7997
  140.5741  143.2320  151.6478 H   0  0  0  0  0  0  0  0  0  0  0  0  # atno 10167 bound_to 10162
  156.4784  130.8291  151.2519 H   0  0  0  0  0  0  0  0  0  0  0  0  # atno 10718 bound_to 10713
  154.6812  135.2955  154.9610 H   0  0  0  0  0  0  0  0  0  0  0  0  # atno 10763 bound_to 10752
  154.0605  135.6632  153.4815 H   0  0  0  0  0  0  0  0  0  0  0  0  # atno 10764 bound_to 10752
  153.0548  135.5151  154.7856 H   0  0  0  0  0  0  0  0  0  0  0  0  # atno 10765 bound_to 10752
  141.1657  133.7295  156.8722 H   0  0  0  0  0  0  0  0  0  0  0  0  # atno 11005 bound_to 11000
  144.8739  139.4998  143.6754 LP  0  0  0  0  0  0  0  0  0  0  0  0  # atno 17320 bound_to 7965
  146.2980  139.7337  142.9112 LP  0  0  0  0  0  0  0  0  0  0  0  0  # atno 17321 bound_to 7965
  139.5133  144.3447  152.0708 LP  0  0  0  0  0  0  0  0  0  0  0  0  # atno 17342 bound_to 10162
  140.2588  144.4089  150.6193 LP  0  0  0  0  0  0  0  0  0  0  0  0  # atno 17343 bound_to 10162
  157.7485  131.0053  150.3108 LP  0  0  0  0  0  0  0  0  0  0  0  0  # atno 17370 bound_to 10713
  156.3546  130.3837  149.7300 LP  0  0  0  0  0  0  0  0  0  0  0  0  # atno 17371 bound_to 10713
  140.1774  134.9057  157.2907 LP  0  0  0  0  0  0  0  0  0  0  0  0  # atno 17394 bound_to 11000
  140.2434  134.3769  155.7471 LP  0  0  0  0  0  0  0  0  0  0  0  0  # atno 17395 bound_to 11000

$$$$
