AV-unprocessed.smi:72|AV-procd|sdf|682|dock10
  -GOLD-   2262016593D 1   1.00000     0.00000
 Structure written by MMmdl.
 29 30  0  0  0  0  0  0  0  0  1 V2000
  154.1717  138.2268  154.6857 N   0  0  0  0  0  0  0  0  0  0  0  0
  152.9002  138.4031  154.7379 C   0  0  0  0  0  0  0  0  0  0  0  0
  151.9348  137.4897  154.2887 N   0  0  0  0  0  0  0  0  0  0  0  0
  150.6814  137.8039  154.4072 C   0  0  0  0  0  0  0  0  0  0  0  0
  150.2492  139.0691  154.9804 N   0  0  0  0  0  0  0  0  0  0  0  0
  148.7778  139.4038  155.1104 C   0  0  1  0  0  0  0  0  0  0  0  0
  148.5574  139.9974  156.3556 O   0  0  0  0  0  0  0  0  0  0  0  0
  147.6363  141.0712  156.2086 C   0  0  1  0  0  0  0  0  0  0  0  0
  147.7281  142.0429  157.3986 C   0  0  0  0  0  0  0  0  0  0  0  0
  149.0478  142.5255  157.5370 O   0  0  0  0  0  0  0  0  0  0  0  0
  147.9472  141.6399  154.8159 C   0  0  1  0  0  0  0  0  0  0  0  0
  149.0306  142.5531  154.8650 O   0  0  0  0  0  0  0  0  0  0  0  0
  148.2749  140.3779  154.0219 C   0  0  1  0  0  0  0  0  0  0  0  0
  149.1593  140.6048  152.9369 O   0  0  0  0  0  0  0  0  0  0  0  0
  151.2118  139.9976  155.4479 C   0  0  0  0  0  0  0  0  0  0  0  0
  150.9034  141.0726  155.9618 O   0  0  0  0  0  0  0  0  0  0  0  0
  152.5007  139.6230  155.2987 N   0  0  0  0  0  0  0  0  0  0  0  0
  148.2395  138.4553  155.0966 H   0  0  0  0  0  0  0  0  0  0  0  0
  146.6381  140.6290  156.1880 H   0  0  0  0  0  0  0  0  0  0  0  0
  147.0871  142.1633  154.3966 H   0  0  0  0  0  0  0  0  0  0  0  0
  147.3485  139.9600  153.6257 H   0  0  0  0  0  0  0  0  0  0  0  0
  154.3801  137.3296  154.2712 H   0  0  0  0  0  0  0  0  0  0  0  0
  149.8749  137.1432  154.0874 H   0  0  0  0  0  0  0  0  0  0  0  0
  147.0675  142.8943  157.2332 H   0  0  0  0  0  0  0  0  0  0  0  0
  147.4082  141.5716  158.3281 H   0  0  0  0  0  0  0  0  0  0  0  0
  149.0860  143.4011  157.1835 H   0  0  0  0  0  0  0  0  0  0  0  0
  148.7019  143.3902  155.1554 H   0  0  0  0  0  0  0  0  0  0  0  0
  149.0062  139.9416  152.2816 H   0  0  0  0  0  0  0  0  0  0  0  0
  153.2143  140.2604  155.6207 H   0  0  0  0  0  0  0  0  0  0  0  0
  1  2  2  0  0  0  0
  1 22  1  0  0  0  0
  2 17  1  0  0  0  0
  2  3  1  0  0  0  0
  3  4  2  0  0  0  0
  4  5  1  0  0  0  0
  4 23  1  0  0  0  0
  5  6  1  0  0  0  0
  5 15  1  0  0  0  0
  6 18  1  0  0  0  0
  6 13  1  0  0  0  0
  6  7  1  0  0  0  0
  7  8  1  0  0  0  0
  8 19  1  0  0  0  0
  8  9  1  0  0  0  0
  8 11  1  0  0  0  0
  9 10  1  0  0  0  0
  9 24  1  0  0  0  0
  9 25  1  0  0  0  0
 10 26  1  0  0  0  0
 11 20  1  0  0  0  0
 11 12  1  0  0  0  0
 11 13  1  0  0  0  0
 12 27  1  0  0  0  0
 13 21  1  0  0  0  0
 13 14  1  0  0  0  0
 14 28  1  0  0  0  0
 15 16  2  0  0  0  0
 15 17  1  0  0  0  0
 17 29  1  0  0  0  0
M  END
> <s_m_source_file>
AV-unprocessed.smi

> <i_m_source_file_index>
72

> <i_lp_mmshare_version>
43012

> <i_f3d_flags>
0

> <s_epik_input>
W05IMl1jMW5bY0hdbihjKD1PKW4xKVtDQEBIXTJPW0NASF0oW0NIMl1bT0hdKVtDQEBIXShbT0hdKVtDQEhdMltPSF0=

> <s_epik_cmdline>
J2VwaWtfcHl0aG9uJywgJy1waCcsICc3LjAnLCAnLXRuJywgJzgnLCAnLW1hJywgJzIwMCcsICctbWV0YWxfYmluZGluZycsICctaW1hZScsICc8aW5maWxlLm1hZT4nLCAnLW9tYWUnLCAnPG91dGZpbGUubWFlPic=

> <r_lp_tautomer_probability>
7.17554e-07

> <r_epik_Ionization_Penalty>
0.0066451

> <r_epik_Ionization_Penalty_Charging>
0.00663793

> <r_epik_Ionization_Penalty_Neutral>
7.17052e-06

> <r_epik_State_Penalty>
0.419231

> <r_epik_Charging_Adjusted_Penalty>
0.425868

> <i_epik_Tot_Q>
0

> <i_epik_Tot_abs_Q>
0

> <r_epik_Metal_State_Penalty>
1.44144

> <b_epik_Metal_Only>
0

> <s_epik_Chemistry_Notes>
This compound contains an acetal/aminal-like group ( X-CH(R)-Y where X, Y are N, S, or O) that may be acid/base labile, releasing an aldehyde.

> <s_lp_Force_Field>
OPLS_2005

> <r_lp_Energy>
48.5612

> <b_lp_Chiralities_Consistent>
1

> <s_lp_Variant>
AV-unprocessed.smi:72-20

> <Gold.Version>
5.8.1

> <Gold.Id.Protein>
6NUR|6NUR_protein|mol2

> <Gold.PLP.Fitness>
37.9498

> <Gold.PLP.PLP>
-24.9964

> <Gold.PLP.part.hbond>
-4.4304

> <Gold.PLP.part.metal>
0.0000

> <Gold.PLP.part.buried>
-4.9212

> <Gold.PLP.part.nonpolar>
-17.7138

> <Gold.PLP.part.repulsive>
0.6044

> <Gold.PLP.ligand.clash>
0.0000

> <Gold.PLP.ligand.torsion>
0.5134

> <Gold.PLP.Chemscore.Hbond>
3.6723

> <Gold.PLP.Chemscore.CHOScore>
0.9872

> <Gold.PLP.Chemscore.Metal>
0.0000

> <Gold.Chemscore.Hbonds>
donor molecule, donor type, donor heavy atom, donor atom, acceptor molecule, acceptor atom, score
      L1  H    10    26       P1  8028  1.00
      L1  H    12    27       P1  8028  0.71
      L1  H    14    28       P1  7957  0.14
      P1  H  8011  8017       L1    14  1.00
      P1  H 10752 10764       L1     3  0.80
      L1  C     4    23       P1  7948  0.97

> <Gold.PLP.Chemscore.Internal.Correction>
0.0015

> <Gold.Rescore>
     Score         DG    S(hbond)    S(metal)    S(lipo)     H(rot)  DE(clash)    DE(int)     intcor
      1.86      -7.33       3.03        0.00      18.21       4.06       0.40       5.07       ----

> <Gold.Chemscore.Fitness>
1.8574

> <Gold.Chemscore.DG>
-7.3287

> <Gold.Chemscore.ZeroCoef>
-5.4800

> <Gold.Chemscore.Hbond>
3.0276

> <Gold.Chemscore.Metal>
0.0000

> <Gold.Chemscore.Lipo>
18.2054

> <Gold.Chemscore.Internal_Hbond>
0.0000

> <Gold.Chemscore.DEClash>
0.4029

> <Gold.Chemscore.DEInternal>
5.0683

> <Gold.Chemscore.Rot>
4.0600

> <Gold.Chemscore.Internal.Correction>
   9.000000E+99

> <Gold.Chemscore.Hbonds>
donor molecule, donor type, donor heavy atom, donor atom, acceptor molecule, acceptor atom, score
      L1  H    10    26       P1  8028  0.60
      L1  H    12    27       P1  8028  0.69
      L1  H    14    28       P1  7957  0.13
      P1  H  8011  8017       L1    14  0.91
      P1  H 10752 10764       L1     3  0.30

> <Gold.Chemscore.Hbond.Weighted>
-10.1123

> <Gold.Chemscore.Metal.Weighted>
-0.0000

> <Gold.Chemscore.Lipo.Weighted>
-2.1300

> <Gold.Chemscore.Internal_Hbond.Weighted>
0.0000

> <Gold.Chemscore.DEClash.Weighted>
0.4029

> <Gold.Chemscore.DEInternal.Weighted>
5.0683

> <Gold.Chemscore.Rot.Weighted>
10.3936

> <Gold.Chemscore.Internal.Correction.Weighted>
   9.000000E+99

> <Gold.Protein.RotatedTorsions>
[ 6907 6896 6895 6894 ] final  -30.91 input  -60.11 | X-H torsion
[ 7974 7965 7964 7962 ] final    8.37 input  175.53 | X-H torsion
[ 8008 7997 7996 7995 ] final  -57.36 input   59.86 | X-H torsion
[ 10167 10162 10161 10158 ] final -155.30 input  -65.29 | X-H torsion
[ 10718 10713 10712 10709 ] final -125.55 input   66.30 | X-H torsion
[ 10763 10752 10751 10750 ] final  -78.15 input  -60.55 | X-H torsion
[ 11005 11000 10999 10996 ] final  171.88 input  -57.11 | X-H torsion

> <Gold.Protein.ActiveResidues>
 VAL166  LYS551  ARG553  GLY616  TRP617  ASP618  TYR619  PRO620  LYS621  CYS622 
 ASP623  PHE694  ASN695  SER759  ASP760  ASP761  ALA762  ILE779  LEU786  VAL792 
 PHE793  MET794  SER795  GLU796  ALA797  LYS798  CYS799  TRP800  GLU811  SER814 

> <Gold.Protein.RotatedAtoms>
  151.0992  134.9962  159.8440 H   0  0  0  0  0  0  0  0  0  0  0  0  # atno 6907 bound_to 6896
  152.5435  134.1971  159.8707 H   0  0  0  0  0  0  0  0  0  0  0  0  # atno 6908 bound_to 6896
  151.2013  133.4565  159.2629 H   0  0  0  0  0  0  0  0  0  0  0  0  # atno 6909 bound_to 6896
  146.2417  139.9943  142.8422 H   0  0  0  0  0  0  0  0  0  0  0  0  # atno 7974 bound_to 7965
  154.4265  140.1108  156.5785 H   0  0  0  0  0  0  0  0  0  0  0  0  # atno 8008 bound_to 7997
  155.6137  140.3494  155.4611 H   0  0  0  0  0  0  0  0  0  0  0  0  # atno 8009 bound_to 7997
  156.0079  140.1213  157.0472 H   0  0  0  0  0  0  0  0  0  0  0  0  # atno 8010 bound_to 7997
  139.6942  143.9369  152.2399 H   0  0  0  0  0  0  0  0  0  0  0  0  # atno 10167 bound_to 10162
  156.1685  130.6651  151.0148 H   0  0  0  0  0  0  0  0  0  0  0  0  # atno 10718 bound_to 10713
  154.5221  135.5740  153.6689 H   0  0  0  0  0  0  0  0  0  0  0  0  # atno 10763 bound_to 10752
  152.9919  135.6184  154.2740 H   0  0  0  0  0  0  0  0  0  0  0  0  # atno 10764 bound_to 10752
  154.2662  135.2854  155.2737 H   0  0  0  0  0  0  0  0  0  0  0  0  # atno 10765 bound_to 10752
  140.3237  134.7415  157.4083 H   0  0  0  0  0  0  0  0  0  0  0  0  # atno 11005 bound_to 11000
  145.1474  140.9604  143.4453 LP  0  0  0  0  0  0  0  0  0  0  0  0  # atno 17320 bound_to 7965
  145.0238  139.3401  143.6059 LP  0  0  0  0  0  0  0  0  0  0  0  0  # atno 17321 bound_to 7965
  139.9194  144.6809  150.8478 LP  0  0  0  0  0  0  0  0  0  0  0  0  # atno 17342 bound_to 10162
  140.7691  143.3386  151.2256 LP  0  0  0  0  0  0  0  0  0  0  0  0  # atno 17343 bound_to 10162
  157.6786  131.0844  150.7430 LP  0  0  0  0  0  0  0  0  0  0  0  0  # atno 17370 bound_to 10713
  156.7490  130.4762  149.5461 LP  0  0  0  0  0  0  0  0  0  0  0  0  # atno 17371 bound_to 10713
  140.0919  134.5589  155.8435 LP  0  0  0  0  0  0  0  0  0  0  0  0  # atno 17394 bound_to 11000
  141.2080  133.6670  156.6344 LP  0  0  0  0  0  0  0  0  0  0  0  0  # atno 17395 bound_to 11000

$$$$
