AV-unprocessed.smi:872|AV-procd|sdf|4012|dock2
  -GOLD-   22720 1503D 1   1.00000     0.00000
 Structure written by MMmdl.
 26 27  0  0  0  0  0  0  0  0  2 V2000
  153.7340  138.5836  154.9000 O   0  0  0  0  0  0  0  0  0  0  0  0
  152.5040  138.4715  154.7010 C   0  0  0  0  0  0  0  0  0  0  0  0
  152.0088  137.4908  154.1022 O   0  5  0  0  0  0  0  0  0  0  0  0
  151.5878  139.5539  155.1987 C   0  0  0  0  0  0  0  0  0  0  0  0
  150.3686  139.8405  154.5428 C   0  0  0  0  0  0  0  0  0  0  0  0
  149.5090  140.8005  154.9480 N   0  0  0  0  0  0  0  0  0  0  0  0
  149.8369  141.5230  156.0394 C   0  0  0  0  0  0  0  0  0  0  0  0
  151.0246  141.3284  156.7741 C   0  0  0  0  0  0  0  0  0  0  0  0
  151.2854  142.1249  157.8984 N   0  0  0  0  0  0  0  0  0  0  0  0
  152.3751  141.6180  158.7228 C   0  0  0  0  0  0  0  0  0  0  0  0
  152.5186  142.4776  159.9910 C   0  0  0  0  0  0  0  0  0  0  0  0
  152.7046  143.8425  159.6263 O   0  0  0  0  0  0  0  0  0  0  0  0
  151.6023  144.3518  158.8803 C   0  0  0  0  0  0  0  0  0  0  0  0
  151.4363  143.5401  157.5837 C   0  0  0  0  0  0  0  0  0  0  0  0
  151.9154  140.3205  156.3394 C   0  0  0  0  0  0  0  0  0  0  0  0
  150.0629  139.2890  153.6656 H   0  0  0  0  0  0  0  0  0  0  0  0
  149.1269  142.2814  156.3357 H   0  0  0  0  0  0  0  0  0  0  0  0
  152.1818  140.5795  158.9943 H   0  0  0  0  0  0  0  0  0  0  0  0
  153.3081  141.6361  158.1578 H   0  0  0  0  0  0  0  0  0  0  0  0
  151.6396  142.3777  160.6297 H   0  0  0  0  0  0  0  0  0  0  0  0
  153.3770  142.1456  160.5752 H   0  0  0  0  0  0  0  0  0  0  0  0
  150.6932  144.3124  159.4825 H   0  0  0  0  0  0  0  0  0  0  0  0
  151.7852  145.4007  158.6468 H   0  0  0  0  0  0  0  0  0  0  0  0
  152.3065  143.6885  156.9429 H   0  0  0  0  0  0  0  0  0  0  0  0
  150.5641  143.8915  157.0309 H   0  0  0  0  0  0  0  0  0  0  0  0
  152.8347  140.1425  156.8785 H   0  0  0  0  0  0  0  0  0  0  0  0
  1  2  2  0  0  0  0
  2  3  1  0  0  0  0
  2  4  1  0  0  0  0
  4 15  1  0  0  0  0
  4  5  2  0  0  0  0
  5  6  1  0  0  0  0
  5 16  1  0  0  0  0
  6  7  2  0  0  0  0
  7  8  1  0  0  0  0
  7 17  1  0  0  0  0
  8  9  1  0  0  0  0
  8 15  2  0  0  0  0
  9 14  1  0  0  0  0
  9 10  1  0  0  0  0
 10 11  1  0  0  0  0
 10 18  1  0  0  0  0
 10 19  1  0  0  0  0
 11 12  1  0  0  0  0
 11 20  1  0  0  0  0
 11 21  1  0  0  0  0
 12 13  1  0  0  0  0
 13 14  1  0  0  0  0
 13 22  1  0  0  0  0
 13 23  1  0  0  0  0
 14 24  1  0  0  0  0
 14 25  1  0  0  0  0
 15 26  1  0  0  0  0
M  CHG  1   3  -1
M  END
> <s_m_source_file>
AV-unprocessed.smi

> <i_m_source_file_index>
872

> <i_lp_mmshare_version>
43012

> <i_f3d_flags>
0

> <s_epik_input>
Tz1DKFtPSF0pYzFbY0hdbltjSF1jKFtjSF0xKU4yW0NIMl1bQ0gyXU9bQ0gyXVtDSDJdMg==

> <s_epik_cmdline>
J2VwaWtfcHl0aG9uJywgJy1waCcsICc3LjAnLCAnLXRuJywgJzgnLCAnLW1hJywgJzIwMCcsICctbWV0YWxfYmluZGluZycsICctaW1hZScsICc8aW5maWxlLm1hZT4nLCAnLW9tYWUnLCAnPG91dGZpbGUubWFlPic=

> <r_epik_Ionization_Penalty>
0.0365058

> <r_epik_Ionization_Penalty_Charging>
0.000173346

> <r_epik_Ionization_Penalty_Neutral>
0.0363324

> <r_epik_State_Penalty>
0.0303445

> <r_epik_Charging_Adjusted_Penalty>
0.0305178

> <i_epik_Tot_Q>
-1

> <i_epik_Tot_abs_Q>
1

> <r_epik_Metal_State_Penalty>
3.11342e-05

> <b_epik_Metal_Only>
0

> <s_lp_Force_Field>
OPLS_2005

> <r_lp_Energy>
23.1788

> <b_lp_Chiralities_Consistent>
1

> <s_lp_Variant>
AV-unprocessed.smi:872-1

> <Gold.Version>
5.8.1

> <Gold.Id.Protein>
6NUR|6NUR_protein|mol2

> <Gold.PLP.Fitness>
47.1974

> <Gold.PLP.PLP>
-32.9508

> <Gold.PLP.part.hbond>
-2.0598

> <Gold.PLP.part.metal>
0.0000

> <Gold.PLP.part.buried>
-3.2241

> <Gold.PLP.part.nonpolar>
-28.3561

> <Gold.PLP.part.repulsive>
0.3297

> <Gold.PLP.ligand.clash>
0.0000

> <Gold.PLP.ligand.torsion>
0.5206

> <Gold.PLP.Chemscore.Hbond>
3.3332

> <Gold.PLP.Chemscore.CHOScore>
1.7301

> <Gold.PLP.Chemscore.Metal>
0.0000

> <Gold.Chemscore.Hbonds>
donor molecule, donor type, donor heavy atom, donor atom, acceptor molecule, acceptor atom, score
      P1  H  7997  8009       L1     1  1.60
      P1  H 10752 10763       L1     3  1.69
      L1  C     5    16       P1  7957  0.71
      L1  C     7    17       P1  8028  0.97

> <Gold.PLP.Chemscore.Internal.Correction>
0.0978

> <Gold.Rescore>
     Score         DG    S(hbond)    S(metal)    S(lipo)     H(rot)  DE(clash)    DE(int)     intcor
     16.95     -17.35       1.66        0.00      76.05       1.00       0.00       0.39       ----

> <Gold.Chemscore.Fitness>
16.9517

> <Gold.Chemscore.DG>
-17.3484

> <Gold.Chemscore.ZeroCoef>
-5.4800

> <Gold.Chemscore.Hbond>
1.6560

> <Gold.Chemscore.Metal>
0.0000

> <Gold.Chemscore.Lipo>
76.0467

> <Gold.Chemscore.Internal_Hbond>
0.0000

> <Gold.Chemscore.DEClash>
0.0048

> <Gold.Chemscore.DEInternal>
0.3919

> <Gold.Chemscore.Rot>
1.0000

> <Gold.Chemscore.Internal.Correction>
   9.000000E+99

> <Gold.Chemscore.Hbonds>
donor molecule, donor type, donor heavy atom, donor atom, acceptor molecule, acceptor atom, score
      P1  H  7997  8009       L1     1  0.73
      P1  H 10752 10763       L1     3  0.77

> <Gold.Chemscore.Hbond.Weighted>
-5.5309

> <Gold.Chemscore.Metal.Weighted>
-0.0000

> <Gold.Chemscore.Lipo.Weighted>
-8.8975

> <Gold.Chemscore.Internal_Hbond.Weighted>
0.0000

> <Gold.Chemscore.DEClash.Weighted>
0.0048

> <Gold.Chemscore.DEInternal.Weighted>
0.3919

> <Gold.Chemscore.Rot.Weighted>
2.5600

> <Gold.Chemscore.Internal.Correction.Weighted>
   9.000000E+99

> <Gold.Protein.RotatedTorsions>
[ 6907 6896 6895 6894 ] final  145.89 input  -60.11 | X-H torsion
[ 7974 7965 7964 7962 ] final  -32.05 input  175.53 | X-H torsion
[ 8008 7997 7996 7995 ] final -140.56 input   59.86 | X-H torsion
[ 10167 10162 10161 10158 ] final -109.03 input  -65.29 | X-H torsion
[ 10718 10713 10712 10709 ] final  -60.12 input   66.30 | X-H torsion
[ 10763 10752 10751 10750 ] final   24.59 input  -60.55 | X-H torsion
[ 11005 11000 10999 10996 ] final -146.28 input  -57.11 | X-H torsion

> <Gold.Protein.ActiveResidues>
 VAL166  LYS551  ARG553  GLY616  TRP617  ASP618  TYR619  PRO620  LYS621  CYS622 
 ASP623  PHE694  ASN695  SER759  ASP760  ASP761  ALA762  ILE779  LEU786  VAL792 
 PHE793  MET794  SER795  GLU796  ALA797  LYS798  CYS799  TRP800  GLU811  SER814 

> <Gold.Protein.RotatedAtoms>
  152.1750  133.4669  159.4928 H   0  0  0  0  0  0  0  0  0  0  0  0  # atno 6907 bound_to 6896
  150.6925  134.1905  159.4292 H   0  0  0  0  0  0  0  0  0  0  0  0  # atno 6908 bound_to 6896
  151.9814  135.0026  160.0608 H   0  0  0  0  0  0  0  0  0  0  0  0  # atno 6909 bound_to 6896
  146.1020  140.5744  142.8816 H   0  0  0  0  0  0  0  0  0  0  0  0  # atno 7974 bound_to 7965
  155.4633  140.0547  157.2988 H   0  0  0  0  0  0  0  0  0  0  0  0  # atno 8008 bound_to 7997
  154.4728  140.2048  155.9906 H   0  0  0  0  0  0  0  0  0  0  0  0  # atno 8009 bound_to 7997
  156.1084  140.3208  155.8042 H   0  0  0  0  0  0  0  0  0  0  0  0  # atno 8010 bound_to 7997
  140.1598  143.4130  152.1434 H   0  0  0  0  0  0  0  0  0  0  0  0  # atno 10167 bound_to 10162
  156.1013  130.4186  150.0809 H   0  0  0  0  0  0  0  0  0  0  0  0  # atno 10718 bound_to 10713
  153.0753  135.6602  154.0160 H   0  0  0  0  0  0  0  0  0  0  0  0  # atno 10763 bound_to 10752
  153.9795  135.2956  155.3422 H   0  0  0  0  0  0  0  0  0  0  0  0  # atno 10764 bound_to 10752
  154.7139  135.5193  153.8778 H   0  0  0  0  0  0  0  0  0  0  0  0  # atno 10765 bound_to 10752
  140.7836  134.3051  157.5037 H   0  0  0  0  0  0  0  0  0  0  0  0  # atno 11005 bound_to 11000
  144.7440  140.5019  143.6849 LP  0  0  0  0  0  0  0  0  0  0  0  0  # atno 17320 bound_to 7965
  145.5835  139.1490  143.3222 LP  0  0  0  0  0  0  0  0  0  0  0  0  # atno 17321 bound_to 7965
  139.5386  144.7235  151.4808 LP  0  0  0  0  0  0  0  0  0  0  0  0  # atno 17342 bound_to 10162
  140.6650  143.8417  150.6931 LP  0  0  0  0  0  0  0  0  0  0  0  0  # atno 17343 bound_to 10162
  156.8796  130.9552  151.3601 LP  0  0  0  0  0  0  0  0  0  0  0  0  # atno 17370 bound_to 10713
  157.6184  130.8636  149.9067 LP  0  0  0  0  0  0  0  0  0  0  0  0  # atno 17371 bound_to 10713
  139.8739  134.9333  156.3576 LP  0  0  0  0  0  0  0  0  0  0  0  0  # atno 17394 bound_to 11000
  140.9459  133.7483  156.0207 LP  0  0  0  0  0  0  0  0  0  0  0  0  # atno 17395 bound_to 11000

$$$$
