AV-unprocessed.smi:153|AV-procd|sdf|1259|dock9
  -GOLD-   2262018503D 1   1.00000     0.00000
 Structure written by MMmdl.
 59 62  0  0  0  0  0  0  0  0  1 V2000
  143.2365  132.7825  148.5967 C   0  0  0  0  0  0  0  0  0  0  0  0
  143.9436  132.6441  149.9544 C   0  0  1  0  0  0  0  0  0  0  0  0
  144.9584  131.6513  149.8662 O   0  0  0  0  0  0  0  0  0  0  0  0
  145.9025  131.9066  150.8900 C   0  0  0  0  0  0  0  0  0  0  0  0
  146.0652  133.4164  150.8090 C   0  0  0  0  0  0  0  0  0  0  0  0
  144.6452  133.9119  150.5149 C   0  0  1  0  0  0  0  0  0  0  0  0
  144.7317  134.9470  149.5490 O   0  0  0  0  0  0  0  0  0  0  0  0
  143.8981  134.4596  151.7595 C   0  0  0  0  0  0  0  0  0  0  0  0
  144.5920  135.5420  152.4418 N   0  0  0  0  0  0  0  0  0  0  0  0
  144.3074  136.8838  152.3578 C   0  0  0  0  0  0  0  0  0  0  0  0
  145.0859  137.6571  153.0604 N   0  0  0  0  0  0  0  0  0  0  0  0
  145.9716  136.7913  153.6957 C   0  0  0  0  0  0  0  0  0  0  0  0
  147.0763  136.9528  154.5925 C   0  0  0  0  0  0  0  0  0  0  0  0
  147.5675  138.1492  155.0386 N   0  0  0  0  0  0  0  0  0  0  0  0
  147.7452  138.3411  156.4770 C   0  0  0  0  0  0  0  0  0  0  0  0
  148.3669  138.9987  154.1564 C   0  0  0  0  0  0  0  0  0  0  0  0
  148.1500  140.5086  154.4111 C   0  0  2  0  0  0  0  0  0  0  0  0
  147.9131  141.1847  153.1932 O   0  0  0  0  0  0  0  0  0  0  0  0
  149.3173  141.1897  155.1601 C   0  0  0  0  0  0  0  0  0  0  0  0
  150.1736  140.3247  155.9761 N   0  0  0  0  0  0  0  0  0  0  0  0
  150.8752  141.1010  156.9933 C   0  0  0  0  0  0  0  0  0  0  0  0
  151.7803  140.2193  157.8703 C   0  0  0  0  0  0  0  0  0  0  0  0
  152.7054  139.5196  157.0453 O   0  0  0  0  0  0  0  0  0  0  0  0
  152.0628  138.7104  156.0662 C   0  0  0  0  0  0  0  0  0  0  0  0
  151.1549  139.5858  155.1850 C   0  0  0  0  0  0  0  0  0  0  0  0
  147.6813  135.8099  155.0188 N   0  0  0  0  0  0  0  0  0  0  0  0
  147.2707  134.6114  154.5987 C   0  0  0  0  0  0  0  0  0  0  0  0
  146.2813  134.3199  153.7561 N   0  0  0  0  0  0  0  0  0  0  0  0
  145.6530  135.4502  153.3266 C   0  0  0  0  0  0  0  0  0  0  0  0
  142.4540  133.5406  148.6358 H   0  0  0  0  0  0  0  0  0  0  0  0
  142.7698  131.8407  148.3075 H   0  0  0  0  0  0  0  0  0  0  0  0
  143.9367  133.0572  147.8070 H   0  0  0  0  0  0  0  0  0  0  0  0
  143.2177  132.2784  150.6825 H   0  0  0  0  0  0  0  0  0  0  0  0
  145.4970  131.6048  151.8571 H   0  0  0  0  0  0  0  0  0  0  0  0
  146.8367  131.3711  150.7200 H   0  0  0  0  0  0  0  0  0  0  0  0
  146.5170  133.8353  151.7067 H   0  0  0  0  0  0  0  0  0  0  0  0
  146.7338  133.6450  149.9769 H   0  0  0  0  0  0  0  0  0  0  0  0
  145.4322  134.7383  148.9503 H   0  0  0  0  0  0  0  0  0  0  0  0
  142.9094  134.8205  151.4726 H   0  0  0  0  0  0  0  0  0  0  0  0
  143.7301  133.6575  152.4793 H   0  0  0  0  0  0  0  0  0  0  0  0
  143.5050  137.2754  151.7494 H   0  0  0  0  0  0  0  0  0  0  0  0
  146.7995  138.2161  157.0054 H   0  0  0  0  0  0  0  0  0  0  0  0
  148.1134  139.3430  156.6983 H   0  0  0  0  0  0  0  0  0  0  0  0
  148.4657  137.6257  156.8755 H   0  0  0  0  0  0  0  0  0  0  0  0
  149.4155  138.7288  154.2577 H   0  0  0  0  0  0  0  0  0  0  0  0
  148.1366  138.7651  153.1163 H   0  0  0  0  0  0  0  0  0  0  0  0
  147.2587  140.6586  155.0212 H   0  0  0  0  0  0  0  0  0  0  0  0
  148.3994  140.7485  152.5105 H   0  0  0  0  0  0  0  0  0  0  0  0
  149.9222  141.7724  154.4635 H   0  0  0  0  0  0  0  0  0  0  0  0
  148.8615  141.9245  155.8250 H   0  0  0  0  0  0  0  0  0  0  0  0
  151.4789  141.8751  156.5169 H   0  0  0  0  0  0  0  0  0  0  0  0
  150.1538  141.6158  157.6291 H   0  0  0  0  0  0  0  0  0  0  0  0
  152.3313  140.8321  158.5839 H   0  0  0  0  0  0  0  0  0  0  0  0
  151.1863  139.5090  158.4475 H   0  0  0  0  0  0  0  0  0  0  0  0
  152.8204  138.2170  155.4575 H   0  0  0  0  0  0  0  0  0  0  0  0
  151.4837  137.9257  156.5557 H   0  0  0  0  0  0  0  0  0  0  0  0
  150.6527  138.9430  154.4636 H   0  0  0  0  0  0  0  0  0  0  0  0
  151.7693  140.2824  154.6126 H   0  0  0  0  0  0  0  0  0  0  0  0
  147.8175  133.7662  154.9899 H   0  0  0  0  0  0  0  0  0  0  0  0
  1  2  1  0  0  0  0
  1 30  1  0  0  0  0
  1 31  1  0  0  0  0
  1 32  1  0  0  0  0
  2  6  1  0  0  0  0
  2  3  1  0  0  0  0
  2 33  1  0  0  0  0
  3  4  1  0  0  0  0
  4  5  1  0  0  0  0
  4 34  1  0  0  0  0
  4 35  1  0  0  0  0
  5  6  1  0  0  0  0
  5 36  1  0  0  0  0
  5 37  1  0  0  0  0
  6  7  1  0  0  0  0
  6  8  1  0  0  0  0
  7 38  1  0  0  0  0
  8  9  1  0  0  0  0
  8 39  1  0  0  0  0
  8 40  1  0  0  0  0
  9 29  1  0  0  0  0
  9 10  1  0  0  0  0
 10 11  2  0  0  0  0
 10 41  1  0  0  0  0
 11 12  1  0  0  0  0
 12 29  2  0  0  0  0
 12 13  1  0  0  0  0
 13 14  1  0  0  0  0
 13 26  2  0  0  0  0
 14 15  1  0  0  0  0
 14 16  1  0  0  0  0
 15 42  1  0  0  0  0
 15 43  1  0  0  0  0
 15 44  1  0  0  0  0
 16 17  1  0  0  0  0
 16 45  1  0  0  0  0
 16 46  1  0  0  0  0
 17 18  1  0  0  0  0
 17 19  1  0  0  0  0
 17 47  1  0  0  0  0
 18 48  1  0  0  0  0
 19 20  1  0  0  0  0
 19 49  1  0  0  0  0
 19 50  1  0  0  0  0
 20 25  1  0  0  0  0
 20 21  1  0  0  0  0
 21 22  1  0  0  0  0
 21 51  1  0  0  0  0
 21 52  1  0  0  0  0
 22 23  1  0  0  0  0
 22 53  1  0  0  0  0
 22 54  1  0  0  0  0
 23 24  1  0  0  0  0
 24 25  1  0  0  0  0
 24 55  1  0  0  0  0
 24 56  1  0  0  0  0
 25 57  1  0  0  0  0
 25 58  1  0  0  0  0
 26 27  1  0  0  0  0
 27 28  2  0  0  0  0
 27 59  1  0  0  0  0
 28 29  1  0  0  0  0
M  END
> <s_m_source_file>
AV-unprocessed.smi

> <i_m_source_file_index>
153

> <i_lp_mmshare_version>
43012

> <i_f3d_flags>
0

> <s_epik_input>
W0NIMl0xW0NIMl1PW0NAQEhdKFtDSDNdKVtDQEBdMShbT0hdKVtDSDJdbihbY0hdbjIpYyhjMjMpbltjSF1uYzNOKFtDSDNdKVtDSDJdW0NASF0oW09IXSlbQ0gyXU40W0NIMl1bQ0gyXU9bQ0gyXVtDSDJdNA==

> <s_epik_cmdline>
J2VwaWtfcHl0aG9uJywgJy1waCcsICc3LjAnLCAnLXRuJywgJzgnLCAnLW1hJywgJzIwMCcsICctbWV0YWxfYmluZGluZycsICctaW1hZScsICc8aW5maWxlLm1hZT4nLCAnLW9tYWUnLCAnPG91dGZpbGUubWFlPic=

> <r_lp_tautomer_probability>
1

> <r_epik_Ionization_Penalty>
0.424123

> <r_epik_Ionization_Penalty_Charging>
0

> <r_epik_Ionization_Penalty_Neutral>
0.424123

> <r_epik_State_Penalty>
0.421495

> <r_epik_Charging_Adjusted_Penalty>
0.421495

> <i_epik_Tot_Q>
0

> <i_epik_Tot_abs_Q>
0

> <r_epik_Metal_State_Penalty>
0.421223

> <b_epik_Metal_Only>
0

> <s_lp_Force_Field>
OPLS_2005

> <r_lp_Energy>
57.6451

> <b_lp_Chiralities_Consistent>
1

> <s_lp_Variant>
AV-unprocessed.smi:153-10

> <Gold.Version>
5.8.1

> <Gold.Id.Protein>
6NUR|6NUR_protein|mol2

> <Gold.PLP.Fitness>
46.3849

> <Gold.PLP.PLP>
-39.7272

> <Gold.PLP.part.hbond>
-3.9913

> <Gold.PLP.part.metal>
0.0000

> <Gold.PLP.part.buried>
-1.9415

> <Gold.PLP.part.nonpolar>
-35.3747

> <Gold.PLP.part.repulsive>
0.5196

> <Gold.PLP.ligand.clash>
0.0000

> <Gold.PLP.ligand.torsion>
2.9440

> <Gold.PLP.Chemscore.Hbond>
2.9913

> <Gold.PLP.Chemscore.CHOScore>
0.9719

> <Gold.PLP.Chemscore.Metal>
0.0000

> <Gold.Chemscore.Hbonds>
donor molecule, donor type, donor heavy atom, donor atom, acceptor molecule, acceptor atom, score
      L1  H     7    38       P1  7921  0.91
      L1  H    18    48       P1  7957  1.00
      P1  H  7997  8008       L1    23  1.00
      L1  C    10    41       P1 10171  0.88

> <Gold.PLP.Chemscore.Internal.Correction>
0.6563

> <Gold.Rescore>
     Score         DG    S(hbond)    S(metal)    S(lipo)     H(rot)  DE(clash)    DE(int)     intcor
     12.66     -17.95       2.97        0.00      98.82       3.52       1.71       3.59       ----

> <Gold.Chemscore.Fitness>
12.6551

> <Gold.Chemscore.DG>
-17.9513

> <Gold.Chemscore.ZeroCoef>
-5.4800

> <Gold.Chemscore.Hbond>
2.9680

> <Gold.Chemscore.Metal>
0.0000

> <Gold.Chemscore.Lipo>
98.8201

> <Gold.Chemscore.Internal_Hbond>
0.0000

> <Gold.Chemscore.DEClash>
1.7078

> <Gold.Chemscore.DEInternal>
3.5884

> <Gold.Chemscore.Rot>
3.5170

> <Gold.Chemscore.Internal.Correction>
   9.000000E+99

> <Gold.Chemscore.Hbonds>
donor molecule, donor type, donor heavy atom, donor atom, acceptor molecule, acceptor atom, score
      L1  H     7    38       P1  7921  0.85
      L1  H    18    48       P1  7957  0.99
      P1  H  7997  8008       L1    23  0.94

> <Gold.Chemscore.Hbond.Weighted>
-9.9130

> <Gold.Chemscore.Metal.Weighted>
-0.0000

> <Gold.Chemscore.Lipo.Weighted>
-11.5619

> <Gold.Chemscore.Internal_Hbond.Weighted>
0.0000

> <Gold.Chemscore.DEClash.Weighted>
1.7078

> <Gold.Chemscore.DEInternal.Weighted>
3.5884

> <Gold.Chemscore.Rot.Weighted>
9.0036

> <Gold.Chemscore.Internal.Correction.Weighted>
   9.000000E+99

> <Gold.Protein.RotatedTorsions>
[ 6907 6896 6895 6894 ] final  110.83 input  -60.11 | X-H torsion
[ 7974 7965 7964 7962 ] final -172.89 input  175.53 | X-H torsion
[ 8008 7997 7996 7995 ] final  -62.73 input   59.86 | X-H torsion
[ 10167 10162 10161 10158 ] final  173.15 input  -65.29 | X-H torsion
[ 10718 10713 10712 10709 ] final -146.11 input   66.30 | X-H torsion
[ 10763 10752 10751 10750 ] final  129.88 input  -60.55 | X-H torsion
[ 11005 11000 10999 10996 ] final  -43.01 input  -57.11 | X-H torsion

> <Gold.Protein.ActiveResidues>
 VAL166  LYS551  ARG553  GLY616  TRP617  ASP618  TYR619  PRO620  LYS621  CYS622 
 ASP623  PHE694  ASN695  SER759  ASP760  ASP761  ALA762  ILE779  LEU786  VAL792 
 PHE793  MET794  SER795  GLU796  ALA797  LYS798  CYS799  TRP800  GLU811  SER814 

> <Gold.Protein.RotatedAtoms>
  152.5000  133.8744  159.7314 H   0  0  0  0  0  0  0  0  0  0  0  0  # atno 6907 bound_to 6896
  150.9222  133.6858  159.2836 H   0  0  0  0  0  0  0  0  0  0  0  0  # atno 6908 bound_to 6896
  151.4231  135.1005  159.9672 H   0  0  0  0  0  0  0  0  0  0  0  0  # atno 6909 bound_to 6896
  144.7142  140.1704  143.6368 H   0  0  0  0  0  0  0  0  0  0  0  0  # atno 7974 bound_to 7965
  154.4515  140.0990  156.6633 H   0  0  0  0  0  0  0  0  0  0  0  0  # atno 8008 bound_to 7997
  155.5269  140.3480  155.4400 H   0  0  0  0  0  0  0  0  0  0  0  0  # atno 8009 bound_to 7997
  156.0691  140.1345  156.9839 H   0  0  0  0  0  0  0  0  0  0  0  0  # atno 8010 bound_to 7997
  139.5099  144.3294  152.0126 H   0  0  0  0  0  0  0  0  0  0  0  0  # atno 10167 bound_to 10162
  156.3908  130.7884  151.2086 H   0  0  0  0  0  0  0  0  0  0  0  0  # atno 10718 bound_to 10713
  153.7489  135.3213  155.3317 H   0  0  0  0  0  0  0  0  0  0  0  0  # atno 10763 bound_to 10752
  154.8270  135.4562  154.0951 H   0  0  0  0  0  0  0  0  0  0  0  0  # atno 10764 bound_to 10752
  153.2148  135.6940  153.8152 H   0  0  0  0  0  0  0  0  0  0  0  0  # atno 10765 bound_to 10752
  141.0355  133.6802  156.2674 H   0  0  0  0  0  0  0  0  0  0  0  0  # atno 11005 bound_to 11000
  145.8949  139.2396  143.1528 LP  0  0  0  0  0  0  0  0  0  0  0  0  # atno 17320 bound_to 7965
  145.9868  140.8637  143.0087 LP  0  0  0  0  0  0  0  0  0  0  0  0  # atno 17321 bound_to 7965
  140.2734  144.3939  150.6143 LP  0  0  0  0  0  0  0  0  0  0  0  0  # atno 17342 bound_to 10162
  140.6072  143.2168  151.6958 LP  0  0  0  0  0  0  0  0  0  0  0  0  # atno 17343 bound_to 10162
  157.7499  131.0316  150.4189 LP  0  0  0  0  0  0  0  0  0  0  0  0  # atno 17370 bound_to 10713
  156.4450  130.3999  149.6672 LP  0  0  0  0  0  0  0  0  0  0  0  0  # atno 17371 bound_to 10713
  140.6330  134.5244  157.5561 LP  0  0  0  0  0  0  0  0  0  0  0  0  # atno 17394 bound_to 11000
  139.9237  134.8097  156.1131 LP  0  0  0  0  0  0  0  0  0  0  0  0  # atno 17395 bound_to 11000

$$$$
