AV-unprocessed.smi:1987|AV-procd|sdf|8056|dock6
  -GOLD-   2272010263D 1   1.00000     0.00000
 Structure written by MMmdl.
 37 39  0  0  0  0  0  0  0  0  2 V2000
  151.2774  140.3303  155.0378 O   0  0  0  0  0  0  0  0  0  0  0  0
  150.0804  140.4637  155.2908 C   0  0  0  0  0  0  0  0  0  0  0  0
  149.1009  140.8487  154.1833 C   0  0  0  0  0  0  0  0  0  0  0  0
  147.7606  140.9822  154.7219 N   0  0  0  0  0  0  0  0  0  0  0  0
  146.9682  142.0487  154.8469 C   0  0  0  0  0  0  0  0  0  0  0  0
  145.7928  141.7259  155.3645 N   0  0  0  0  0  0  0  0  0  0  0  0
  145.8999  140.3593  155.5624 N   0  0  0  0  0  0  0  0  0  0  0  0
  147.0651  139.9120  155.1825 N   0  0  0  0  0  0  0  0  0  0  0  0
  149.5515  140.2546  156.5060 N   0  0  0  0  0  0  0  0  0  0  0  0
  150.2804  139.7514  157.6637 C   0  0  0  0  0  0  0  0  0  0  0  0
  151.4282  140.6977  158.0685 C   0  0  2  0  0  0  0  0  0  0  0  0
  152.3058  140.1926  159.2131 C   0  0  0  0  0  0  0  0  0  0  0  0
  152.9791  141.4723  159.6996 C   0  0  0  0  0  0  0  0  0  0  0  0
  151.9580  142.5326  159.5585 N   0  3  1  0  0  0  0  0  0  0  0  0
  152.5193  143.8722  159.2820 C   0  0  0  0  0  0  0  0  0  0  0  0
  151.7948  144.9895  159.9938 C   0  0  0  0  0  0  0  0  0  0  0  0
  151.5821  144.7709  158.5113 C   0  0  0  0  0  0  0  0  0  0  0  0
  150.9616  142.0745  158.5611 C   0  0  0  0  0  0  0  0  0  0  0  0
  149.4012  141.7880  153.7163 H   0  0  0  0  0  0  0  0  0  0  0  0
  149.0950  140.0848  153.4045 H   0  0  0  0  0  0  0  0  0  0  0  0
  147.2468  143.0500  154.5523 H   0  0  0  0  0  0  0  0  0  0  0  0
  148.5580  140.3980  156.6199 H   0  0  0  0  0  0  0  0  0  0  0  0
  149.5962  139.6017  158.5007 H   0  0  0  0  0  0  0  0  0  0  0  0
  150.6768  138.7684  157.4077 H   0  0  0  0  0  0  0  0  0  0  0  0
  152.0750  140.8602  157.2044 H   0  0  0  0  0  0  0  0  0  0  0  0
  151.6902  139.7679  160.0071 H   0  0  0  0  0  0  0  0  0  0  0  0
  153.0232  139.4339  158.8973 H   0  0  0  0  0  0  0  0  0  0  0  0
  153.3373  141.3948  160.7265 H   0  0  0  0  0  0  0  0  0  0  0  0
  153.8357  141.6951  159.0610 H   0  0  0  0  0  0  0  0  0  0  0  0
  153.5947  143.9246  159.1195 H   0  0  0  0  0  0  0  0  0  0  0  0
  150.9767  144.7295  160.6632 H   0  0  0  0  0  0  0  0  0  0  0  0
  152.3791  145.8585  160.2900 H   0  0  0  0  0  0  0  0  0  0  0  0
  152.0267  145.4959  157.8323 H   0  0  0  0  0  0  0  0  0  0  0  0
  150.6226  144.3653  158.1951 H   0  0  0  0  0  0  0  0  0  0  0  0
  150.8481  142.7734  157.7308 H   0  0  0  0  0  0  0  0  0  0  0  0
  149.9960  142.0043  159.0632 H   0  0  0  0  0  0  0  0  0  0  0  0
  151.4698  142.5866  160.4411 H   0  0  0  0  0  0  0  0  0  0  0  0
  1  2  2  0  0  0  0
  2  3  1  0  0  0  0
  2  9  1  0  0  0  0
  3  4  1  0  0  0  0
  3 19  1  0  0  0  0
  3 20  1  0  0  0  0
  4  8  1  0  0  0  0
  4  5  1  0  0  0  0
  5  6  2  0  0  0  0
  5 21  1  0  0  0  0
  6  7  1  0  0  0  0
  7  8  2  0  0  0  0
  9 10  1  0  0  0  0
  9 22  1  0  0  0  0
 10 11  1  0  0  0  0
 10 23  1  0  0  0  0
 10 24  1  0  0  0  0
 11 18  1  0  0  0  0
 11 12  1  0  0  0  0
 11 25  1  0  0  0  0
 12 13  1  0  0  0  0
 12 26  1  0  0  0  0
 12 27  1  0  0  0  0
 13 14  1  0  0  0  0
 13 28  1  0  0  0  0
 13 29  1  0  0  0  0
 14 15  1  0  0  0  0
 14 18  1  0  0  0  0
 14 37  1  0  0  0  0
 15 17  1  0  0  0  0
 15 16  1  0  0  0  0
 15 30  1  0  0  0  0
 16 17  1  0  0  0  0
 16 31  1  0  0  0  0
 16 32  1  0  0  0  0
 17 33  1  0  0  0  0
 17 34  1  0  0  0  0
 18 35  1  0  0  0  0
 18 36  1  0  0  0  0
M  CHG  1  14   1
M  END
> <s_m_source_file>
AV-unprocessed.smi

> <i_m_source_file_index>
1987

> <i_lp_mmshare_version>
43012

> <i_f3d_flags>
0

> <s_epik_input>
bjFubltjSF1uMVtDSDJdQyg9TylbTkhdW0NIMl1bQ0BASF0yW0NIMl1bQ0gyXU4oW0NIMl0yKVtDSF0zW0NIMl1bQ0gyXTM=

> <s_epik_cmdline>
J2VwaWtfcHl0aG9uJywgJy1waCcsICc3LjAnLCAnLXRuJywgJzgnLCAnLW1hJywgJzIwMCcsICctbWV0YWxfYmluZGluZycsICctaW1hZScsICc8aW5maWxlLm1hZT4nLCAnLW9tYWUnLCAnPG91dGZpbGUubWFlPic=

> <r_lp_tautomer_probability>
1

> <r_epik_Ionization_Penalty>
0.000242849

> <r_epik_Ionization_Penalty_Charging>
0.000241326

> <r_epik_Ionization_Penalty_Neutral>
1.52322e-06

> <r_epik_State_Penalty>
-0

> <r_epik_Charging_Adjusted_Penalty>
0.000241326

> <i_epik_Tot_Q>
1

> <i_epik_Tot_abs_Q>
1

> <r_epik_Metal_State_Penalty>
-0

> <b_epik_Metal_Only>
0

> <s_lp_Force_Field>
OPLS_2005

> <r_lp_Energy>
38.2804

> <b_lp_Chiralities_Consistent>
1

> <s_lp_Variant>
AV-unprocessed.smi:1987-3

> <Gold.Version>
5.8.1

> <Gold.Id.Protein>
6NUR|6NUR_protein|mol2

> <Gold.PLP.Fitness>
40.1437

> <Gold.PLP.PLP>
-34.8980

> <Gold.PLP.part.hbond>
-1.0000

> <Gold.PLP.part.metal>
0.0000

> <Gold.PLP.part.buried>
-3.7579

> <Gold.PLP.part.nonpolar>
-30.2478

> <Gold.PLP.part.repulsive>
0.3930

> <Gold.PLP.ligand.clash>
0.0000

> <Gold.PLP.ligand.torsion>
0.9380

> <Gold.PLP.Chemscore.Hbond>
1.0000

> <Gold.PLP.Chemscore.CHOScore>
0.9477

> <Gold.PLP.Chemscore.Metal>
0.0000

> <Gold.Chemscore.Hbonds>
donor molecule, donor type, donor heavy atom, donor atom, acceptor molecule, acceptor atom, score
      P1  H  7989  7998       L1     1  1.00
      L1  C     5    21       P1  8028  0.98

> <Gold.PLP.Chemscore.Internal.Correction>
1.2785

> <Gold.Rescore>
     Score         DG    S(hbond)    S(metal)    S(lipo)     H(rot)  DE(clash)    DE(int)     intcor
     10.69     -11.60       0.99        0.00      81.47       2.62       0.02       0.89       ----

> <Gold.Chemscore.Fitness>
10.6922

> <Gold.Chemscore.DG>
-11.5958

> <Gold.Chemscore.ZeroCoef>
-5.4800

> <Gold.Chemscore.Hbond>
0.9886

> <Gold.Chemscore.Metal>
0.0000

> <Gold.Chemscore.Lipo>
81.4743

> <Gold.Chemscore.Internal_Hbond>
0.0000

> <Gold.Chemscore.DEClash>
0.0153

> <Gold.Chemscore.DEInternal>
0.8884

> <Gold.Chemscore.Rot>
2.6244

> <Gold.Chemscore.Internal.Correction>
   9.000000E+99

> <Gold.Chemscore.Hbonds>
donor molecule, donor type, donor heavy atom, donor atom, acceptor molecule, acceptor atom, score
      P1  H  7989  7998       L1     1  0.79

> <Gold.Chemscore.Hbond.Weighted>
-3.3019

> <Gold.Chemscore.Metal.Weighted>
-0.0000

> <Gold.Chemscore.Lipo.Weighted>
-9.5325

> <Gold.Chemscore.Internal_Hbond.Weighted>
0.0000

> <Gold.Chemscore.DEClash.Weighted>
0.0153

> <Gold.Chemscore.DEInternal.Weighted>
0.8884

> <Gold.Chemscore.Rot.Weighted>
6.7186

> <Gold.Chemscore.Internal.Correction.Weighted>
   9.000000E+99

> <Gold.Protein.RotatedTorsions>
[ 6907 6896 6895 6894 ] final  102.13 input  -60.11 | X-H torsion
[ 7974 7965 7964 7962 ] final   10.81 input  175.53 | X-H torsion
[ 8008 7997 7996 7995 ] final -123.23 input   59.86 | X-H torsion
[ 10167 10162 10161 10158 ] final -173.46 input  -65.29 | X-H torsion
[ 10718 10713 10712 10709 ] final  -31.88 input   66.30 | X-H torsion
[ 10763 10752 10751 10750 ] final  128.88 input  -60.55 | X-H torsion
[ 11005 11000 10999 10996 ] final   87.16 input  -57.11 | X-H torsion

> <Gold.Protein.ActiveResidues>
 VAL166  LYS551  ARG553  GLY616  TRP617  ASP618  TYR619  PRO620  LYS621  CYS622 
 ASP623  PHE694  ASN695  SER759  ASP760  ASP761  ALA762  ILE779  LEU786  VAL792 
 PHE793  MET794  SER795  GLU796  ALA797  LYS798  CYS799  TRP800  GLU811  SER814 

> <Gold.Protein.RotatedAtoms>
  152.5332  134.0022  159.7899 H   0  0  0  0  0  0  0  0  0  0  0  0  # atno 6907 bound_to 6896
  151.0239  133.5844  159.2675 H   0  0  0  0  0  0  0  0  0  0  0  0  # atno 6908 bound_to 6896
  151.2873  135.0738  159.9245 H   0  0  0  0  0  0  0  0  0  0  0  0  # atno 6909 bound_to 6896
  146.2382  139.9579  142.8462 H   0  0  0  0  0  0  0  0  0  0  0  0  # atno 7974 bound_to 7965
  155.1772  140.0409  157.2875 H   0  0  0  0  0  0  0  0  0  0  0  0  # atno 8008 bound_to 7997
  154.6229  140.2505  155.7500 H   0  0  0  0  0  0  0  0  0  0  0  0  # atno 8009 bound_to 7997
  156.2443  140.2891  156.0545 H   0  0  0  0  0  0  0  0  0  0  0  0  # atno 8010 bound_to 7997
  139.5687  144.1693  152.1352 H   0  0  0  0  0  0  0  0  0  0  0  0  # atno 10167 bound_to 10162
  156.3818  130.4357  149.7463 H   0  0  0  0  0  0  0  0  0  0  0  0  # atno 10718 bound_to 10713
  153.7327  135.3236  155.3289 H   0  0  0  0  0  0  0  0  0  0  0  0  # atno 10763 bound_to 10752
  154.8320  135.4526  154.1105 H   0  0  0  0  0  0  0  0  0  0  0  0  # atno 10764 bound_to 10752
  153.2257  135.6954  153.8029 H   0  0  0  0  0  0  0  0  0  0  0  0  # atno 10765 bound_to 10752
  139.8926  134.8403  156.2821 H   0  0  0  0  0  0  0  0  0  0  0  0  # atno 11005 bound_to 11000
  145.1799  140.9762  143.4272 LP  0  0  0  0  0  0  0  0  0  0  0  0  # atno 17320 bound_to 7965
  144.9951  139.3651  143.6195 LP  0  0  0  0  0  0  0  0  0  0  0  0  # atno 17321 bound_to 7965
  140.1221  144.5363  150.6856 LP  0  0  0  0  0  0  0  0  0  0  0  0  # atno 17342 bound_to 10162
  140.6971  143.2411  151.4969 LP  0  0  0  0  0  0  0  0  0  0  0  0  # atno 17343 bound_to 10162
  156.4550  130.7925  151.2946 LP  0  0  0  0  0  0  0  0  0  0  0  0  # atno 17370 bound_to 10713
  157.7493  131.0083  150.3225 LP  0  0  0  0  0  0  0  0  0  0  0  0  # atno 17371 bound_to 10713
  141.0032  133.7139  156.0993 LP  0  0  0  0  0  0  0  0  0  0  0  0  # atno 17394 bound_to 11000
  140.7469  134.4088  157.5547 LP  0  0  0  0  0  0  0  0  0  0  0  0  # atno 17395 bound_to 11000

$$$$
