AV-unprocessed.smi:1641|AV-procd|sdf|6569|dock1
  -GOLD-   22720 7253D 1   1.00000     0.00000
 Structure written by MMmdl.
 41 42  0  0  0  0  0  0  0  0  3 V2000
  149.2066  140.8083  154.3752 C   0  0  0  0  0  0  0  0  0  0  0  0
  149.9510  139.5202  154.4639 C   0  0  0  0  0  0  0  0  0  0  0  0
  151.2809  139.4422  154.3722 N   0  0  0  0  0  0  0  0  0  0  0  0
  151.7363  138.1363  154.4802 N   0  0  0  0  0  0  0  0  0  0  0  0
  150.7485  137.2476  154.6585 C   0  0  0  0  0  0  0  0  0  0  0  0
  150.9796  135.9296  154.7772 N   0  5  0  0  0  0  0  0  0  0  0  0
  149.9452  135.0701  154.9145 C   0  0  0  0  0  0  0  0  0  0  0  0
  149.1671  135.0044  155.8688 O   0  0  0  0  0  0  0  0  0  0  0  0
  149.8036  134.2311  153.8803 N   0  0  0  0  0  0  0  0  0  0  0  0
  148.7884  133.1928  153.7756 C   0  0  0  0  0  0  0  0  0  0  0  0
  147.3839  133.8100  153.8584 C   0  0  0  0  0  0  0  0  0  0  0  0
  147.0258  134.5559  152.6232 N   0  3  1  0  0  0  0  0  0  0  0  0
  146.8495  133.6882  151.4327 C   0  0  0  0  0  0  0  0  0  0  0  0
  145.4863  132.9669  151.4612 C   0  0  2  0  0  0  0  0  0  0  0  0
  145.2456  132.1351  150.1964 C   0  0  0  0  0  0  0  0  0  0  0  0
  144.4518  133.9407  151.5507 O   0  0  0  0  0  0  0  0  0  0  0  0
  144.5265  134.7183  152.7408 C   0  0  2  0  0  0  0  0  0  0  0  0
  143.3257  135.6702  152.7616 C   0  0  0  0  0  0  0  0  0  0  0  0
  145.8706  135.4786  152.7674 C   0  0  0  0  0  0  0  0  0  0  0  0
  149.1437  137.9775  154.6890 S   0  0  0  0  0  0  0  0  0  0  0  0
  149.8852  141.6531  154.4975 H   0  0  0  0  0  0  0  0  0  0  0  0
  148.4474  140.8557  155.1559 H   0  0  0  0  0  0  0  0  0  0  0  0
  148.7180  140.8884  153.4040 H   0  0  0  0  0  0  0  0  0  0  0  0
  150.4589  134.3191  153.1173 H   0  0  0  0  0  0  0  0  0  0  0  0
  148.9301  132.6632  152.8333 H   0  0  0  0  0  0  0  0  0  0  0  0
  148.9279  132.4681  154.5793 H   0  0  0  0  0  0  0  0  0  0  0  0
  146.6706  132.9973  154.0036 H   0  0  0  0  0  0  0  0  0  0  0  0
  147.2977  134.4503  154.7362 H   0  0  0  0  0  0  0  0  0  0  0  0
  146.9105  134.3162  150.5427 H   0  0  0  0  0  0  0  0  0  0  0  0
  147.6690  132.9724  151.3561 H   0  0  0  0  0  0  0  0  0  0  0  0
  145.4320  132.3018  152.3246 H   0  0  0  0  0  0  0  0  0  0  0  0
  146.0067  131.3627  150.0831 H   0  0  0  0  0  0  0  0  0  0  0  0
  145.2649  132.7591  149.3024 H   0  0  0  0  0  0  0  0  0  0  0  0
  144.2747  131.6404  150.2354 H   0  0  0  0  0  0  0  0  0  0  0  0
  144.4475  134.0573  153.6049 H   0  0  0  0  0  0  0  0  0  0  0  0
  143.3269  136.2835  153.6629 H   0  0  0  0  0  0  0  0  0  0  0  0
  142.3880  135.1142  152.7406 H   0  0  0  0  0  0  0  0  0  0  0  0
  143.3348  136.3393  151.9006 H   0  0  0  0  0  0  0  0  0  0  0  0
  145.9566  136.0761  153.6742 H   0  0  0  0  0  0  0  0  0  0  0  0
  145.9016  136.1851  151.9368 H   0  0  0  0  0  0  0  0  0  0  0  0
  147.8323  135.1314  152.4260 H   0  0  0  0  0  0  0  0  0  0  0  0
  1  2  1  0  0  0  0
  1 21  1  0  0  0  0
  1 22  1  0  0  0  0
  1 23  1  0  0  0  0
  2 20  1  0  0  0  0
  2  3  2  0  0  0  0
  3  4  1  0  0  0  0
  4  5  2  0  0  0  0
  5  6  1  0  0  0  0
  5 20  1  0  0  0  0
  6  7  1  0  0  0  0
  7  8  2  0  0  0  0
  7  9  1  0  0  0  0
  9 10  1  0  0  0  0
  9 24  1  0  0  0  0
 10 11  1  0  0  0  0
 10 25  1  0  0  0  0
 10 26  1  0  0  0  0
 11 12  1  0  0  0  0
 11 27  1  0  0  0  0
 11 28  1  0  0  0  0
 12 19  1  0  0  0  0
 12 13  1  0  0  0  0
 12 41  1  0  0  0  0
 13 14  1  0  0  0  0
 13 29  1  0  0  0  0
 13 30  1  0  0  0  0
 14 15  1  0  0  0  0
 14 16  1  0  0  0  0
 14 31  1  0  0  0  0
 15 32  1  0  0  0  0
 15 33  1  0  0  0  0
 15 34  1  0  0  0  0
 16 17  1  0  0  0  0
 17 18  1  0  0  0  0
 17 19  1  0  0  0  0
 17 35  1  0  0  0  0
 18 36  1  0  0  0  0
 18 37  1  0  0  0  0
 18 38  1  0  0  0  0
 19 39  1  0  0  0  0
 19 40  1  0  0  0  0
M  CHG  1   6  -1
M  CHG  1  12   1
M  END
> <s_m_source_file>
AV-unprocessed.smi

> <i_m_source_file_index>
1641

> <i_lp_mmshare_version>
43012

> <i_f3d_flags>
0

> <s_epik_input>
W0NIM11jMW5uYyhzMSlbTkhdQyg9TylbTkhdW0NIMl1bQ0gyXU4yW0NIMl1bQ0BASF0oW0NIM10pT1tDQEBIXShbQ0gzXSlbQ0gyXTI=

> <s_epik_cmdline>
J2VwaWtfcHl0aG9uJywgJy1waCcsICc3LjAnLCAnLXRuJywgJzgnLCAnLW1hJywgJzIwMCcsICctbWV0YWxfYmluZGluZycsICctaW1hZScsICc8aW5maWxlLm1hZT4nLCAnLW9tYWUnLCAnPG91dGZpbGUubWFlPic=

> <r_lp_tautomer_probability>
1

> <r_epik_Ionization_Penalty>
3.5343

> <r_epik_Ionization_Penalty_Charging>
3.42778

> <r_epik_Ionization_Penalty_Neutral>
0.106519

> <r_epik_State_Penalty>
3.62118

> <r_epik_Charging_Adjusted_Penalty>
7.04896

> <i_epik_Tot_Q>
0

> <i_epik_Tot_abs_Q>
2

> <r_epik_Metal_State_Penalty>
1.13984

> <b_epik_Metal_Only>
1

> <s_lp_Force_Field>
OPLS_2005

> <r_lp_Energy>
10.5073

> <b_lp_Chiralities_Consistent>
1

> <s_lp_Variant>
AV-unprocessed.smi:1641-14

> <Gold.Version>
5.8.1

> <Gold.Id.Protein>
6NUR|6NUR_protein|mol2

> <Gold.PLP.Fitness>
44.6005

> <Gold.PLP.PLP>
-30.9367

> <Gold.PLP.part.hbond>
-4.3523

> <Gold.PLP.part.metal>
0.0000

> <Gold.PLP.part.buried>
-3.2987

> <Gold.PLP.part.nonpolar>
-23.2867

> <Gold.PLP.part.repulsive>
0.6408

> <Gold.PLP.ligand.clash>
0.0000

> <Gold.PLP.ligand.torsion>
0.7406

> <Gold.PLP.Chemscore.Hbond>
5.0000

> <Gold.PLP.Chemscore.CHOScore>
0.0000

> <Gold.PLP.Chemscore.Metal>
0.0000

> <Gold.Chemscore.Hbonds>
donor molecule, donor type, donor heavy atom, donor atom, acceptor molecule, acceptor atom, score
      L1  H    12    41       P1  7948  2.00
      P1  H  7989  7998       L1     3  1.00
      P1  H 10752 10765       L1     6  2.00

> <Gold.PLP.Chemscore.Internal.Correction>
0.1450

> <Gold.Rescore>
     Score         DG    S(hbond)    S(metal)    S(lipo)     H(rot)  DE(clash)    DE(int)     intcor
     15.09     -17.98       2.83        0.00      61.37       1.61       1.26       1.63       ----

> <Gold.Chemscore.Fitness>
15.0905

> <Gold.Chemscore.DG>
-17.9819

> <Gold.Chemscore.ZeroCoef>
-5.4800

> <Gold.Chemscore.Hbond>
2.8251

> <Gold.Chemscore.Metal>
0.0000

> <Gold.Chemscore.Lipo>
61.3686

> <Gold.Chemscore.Internal_Hbond>
0.0000

> <Gold.Chemscore.DEClash>
1.2618

> <Gold.Chemscore.DEInternal>
1.6296

> <Gold.Chemscore.Rot>
1.6070

> <Gold.Chemscore.Internal.Correction>
   9.000000E+99

> <Gold.Chemscore.Hbonds>
donor molecule, donor type, donor heavy atom, donor atom, acceptor molecule, acceptor atom, score
      L1  H    12    41       P1  7948  0.96
      P1  H  7989  7998       L1     3  0.35
      P1  H 10752 10765       L1     6  0.63

> <Gold.Chemscore.Hbond.Weighted>
-9.4357

> <Gold.Chemscore.Metal.Weighted>
-0.0000

> <Gold.Chemscore.Lipo.Weighted>
-7.1801

> <Gold.Chemscore.Internal_Hbond.Weighted>
0.0000

> <Gold.Chemscore.DEClash.Weighted>
1.2618

> <Gold.Chemscore.DEInternal.Weighted>
1.6296

> <Gold.Chemscore.Rot.Weighted>
4.1139

> <Gold.Chemscore.Internal.Correction.Weighted>
   9.000000E+99

> <Gold.Protein.RotatedTorsions>
[ 6907 6896 6895 6894 ] final   62.19 input  -60.11 | X-H torsion
[ 7974 7965 7964 7962 ] final  -60.05 input  175.53 | X-H torsion
[ 8008 7997 7996 7995 ] final  -12.26 input   59.86 | X-H torsion
[ 10167 10162 10161 10158 ] final   29.19 input  -65.29 | X-H torsion
[ 10718 10713 10712 10709 ] final  -90.23 input   66.30 | X-H torsion
[ 10763 10752 10751 10750 ] final  167.39 input  -60.55 | X-H torsion
[ 11005 11000 10999 10996 ] final  178.12 input  -57.11 | X-H torsion

> <Gold.Protein.ActiveResidues>
 VAL166  LYS551  ARG553  GLY616  TRP617  ASP618  TYR619  PRO620  LYS621  CYS622 
 ASP623  PHE694  ASN695  SER759  ASP760  ASP761  ALA762  ILE779  LEU786  VAL792 
 PHE793  MET794  SER795  GLU796  ALA797  LYS798  CYS799  TRP800  GLU811  SER814 

> <Gold.Protein.RotatedAtoms>
  152.4151  134.6055  160.0011 H   0  0  0  0  0  0  0  0  0  0  0  0  # atno 6907 bound_to 6896
  151.6221  133.3333  159.3098 H   0  0  0  0  0  0  0  0  0  0  0  0  # atno 6908 bound_to 6896
  150.8040  134.7193  159.6693 H   0  0  0  0  0  0  0  0  0  0  0  0  # atno 6909 bound_to 6896
  145.8202  140.8545  143.0137 H   0  0  0  0  0  0  0  0  0  0  0  0  # atno 7974 bound_to 7965
  154.5393  140.2281  155.8669 H   0  0  0  0  0  0  0  0  0  0  0  0  # atno 8008 bound_to 7997
  156.1842  140.3093  155.9169 H   0  0  0  0  0  0  0  0  0  0  0  0  # atno 8009 bound_to 7997
  155.3291  140.0444  157.3032 H   0  0  0  0  0  0  0  0  0  0  0  0  # atno 8010 bound_to 7997
  140.4787  144.0650  150.6258 H   0  0  0  0  0  0  0  0  0  0  0  0  # atno 10167 bound_to 10162
  155.9987  130.4902  150.5291 H   0  0  0  0  0  0  0  0  0  0  0  0  # atno 10718 bound_to 10713
  154.3531  135.2753  155.2361 H   0  0  0  0  0  0  0  0  0  0  0  0  # atno 10763 bound_to 10752
  154.4582  135.5914  153.6241 H   0  0  0  0  0  0  0  0  0  0  0  0  # atno 10764 bound_to 10752
  152.9848  135.6058  154.3744 H   0  0  0  0  0  0  0  0  0  0  0  0  # atno 10765 bound_to 10752
  140.3916  134.6857  157.4511 H   0  0  0  0  0  0  0  0  0  0  0  0  # atno 11005 bound_to 11000
  144.6748  140.0522  143.7478 LP  0  0  0  0  0  0  0  0  0  0  0  0  # atno 17320 bound_to 7965
  145.9683  139.2851  143.1114 LP  0  0  0  0  0  0  0  0  0  0  0  0  # atno 17321 bound_to 7965
  140.3885  143.2765  152.0088 LP  0  0  0  0  0  0  0  0  0  0  0  0  # atno 17342 bound_to 10162
  139.4830  144.6097  151.7457 LP  0  0  0  0  0  0  0  0  0  0  0  0  # atno 17343 bound_to 10162
  157.3243  131.0687  151.1909 LP  0  0  0  0  0  0  0  0  0  0  0  0  # atno 17370 bound_to 10713
  157.2811  130.6750  149.6066 LP  0  0  0  0  0  0  0  0  0  0  0  0  # atno 17371 bound_to 10713
  140.0402  134.6278  155.8990 LP  0  0  0  0  0  0  0  0  0  0  0  0  # atno 17394 bound_to 11000
  141.1889  133.6564  156.5343 LP  0  0  0  0  0  0  0  0  0  0  0  0  # atno 17395 bound_to 11000

$$$$
