AV-unprocessed.smi:3286|AV-procd|sdf|12588|dock1
  -GOLD-   2272018513D 1   1.00000     0.00000
 Structure written by MMmdl.
 43 44  0  0  0  0  0  0  0  0  2 V2000
  144.7827  132.3384  149.5268 C   0  0  0  0  0  0  0  0  0  0  0  0
  145.1288  133.5257  150.4009 C   0  0  0  0  0  0  0  0  0  0  0  0
  146.0743  133.4062  151.4411 C   0  0  0  0  0  0  0  0  0  0  0  0
  146.3588  134.5417  152.2231 C   0  0  0  0  0  0  0  0  0  0  0  0
  145.6891  135.7496  151.9378 C   0  0  0  0  0  0  0  0  0  0  0  0
  145.9365  136.9978  152.7666 C   0  0  0  0  0  0  0  0  0  0  0  0
  146.4180  138.1810  151.9138 C   0  0  0  0  0  0  0  0  0  0  0  0
  147.7597  138.6341  152.3360 N   0  3  0  0  0  0  0  0  0  0  0  0
  147.8294  139.1967  153.7029 C   0  0  2  0  0  0  0  0  0  0  0  0
  146.7756  140.3106  153.8218 C   0  0  0  0  0  0  0  0  0  0  0  0
  149.2715  139.6831  154.0059 C   0  0  0  0  0  0  0  0  0  0  0  0
  150.2915  138.5238  153.9867 C   0  0  0  0  0  0  0  0  0  0  0  0
  151.7010  139.0089  154.3607 C   0  0  0  0  0  0  0  0  0  0  0  0
  151.6753  139.6289  155.6397 O   0  0  0  0  0  0  0  0  0  0  0  0
  150.8469  140.7841  155.6721 C   0  0  0  0  0  0  0  0  0  0  0  0
  149.3906  140.3961  155.3687 C   0  0  0  0  0  0  0  0  0  0  0  0
  144.7687  135.7650  150.8678 C   0  0  0  0  0  0  0  0  0  0  0  0
  144.4864  134.6800  150.1165 N   0  0  0  0  0  0  0  0  0  0  0  0
  145.1132  131.4047  149.9829 H   0  0  0  0  0  0  0  0  0  0  0  0
  145.2659  132.4337  148.5541 H   0  0  0  0  0  0  0  0  0  0  0  0
  143.7051  132.2749  149.3715 H   0  0  0  0  0  0  0  0  0  0  0  0
  146.5706  132.4667  151.6366 H   0  0  0  0  0  0  0  0  0  0  0  0
  147.0737  134.4807  153.0308 H   0  0  0  0  0  0  0  0  0  0  0  0
  145.0260  137.2693  153.3030 H   0  0  0  0  0  0  0  0  0  0  0  0
  146.6821  136.7666  153.5284 H   0  0  0  0  0  0  0  0  0  0  0  0
  146.4536  137.8957  150.8618 H   0  0  0  0  0  0  0  0  0  0  0  0
  145.7097  139.0065  151.9981 H   0  0  0  0  0  0  0  0  0  0  0  0
  148.3837  137.8407  152.2948 H   0  0  0  0  0  0  0  0  0  0  0  0
  147.5680  138.4209  154.4251 H   0  0  0  0  0  0  0  0  0  0  0  0
  146.6841  140.6752  154.8444 H   0  0  0  0  0  0  0  0  0  0  0  0
  145.7898  139.9469  153.5294 H   0  0  0  0  0  0  0  0  0  0  0  0
  147.0187  141.1598  153.1821 H   0  0  0  0  0  0  0  0  0  0  0  0
  149.5601  140.3964  153.2317 H   0  0  0  0  0  0  0  0  0  0  0  0
  149.9816  137.7461  154.6861 H   0  0  0  0  0  0  0  0  0  0  0  0
  150.3316  138.0577  153.0023 H   0  0  0  0  0  0  0  0  0  0  0  0
  152.3902  138.1649  154.3939 H   0  0  0  0  0  0  0  0  0  0  0  0
  152.0854  139.7041  153.6127 H   0  0  0  0  0  0  0  0  0  0  0  0
  150.9143  141.2369  156.6614 H   0  0  0  0  0  0  0  0  0  0  0  0
  151.2092  141.5260  154.9585 H   0  0  0  0  0  0  0  0  0  0  0  0
  148.7809  141.2989  155.3894 H   0  0  0  0  0  0  0  0  0  0  0  0
  149.0168  139.7465  156.1612 H   0  0  0  0  0  0  0  0  0  0  0  0
  144.2330  136.6692  150.6179 H   0  0  0  0  0  0  0  0  0  0  0  0
  148.0855  139.3300  151.6807 H   0  0  0  0  0  0  0  0  0  0  0  0
  1  2  1  0  0  0  0
  1 19  1  0  0  0  0
  1 20  1  0  0  0  0
  1 21  1  0  0  0  0
  2 18  1  0  0  0  0
  2  3  2  0  0  0  0
  3  4  1  0  0  0  0
  3 22  1  0  0  0  0
  4  5  2  0  0  0  0
  4 23  1  0  0  0  0
  5  6  1  0  0  0  0
  5 17  1  0  0  0  0
  6  7  1  0  0  0  0
  6 24  1  0  0  0  0
  6 25  1  0  0  0  0
  7  8  1  0  0  0  0
  7 26  1  0  0  0  0
  7 27  1  0  0  0  0
  8  9  1  0  0  0  0
  8 28  1  0  0  0  0
  8 43  1  0  0  0  0
  9 10  1  0  0  0  0
  9 11  1  0  0  0  0
  9 29  1  0  0  0  0
 10 30  1  0  0  0  0
 10 31  1  0  0  0  0
 10 32  1  0  0  0  0
 11 16  1  0  0  0  0
 11 12  1  0  0  0  0
 11 33  1  0  0  0  0
 12 13  1  0  0  0  0
 12 34  1  0  0  0  0
 12 35  1  0  0  0  0
 13 14  1  0  0  0  0
 13 36  1  0  0  0  0
 13 37  1  0  0  0  0
 14 15  1  0  0  0  0
 15 16  1  0  0  0  0
 15 38  1  0  0  0  0
 15 39  1  0  0  0  0
 16 40  1  0  0  0  0
 16 41  1  0  0  0  0
 17 18  2  0  0  0  0
 17 42  1  0  0  0  0
M  CHG  1   8   1
M  END
> <s_m_source_file>
AV-unprocessed.smi

> <i_m_source_file_index>
3286

> <i_lp_mmshare_version>
43012

> <i_f3d_flags>
0

> <s_epik_input>
W0NIM11jMVtjSF1bY0hdYyhbY0hdbjEpW0NIMl1bQ0gyXVtOSF1bQ0BIXShbQ0gzXSlbQ0hdMltDSDJdW0NIMl1PW0NIMl1bQ0gyXTI=

> <s_epik_cmdline>
J2VwaWtfcHl0aG9uJywgJy1waCcsICc3LjAnLCAnLXRuJywgJzgnLCAnLW1hJywgJzIwMCcsICctbWV0YWxfYmluZGluZycsICctaW1hZScsICc8aW5maWxlLm1hZT4nLCAnLW9tYWUnLCAnPG91dGZpbGUubWFlPic=

> <r_lp_tautomer_probability>
1

> <r_epik_Ionization_Penalty>
0.00336271

> <r_epik_Ionization_Penalty_Charging>
0.000752246

> <r_epik_Ionization_Penalty_Neutral>
0.00261046

> <r_epik_State_Penalty>
-0

> <r_epik_Charging_Adjusted_Penalty>
0.000752246

> <i_epik_Tot_Q>
1

> <i_epik_Tot_abs_Q>
1

> <r_epik_Metal_State_Penalty>
-0

> <b_epik_Metal_Only>
0

> <s_lp_Force_Field>
OPLS_2005

> <r_lp_Energy>
17.7254

> <b_lp_Chiralities_Consistent>
1

> <s_lp_Variant>
AV-unprocessed.smi:3286-1

> <Gold.Version>
5.8.1

> <Gold.Id.Protein>
6NUR|6NUR_protein|mol2

> <Gold.PLP.Fitness>
46.6845

> <Gold.PLP.PLP>
-35.4726

> <Gold.PLP.part.hbond>
-2.0000

> <Gold.PLP.part.metal>
0.0000

> <Gold.PLP.part.buried>
-1.9361

> <Gold.PLP.part.nonpolar>
-32.4015

> <Gold.PLP.part.repulsive>
0.5046

> <Gold.PLP.ligand.clash>
0.0000

> <Gold.PLP.ligand.torsion>
0.4236

> <Gold.PLP.Chemscore.Hbond>
3.0000

> <Gold.PLP.Chemscore.CHOScore>
1.0000

> <Gold.PLP.Chemscore.Metal>
0.0000

> <Gold.Chemscore.Hbonds>
donor molecule, donor type, donor heavy atom, donor atom, acceptor molecule, acceptor atom, score
      L1  H     8    28       P1  7948  2.00
      L1  H     8    43       P1  7957  0.80
      L1  C    17    42       P1 10171  1.00

> <Gold.PLP.Chemscore.Internal.Correction>
0.0592

> <Gold.Rescore>
     Score         DG    S(hbond)    S(metal)    S(lipo)     H(rot)  DE(clash)    DE(int)     intcor
     18.91     -19.57       1.85        0.00      98.88       1.43       0.23       0.43       ----

> <Gold.Chemscore.Fitness>
18.9101

> <Gold.Chemscore.DG>
-19.5659

> <Gold.Chemscore.ZeroCoef>
-5.4800

> <Gold.Chemscore.Hbond>
1.8508

> <Gold.Chemscore.Metal>
0.0000

> <Gold.Chemscore.Lipo>
98.8829

> <Gold.Chemscore.Internal_Hbond>
0.0000

> <Gold.Chemscore.DEClash>
0.2283

> <Gold.Chemscore.DEInternal>
0.4275

> <Gold.Chemscore.Rot>
1.4317

> <Gold.Chemscore.Internal.Correction>
   9.000000E+99

> <Gold.Chemscore.Hbonds>
donor molecule, donor type, donor heavy atom, donor atom, acceptor molecule, acceptor atom, score
      L1  H     8    28       P1  7948  0.99
      L1  H     8    43       P1  7957  0.79

> <Gold.Chemscore.Hbond.Weighted>
-6.1817

> <Gold.Chemscore.Metal.Weighted>
-0.0000

> <Gold.Chemscore.Lipo.Weighted>
-11.5693

> <Gold.Chemscore.Internal_Hbond.Weighted>
0.0000

> <Gold.Chemscore.DEClash.Weighted>
0.2283

> <Gold.Chemscore.DEInternal.Weighted>
0.4275

> <Gold.Chemscore.Rot.Weighted>
3.6651

> <Gold.Chemscore.Internal.Correction.Weighted>
   9.000000E+99

> <Gold.Protein.RotatedTorsions>
[ 6907 6896 6895 6894 ] final  -31.72 input  -60.11 | X-H torsion
[ 7974 7965 7964 7962 ] final  -72.29 input  175.53 | X-H torsion
[ 8008 7997 7996 7995 ] final  163.08 input   59.86 | X-H torsion
[ 10167 10162 10161 10158 ] final  -47.41 input  -65.29 | X-H torsion
[ 10718 10713 10712 10709 ] final  -12.50 input   66.30 | X-H torsion
[ 10763 10752 10751 10750 ] final  -94.01 input  -60.55 | X-H torsion
[ 11005 11000 10999 10996 ] final  100.97 input  -57.11 | X-H torsion

> <Gold.Protein.ActiveResidues>
 VAL166  LYS551  ARG553  GLY616  TRP617  ASP618  TYR619  PRO620  LYS621  CYS622 
 ASP623  PHE694  ASN695  SER759  ASP760  ASP761  ALA762  ILE779  LEU786  VAL792 
 PHE793  MET794  SER795  GLU796  ALA797  LYS798  CYS799  TRP800  GLU811  SER814 

> <Gold.Protein.RotatedAtoms>
  151.0882  134.9900  159.8389 H   0  0  0  0  0  0  0  0  0  0  0  0  # atno 6907 bound_to 6896
  152.5426  134.2097  159.8755 H   0  0  0  0  0  0  0  0  0  0  0  0  # atno 6908 bound_to 6896
  151.2132  133.4500  159.2632 H   0  0  0  0  0  0  0  0  0  0  0  0  # atno 6909 bound_to 6896
  145.6670  140.9234  143.0903 H   0  0  0  0  0  0  0  0  0  0  0  0  # atno 7974 bound_to 7965
  156.1984  140.1733  156.7951 H   0  0  0  0  0  0  0  0  0  0  0  0  # atno 8008 bound_to 7997
  154.5559  140.0708  156.8774 H   0  0  0  0  0  0  0  0  0  0  0  0  # atno 8009 bound_to 7997
  155.2939  140.3357  155.4253 H   0  0  0  0  0  0  0  0  0  0  0  0  # atno 8010 bound_to 7997
  140.6776  143.2786  151.3922 H   0  0  0  0  0  0  0  0  0  0  0  0  # atno 10167 bound_to 10162
  156.6438  130.4935  149.6086 H   0  0  0  0  0  0  0  0  0  0  0  0  # atno 10718 bound_to 10713
  154.7014  135.5173  153.8532 H   0  0  0  0  0  0  0  0  0  0  0  0  # atno 10763 bound_to 10752
  153.0707  135.6600  154.0264 H   0  0  0  0  0  0  0  0  0  0  0  0  # atno 10764 bound_to 10752
  154.0122  135.3001  155.3370 H   0  0  0  0  0  0  0  0  0  0  0  0  # atno 10765 bound_to 10752
  139.8772  134.9163  156.4836 H   0  0  0  0  0  0  0  0  0  0  0  0  # atno 11005 bound_to 11000
  144.7069  139.8523  143.7427 LP  0  0  0  0  0  0  0  0  0  0  0  0  # atno 17320 bound_to 7965
  146.1077  139.4079  143.0307 LP  0  0  0  0  0  0  0  0  0  0  0  0  # atno 17321 bound_to 7965
  139.6078  144.1161  152.2267 LP  0  0  0  0  0  0  0  0  0  0  0  0  # atno 17342 bound_to 10162
  140.0565  144.5891  150.7296 LP  0  0  0  0  0  0  0  0  0  0  0  0  # atno 17343 bound_to 10162
  156.2138  130.6695  151.1297 LP  0  0  0  0  0  0  0  0  0  0  0  0  # atno 17370 bound_to 10713
  157.7163  131.0708  150.6315 LP  0  0  0  0  0  0  0  0  0  0  0  0  # atno 17371 bound_to 10713
  140.8709  133.7989  155.9364 LP  0  0  0  0  0  0  0  0  0  0  0  0  # atno 17394 bound_to 11000
  140.8953  134.2445  157.5072 LP  0  0  0  0  0  0  0  0  0  0  0  0  # atno 17395 bound_to 11000

$$$$
