AV-unprocessed.smi:2678|AV-procd|sdf|10366|dock2
  -GOLD-   2272014393D 1   1.00000     0.00000
 Structure written by MMmdl.
 46 47  0  0  0  0  0  0  0  0  1 V2000
  150.9553  140.4082  157.0666 C   0  0  0  0  0  0  0  0  0  0  0  0
  151.0034  141.8187  156.4640 C   0  0  0  0  0  0  0  0  0  0  0  0
  151.2315  142.8934  157.5353 C   0  0  0  0  0  0  0  0  0  0  0  0
  149.7556  142.0926  155.7557 N   0  0  0  0  0  0  0  0  0  0  0  0
  149.2407  141.3673  154.7497 C   0  0  0  0  0  0  0  0  0  0  0  0
  149.7821  140.3544  154.3069 O   0  0  0  0  0  0  0  0  0  0  0  0
  147.9130  141.8769  154.1576 C   0  0  2  0  0  0  0  0  0  0  0  0
  146.8984  142.3230  155.2375 C   0  0  0  0  0  0  0  0  0  0  0  0
  146.1741  141.1532  155.9306 C   0  0  0  0  0  0  0  0  0  0  0  0
  145.5348  140.2020  154.9074 C   0  0  0  0  0  0  0  0  0  0  0  0
  146.5803  139.6754  153.9099 C   0  0  1  0  0  0  0  0  0  0  0  0
  145.9376  138.7799  152.9456 N   0  0  0  0  0  0  0  0  0  0  0  0
  146.1255  137.4562  152.7882 C   0  0  0  0  0  0  0  0  0  0  0  0
  146.9255  136.8411  153.4893 O   0  0  0  0  0  0  0  0  0  0  0  0
  145.3806  136.9097  151.8067 N   0  0  0  0  0  0  0  0  0  0  0  0
  145.2790  135.5538  151.3953 C   0  0  0  0  0  0  0  0  0  0  0  0
  145.9626  134.4729  152.0034 C   0  0  0  0  0  0  0  0  0  0  0  0
  145.7560  133.1721  151.5046 C   0  0  0  0  0  0  0  0  0  0  0  0
  144.8721  132.9983  150.4222 C   0  0  0  0  0  0  0  0  0  0  0  0
  144.2062  134.0174  149.8399 N   0  0  0  0  0  0  0  0  0  0  0  0
  144.4088  135.2615  150.3236 C   0  0  0  0  0  0  0  0  0  0  0  0
  147.2747  140.8548  153.1896 C   0  0  0  0  0  0  0  0  0  0  0  0
  151.8820  140.1757  157.5921 H   0  0  0  0  0  0  0  0  0  0  0  0
  150.8199  139.6545  156.2902 H   0  0  0  0  0  0  0  0  0  0  0  0
  150.1349  140.3061  157.7779 H   0  0  0  0  0  0  0  0  0  0  0  0
  151.8481  141.8567  155.7744 H   0  0  0  0  0  0  0  0  0  0  0  0
  152.1645  142.7187  158.0719 H   0  0  0  0  0  0  0  0  0  0  0  0
  150.4235  142.9047  158.2676 H   0  0  0  0  0  0  0  0  0  0  0  0
  151.2908  143.8864  157.0878 H   0  0  0  0  0  0  0  0  0  0  0  0
  149.2405  142.9085  156.0536 H   0  0  0  0  0  0  0  0  0  0  0  0
  148.1560  142.7636  153.5693 H   0  0  0  0  0  0  0  0  0  0  0  0
  147.3928  142.9429  155.9868 H   0  0  0  0  0  0  0  0  0  0  0  0
  146.1520  142.9657  154.7691 H   0  0  0  0  0  0  0  0  0  0  0  0
  146.8679  140.5994  156.5629 H   0  0  0  0  0  0  0  0  0  0  0  0
  145.4059  141.5433  156.5988 H   0  0  0  0  0  0  0  0  0  0  0  0
  145.0612  139.3695  155.4289 H   0  0  0  0  0  0  0  0  0  0  0  0
  144.7403  140.7246  154.3725 H   0  0  0  0  0  0  0  0  0  0  0  0
  147.3124  139.1015  154.4786 H   0  0  0  0  0  0  0  0  0  0  0  0
  145.2685  139.2135  152.3258 H   0  0  0  0  0  0  0  0  0  0  0  0
  144.8230  137.5605  151.2725 H   0  0  0  0  0  0  0  0  0  0  0  0
  146.6264  134.6064  152.8426 H   0  0  0  0  0  0  0  0  0  0  0  0
  146.2616  132.3258  151.9454 H   0  0  0  0  0  0  0  0  0  0  0  0
  144.6913  132.0137  150.0168 H   0  0  0  0  0  0  0  0  0  0  0  0
  143.8565  136.0519  149.8357 H   0  0  0  0  0  0  0  0  0  0  0  0
  146.5426  141.3736  152.5691 H   0  0  0  0  0  0  0  0  0  0  0  0
  148.0331  140.4838  152.4987 H   0  0  0  0  0  0  0  0  0  0  0  0
  1  2  1  0  0  0  0
  1 23  1  0  0  0  0
  1 24  1  0  0  0  0
  1 25  1  0  0  0  0
  2  3  1  0  0  0  0
  2  4  1  0  0  0  0
  2 26  1  0  0  0  0
  3 27  1  0  0  0  0
  3 28  1  0  0  0  0
  3 29  1  0  0  0  0
  4  5  1  0  0  0  0
  4 30  1  0  0  0  0
  5  6  2  0  0  0  0
  5  7  1  0  0  0  0
  7 22  1  0  0  0  0
  7  8  1  0  0  0  0
  7 31  1  0  0  0  0
  8  9  1  0  0  0  0
  8 32  1  0  0  0  0
  8 33  1  0  0  0  0
  9 10  1  0  0  0  0
  9 34  1  0  0  0  0
  9 35  1  0  0  0  0
 10 11  1  0  0  0  0
 10 36  1  0  0  0  0
 10 37  1  0  0  0  0
 11 12  1  0  0  0  0
 11 22  1  0  0  0  0
 11 38  1  0  0  0  0
 12 13  1  0  0  0  0
 12 39  1  0  0  0  0
 13 14  2  0  0  0  0
 13 15  1  0  0  0  0
 15 16  1  0  0  0  0
 15 40  1  0  0  0  0
 16 21  1  0  0  0  0
 16 17  2  0  0  0  0
 17 18  1  0  0  0  0
 17 41  1  0  0  0  0
 18 19  2  0  0  0  0
 18 42  1  0  0  0  0
 19 20  1  0  0  0  0
 19 43  1  0  0  0  0
 20 21  2  0  0  0  0
 21 44  1  0  0  0  0
 22 45  1  0  0  0  0
 22 46  1  0  0  0  0
M  END
> <s_m_source_file>
AV-unprocessed.smi

> <i_m_source_file_index>
2678

> <i_lp_mmshare_version>
43012

> <i_f3d_flags>
0

> <s_epik_input>
W0NIM11bQ0hdKFtDSDNdKVtOSF1DKD1PKVtDQEBIXTFbQ0gyXVtDSDJdW0NIMl1bQ0BIXShbQ0gyXTEpW05IXUMoPU8pW05IXWMyW2NIXVtjSF1bY0hdbltjSF0y

> <s_epik_cmdline>
J2VwaWtfcHl0aG9uJywgJy1waCcsICc3LjAnLCAnLXRuJywgJzgnLCAnLW1hJywgJzIwMCcsICctbWV0YWxfYmluZGluZycsICctaW1hZScsICc8aW5maWxlLm1hZT4nLCAnLW9tYWUnLCAnPG91dGZpbGUubWFlPic=

> <r_epik_Ionization_Penalty>
0.00482944

> <r_epik_Ionization_Penalty_Charging>
0

> <r_epik_Ionization_Penalty_Neutral>
0.00482944

> <r_epik_State_Penalty>
0.00347168

> <r_epik_Charging_Adjusted_Penalty>
0.00347168

> <i_epik_Tot_Q>
0

> <i_epik_Tot_abs_Q>
0

> <r_epik_Metal_State_Penalty>
-0

> <b_epik_Metal_Only>
0

> <s_lp_Force_Field>
OPLS_2005

> <r_lp_Energy>
21.1553

> <b_lp_Chiralities_Consistent>
1

> <s_lp_Variant>
AV-unprocessed.smi:2678-1

> <Gold.Version>
5.8.1

> <Gold.Id.Protein>
6NUR|6NUR_protein|mol2

> <Gold.PLP.Fitness>
47.2169

> <Gold.PLP.PLP>
-34.2734

> <Gold.PLP.part.hbond>
-4.0000

> <Gold.PLP.part.metal>
0.0000

> <Gold.PLP.part.buried>
-3.6775

> <Gold.PLP.part.nonpolar>
-29.6467

> <Gold.PLP.part.repulsive>
3.3244

> <Gold.PLP.ligand.clash>
0.0000

> <Gold.PLP.ligand.torsion>
0.3520

> <Gold.PLP.Chemscore.Hbond>
3.5305

> <Gold.PLP.Chemscore.CHOScore>
1.0000

> <Gold.PLP.Chemscore.Metal>
0.0000

> <Gold.Chemscore.Hbonds>
donor molecule, donor type, donor heavy atom, donor atom, acceptor molecule, acceptor atom, score
      L1  H     4    30       P1  8028  0.88
      L1  H    12    39       P1 10175  0.77
      L1  H    15    40       P1 10171  1.00
      P1  H  7989  7998       L1     6  0.74
      L1  C    21    44       P1 10171  1.00

> <Gold.PLP.Chemscore.Internal.Correction>
0.0561

> <Gold.Rescore>
     Score         DG    S(hbond)    S(metal)    S(lipo)     H(rot)  DE(clash)    DE(int)     intcor
     18.36     -21.47       3.08        0.00      80.65       1.46       1.51       1.59       ----

> <Gold.Chemscore.Fitness>
18.3636

> <Gold.Chemscore.DG>
-21.4677

> <Gold.Chemscore.ZeroCoef>
-5.4800

> <Gold.Chemscore.Hbond>
3.0809

> <Gold.Chemscore.Metal>
0.0000

> <Gold.Chemscore.Lipo>
80.6481

> <Gold.Chemscore.Internal_Hbond>
0.0000

> <Gold.Chemscore.DEClash>
1.5103

> <Gold.Chemscore.DEInternal>
1.5938

> <Gold.Chemscore.Rot>
1.4603

> <Gold.Chemscore.Internal.Correction>
   9.000000E+99

> <Gold.Chemscore.Hbonds>
donor molecule, donor type, donor heavy atom, donor atom, acceptor molecule, acceptor atom, score
      L1  H     4    30       P1  8028  0.86
      L1  H    12    39       P1 10175  0.73
      L1  H    15    40       P1 10171  0.93
      P1  H  7989  7998       L1     6  0.50

> <Gold.Chemscore.Hbond.Weighted>
-10.2902

> <Gold.Chemscore.Metal.Weighted>
-0.0000

> <Gold.Chemscore.Lipo.Weighted>
-9.4358

> <Gold.Chemscore.Internal_Hbond.Weighted>
0.0000

> <Gold.Chemscore.DEClash.Weighted>
1.5103

> <Gold.Chemscore.DEInternal.Weighted>
1.5938

> <Gold.Chemscore.Rot.Weighted>
3.7383

> <Gold.Chemscore.Internal.Correction.Weighted>
   9.000000E+99

> <Gold.Protein.RotatedTorsions>
[ 6907 6896 6895 6894 ] final   -0.57 input  -60.11 | X-H torsion
[ 7974 7965 7964 7962 ] final -178.38 input  175.53 | X-H torsion
[ 8008 7997 7996 7995 ] final -178.20 input   59.86 | X-H torsion
[ 10167 10162 10161 10158 ] final  100.52 input  -65.29 | X-H torsion
[ 10718 10713 10712 10709 ] final  -63.60 input   66.30 | X-H torsion
[ 10763 10752 10751 10750 ] final  -34.99 input  -60.55 | X-H torsion
[ 11005 11000 10999 10996 ] final   31.29 input  -57.11 | X-H torsion

> <Gold.Protein.ActiveResidues>
 VAL166  LYS551  ARG553  GLY616  TRP617  ASP618  TYR619  PRO620  LYS621  CYS622 
 ASP623  PHE694  ASN695  SER759  ASP760  ASP761  ALA762  ILE779  LEU786  VAL792 
 PHE793  MET794  SER795  GLU796  ALA797  LYS798  CYS799  TRP800  GLU811  SER814 

> <Gold.Protein.RotatedAtoms>
  151.5600  135.1065  159.9970 H   0  0  0  0  0  0  0  0  0  0  0  0  # atno 6907 bound_to 6896
  152.4451  133.7516  159.6708 H   0  0  0  0  0  0  0  0  0  0  0  0  # atno 6908 bound_to 6896
  150.8364  133.7938  159.3101 H   0  0  0  0  0  0  0  0  0  0  0  0  # atno 6909 bound_to 6896
  144.7131  140.0878  143.6423 H   0  0  0  0  0  0  0  0  0  0  0  0  # atno 7974 bound_to 7965
  156.0161  140.1251  157.0405 H   0  0  0  0  0  0  0  0  0  0  0  0  # atno 8008 bound_to 7997
  154.4293  140.1078  156.5967 H   0  0  0  0  0  0  0  0  0  0  0  0  # atno 8009 bound_to 7997
  155.6012  140.3470  155.4596 H   0  0  0  0  0  0  0  0  0  0  0  0  # atno 8010 bound_to 7997
  139.7520  144.6981  151.0419 H   0  0  0  0  0  0  0  0  0  0  0  0  # atno 10167 bound_to 10162
  156.0781  130.4223  150.1300 H   0  0  0  0  0  0  0  0  0  0  0  0  # atno 10718 bound_to 10713
  153.8559  135.6844  153.4787 H   0  0  0  0  0  0  0  0  0  0  0  0  # atno 10763 bound_to 10752
  153.1370  135.4673  154.9435 H   0  0  0  0  0  0  0  0  0  0  0  0  # atno 10764 bound_to 10752
  154.7781  135.3260  154.7997 H   0  0  0  0  0  0  0  0  0  0  0  0  # atno 10765 bound_to 10752
  140.2855  134.2924  155.7789 H   0  0  0  0  0  0  0  0  0  0  0  0  # atno 11005 bound_to 11000
  145.9647  139.2825  143.1135 LP  0  0  0  0  0  0  0  0  0  0  0  0  # atno 17320 bound_to 7965
  145.9183  140.9133  143.0418 LP  0  0  0  0  0  0  0  0  0  0  0  0  # atno 17321 bound_to 7965
  140.7799  143.4798  151.0033 LP  0  0  0  0  0  0  0  0  0  0  0  0  # atno 17342 bound_to 10162
  139.8486  143.7469  152.3178 LP  0  0  0  0  0  0  0  0  0  0  0  0  # atno 17343 bound_to 10162
  156.9337  130.9722  151.3528 LP  0  0  0  0  0  0  0  0  0  0  0  0  # atno 17370 bound_to 10713
  157.5885  130.8427  149.8625 LP  0  0  0  0  0  0  0  0  0  0  0  0  # atno 17371 bound_to 10713
  141.2155  133.7552  156.9545 LP  0  0  0  0  0  0  0  0  0  0  0  0  # atno 17394 bound_to 11000
  140.1244  134.9396  157.2249 LP  0  0  0  0  0  0  0  0  0  0  0  0  # atno 17395 bound_to 11000

$$$$
