AV-unprocessed.smi:1692|AV-procd|sdf|6778|dock3
  -GOLD-   22720 7533D 1   1.00000     0.00000
 Structure written by MMmdl.
 46 47  0  0  0  0  0  0  0  0  2 V2000
  143.8386  138.5499  155.2248 C   0  0  0  0  0  0  0  0  0  0  0  0
  145.1774  137.8283  154.9878 C   0  0  2  0  0  0  0  0  0  0  0  0
  146.2974  138.7588  154.4833 C   0  0  0  0  0  0  0  0  0  0  0  0
  146.0850  139.1354  153.0654 N   0  3  1  0  0  0  0  0  0  0  0  0
  147.1171  140.0817  152.5732 C   0  0  0  0  0  0  0  0  0  0  0  0
  147.5094  141.1312  153.6313 C   0  0  0  0  0  0  0  0  0  0  0  0
  148.6475  140.6839  154.5680 C   0  0  0  0  0  0  0  0  0  0  0  0
  149.1919  141.7824  155.3624 N   0  0  0  0  0  0  0  0  0  0  0  0
  150.0869  141.6546  156.3535 C   0  0  0  0  0  0  0  0  0  0  0  0
  150.5288  140.5685  156.7297 O   0  0  0  0  0  0  0  0  0  0  0  0
  150.4206  142.8510  156.8686 N   0  0  0  0  0  0  0  0  0  0  0  0
  151.3182  143.1264  157.9350 C   0  0  0  0  0  0  0  0  0  0  0  0
  151.6106  144.4948  158.1336 C   0  0  0  0  0  0  0  0  0  0  0  0
  152.4907  144.8727  159.1661 C   0  0  0  0  0  0  0  0  0  0  0  0
  153.0555  143.8710  159.9757 C   0  0  0  0  0  0  0  0  0  0  0  0
  152.7100  142.5327  159.7127 C   0  0  0  0  0  0  0  0  0  0  0  0
  151.8664  142.1685  158.7239 N   0  0  0  0  0  0  0  0  0  0  0  0
  145.9474  137.9199  152.2274 C   0  0  0  0  0  0  0  0  0  0  0  0
  144.8037  137.0321  152.7505 C   0  0  1  0  0  0  0  0  0  0  0  0
  144.6913  135.7194  151.9670 C   0  0  0  0  0  0  0  0  0  0  0  0
  145.0409  136.7054  154.1174 O   0  0  0  0  0  0  0  0  0  0  0  0
  143.9437  139.3153  155.9942 H   0  0  0  0  0  0  0  0  0  0  0  0
  143.0740  137.8495  155.5614 H   0  0  0  0  0  0  0  0  0  0  0  0
  143.4682  139.0433  154.3269 H   0  0  0  0  0  0  0  0  0  0  0  0
  145.4913  137.4252  155.9511 H   0  0  0  0  0  0  0  0  0  0  0  0
  146.3461  139.6514  155.1086 H   0  0  0  0  0  0  0  0  0  0  0  0
  147.2621  138.2566  154.5754 H   0  0  0  0  0  0  0  0  0  0  0  0
  148.0077  139.5105  152.3111 H   0  0  0  0  0  0  0  0  0  0  0  0
  146.7770  140.5618  151.6544 H   0  0  0  0  0  0  0  0  0  0  0  0
  147.8301  142.0486  153.1389 H   0  0  0  0  0  0  0  0  0  0  0  0
  146.6340  141.3983  154.2249 H   0  0  0  0  0  0  0  0  0  0  0  0
  148.3143  139.8651  155.2081 H   0  0  0  0  0  0  0  0  0  0  0  0
  149.4650  140.2818  153.9690 H   0  0  0  0  0  0  0  0  0  0  0  0
  148.8833  142.7127  155.1197 H   0  0  0  0  0  0  0  0  0  0  0  0
  149.9863  143.6593  156.4485 H   0  0  0  0  0  0  0  0  0  0  0  0
  151.1689  145.2517  157.5015 H   0  0  0  0  0  0  0  0  0  0  0  0
  152.7282  145.9131  159.3325 H   0  0  0  0  0  0  0  0  0  0  0  0
  153.7351  144.1210  160.7768 H   0  0  0  0  0  0  0  0  0  0  0  0
  153.1217  141.7334  160.3111 H   0  0  0  0  0  0  0  0  0  0  0  0
  145.7442  138.1919  151.1922 H   0  0  0  0  0  0  0  0  0  0  0  0
  146.8877  137.3661  152.2323 H   0  0  0  0  0  0  0  0  0  0  0  0
  143.8556  137.5620  152.6572 H   0  0  0  0  0  0  0  0  0  0  0  0
  144.4995  135.9074  150.9102 H   0  0  0  0  0  0  0  0  0  0  0  0
  143.8741  135.1071  152.3489 H   0  0  0  0  0  0  0  0  0  0  0  0
  145.6083  135.1343  152.0420 H   0  0  0  0  0  0  0  0  0  0  0  0
  145.2021  139.6247  153.0314 H   0  0  0  0  0  0  0  0  0  0  0  0
  1  2  1  0  0  0  0
  1 22  1  0  0  0  0
  1 23  1  0  0  0  0
  1 24  1  0  0  0  0
  2 21  1  0  0  0  0
  2  3  1  0  0  0  0
  2 25  1  0  0  0  0
  3  4  1  0  0  0  0
  3 26  1  0  0  0  0
  3 27  1  0  0  0  0
  4  5  1  0  0  0  0
  4 18  1  0  0  0  0
  4 46  1  0  0  0  0
  5  6  1  0  0  0  0
  5 28  1  0  0  0  0
  5 29  1  0  0  0  0
  6  7  1  0  0  0  0
  6 30  1  0  0  0  0
  6 31  1  0  0  0  0
  7  8  1  0  0  0  0
  7 32  1  0  0  0  0
  7 33  1  0  0  0  0
  8  9  1  0  0  0  0
  8 34  1  0  0  0  0
  9 10  2  0  0  0  0
  9 11  1  0  0  0  0
 11 12  1  0  0  0  0
 11 35  1  0  0  0  0
 12 17  1  0  0  0  0
 12 13  2  0  0  0  0
 13 14  1  0  0  0  0
 13 36  1  0  0  0  0
 14 15  2  0  0  0  0
 14 37  1  0  0  0  0
 15 16  1  0  0  0  0
 15 38  1  0  0  0  0
 16 17  2  0  0  0  0
 16 39  1  0  0  0  0
 18 19  1  0  0  0  0
 18 40  1  0  0  0  0
 18 41  1  0  0  0  0
 19 20  1  0  0  0  0
 19 21  1  0  0  0  0
 19 42  1  0  0  0  0
 20 43  1  0  0  0  0
 20 44  1  0  0  0  0
 20 45  1  0  0  0  0
M  CHG  1   4   1
M  END
> <s_m_source_file>
AV-unprocessed.smi

> <i_m_source_file_index>
1692

> <i_lp_mmshare_version>
43012

> <i_f3d_flags>
0

> <s_epik_input>
W0NIM11bQ0BASF0xW0NIMl1OKFtDSDJdW0NASF0oTzEpW0NIM10pW0NIMl1bQ0gyXVtDSDJdW05IXUMoPU8pW05IXWMyW2NIXVtjSF1bY0hdW2NIXW4y

> <s_epik_cmdline>
J2VwaWtfcHl0aG9uJywgJy1waCcsICc3LjAnLCAnLXRuJywgJzgnLCAnLW1hJywgJzIwMCcsICctbWV0YWxfYmluZGluZycsICctaW1hZScsICc8aW5maWxlLm1hZT4nLCAnLW9tYWUnLCAnPG91dGZpbGUubWFlPic=

> <r_epik_Ionization_Penalty>
0.270538

> <r_epik_Ionization_Penalty_Charging>
0.270496

> <r_epik_Ionization_Penalty_Neutral>
4.22978e-05

> <r_epik_State_Penalty>
0.262618

> <r_epik_Charging_Adjusted_Penalty>
0.533114

> <i_epik_Tot_Q>
1

> <i_epik_Tot_abs_Q>
1

> <r_epik_Metal_State_Penalty>
0.262618

> <b_epik_Metal_Only>
0

> <s_lp_Force_Field>
OPLS_2005

> <r_lp_Energy>
21.1516

> <b_lp_Chiralities_Consistent>
1

> <s_lp_Variant>
AV-unprocessed.smi:1692-1

> <Gold.Version>
5.8.1

> <Gold.Id.Protein>
6NUR|6NUR_protein|mol2

> <Gold.PLP.Fitness>
49.6291

> <Gold.PLP.PLP>
-38.7468

> <Gold.PLP.part.hbond>
-3.0000

> <Gold.PLP.part.metal>
0.0000

> <Gold.PLP.part.buried>
-1.9746

> <Gold.PLP.part.nonpolar>
-34.3233

> <Gold.PLP.part.repulsive>
0.3180

> <Gold.PLP.ligand.clash>
0.0000

> <Gold.PLP.ligand.torsion>
0.4107

> <Gold.PLP.Chemscore.Hbond>
3.8882

> <Gold.PLP.Chemscore.CHOScore>
0.0000

> <Gold.PLP.Chemscore.Metal>
0.0000

> <Gold.Chemscore.Hbonds>
donor molecule, donor type, donor heavy atom, donor atom, acceptor molecule, acceptor atom, score
      L1  H     4    46       P1 10175  2.00
      L1  H     8    34       P1  8028  0.86
      L1  H    11    35       P1  8028  1.00

> <Gold.PLP.Chemscore.Internal.Correction>
0.0392

> <Gold.Rescore>
     Score         DG    S(hbond)    S(metal)    S(lipo)     H(rot)  DE(clash)    DE(int)     intcor
     17.72     -21.87       2.84        0.00      98.00       1.78       1.48       2.67       ----

> <Gold.Chemscore.Fitness>
17.7169

> <Gold.Chemscore.DG>
-21.8717

> <Gold.Chemscore.ZeroCoef>
-5.4800

> <Gold.Chemscore.Hbond>
2.8403

> <Gold.Chemscore.Metal>
0.0000

> <Gold.Chemscore.Lipo>
97.9950

> <Gold.Chemscore.Internal_Hbond>
0.0000

> <Gold.Chemscore.DEClash>
1.4803

> <Gold.Chemscore.DEInternal>
2.6745

> <Gold.Chemscore.Rot>
1.7814

> <Gold.Chemscore.Internal.Correction>
   9.000000E+99

> <Gold.Chemscore.Hbonds>
donor molecule, donor type, donor heavy atom, donor atom, acceptor molecule, acceptor atom, score
      L1  H     4    46       P1 10175  1.00
      L1  H     8    34       P1  8028  0.79
      L1  H    11    35       P1  8028  1.00

> <Gold.Chemscore.Hbond.Weighted>
-9.4866

> <Gold.Chemscore.Metal.Weighted>
-0.0000

> <Gold.Chemscore.Lipo.Weighted>
-11.4654

> <Gold.Chemscore.Internal_Hbond.Weighted>
0.0000

> <Gold.Chemscore.DEClash.Weighted>
1.4803

> <Gold.Chemscore.DEInternal.Weighted>
2.6745

> <Gold.Chemscore.Rot.Weighted>
4.5603

> <Gold.Chemscore.Internal.Correction.Weighted>
   9.000000E+99

> <Gold.Protein.RotatedTorsions>
[ 6907 6896 6895 6894 ] final  108.64 input  -60.11 | X-H torsion
[ 7974 7965 7964 7962 ] final -169.43 input  175.53 | X-H torsion
[ 8008 7997 7996 7995 ] final -115.57 input   59.86 | X-H torsion
[ 10167 10162 10161 10158 ] final   89.91 input  -65.29 | X-H torsion
[ 10718 10713 10712 10709 ] final   31.68 input   66.30 | X-H torsion
[ 10763 10752 10751 10750 ] final   44.49 input  -60.55 | X-H torsion
[ 11005 11000 10999 10996 ] final    3.91 input  -57.11 | X-H torsion

> <Gold.Protein.ActiveResidues>
 VAL166  LYS551  ARG553  GLY616  TRP617  ASP618  TYR619  PRO620  LYS621  CYS622 
 ASP623  PHE694  ASN695  SER759  ASP760  ASP761  ALA762  ILE779  LEU786  VAL792 
 PHE793  MET794  SER795  GLU796  ALA797  LYS798  CYS799  TRP800  GLU811  SER814 

> <Gold.Protein.RotatedAtoms>
  152.5103  133.9059  159.7463 H   0  0  0  0  0  0  0  0  0  0  0  0  # atno 6907 bound_to 6896
  150.9464  133.6590  159.2787 H   0  0  0  0  0  0  0  0  0  0  0  0  # atno 6908 bound_to 6896
  151.3884  135.0957  159.9571 H   0  0  0  0  0  0  0  0  0  0  0  0  # atno 6909 bound_to 6896
  144.7185  140.2223  143.6314 H   0  0  0  0  0  0  0  0  0  0  0  0  # atno 7974 bound_to 7965
  155.0542  140.0393  157.2554 H   0  0  0  0  0  0  0  0  0  0  0  0  # atno 8008 bound_to 7997
  154.7113  140.2693  155.6603 H   0  0  0  0  0  0  0  0  0  0  0  0  # atno 8009 bound_to 7997
  156.2790  140.2721  156.1755 H   0  0  0  0  0  0  0  0  0  0  0  0  # atno 8010 bound_to 7997
  139.8526  144.6586  150.9152 H   0  0  0  0  0  0  0  0  0  0  0  0  # atno 10167 bound_to 10162
  157.2756  130.7229  149.6528 H   0  0  0  0  0  0  0  0  0  0  0  0  # atno 10718 bound_to 10713
  152.9840  135.6069  154.3283 H   0  0  0  0  0  0  0  0  0  0  0  0  # atno 10763 bound_to 10752
  154.2988  135.2773  155.2622 H   0  0  0  0  0  0  0  0  0  0  0  0  # atno 10764 bound_to 10752
  154.4884  135.5898  153.6497 H   0  0  0  0  0  0  0  0  0  0  0  0  # atno 10765 bound_to 10752
  140.5879  133.9952  155.8076 H   0  0  0  0  0  0  0  0  0  0  0  0  # atno 11005 bound_to 11000
  145.8490  139.2166  143.1783 LP  0  0  0  0  0  0  0  0  0  0  0  0  # atno 17320 bound_to 7965
  146.0278  140.8287  142.9891 LP  0  0  0  0  0  0  0  0  0  0  0  0  # atno 17321 bound_to 7965
  140.7785  143.3814  151.1470 LP  0  0  0  0  0  0  0  0  0  0  0  0  # atno 17342 bound_to 10162
  139.7451  143.8865  152.3061 LP  0  0  0  0  0  0  0  0  0  0  0  0  # atno 17343 bound_to 10162
  155.9663  130.4354  150.5090 LP  0  0  0  0  0  0  0  0  0  0  0  0  # atno 17370 bound_to 10713
  157.3023  131.0647  151.2060 LP  0  0  0  0  0  0  0  0  0  0  0  0  # atno 17371 bound_to 10713
  141.0954  133.9851  157.3168 LP  0  0  0  0  0  0  0  0  0  0  0  0  # atno 17394 bound_to 11000
  139.9287  135.0201  156.8326 LP  0  0  0  0  0  0  0  0  0  0  0  0  # atno 17395 bound_to 11000

$$$$
