AV-unprocessed.smi:148|AV-procd|sdf|1223|dock9
  -GOLD-   2262018413D 1   1.00000     0.00000
 Structure written by MMmdl.
 63 67  0  0  0  0  0  0  0  0  1 V2000
  147.0161  129.8865  151.8646 O   0  0  0  0  0  0  0  0  0  0  0  0
  146.1118  130.5761  152.7023 C   0  0  0  0  0  0  0  0  0  0  0  0
  146.0842  132.0912  152.3784 C   0  0  1  0  0  0  0  0  0  0  0  0
  147.4901  132.7450  152.4708 C   0  0  0  0  0  0  0  0  0  0  0  0
  147.6836  133.5112  153.6887 N   0  0  0  0  0  0  0  0  0  0  0  0
  146.8764  134.5185  154.1670 C   0  0  0  0  0  0  0  0  0  0  0  0
  147.2848  135.0799  155.2720 N   0  0  0  0  0  0  0  0  0  0  0  0
  148.4573  134.4009  155.5815 C   0  0  0  0  0  0  0  0  0  0  0  0
  149.4300  134.5137  156.6143 C   0  0  0  0  0  0  0  0  0  0  0  0
  149.3937  135.4276  157.6076 N   0  0  0  0  0  0  0  0  0  0  0  0
  148.2954  135.0940  158.5171 C   0  0  0  0  0  0  0  0  0  0  0  0
  148.3645  135.9165  159.8070 C   0  0  0  0  0  0  0  0  0  0  0  0
  148.3843  137.4074  159.4691 C   0  0  0  0  0  0  0  0  0  0  0  0
  149.5499  137.7096  158.5196 C   0  0  0  0  0  0  0  0  0  0  0  0
  149.5114  136.8520  157.2245 C   0  0  1  0  0  0  0  0  0  0  0  0
  150.7609  137.1755  156.3300 C   0  0  1  0  0  0  0  0  0  0  0  0
  150.7146  136.7260  154.8524 C   0  0  0  0  0  0  0  0  0  0  0  0
  151.6894  137.6217  154.0750 C   0  0  0  0  0  0  0  0  0  0  0  0
  152.1263  138.7212  155.0466 C   0  0  0  0  0  0  0  0  0  0  0  0
  151.1159  138.6721  156.1938 C   0  0  1  0  0  0  0  0  0  0  0  0
  149.9831  139.4403  155.8279 O   0  0  0  0  0  0  0  0  0  0  0  0
  150.4683  133.6417  156.6116 N   0  0  0  0  0  0  0  0  0  0  0  0
  150.5706  132.7307  155.6390 C   0  0  0  0  0  0  0  0  0  0  0  0
  149.7624  132.5279  154.5958 N   0  0  0  0  0  0  0  0  0  0  0  0
  148.7091  133.3944  154.6087 C   0  0  0  0  0  0  0  0  0  0  0  0
  145.3547  132.3761  151.0355 C   0  0  1  0  0  0  0  0  0  0  0  0
  145.9993  131.8216  149.7779 C   0  0  0  0  0  0  0  0  0  0  0  0
  144.8625  131.9727  148.7747 C   0  0  0  0  0  0  0  0  0  0  0  0
  143.6828  131.6726  149.5121 O   0  0  0  0  0  0  0  0  0  0  0  0
  143.9145  131.8627  150.9068 C   0  0  0  0  0  0  0  0  0  0  0  0
  147.3410  130.4881  151.2123 H   0  0  0  0  0  0  0  0  0  0  0  0
  145.1353  130.1174  152.5479 H   0  0  0  0  0  0  0  0  0  0  0  0
  146.3818  130.4050  153.7446 H   0  0  0  0  0  0  0  0  0  0  0  0
  145.4822  132.5601  153.1584 H   0  0  0  0  0  0  0  0  0  0  0  0
  148.2746  131.9908  152.4223 H   0  0  0  0  0  0  0  0  0  0  0  0
  147.6577  133.4232  151.6349 H   0  0  0  0  0  0  0  0  0  0  0  0
  145.9789  134.8383  153.6575 H   0  0  0  0  0  0  0  0  0  0  0  0
  147.3414  135.2769  158.0200 H   0  0  0  0  0  0  0  0  0  0  0  0
  148.3240  134.0318  158.7663 H   0  0  0  0  0  0  0  0  0  0  0  0
  147.5114  135.6859  160.4455 H   0  0  0  0  0  0  0  0  0  0  0  0
  149.2599  135.6496  160.3700 H   0  0  0  0  0  0  0  0  0  0  0  0
  147.4424  137.6956  159.0012 H   0  0  0  0  0  0  0  0  0  0  0  0
  148.4773  137.9986  160.3804 H   0  0  0  0  0  0  0  0  0  0  0  0
  149.5189  138.7731  158.2874 H   0  0  0  0  0  0  0  0  0  0  0  0
  150.4915  137.5365  159.0428 H   0  0  0  0  0  0  0  0  0  0  0  0
  148.6104  137.1267  156.6750 H   0  0  0  0  0  0  0  0  0  0  0  0
  151.6255  136.6920  156.7888 H   0  0  0  0  0  0  0  0  0  0  0  0
  150.9829  135.6783  154.7239 H   0  0  0  0  0  0  0  0  0  0  0  0
  149.7102  136.8618  154.4501 H   0  0  0  0  0  0  0  0  0  0  0  0
  152.5522  137.0590  153.7165 H   0  0  0  0  0  0  0  0  0  0  0  0
  151.1933  138.0480  153.2021 H   0  0  0  0  0  0  0  0  0  0  0  0
  153.1177  138.4816  155.4333 H   0  0  0  0  0  0  0  0  0  0  0  0
  152.1932  139.7019  154.5737 H   0  0  0  0  0  0  0  0  0  0  0  0
  151.5455  139.0823  157.1082 H   0  0  0  0  0  0  0  0  0  0  0  0
  150.1420  140.3403  156.0680 H   0  0  0  0  0  0  0  0  0  0  0  0
  151.4274  132.0760  155.7005 H   0  0  0  0  0  0  0  0  0  0  0  0
  145.3189  133.4581  150.8984 H   0  0  0  0  0  0  0  0  0  0  0  0
  146.9001  132.3609  149.4839 H   0  0  0  0  0  0  0  0  0  0  0  0
  146.2466  130.7656  149.8781 H   0  0  0  0  0  0  0  0  0  0  0  0
  144.8027  133.0017  148.4174 H   0  0  0  0  0  0  0  0  0  0  0  0
  144.9728  131.3176  147.9103 H   0  0  0  0  0  0  0  0  0  0  0  0
  143.7711  130.9047  151.4043 H   0  0  0  0  0  0  0  0  0  0  0  0
  143.1953  132.5657  151.3281 H   0  0  0  0  0  0  0  0  0  0  0  0
  1  2  1  0  0  0  0
  1 31  1  0  0  0  0
  2  3  1  0  0  0  0
  2 32  1  0  0  0  0
  2 33  1  0  0  0  0
  3  4  1  0  0  0  0
  3 26  1  0  0  0  0
  3 34  1  0  0  0  0
  4  5  1  0  0  0  0
  4 35  1  0  0  0  0
  4 36  1  0  0  0  0
  5 25  1  0  0  0  0
  5  6  1  0  0  0  0
  6  7  2  0  0  0  0
  6 37  1  0  0  0  0
  7  8  1  0  0  0  0
  8 25  2  0  0  0  0
  8  9  1  0  0  0  0
  9 10  1  0  0  0  0
  9 22  2  0  0  0  0
 10 15  1  0  0  0  0
 10 11  1  0  0  0  0
 11 12  1  0  0  0  0
 11 38  1  0  0  0  0
 11 39  1  0  0  0  0
 12 13  1  0  0  0  0
 12 40  1  0  0  0  0
 12 41  1  0  0  0  0
 13 14  1  0  0  0  0
 13 42  1  0  0  0  0
 13 43  1  0  0  0  0
 14 15  1  0  0  0  0
 14 44  1  0  0  0  0
 14 45  1  0  0  0  0
 15 16  1  0  0  0  0
 15 46  1  0  0  0  0
 16 20  1  0  0  0  0
 16 17  1  0  0  0  0
 16 47  1  0  0  0  0
 17 18  1  0  0  0  0
 17 48  1  0  0  0  0
 17 49  1  0  0  0  0
 18 19  1  0  0  0  0
 18 50  1  0  0  0  0
 18 51  1  0  0  0  0
 19 20  1  0  0  0  0
 19 52  1  0  0  0  0
 19 53  1  0  0  0  0
 20 21  1  0  0  0  0
 20 54  1  0  0  0  0
 21 55  1  0  0  0  0
 22 23  1  0  0  0  0
 23 24  2  0  0  0  0
 23 56  1  0  0  0  0
 24 25  1  0  0  0  0
 26 30  1  0  0  0  0
 26 27  1  0  0  0  0
 26 57  1  0  0  0  0
 27 28  1  0  0  0  0
 27 58  1  0  0  0  0
 27 59  1  0  0  0  0
 28 29  1  0  0  0  0
 28 60  1  0  0  0  0
 28 61  1  0  0  0  0
 29 30  1  0  0  0  0
 30 62  1  0  0  0  0
 30 63  1  0  0  0  0
M  END
> <s_m_source_file>
AV-unprocessed.smi

> <i_m_source_file_index>
148

> <i_lp_mmshare_version>
43012

> <i_f3d_flags>
0

> <s_epik_input>
W0NIMl0xT1tDSDJdW0NIMl1bQ0BIXTFbQ0BIXShbQ0gyXVtPSF0pW0NIMl1uKFtjSF1uMiljKGMyMyluW2NIXW5jM040W0NIMl1bQ0gyXVtDSDJdW0NIMl1bQ0BIXTRbQ0BASF01W0NIMl1bQ0gyXVtDSDJdW0NASF01W09IXQ==

> <s_epik_cmdline>
J2VwaWtfcHl0aG9uJywgJy1waCcsICc3LjAnLCAnLXRuJywgJzgnLCAnLW1hJywgJzIwMCcsICctbWV0YWxfYmluZGluZycsICctaW1hZScsICc8aW5maWxlLm1hZT4nLCAnLW9tYWUnLCAnPG91dGZpbGUubWFlPic=

> <r_lp_tautomer_probability>
1

> <r_epik_Ionization_Penalty>
0.00556303

> <r_epik_Ionization_Penalty_Charging>
0

> <r_epik_Ionization_Penalty_Neutral>
0.00556303

> <r_epik_State_Penalty>
0.00401767

> <r_epik_Charging_Adjusted_Penalty>
0.00401767

> <i_epik_Tot_Q>
0

> <i_epik_Tot_abs_Q>
0

> <r_epik_Metal_State_Penalty>
-0

> <b_epik_Metal_Only>
0

> <s_lp_Force_Field>
OPLS_2005

> <r_lp_Energy>
70.5845

> <b_lp_Chiralities_Consistent>
1

> <s_lp_Variant>
AV-unprocessed.smi:148-22

> <Gold.Version>
5.8.1

> <Gold.Id.Protein>
6NUR|6NUR_protein|mol2

> <Gold.PLP.Fitness>
45.5231

> <Gold.PLP.PLP>
-42.7416

> <Gold.PLP.part.hbond>
-1.9396

> <Gold.PLP.part.metal>
0.0000

> <Gold.PLP.part.buried>
-4.8333

> <Gold.PLP.part.nonpolar>
-36.3637

> <Gold.PLP.part.repulsive>
0.3669

> <Gold.PLP.ligand.clash>
0.0000

> <Gold.PLP.ligand.torsion>
1.1046

> <Gold.PLP.Chemscore.Hbond>
1.4880

> <Gold.PLP.Chemscore.CHOScore>
0.0000

> <Gold.PLP.Chemscore.Metal>
0.0000

> <Gold.Chemscore.Hbonds>
donor molecule, donor type, donor heavy atom, donor atom, acceptor molecule, acceptor atom, score
      L1  H     1    31       P1 10747  0.75
      P1  H 10785 10796       L1    29  0.88

> <Gold.PLP.Chemscore.Internal.Correction>
0.5267

> <Gold.Rescore>
     Score         DG    S(hbond)    S(metal)    S(lipo)     H(rot)  DE(clash)    DE(int)     intcor
     11.36     -13.92       1.19        0.00     110.72       3.32       1.51       1.05       ----

> <Gold.Chemscore.Fitness>
11.3586

> <Gold.Chemscore.DG>
-13.9185

> <Gold.Chemscore.ZeroCoef>
-5.4800

> <Gold.Chemscore.Hbond>
1.1930

> <Gold.Chemscore.Metal>
0.0000

> <Gold.Chemscore.Lipo>
110.7176

> <Gold.Chemscore.Internal_Hbond>
0.0000

> <Gold.Chemscore.DEClash>
1.5118

> <Gold.Chemscore.DEInternal>
1.0481

> <Gold.Chemscore.Rot>
3.3203

> <Gold.Chemscore.Internal.Correction>
   9.000000E+99

> <Gold.Chemscore.Hbonds>
donor molecule, donor type, donor heavy atom, donor atom, acceptor molecule, acceptor atom, score
      L1  H     1    31       P1 10747  0.76
      P1  H 10785 10796       L1    29  0.22

> <Gold.Chemscore.Hbond.Weighted>
-3.9846

> <Gold.Chemscore.Metal.Weighted>
-0.0000

> <Gold.Chemscore.Lipo.Weighted>
-12.9540

> <Gold.Chemscore.Internal_Hbond.Weighted>
0.0000

> <Gold.Chemscore.DEClash.Weighted>
1.5118

> <Gold.Chemscore.DEInternal.Weighted>
1.0481

> <Gold.Chemscore.Rot.Weighted>
8.5000

> <Gold.Chemscore.Internal.Correction.Weighted>
   9.000000E+99

> <Gold.Protein.RotatedTorsions>
[ 6907 6896 6895 6894 ] final   59.88 input  -60.11 | X-H torsion
[ 7974 7965 7964 7962 ] final  105.75 input  175.53 | X-H torsion
[ 8008 7997 7996 7995 ] final -155.46 input   59.86 | X-H torsion
[ 10167 10162 10161 10158 ] final -166.55 input  -65.29 | X-H torsion
[ 10718 10713 10712 10709 ] final  106.23 input   66.30 | X-H torsion
[ 10763 10752 10751 10750 ] final -160.60 input  -60.55 | X-H torsion
[ 11005 11000 10999 10996 ] final  104.42 input  -57.11 | X-H torsion

> <Gold.Protein.ActiveResidues>
 VAL166  LYS551  ARG553  GLY616  TRP617  ASP618  TYR619  PRO620  LYS621  CYS622 
 ASP623  PHE694  ASN695  SER759  ASP760  ASP761  ALA762  ILE779  LEU786  VAL792 
 PHE793  MET794  SER795  GLU796  ALA797  LYS798  CYS799  TRP800  GLU811  SER814 

> <Gold.Protein.RotatedAtoms>
  152.3954  134.6373  160.0090 H   0  0  0  0  0  0  0  0  0  0  0  0  # atno 6907 bound_to 6896
  151.6594  133.3312  159.3178 H   0  0  0  0  0  0  0  0  0  0  0  0  # atno 6908 bound_to 6896
  150.7863  134.6893  159.6532 H   0  0  0  0  0  0  0  0  0  0  0  0  # atno 6909 bound_to 6896
  145.3156  139.2527  143.3739 H   0  0  0  0  0  0  0  0  0  0  0  0  # atno 7974 bound_to 7965
  155.7022  140.0768  157.2405 H   0  0  0  0  0  0  0  0  0  0  0  0  # atno 8008 bound_to 7997
  154.4071  140.1645  156.2256 H   0  0  0  0  0  0  0  0  0  0  0  0  # atno 8009 bound_to 7997
  155.9358  140.3388  155.6289 H   0  0  0  0  0  0  0  0  0  0  0  0  # atno 8010 bound_to 7997
  139.6108  144.0819  152.1839 H   0  0  0  0  0  0  0  0  0  0  0  0  # atno 10167 bound_to 10162
  157.6676  131.0846  150.5975 H   0  0  0  0  0  0  0  0  0  0  0  0  # atno 10718 bound_to 10713
  154.7376  135.3061  154.8784 H   0  0  0  0  0  0  0  0  0  0  0  0  # atno 10763 bound_to 10752
  153.9608  135.6753  153.4749 H   0  0  0  0  0  0  0  0  0  0  0  0  # atno 10764 bound_to 10752
  153.0977  135.4927  154.8733 H   0  0  0  0  0  0  0  0  0  0  0  0  # atno 10765 bound_to 10752
  139.8792  134.9300  156.5359 H   0  0  0  0  0  0  0  0  0  0  0  0  # atno 11005 bound_to 11000
  146.3101  140.3702  142.8673 LP  0  0  0  0  0  0  0  0  0  0  0  0  # atno 17320 bound_to 7965
  144.8980  140.7607  143.5885 LP  0  0  0  0  0  0  0  0  0  0  0  0  # atno 17321 bound_to 7965
  140.0438  144.5987  150.7390 LP  0  0  0  0  0  0  0  0  0  0  0  0  # atno 17342 bound_to 10162
  140.7317  143.2697  151.3927 LP  0  0  0  0  0  0  0  0  0  0  0  0  # atno 17343 bound_to 10162
  156.6275  130.4423  149.5799 LP  0  0  0  0  0  0  0  0  0  0  0  0  # atno 17370 bound_to 10713
  156.2307  130.6793  151.1461 LP  0  0  0  0  0  0  0  0  0  0  0  0  # atno 17371 bound_to 10713
  140.8346  133.8252  155.9017 LP  0  0  0  0  0  0  0  0  0  0  0  0  # atno 17394 bound_to 11000
  140.9296  134.2039  157.4873 LP  0  0  0  0  0  0  0  0  0  0  0  0  # atno 17395 bound_to 11000

$$$$
