AV-unprocessed.smi:3351|AV-procd|sdf|12949|dock3
  -GOLD-   2272019383D 1   1.00000     0.00000
 Structure written by MMmdl.
 34 35  0  0  0  0  0  0  0  0  1 V2000
  149.5416  144.9051  159.7020 C   0  0  0  0  0  0  0  0  0  0  0  0
  150.5823  143.7794  159.6315 C   0  0  2  0  0  0  0  0  0  0  0  0
  151.9214  144.2118  160.2696 C   0  0  0  0  0  0  0  0  0  0  0  0
  152.6196  143.1165  160.9207 N   0  0  0  0  0  0  0  0  0  0  0  0
  153.3119  142.0818  160.3050 C   0  0  0  0  0  0  0  0  0  0  0  0
  153.7864  141.2714  161.3110 C   0  0  0  0  0  0  0  0  0  0  0  0
  153.4149  141.7936  162.5476 N   0  0  0  0  0  0  0  0  0  0  0  0
  152.7330  142.8887  162.2367 C   0  0  0  0  0  0  0  0  0  0  0  0
  150.7727  143.3929  158.2338 N   0  0  0  0  0  0  0  0  0  0  0  0
  150.5709  142.1642  157.7319 C   0  0  0  0  0  0  0  0  0  0  0  0
  150.1252  141.2251  158.3917 O   0  0  0  0  0  0  0  0  0  0  0  0
  150.9312  141.9572  156.2598 C   0  0  0  0  0  0  0  0  0  0  0  0
  150.6297  140.5878  155.8468 N   0  0  0  0  0  0  0  0  0  0  0  0
  149.5469  140.3418  154.9032 C   0  0  0  0  0  0  0  0  0  0  0  0
  149.1411  138.8736  155.0422 C   0  0  0  0  0  0  0  0  0  0  0  0
  150.5718  137.9750  155.6739 S   0  0  0  0  0  0  0  0  0  0  0  0
  151.3261  139.4774  156.3045 C   0  0  0  0  0  0  0  0  0  0  0  0
  152.3084  139.4598  157.0441 O   0  0  0  0  0  0  0  0  0  0  0  0
  149.3532  145.1999  160.7346 H   0  0  0  0  0  0  0  0  0  0  0  0
  148.5904  144.5887  159.2725 H   0  0  0  0  0  0  0  0  0  0  0  0
  149.8749  145.7905  159.1595 H   0  0  0  0  0  0  0  0  0  0  0  0
  150.1811  142.9363  160.1967 H   0  0  0  0  0  0  0  0  0  0  0  0
  152.5796  144.6469  159.5160 H   0  0  0  0  0  0  0  0  0  0  0  0
  151.7473  144.9870  161.0168 H   0  0  0  0  0  0  0  0  0  0  0  0
  153.3962  142.0015  159.2313 H   0  0  0  0  0  0  0  0  0  0  0  0
  154.3620  140.3603  161.2400 H   0  0  0  0  0  0  0  0  0  0  0  0
  152.2934  143.5333  162.9835 H   0  0  0  0  0  0  0  0  0  0  0  0
  151.1371  144.1013  157.6130 H   0  0  0  0  0  0  0  0  0  0  0  0
  150.3593  142.6607  155.6536 H   0  0  0  0  0  0  0  0  0  0  0  0
  151.9848  142.1833  156.0842 H   0  0  0  0  0  0  0  0  0  0  0  0
  148.6986  141.0038  155.0808 H   0  0  0  0  0  0  0  0  0  0  0  0
  149.9166  140.5398  153.8966 H   0  0  0  0  0  0  0  0  0  0  0  0
  148.3378  138.7782  155.7737 H   0  0  0  0  0  0  0  0  0  0  0  0
  148.7890  138.4494  154.1017 H   0  0  0  0  0  0  0  0  0  0  0  0
  1  2  1  0  0  0  0
  1 19  1  0  0  0  0
  1 20  1  0  0  0  0
  1 21  1  0  0  0  0
  2  3  1  0  0  0  0
  2  9  1  0  0  0  0
  2 22  1  0  0  0  0
  3  4  1  0  0  0  0
  3 23  1  0  0  0  0
  3 24  1  0  0  0  0
  4  8  1  0  0  0  0
  4  5  1  0  0  0  0
  5  6  2  0  0  0  0
  5 25  1  0  0  0  0
  6  7  1  0  0  0  0
  6 26  1  0  0  0  0
  7  8  2  0  0  0  0
  8 27  1  0  0  0  0
  9 10  1  0  0  0  0
  9 28  1  0  0  0  0
 10 11  2  0  0  0  0
 10 12  1  0  0  0  0
 12 13  1  0  0  0  0
 12 29  1  0  0  0  0
 12 30  1  0  0  0  0
 13 17  1  0  0  0  0
 13 14  1  0  0  0  0
 14 15  1  0  0  0  0
 14 31  1  0  0  0  0
 14 32  1  0  0  0  0
 15 16  1  0  0  0  0
 15 33  1  0  0  0  0
 15 34  1  0  0  0  0
 16 17  1  0  0  0  0
 17 18  2  0  0  0  0
M  END
> <s_m_source_file>
AV-unprocessed.smi

> <i_m_source_file_index>
3351

> <i_lp_mmshare_version>
43012

> <i_f3d_flags>
0

> <s_epik_input>
W2NIXTFuW2NIXVtjSF1uMVtDSDJdW0NAQEhdKFtDSDNdKVtOSF1DKD1PKVtDSDJdTjJbQ0gyXVtDSDJdU0MyPU8=

> <s_epik_cmdline>
J2VwaWtfcHl0aG9uJywgJy1waCcsICc3LjAnLCAnLXRuJywgJzgnLCAnLW1hJywgJzIwMCcsICctbWV0YWxfYmluZGluZycsICctaW1hZScsICc8aW5maWxlLm1hZT4nLCAnLW9tYWUnLCAnPG91dGZpbGUubWFlPic=

> <r_lp_tautomer_probability>
1

> <r_epik_Ionization_Penalty>
0.618163

> <r_epik_Ionization_Penalty_Charging>
0.618163

> <r_epik_Ionization_Penalty_Neutral>
6.6929e-08

> <r_epik_State_Penalty>
0.633954

> <r_epik_Charging_Adjusted_Penalty>
1.25212

> <i_epik_Tot_Q>
0

> <i_epik_Tot_abs_Q>
0

> <r_epik_Metal_State_Penalty>
0.305924

> <b_epik_Metal_Only>
0

> <s_lp_Force_Field>
OPLS_2005

> <r_lp_Energy>
3.88922

> <b_lp_Chiralities_Consistent>
1

> <s_lp_Variant>
AV-unprocessed.smi:3351-3

> <Gold.Version>
5.8.1

> <Gold.Id.Protein>
6NUR|6NUR_protein|mol2

> <Gold.PLP.Fitness>
41.7162

> <Gold.PLP.PLP>
-39.9999

> <Gold.PLP.part.hbond>
-1.5667

> <Gold.PLP.part.metal>
0.0000

> <Gold.PLP.part.buried>
-4.2689

> <Gold.PLP.part.nonpolar>
-33.5107

> <Gold.PLP.part.repulsive>
0.0619

> <Gold.PLP.ligand.clash>
0.0000

> <Gold.PLP.ligand.torsion>
0.6884

> <Gold.PLP.Chemscore.Hbond>
1.0000

> <Gold.PLP.Chemscore.CHOScore>
0.0000

> <Gold.PLP.Chemscore.Metal>
0.0000

> <Gold.Chemscore.Hbonds>
donor molecule, donor type, donor heavy atom, donor atom, acceptor molecule, acceptor atom, score
      P1  H  7997  8010       L1    18  0.10

> <Gold.PLP.Chemscore.Internal.Correction>
0.0932

> <Gold.Rescore>
     Score         DG    S(hbond)    S(metal)    S(lipo)     H(rot)  DE(clash)    DE(int)     intcor
     10.21     -11.31       1.00        0.00      72.28       2.33       0.18       0.92       ----

> <Gold.Chemscore.Fitness>
10.2057

> <Gold.Chemscore.DG>
-11.3073

> <Gold.Chemscore.ZeroCoef>
-5.4800

> <Gold.Chemscore.Hbond>
1.0000

> <Gold.Chemscore.Metal>
0.0000

> <Gold.Chemscore.Lipo>
72.2782

> <Gold.Chemscore.Internal_Hbond>
0.0000

> <Gold.Chemscore.DEClash>
0.1810

> <Gold.Chemscore.DEInternal>
0.9206

> <Gold.Chemscore.Rot>
2.3317

> <Gold.Chemscore.Internal.Correction>
   9.000000E+99

> <Gold.Chemscore.Hbonds>
donor molecule, donor type, donor heavy atom, donor atom, acceptor molecule, acceptor atom, score
      P1  H  7997  8010       L1    18  0.11

> <Gold.Chemscore.Hbond.Weighted>
-3.3400

> <Gold.Chemscore.Metal.Weighted>
-0.0000

> <Gold.Chemscore.Lipo.Weighted>
-8.4566

> <Gold.Chemscore.Internal_Hbond.Weighted>
0.0000

> <Gold.Chemscore.DEClash.Weighted>
0.1810

> <Gold.Chemscore.DEInternal.Weighted>
0.9206

> <Gold.Chemscore.Rot.Weighted>
5.9692

> <Gold.Chemscore.Internal.Correction.Weighted>
   9.000000E+99

> <Gold.Protein.RotatedTorsions>
[ 6907 6896 6895 6894 ] final  114.68 input  -60.11 | X-H torsion
[ 7974 7965 7964 7962 ] final  173.66 input  175.53 | X-H torsion
[ 8008 7997 7996 7995 ] final   93.04 input   59.86 | X-H torsion
[ 10167 10162 10161 10158 ] final  110.60 input  -65.29 | X-H torsion
[ 10718 10713 10712 10709 ] final -163.03 input   66.30 | X-H torsion
[ 10763 10752 10751 10750 ] final  -47.57 input  -60.55 | X-H torsion
[ 11005 11000 10999 10996 ] final  -33.33 input  -57.11 | X-H torsion

> <Gold.Protein.ActiveResidues>
 VAL166  LYS551  ARG553  GLY616  TRP617  ASP618  TYR619  PRO620  LYS621  CYS622 
 ASP623  PHE694  ASN695  SER759  ASP760  ASP761  ALA762  ILE779  LEU786  VAL792 
 PHE793  MET794  SER795  GLU796  ALA797  LYS798  CYS799  TRP800  GLU811  SER814 

> <Gold.Protein.RotatedAtoms>
  152.4788  133.8202  159.7049 H   0  0  0  0  0  0  0  0  0  0  0  0  # atno 6907 bound_to 6896
  150.8822  133.7346  159.2935 H   0  0  0  0  0  0  0  0  0  0  0  0  # atno 6908 bound_to 6896
  151.4847  135.1058  159.9839 H   0  0  0  0  0  0  0  0  0  0  0  0  # atno 6909 bound_to 6896
  144.7238  139.9681  143.6436 H   0  0  0  0  0  0  0  0  0  0  0  0  # atno 7974 bound_to 7965
  156.0423  140.3318  155.7257 H   0  0  0  0  0  0  0  0  0  0  0  0  # atno 8008 bound_to 7997
  155.5726  140.0629  157.2820 H   0  0  0  0  0  0  0  0  0  0  0  0  # atno 8009 bound_to 7997
  154.4398  140.1858  156.0883 H   0  0  0  0  0  0  0  0  0  0  0  0  # atno 8010 bound_to 7997
  139.6676  144.7127  151.1748 H   0  0  0  0  0  0  0  0  0  0  0  0  # atno 10167 bound_to 10162
  156.6188  130.8882  151.2953 H   0  0  0  0  0  0  0  0  0  0  0  0  # atno 10718 bound_to 10713
  154.0635  135.6614  153.4815 H   0  0  0  0  0  0  0  0  0  0  0  0  # atno 10763 bound_to 10752
  153.0418  135.5140  154.7636 H   0  0  0  0  0  0  0  0  0  0  0  0  # atno 10764 bound_to 10752
  154.6680  135.3025  154.9747 H   0  0  0  0  0  0  0  0  0  0  0  0  # atno 10765 bound_to 10752
  140.9626  133.7156  156.1393 H   0  0  0  0  0  0  0  0  0  0  0  0  # atno 11005 bound_to 11000
  146.0584  139.3579  143.0596 LP  0  0  0  0  0  0  0  0  0  0  0  0  # atno 17320 bound_to 7965
  145.8124  140.9719  143.0941 LP  0  0  0  0  0  0  0  0  0  0  0  0  # atno 17321 bound_to 7965
  140.7605  143.5895  150.8811 LP  0  0  0  0  0  0  0  0  0  0  0  0  # atno 17342 bound_to 10162
  139.9557  143.6220  152.3016 LP  0  0  0  0  0  0  0  0  0  0  0  0  # atno 17343 bound_to 10162
  157.7233  130.9588  150.1529 LP  0  0  0  0  0  0  0  0  0  0  0  0  # atno 17370 bound_to 10713
  156.2328  130.3683  149.8425 LP  0  0  0  0  0  0  0  0  0  0  0  0  # atno 17371 bound_to 10713
  140.7446  134.4113  157.5550 LP  0  0  0  0  0  0  0  0  0  0  0  0  # atno 17394 bound_to 11000
  139.8883  134.8859  156.2480 LP  0  0  0  0  0  0  0  0  0  0  0  0  # atno 17395 bound_to 11000

$$$$
