#       Name:                AV-unprocessed.smi:3303
#       Creating user name   scv26
#       Creation time:       Fri Mar 27 19:02:54 2020


#       File generated by GOLD software.
#

@<TRIPOS>MOLECULE
AV-unprocessed.smi:3303
    46    47     1
SMALL
NO_CHARGES


@<TRIPOS>ATOM
      1 ****        -0.7289  -0.4040   2.5082 C.3            1 S1                 0.0000
      2 ****        -1.1182  -1.1890   1.2433 C.3            1 S1                 0.0000
      3 ****        -2.6422  -1.4505   1.2389 C.3            1 S1                 0.0000
      4 ****        -3.0959  -2.1786   0.0262 N.4            1 S1                 1.0000
      5 ****        -2.7335  -3.6188   0.0470 C.3            1 S1                 0.0000
      6 ****        -2.7328  -1.4424  -1.2181 C.3            1 S1                 0.0000
      7 ****        -3.2917  -2.1019  -2.4908 C.3            1 S1                 0.0000
      8 ****        -1.2130  -1.2025  -1.2992 C.3            1 S1                 0.0000
      9 ****        -0.6889  -0.4614  -0.0543 C.3            1 S1                 0.0000
     10 ****         0.7657  -0.4296  -0.1513 N.3            1 S1                 0.0000
     11 ****         1.2739   0.9310  -0.0622 C.3            1 S1                 0.0000
     12 ****         2.8056   0.9144  -0.1571 C.3            1 S1                 0.0000
     13 ****         3.4004   2.3077  -0.0786 C.ar           1 S1                 0.0000
     14 ****         3.9708   2.7810   1.1223 C.ar           1 S1                 0.0000
     15 ****         4.5074   4.0830   1.1426 C.ar           1 S1                 0.0000
     16 ****         4.4522   4.8582  -0.0318 C.ar           1 S1                 0.0000
     17 ****         3.8605   4.2938  -1.1795 C.ar           1 S1                 0.0000
     18 ****         3.3430   3.0465  -1.2098 N.ar           1 S1                 0.0000
     19 ****        -1.1759   0.5906   2.5109 H              1 S1                 0.0000
     20 ****         0.3515  -0.2842   2.5889 H              1 S1                 0.0000
     21 ****        -1.0627  -0.9207   3.4085 H              1 S1                 0.0000
     22 ****        -0.6082  -2.1526   1.2870 H              1 S1                 0.0000
     23 ****        -2.9378  -2.0051   2.1305 H              1 S1                 0.0000
     24 ****        -3.1760  -0.5002   1.2853 H              1 S1                 0.0000
     25 ****        -1.6618  -3.7747  -0.0732 H              1 S1                 0.0000
     26 ****        -3.2479  -4.1684  -0.7407 H              1 S1                 0.0000
     27 ****        -3.0324  -4.0721   0.9924 H              1 S1                 0.0000
     28 ****        -3.2139  -0.4657  -1.1432 H              1 S1                 0.0000
     29 ****        -3.1411  -1.4559  -3.3562 H              1 S1                 0.0000
     30 ****        -4.3629  -2.2863  -2.4034 H              1 S1                 0.0000
     31 ****        -2.8008  -3.0502  -2.7102 H              1 S1                 0.0000
     32 ****        -0.6935  -2.1541  -1.4211 H              1 S1                 0.0000
     33 ****        -0.9837  -0.6185  -2.1917 H              1 S1                 0.0000
     34 ****        -1.1039   0.5485  -0.0539 H              1 S1                 0.0000
     35 ****         1.0571  -0.8328  -1.0306 H              1 S1                 0.0000
     36 ****         0.8547   1.5302  -0.8717 H              1 S1                 0.0000
     37 ****         0.9611   1.3846   0.8791 H              1 S1                 0.0000
     38 ****         3.2227   0.3020   0.6436 H              1 S1                 0.0000
     39 ****         3.1198   0.4509  -1.0936 H              1 S1                 0.0000
     40 ****         3.9973   2.1631   2.0078 H              1 S1                 0.0000
     41 ****         4.9531   4.4797   2.0427 H              1 S1                 0.0000
     42 ****         4.8530   5.8607  -0.0526 H              1 S1                 0.0000
     43 ****         3.8012   4.8596  -2.0974 H              1 S1                 0.0000
     44 ****        -4.1052  -2.1657   0.0673 H              1 S1                 0.0000
     45 ****         1.1359  -0.9584   0.6125 LP             1 S1                 0.0000
     46 ****         2.9299   2.6804  -2.0437 LP             1 S1                 0.0000
@<TRIPOS>BOND
    1    1    2 1     
    2    1   19 1     
    3    1   20 1     
    4    1   21 1     
    5    2    9 1     
    6    2    3 1     
    7    2   22 1     
    8    3    4 1     
    9    3   23 1     
   10    3   24 1     
   11    4    5 1     
   12    4    6 1     
   13    4   44 1     
   14    5   25 1     
   15    5   26 1     
   16    5   27 1     
   17    6    7 1     
   18    6    8 1     
   19    6   28 1     
   20    7   29 1     
   21    7   30 1     
   22    7   31 1     
   23    8    9 1     
   24    8   32 1     
   25    8   33 1     
   26    9   10 1     
   27    9   34 1     
   28   10   11 1     
   29   10   35 1     
   30   11   12 1     
   31   11   36 1     
   32   11   37 1     
   33   12   13 1     
   34   12   38 1     
   35   12   39 1     
   36   13   18 ar    
   37   13   14 ar    
   38   14   15 ar    
   39   14   40 1     
   40   15   16 ar    
   41   15   41 1     
   42   16   17 ar    
   43   16   42 1     
   44   17   18 ar    
   45   17   43 1     
   46   10   45 1     
   47   18   46 1     
@<TRIPOS>SUBSTRUCTURE
      1 S1             1
@<TRIPOS>SET
LONE_PAIRS      STATIC     ATOMS    <user>   **** ""
2 45 46
DONOR_HYDROGENS      STATIC     ATOMS    <user>   **** ""
2 44 35
ATOM$BLUE        STATIC     ATOMS    COLORGROUP SYSTEM
2 45 46
ATOM$RED        STATIC     ATOMS    COLORGROUP SYSTEM
2 44 35
