AV-unprocessed.smi:2891|AV-procd|sdf|11117|dock2
  -GOLD-   2272015583D 1   1.00000     0.00000
 Structure written by MMmdl.
 35 36  0  0  0  0  0  0  0  0  1 V2000
  151.7665  137.8115  155.4958 C   0  0  0  0  0  0  0  0  0  0  0  0
  151.4072  136.4920  155.1246 O   0  0  0  0  0  0  0  0  0  0  0  0
  150.0072  136.2768  155.1776 C   0  0  0  0  0  0  0  0  0  0  0  0
  149.7065  135.2185  156.2496 C   0  0  0  0  0  0  0  0  0  0  0  0
  149.7450  133.8612  155.6892 N   0  0  0  0  0  0  0  0  0  0  0  0
  149.0089  133.6354  154.5106 C   0  0  0  0  0  0  0  0  0  0  0  0
  148.9681  132.4404  153.8937 C   0  0  0  0  0  0  0  0  0  0  0  0
  148.2051  132.3369  152.7218 N   0  0  0  0  0  0  0  0  0  0  0  0
  147.1174  133.0366  152.3488 C   0  0  0  0  0  0  0  0  0  0  0  0
  146.5696  133.9236  153.0024 O   0  0  0  0  0  0  0  0  0  0  0  0
  146.6848  132.6364  151.1453 N   0  0  0  0  0  0  0  0  0  0  0  0
  145.5491  133.1586  150.4559 C   0  0  0  0  0  0  0  0  0  0  0  0
  144.1983  133.0219  151.1251 C   0  0  0  0  0  0  0  0  0  0  0  0
  144.5298  132.1707  149.9307 C   0  0  0  0  0  0  0  0  0  0  0  0
  149.7260  131.3597  154.5076 C   0  0  0  0  0  0  0  0  0  0  0  0
  150.4406  131.5692  155.6307 C   0  0  0  0  0  0  0  0  0  0  0  0
  150.4870  132.8801  156.2828 C   0  0  0  0  0  0  0  0  0  0  0  0
  151.1523  133.0825  157.2988 O   0  0  0  0  0  0  0  0  0  0  0  0
  152.8489  137.9265  155.4405 H   0  0  0  0  0  0  0  0  0  0  0  0
  151.4565  138.0320  156.5181 H   0  0  0  0  0  0  0  0  0  0  0  0
  151.3154  138.5456  154.8268 H   0  0  0  0  0  0  0  0  0  0  0  0
  149.4964  137.2108  155.4175 H   0  0  0  0  0  0  0  0  0  0  0  0
  149.6457  135.9436  154.2034 H   0  0  0  0  0  0  0  0  0  0  0  0
  150.4137  135.3144  157.0756 H   0  0  0  0  0  0  0  0  0  0  0  0
  148.7285  135.4148  156.6915 H   0  0  0  0  0  0  0  0  0  0  0  0
  148.4851  134.5036  154.1357 H   0  0  0  0  0  0  0  0  0  0  0  0
  148.5238  131.6319  152.0734 H   0  0  0  0  0  0  0  0  0  0  0  0
  147.1964  131.9013  150.6795 H   0  0  0  0  0  0  0  0  0  0  0  0
  145.6955  134.0576  149.8586 H   0  0  0  0  0  0  0  0  0  0  0  0
  144.1578  132.5317  152.0963 H   0  0  0  0  0  0  0  0  0  0  0  0
  143.4834  133.8299  150.9826 H   0  0  0  0  0  0  0  0  0  0  0  0
  144.0378  132.4112  148.9903 H   0  0  0  0  0  0  0  0  0  0  0  0
  144.7086  131.1112  150.1047 H   0  0  0  0  0  0  0  0  0  0  0  0
  149.7371  130.3653  154.0929 H   0  0  0  0  0  0  0  0  0  0  0  0
  150.9920  130.7484  156.0652 H   0  0  0  0  0  0  0  0  0  0  0  0
  1  2  1  0  0  0  0
  1 19  1  0  0  0  0
  1 20  1  0  0  0  0
  1 21  1  0  0  0  0
  2  3  1  0  0  0  0
  3  4  1  0  0  0  0
  3 22  1  0  0  0  0
  3 23  1  0  0  0  0
  4  5  1  0  0  0  0
  4 24  1  0  0  0  0
  4 25  1  0  0  0  0
  5 17  1  0  0  0  0
  5  6  1  0  0  0  0
  6  7  2  0  0  0  0
  6 26  1  0  0  0  0
  7  8  1  0  0  0  0
  7 15  1  0  0  0  0
  8  9  1  0  0  0  0
  8 27  1  0  0  0  0
  9 10  2  0  0  0  0
  9 11  1  0  0  0  0
 11 12  1  0  0  0  0
 11 28  1  0  0  0  0
 12 14  1  0  0  0  0
 12 13  1  0  0  0  0
 12 29  1  0  0  0  0
 13 14  1  0  0  0  0
 13 30  1  0  0  0  0
 13 31  1  0  0  0  0
 14 32  1  0  0  0  0
 14 33  1  0  0  0  0
 15 16  2  0  0  0  0
 15 34  1  0  0  0  0
 16 17  1  0  0  0  0
 16 35  1  0  0  0  0
 17 18  2  0  0  0  0
M  END
> <s_m_source_file>
AV-unprocessed.smi

> <i_m_source_file_index>
2891

> <i_lp_mmshare_version>
43012

> <i_f3d_flags>
0

> <s_epik_input>
W0NIM11PW0NIMl1bQ0gyXW4xW2NIXWMoW2NIXVtjSF1jMT1PKVtOSF1DKD1PKVtOSF1bQ0hdMltDSDJdW0NIMl0y

> <s_epik_cmdline>
J2VwaWtfcHl0aG9uJywgJy1waCcsICc3LjAnLCAnLXRuJywgJzgnLCAnLW1hJywgJzIwMCcsICctbWV0YWxfYmluZGluZycsICctaW1hZScsICc8aW5maWxlLm1hZT4nLCAnLW9tYWUnLCAnPG91dGZpbGUubWFlPic=

> <r_lp_tautomer_probability>
1

> <r_epik_Ionization_Penalty>
2.77726e-05

> <r_epik_Ionization_Penalty_Charging>
5.82689e-06

> <r_epik_Ionization_Penalty_Neutral>
2.19457e-05

> <r_epik_State_Penalty>
-0

> <r_epik_Charging_Adjusted_Penalty>
5.82689e-06

> <i_epik_Tot_Q>
0

> <i_epik_Tot_abs_Q>
0

> <r_epik_Metal_State_Penalty>
-0

> <b_epik_Metal_Only>
0

> <s_lp_Force_Field>
OPLS_2005

> <r_lp_Energy>
28.443

> <b_lp_Chiralities_Consistent>
1

> <s_lp_Variant>
AV-unprocessed.smi:2891-1

> <Gold.Version>
5.8.1

> <Gold.Id.Protein>
6NUR|6NUR_protein|mol2

> <Gold.PLP.Fitness>
44.2464

> <Gold.PLP.PLP>
-33.9833

> <Gold.PLP.part.hbond>
-4.0000

> <Gold.PLP.part.metal>
0.0000

> <Gold.PLP.part.buried>
-6.6999

> <Gold.PLP.part.nonpolar>
-24.0423

> <Gold.PLP.part.repulsive>
0.2584

> <Gold.PLP.ligand.clash>
0.0000

> <Gold.PLP.ligand.torsion>
0.8434

> <Gold.PLP.Chemscore.Hbond>
3.9675

> <Gold.PLP.Chemscore.CHOScore>
0.0000

> <Gold.PLP.Chemscore.Metal>
0.0000

> <Gold.Chemscore.Hbonds>
donor molecule, donor type, donor heavy atom, donor atom, acceptor molecule, acceptor atom, score
      L1  H     8    27       P1 10747  1.00
      L1  H    11    28       P1 10747  0.83
      P1  H  6896  6907       L1    18  0.86
      P1  H 10752 10763       L1     2  1.00
      L1  C     6    26       P1  7948  0.17

> <Gold.PLP.Chemscore.Internal.Correction>
0.0475

> <Gold.Rescore>
     Score         DG    S(hbond)    S(metal)    S(lipo)     H(rot)  DE(clash)    DE(int)     intcor
     17.07     -20.16       3.69        0.00      56.62       1.67       0.00       3.09       ----

> <Gold.Chemscore.Fitness>
17.0732

> <Gold.Chemscore.DG>
-20.1596

> <Gold.Chemscore.ZeroCoef>
-5.4800

> <Gold.Chemscore.Hbond>
3.6941

> <Gold.Chemscore.Metal>
0.0000

> <Gold.Chemscore.Lipo>
56.6167

> <Gold.Chemscore.Internal_Hbond>
0.0000

> <Gold.Chemscore.DEClash>
0.0000

> <Gold.Chemscore.DEInternal>
3.0864

> <Gold.Chemscore.Rot>
1.6730

> <Gold.Chemscore.Internal.Correction>
   9.000000E+99

> <Gold.Chemscore.Hbonds>
donor molecule, donor type, donor heavy atom, donor atom, acceptor molecule, acceptor atom, score
      L1  H     8    27       P1 10747  0.95
      L1  H    11    28       P1 10747  0.77
      P1  H  6896  6907       L1    18  0.84
      P1  H 10752 10763       L1     2  0.65

> <Gold.Chemscore.Hbond.Weighted>
-12.3383

> <Gold.Chemscore.Metal.Weighted>
-0.0000

> <Gold.Chemscore.Lipo.Weighted>
-6.6241

> <Gold.Chemscore.Internal_Hbond.Weighted>
0.0000

> <Gold.Chemscore.DEClash.Weighted>
0.0000

> <Gold.Chemscore.DEInternal.Weighted>
3.0864

> <Gold.Chemscore.Rot.Weighted>
4.2828

> <Gold.Chemscore.Internal.Correction.Weighted>
   9.000000E+99

> <Gold.Protein.RotatedTorsions>
[ 6907 6896 6895 6894 ] final -162.43 input  -60.11 | X-H torsion
[ 7974 7965 7964 7962 ] final   69.17 input  175.53 | X-H torsion
[ 8008 7997 7996 7995 ] final  152.14 input   59.86 | X-H torsion
[ 10167 10162 10161 10158 ] final   19.75 input  -65.29 | X-H torsion
[ 10718 10713 10712 10709 ] final  -48.93 input   66.30 | X-H torsion
[ 10763 10752 10751 10750 ] final   66.64 input  -60.55 | X-H torsion
[ 11005 11000 10999 10996 ] final  101.45 input  -57.11 | X-H torsion

> <Gold.Protein.ActiveResidues>
 VAL166  LYS551  ARG553  GLY616  TRP617  ASP618  TYR619  PRO620  LYS621  CYS622 
 ASP623  PHE694  ASN695  SER759  ASP760  ASP761  ALA762  ILE779  LEU786  VAL792 
 PHE793  MET794  SER795  GLU796  ALA797  LYS798  CYS799  TRP800  GLU811  SER814 

> <Gold.Protein.RotatedAtoms>
  151.3802  133.3824  159.2708 H   0  0  0  0  0  0  0  0  0  0  0  0  # atno 6907 bound_to 6896
  150.9583  134.8975  159.7725 H   0  0  0  0  0  0  0  0  0  0  0  0  # atno 6908 bound_to 6896
  152.5139  134.3760  159.9387 H   0  0  0  0  0  0  0  0  0  0  0  0  # atno 6909 bound_to 6896
  145.7937  139.2947  143.1195 H   0  0  0  0  0  0  0  0  0  0  0  0  # atno 7974 bound_to 7965
  156.2642  140.2029  156.6286 H   0  0  0  0  0  0  0  0  0  0  0  0  # atno 8008 bound_to 7997
  154.6700  140.0551  157.0180 H   0  0  0  0  0  0  0  0  0  0  0  0  # atno 8009 bound_to 7997
  155.1151  140.3219  155.4514 H   0  0  0  0  0  0  0  0  0  0  0  0  # atno 8010 bound_to 7997
  140.5555  143.9432  150.6606 H   0  0  0  0  0  0  0  0  0  0  0  0  # atno 10167 bound_to 10162
  156.1941  130.4154  149.9330 H   0  0  0  0  0  0  0  0  0  0  0  0  # atno 10718 bound_to 10713
  153.0149  135.5313  154.6856 H   0  0  0  0  0  0  0  0  0  0  0  0  # atno 10763 bound_to 10752
  154.6004  135.2867  155.0543 H   0  0  0  0  0  0  0  0  0  0  0  0  # atno 10764 bound_to 10752
  154.1602  135.6549  153.5036 H   0  0  0  0  0  0  0  0  0  0  0  0  # atno 10765 bound_to 10752
  139.8773  134.9183  156.4908 H   0  0  0  0  0  0  0  0  0  0  0  0  # atno 11005 bound_to 11000
  145.9950  140.8570  143.0047 LP  0  0  0  0  0  0  0  0  0  0  0  0  # atno 17320 bound_to 7965
  144.6778  140.2270  143.7360 LP  0  0  0  0  0  0  0  0  0  0  0  0  # atno 17321 bound_to 7965
  140.2869  143.3351  152.1099 LP  0  0  0  0  0  0  0  0  0  0  0  0  # atno 17342 bound_to 10162
  139.5046  144.6779  151.6083 LP  0  0  0  0  0  0  0  0  0  0  0  0  # atno 17343 bound_to 10162
  156.7061  130.8952  151.3604 LP  0  0  0  0  0  0  0  0  0  0  0  0  # atno 17370 bound_to 10713
  157.6947  130.9269  150.0611 LP  0  0  0  0  0  0  0  0  0  0  0  0  # atno 17371 bound_to 10713
  140.8660  133.8024  155.9314 LP  0  0  0  0  0  0  0  0  0  0  0  0  # atno 17394 bound_to 11000
  140.9001  134.2388  157.5046 LP  0  0  0  0  0  0  0  0  0  0  0  0  # atno 17395 bound_to 11000

$$$$
