AV-unprocessed.smi:1572|AV-procd|sdf|6328|dock9
  -GOLD-   22720 6533D 1   1.00000     0.00000
 Structure written by MMmdl.
 43 44  0  0  0  0  0  0  0  0  2 V2000
  144.2303  133.0119  150.8910 C   0  0  0  0  0  0  0  0  0  0  0  0
  145.2999  133.9683  150.6270 N   0  0  0  0  0  0  0  0  0  0  0  0
  145.4117  135.0123  151.6438 C   0  0  0  0  0  0  0  0  0  0  0  0
  145.9607  134.4668  152.9775 C   0  0  0  0  0  0  0  0  0  0  0  0
  147.2995  133.8345  152.7878 N   0  3  0  0  0  0  0  0  0  0  0  0
  148.0236  133.4560  154.0589 C   0  0  0  0  0  0  0  0  0  0  0  0
  147.4028  132.1941  154.7061 C   0  0  0  0  0  0  0  0  0  0  0  0
  149.5194  133.1539  153.7733 C   0  0  0  0  0  0  0  0  0  0  0  0
  147.9449  134.6561  155.0526 C   0  0  0  0  0  0  0  0  0  0  0  0
  148.2308  135.9573  154.4475 N   0  0  0  0  0  0  0  0  0  0  0  0
  148.2862  137.1252  155.1051 C   0  0  0  0  0  0  0  0  0  0  0  0
  148.0764  137.2327  156.3134 O   0  0  0  0  0  0  0  0  0  0  0  0
  148.5909  138.1384  154.2751 N   0  0  0  0  0  0  0  0  0  0  0  0
  148.7098  139.5200  154.5812 C   0  0  0  0  0  0  0  0  0  0  0  0
  147.9857  140.4796  153.9839 N   0  0  0  0  0  0  0  0  0  0  0  0
  148.3003  141.7436  154.4653 N   0  0  0  0  0  0  0  0  0  0  0  0
  149.2494  141.6881  155.4041 C   0  0  0  0  0  0  0  0  0  0  0  0
  149.8537  140.0859  155.7900 S   0  0  0  0  0  0  0  0  0  0  0  0
  147.1887  132.7713  151.7462 C   0  0  0  0  0  0  0  0  0  0  0  0
  146.6030  133.3360  150.4342 C   0  0  0  0  0  0  0  0  0  0  0  0
  143.2743  133.5296  150.9750 H   0  0  0  0  0  0  0  0  0  0  0  0
  144.3887  132.4444  151.8073 H   0  0  0  0  0  0  0  0  0  0  0  0
  144.1493  132.3023  150.0669 H   0  0  0  0  0  0  0  0  0  0  0  0
  146.0723  135.7956  151.2697 H   0  0  0  0  0  0  0  0  0  0  0  0
  144.4368  135.4772  151.7959 H   0  0  0  0  0  0  0  0  0  0  0  0
  146.0131  135.3031  153.6700 H   0  0  0  0  0  0  0  0  0  0  0  0
  145.2566  133.7557  153.4088 H   0  0  0  0  0  0  0  0  0  0  0  0
  147.9866  131.8610  155.5650 H   0  0  0  0  0  0  0  0  0  0  0  0
  147.3643  131.3582  154.0077 H   0  0  0  0  0  0  0  0  0  0  0  0
  146.3907  132.3729  155.0688 H   0  0  0  0  0  0  0  0  0  0  0  0
  150.0815  132.9557  154.6852 H   0  0  0  0  0  0  0  0  0  0  0  0
  150.0065  133.9884  153.2674 H   0  0  0  0  0  0  0  0  0  0  0  0
  149.6541  132.2595  153.1654 H   0  0  0  0  0  0  0  0  0  0  0  0
  146.9726  134.6661  155.5488 H   0  0  0  0  0  0  0  0  0  0  0  0
  148.6794  134.5560  155.8491 H   0  0  0  0  0  0  0  0  0  0  0  0
  148.4134  135.9651  153.4544 H   0  0  0  0  0  0  0  0  0  0  0  0
  148.7539  137.8948  153.3093 H   0  0  0  0  0  0  0  0  0  0  0  0
  149.5962  142.5975  155.8721 H   0  0  0  0  0  0  0  0  0  0  0  0
  148.1660  132.3712  151.4847 H   0  0  0  0  0  0  0  0  0  0  0  0
  146.5931  131.9357  152.1141 H   0  0  0  0  0  0  0  0  0  0  0  0
  146.5184  132.5473  149.6857 H   0  0  0  0  0  0  0  0  0  0  0  0
  147.2881  134.0781  150.0214 H   0  0  0  0  0  0  0  0  0  0  0  0
  147.8783  134.5469  152.3661 H   0  0  0  0  0  0  0  0  0  0  0  0
  1  2  1  0  0  0  0
  1 21  1  0  0  0  0
  1 22  1  0  0  0  0
  1 23  1  0  0  0  0
  2 20  1  0  0  0  0
  2  3  1  0  0  0  0
  3  4  1  0  0  0  0
  3 24  1  0  0  0  0
  3 25  1  0  0  0  0
  4  5  1  0  0  0  0
  4 26  1  0  0  0  0
  4 27  1  0  0  0  0
  5  6  1  0  0  0  0
  5 19  1  0  0  0  0
  5 43  1  0  0  0  0
  6  7  1  0  0  0  0
  6  8  1  0  0  0  0
  6  9  1  0  0  0  0
  7 28  1  0  0  0  0
  7 29  1  0  0  0  0
  7 30  1  0  0  0  0
  8 31  1  0  0  0  0
  8 32  1  0  0  0  0
  8 33  1  0  0  0  0
  9 10  1  0  0  0  0
  9 34  1  0  0  0  0
  9 35  1  0  0  0  0
 10 11  1  0  0  0  0
 10 36  1  0  0  0  0
 11 12  2  0  0  0  0
 11 13  1  0  0  0  0
 13 14  1  0  0  0  0
 13 37  1  0  0  0  0
 14 18  1  0  0  0  0
 14 15  2  0  0  0  0
 15 16  1  0  0  0  0
 16 17  2  0  0  0  0
 17 18  1  0  0  0  0
 17 38  1  0  0  0  0
 19 20  1  0  0  0  0
 19 39  1  0  0  0  0
 19 40  1  0  0  0  0
 20 41  1  0  0  0  0
 20 42  1  0  0  0  0
M  CHG  1   5   1
M  END
> <s_m_source_file>
AV-unprocessed.smi

> <i_m_source_file_index>
1572

> <i_lp_mmshare_version>
43012

> <i_f3d_flags>
0

> <s_epik_input>
W0NIM11OMVtDSDJdW0NIMl1OKFtDSDJdW0NIMl0xKUMoW0NIM10pKFtDSDNdKVtDSDJdW05IXUMoPU8pW05IXWMybm5bY0hdczI=

> <s_epik_cmdline>
J2VwaWtfcHl0aG9uJywgJy1waCcsICc3LjAnLCAnLXRuJywgJzgnLCAnLW1hJywgJzIwMCcsICctbWV0YWxfYmluZGluZycsICctaW1hZScsICc8aW5maWxlLm1hZT4nLCAnLW9tYWUnLCAnPG91dGZpbGUubWFlPic=

> <r_epik_Ionization_Penalty>
0.104337

> <r_epik_Ionization_Penalty_Charging>
0.0985296

> <r_epik_Ionization_Penalty_Neutral>
0.00580738

> <r_epik_State_Penalty>
1.056

> <r_epik_Charging_Adjusted_Penalty>
1.15453

> <i_epik_Tot_Q>
1

> <i_epik_Tot_abs_Q>
1

> <r_epik_Metal_State_Penalty>
1.38982

> <b_epik_Metal_Only>
0

> <s_lp_Force_Field>
OPLS_2005

> <r_lp_Energy>
26.4424

> <b_lp_Chiralities_Consistent>
1

> <s_lp_Variant>
AV-unprocessed.smi:1572-2

> <Gold.Version>
5.8.1

> <Gold.Id.Protein>
6NUR|6NUR_protein|mol2

> <Gold.PLP.Fitness>
40.9712

> <Gold.PLP.PLP>
-27.0373

> <Gold.PLP.part.hbond>
-4.0000

> <Gold.PLP.part.metal>
0.0000

> <Gold.PLP.part.buried>
-2.6914

> <Gold.PLP.part.nonpolar>
-20.7441

> <Gold.PLP.part.repulsive>
2.4116

> <Gold.PLP.ligand.clash>
0.0000

> <Gold.PLP.ligand.torsion>
0.8592

> <Gold.PLP.Chemscore.Hbond>
4.3410

> <Gold.PLP.Chemscore.CHOScore>
0.8481

> <Gold.PLP.Chemscore.Metal>
0.0000

> <Gold.Chemscore.Hbonds>
donor molecule, donor type, donor heavy atom, donor atom, acceptor molecule, acceptor atom, score
      L1  H     5    43       P1  7948  2.00
      L1  H    10    36       P1  7948  1.00
      L1  H    13    37       P1  7948  0.54
      L1  C    17    38       P1  8028  1.00

> <Gold.PLP.Chemscore.Internal.Correction>
0.0851

> <Gold.Rescore>
     Score         DG    S(hbond)    S(metal)    S(lipo)     H(rot)  DE(clash)    DE(int)     intcor
     14.93     -16.44       2.53        0.00      58.63       1.70       0.73       0.79       ----

> <Gold.Chemscore.Fitness>
14.9285

> <Gold.Chemscore.DG>
-16.4431

> <Gold.Chemscore.ZeroCoef>
-5.4800

> <Gold.Chemscore.Hbond>
2.5283

> <Gold.Chemscore.Metal>
0.0000

> <Gold.Chemscore.Lipo>
58.6270

> <Gold.Chemscore.Internal_Hbond>
0.0000

> <Gold.Chemscore.DEClash>
0.7283

> <Gold.Chemscore.DEInternal>
0.7863

> <Gold.Chemscore.Rot>
1.6956

> <Gold.Chemscore.Internal.Correction>
   9.000000E+99

> <Gold.Chemscore.Hbonds>
donor molecule, donor type, donor heavy atom, donor atom, acceptor molecule, acceptor atom, score
      L1  H     5    43       P1  7948  0.47
      L1  H    10    36       P1  7948  1.00
      L1  H    13    37       P1  7948  0.52

> <Gold.Chemscore.Hbond.Weighted>
-8.4445

> <Gold.Chemscore.Metal.Weighted>
-0.0000

> <Gold.Chemscore.Lipo.Weighted>
-6.8594

> <Gold.Chemscore.Internal_Hbond.Weighted>
0.0000

> <Gold.Chemscore.DEClash.Weighted>
0.7283

> <Gold.Chemscore.DEInternal.Weighted>
0.7863

> <Gold.Chemscore.Rot.Weighted>
4.3407

> <Gold.Chemscore.Internal.Correction.Weighted>
   9.000000E+99

> <Gold.Protein.RotatedTorsions>
[ 6907 6896 6895 6894 ] final  -11.38 input  -60.11 | X-H torsion
[ 7974 7965 7964 7962 ] final   81.61 input  175.53 | X-H torsion
[ 8008 7997 7996 7995 ] final  -79.92 input   59.86 | X-H torsion
[ 10167 10162 10161 10158 ] final -117.91 input  -65.29 | X-H torsion
[ 10718 10713 10712 10709 ] final   -8.83 input   66.30 | X-H torsion
[ 10763 10752 10751 10750 ] final  -92.24 input  -60.55 | X-H torsion
[ 11005 11000 10999 10996 ] final  -50.89 input  -57.11 | X-H torsion

> <Gold.Protein.ActiveResidues>
 VAL166  LYS551  ARG553  GLY616  TRP617  ASP618  TYR619  PRO620  LYS621  CYS622 
 ASP623  PHE694  ASN695  SER759  ASP760  ASP761  ALA762  ILE779  LEU786  VAL792 
 PHE793  MET794  SER795  GLU796  ALA797  LYS798  CYS799  TRP800  GLU811  SER814 

> <Gold.Protein.RotatedAtoms>
  151.3871  135.0950  159.9514 H   0  0  0  0  0  0  0  0  0  0  0  0  # atno 6907 bound_to 6896
  152.5091  133.9016  159.7454 H   0  0  0  0  0  0  0  0  0  0  0  0  # atno 6908 bound_to 6896
  150.9461  133.6546  159.2810 H   0  0  0  0  0  0  0  0  0  0  0  0  # atno 6909 bound_to 6896
  145.6359  139.2415  143.2058 H   0  0  0  0  0  0  0  0  0  0  0  0  # atno 7974 bound_to 7965
  154.5832  140.0671  156.9134 H   0  0  0  0  0  0  0  0  0  0  0  0  # atno 8008 bound_to 7997
  155.2425  140.3345  155.4272 H   0  0  0  0  0  0  0  0  0  0  0  0  # atno 8009 bound_to 7997
  156.2204  140.1796  156.7474 H   0  0  0  0  0  0  0  0  0  0  0  0  # atno 8010 bound_to 7997
  140.0632  143.4948  152.2020 H   0  0  0  0  0  0  0  0  0  0  0  0  # atno 10167 bound_to 10162
  156.6968  130.5081  149.5928 H   0  0  0  0  0  0  0  0  0  0  0  0  # atno 10718 bound_to 10713
  154.6841  135.5238  153.8303 H   0  0  0  0  0  0  0  0  0  0  0  0  # atno 10763 bound_to 10752
  153.0585  135.6559  154.0528 H   0  0  0  0  0  0  0  0  0  0  0  0  # atno 10764 bound_to 10752
  154.0411  135.2977  155.3334 H   0  0  0  0  0  0  0  0  0  0  0  0  # atno 10765 bound_to 10752
  141.0841  133.6646  156.3797 H   0  0  0  0  0  0  0  0  0  0  0  0  # atno 11005 bound_to 11000
  146.1319  140.7174  142.9408 LP  0  0  0  0  0  0  0  0  0  0  0  0  # atno 17320 bound_to 7965
  144.7176  140.4262  143.7033 LP  0  0  0  0  0  0  0  0  0  0  0  0  # atno 17321 bound_to 7965
  139.5881  144.7539  151.3469 LP  0  0  0  0  0  0  0  0  0  0  0  0  # atno 17342 bound_to 10162
  140.7162  143.7260  150.7659 LP  0  0  0  0  0  0  0  0  0  0  0  0  # atno 17343 bound_to 10162
  156.1757  130.6466  151.0892 LP  0  0  0  0  0  0  0  0  0  0  0  0  # atno 17370 bound_to 10713
  157.6988  131.0784  150.6886 LP  0  0  0  0  0  0  0  0  0  0  0  0  # atno 17371 bound_to 10713
  140.5403  134.6127  157.5378 LP  0  0  0  0  0  0  0  0  0  0  0  0  # atno 17394 bound_to 11000
  139.9657  134.7377  156.0143 LP  0  0  0  0  0  0  0  0  0  0  0  0  # atno 17395 bound_to 11000

$$$$
