AV-unprocessed.smi:1053|AV-procd|sdf|4619|dock1
  -GOLD-   22720 3123D 1   1.00000     0.00000
 Structure written by MMmdl.
 38 39  0  0  0  0  0  0  0  0  2 V2000
  148.9008  136.2509  155.4099 C   0  0  0  0  0  0  0  0  0  0  0  0
  148.0136  137.4211  154.9614 C   0  0  0  0  0  0  0  0  0  0  0  0
  148.6845  138.3056  153.9708 N   0  3  1  0  0  0  0  0  0  0  0  0
  147.7694  139.2935  153.3491 C   0  0  0  0  0  0  0  0  0  0  0  0
  147.4923  140.4720  154.3008 C   0  0  0  0  0  0  0  0  0  0  0  0
  148.7232  141.0695  154.6903 O   0  0  0  0  0  0  0  0  0  0  0  0
  149.5707  140.1682  155.3950 C   0  0  2  0  0  0  0  0  0  0  0  0
  150.8170  140.9545  155.8393 C   0  0  0  0  0  0  0  0  0  0  0  0
  151.5143  140.3282  156.9554 N   0  0  0  0  0  0  0  0  0  0  0  0
  151.9578  140.9891  158.0865 C   0  0  0  0  0  0  0  0  0  0  0  0
  152.6328  140.2935  159.0087 N   0  0  0  0  0  0  0  0  0  0  0  0
  153.0555  140.9683  160.0994 C   0  0  0  0  0  0  0  0  0  0  0  0
  152.8034  142.3443  160.2640 C   0  0  0  0  0  0  0  0  0  0  0  0
  152.0815  142.9775  159.2276 C   0  0  0  0  0  0  0  0  0  0  0  0
  151.7346  144.4581  159.2695 C   0  0  0  0  0  0  0  0  0  0  0  0
  150.4234  144.6182  159.0896 F   0  0  0  0  0  0  0  0  0  0  0  0
  152.0718  145.0071  160.4372 F   0  0  0  0  0  0  0  0  0  0  0  0
  152.3847  145.0988  158.2977 F   0  0  0  0  0  0  0  0  0  0  0  0
  151.6632  142.2893  158.1394 N   0  0  0  0  0  0  0  0  0  0  0  0
  149.9115  138.9820  154.4639 C   0  0  0  0  0  0  0  0  0  0  0  0
  148.3340  135.5608  156.0351 H   0  0  0  0  0  0  0  0  0  0  0  0
  149.7559  136.5848  155.9969 H   0  0  0  0  0  0  0  0  0  0  0  0
  149.2754  135.6880  154.5544 H   0  0  0  0  0  0  0  0  0  0  0  0
  147.1192  136.9987  154.5020 H   0  0  0  0  0  0  0  0  0  0  0  0
  147.6714  137.9880  155.8268 H   0  0  0  0  0  0  0  0  0  0  0  0
  148.2380  139.6695  152.4387 H   0  0  0  0  0  0  0  0  0  0  0  0
  146.8383  138.8170  153.0396 H   0  0  0  0  0  0  0  0  0  0  0  0
  146.8832  141.2229  153.7974 H   0  0  0  0  0  0  0  0  0  0  0  0
  146.9325  140.1501  155.1802 H   0  0  0  0  0  0  0  0  0  0  0  0
  149.0411  139.8152  156.2801 H   0  0  0  0  0  0  0  0  0  0  0  0
  151.5143  141.0487  155.0067 H   0  0  0  0  0  0  0  0  0  0  0  0
  150.5369  141.9703  156.1215 H   0  0  0  0  0  0  0  0  0  0  0  0
  151.6373  139.3259  156.9343 H   0  0  0  0  0  0  0  0  0  0  0  0
  153.6002  140.4072  160.8442 H   0  0  0  0  0  0  0  0  0  0  0  0
  153.1459  142.8763  161.1394 H   0  0  0  0  0  0  0  0  0  0  0  0
  150.5730  138.2722  154.9586 H   0  0  0  0  0  0  0  0  0  0  0  0
  150.4640  139.3513  153.5989 H   0  0  0  0  0  0  0  0  0  0  0  0
  148.9759  137.6906  153.2243 H   0  0  0  0  0  0  0  0  0  0  0  0
  1  2  1  0  0  0  0
  1 21  1  0  0  0  0
  1 22  1  0  0  0  0
  1 23  1  0  0  0  0
  2  3  1  0  0  0  0
  2 24  1  0  0  0  0
  2 25  1  0  0  0  0
  3 20  1  0  0  0  0
  3  4  1  0  0  0  0
  3 38  1  0  0  0  0
  4  5  1  0  0  0  0
  4 26  1  0  0  0  0
  4 27  1  0  0  0  0
  5  6  1  0  0  0  0
  5 28  1  0  0  0  0
  5 29  1  0  0  0  0
  6  7  1  0  0  0  0
  7  8  1  0  0  0  0
  7 20  1  0  0  0  0
  7 30  1  0  0  0  0
  8  9  1  0  0  0  0
  8 31  1  0  0  0  0
  8 32  1  0  0  0  0
  9 10  1  0  0  0  0
  9 33  1  0  0  0  0
 10 19  1  0  0  0  0
 10 11  2  0  0  0  0
 11 12  1  0  0  0  0
 12 13  2  0  0  0  0
 12 34  1  0  0  0  0
 13 14  1  0  0  0  0
 13 35  1  0  0  0  0
 14 15  1  0  0  0  0
 14 19  2  0  0  0  0
 15 16  1  0  0  0  0
 15 17  1  0  0  0  0
 15 18  1  0  0  0  0
 20 36  1  0  0  0  0
 20 37  1  0  0  0  0
M  CHG  1   3   1
M  END
> <s_m_source_file>
AV-unprocessed.smi

> <i_m_source_file_index>
1053

> <i_lp_mmshare_version>
43012

> <i_f3d_flags>
0

> <s_epik_input>
W0NIM11bQ0gyXU4xW0NIMl1bQ0gyXU9bQ0BIXShbQ0gyXTEpW0NIMl1bTkhdYzJuW2NIXVtjSF1jKG4yKUMoRikoRilG

> <s_epik_cmdline>
J2VwaWtfcHl0aG9uJywgJy1waCcsICc3LjAnLCAnLXRuJywgJzgnLCAnLW1hJywgJzIwMCcsICctbWV0YWxfYmluZGluZycsICctaW1hZScsICc8aW5maWxlLm1hZT4nLCAnLW9tYWUnLCAnPG91dGZpbGUubWFlPic=

> <r_lp_tautomer_probability>
1

> <r_epik_Ionization_Penalty>
0.178506

> <r_epik_Ionization_Penalty_Charging>
0.178504

> <r_epik_Ionization_Penalty_Neutral>
2.47619e-06

> <r_epik_State_Penalty>
0.167974

> <r_epik_Charging_Adjusted_Penalty>
0.346478

> <i_epik_Tot_Q>
1

> <i_epik_Tot_abs_Q>
1

> <r_epik_Metal_State_Penalty>
0.167974

> <b_epik_Metal_Only>
0

> <s_lp_Force_Field>
OPLS_2005

> <r_lp_Energy>
12.8268

> <b_lp_Chiralities_Consistent>
1

> <s_lp_Variant>
AV-unprocessed.smi:1053-3

> <Gold.Version>
5.8.1

> <Gold.Id.Protein>
6NUR|6NUR_protein|mol2

> <Gold.PLP.Fitness>
45.0684

> <Gold.PLP.PLP>
-39.8929

> <Gold.PLP.part.hbond>
-1.0000

> <Gold.PLP.part.metal>
0.0000

> <Gold.PLP.part.buried>
-5.4043

> <Gold.PLP.part.nonpolar>
-33.8389

> <Gold.PLP.part.repulsive>
0.2596

> <Gold.PLP.ligand.clash>
0.0000

> <Gold.PLP.ligand.torsion>
0.4409

> <Gold.PLP.Chemscore.Hbond>
2.0000

> <Gold.PLP.Chemscore.CHOScore>
0.0000

> <Gold.PLP.Chemscore.Metal>
0.0000

> <Gold.Chemscore.Hbonds>
donor molecule, donor type, donor heavy atom, donor atom, acceptor molecule, acceptor atom, score
      L1  H     3    38       P1  7948  2.00

> <Gold.PLP.Chemscore.Internal.Correction>
0.0572

> <Gold.Rescore>
     Score         DG    S(hbond)    S(metal)    S(lipo)     H(rot)  DE(clash)    DE(int)     intcor
     13.40     -13.79       1.01        0.00      76.34       1.55       0.03       0.36       ----

> <Gold.Chemscore.Fitness>
13.4020

> <Gold.Chemscore.DG>
-13.7910

> <Gold.Chemscore.ZeroCoef>
-5.4800

> <Gold.Chemscore.Hbond>
1.0061

> <Gold.Chemscore.Metal>
0.0000

> <Gold.Chemscore.Lipo>
76.3351

> <Gold.Chemscore.Internal_Hbond>
0.0000

> <Gold.Chemscore.DEClash>
0.0281

> <Gold.Chemscore.DEInternal>
0.3609

> <Gold.Chemscore.Rot>
1.5549

> <Gold.Chemscore.Internal.Correction>
   9.000000E+99

> <Gold.Chemscore.Hbonds>
donor molecule, donor type, donor heavy atom, donor atom, acceptor molecule, acceptor atom, score
      L1  H     3    38       P1  7948  0.98

> <Gold.Chemscore.Hbond.Weighted>
-3.3603

> <Gold.Chemscore.Metal.Weighted>
-0.0000

> <Gold.Chemscore.Lipo.Weighted>
-8.9312

> <Gold.Chemscore.Internal_Hbond.Weighted>
0.0000

> <Gold.Chemscore.DEClash.Weighted>
0.0281

> <Gold.Chemscore.DEInternal.Weighted>
0.3609

> <Gold.Chemscore.Rot.Weighted>
3.9806

> <Gold.Chemscore.Internal.Correction.Weighted>
   9.000000E+99

> <Gold.Protein.RotatedTorsions>
[ 6907 6896 6895 6894 ] final -101.62 input  -60.11 | X-H torsion
[ 7974 7965 7964 7962 ] final -116.71 input  175.53 | X-H torsion
[ 8008 7997 7996 7995 ] final -176.89 input   59.86 | X-H torsion
[ 10167 10162 10161 10158 ] final   17.81 input  -65.29 | X-H torsion
[ 10718 10713 10712 10709 ] final  -26.69 input   66.30 | X-H torsion
[ 10763 10752 10751 10750 ] final -145.48 input  -60.55 | X-H torsion
[ 11005 11000 10999 10996 ] final -136.57 input  -57.11 | X-H torsion

> <Gold.Protein.ActiveResidues>
 VAL166  LYS551  ARG553  GLY616  TRP617  ASP618  TYR619  PRO620  LYS621  CYS622 
 ASP623  PHE694  ASN695  SER759  ASP760  ASP761  ALA762  ILE779  LEU786  VAL792 
 PHE793  MET794  SER795  GLU796  ALA797  LYS798  CYS799  TRP800  GLU811  SER814 

> <Gold.Protein.RotatedAtoms>
  150.7162  134.0707  159.3863 H   0  0  0  0  0  0  0  0  0  0  0  0  # atno 6907 bound_to 6896
  151.8689  135.0494  160.0486 H   0  0  0  0  0  0  0  0  0  0  0  0  # atno 6908 bound_to 6896
  152.2659  133.5303  159.5446 H   0  0  0  0  0  0  0  0  0  0  0  0  # atno 6909 bound_to 6896
  145.0936  140.8506  143.3968 H   0  0  0  0  0  0  0  0  0  0  0  0  # atno 7974 bound_to 7965
  156.0003  140.1219  157.0554 H   0  0  0  0  0  0  0  0  0  0  0  0  # atno 8008 bound_to 7997
  154.4240  140.1108  156.5756 H   0  0  0  0  0  0  0  0  0  0  0  0  # atno 8009 bound_to 7997
  155.6221  140.3472  155.4658 H   0  0  0  0  0  0  0  0  0  0  0  0  # atno 8010 bound_to 7997
  140.5699  143.9180  150.6705 H   0  0  0  0  0  0  0  0  0  0  0  0  # atno 10167 bound_to 10162
  156.4479  130.4478  149.7009 H   0  0  0  0  0  0  0  0  0  0  0  0  # atno 10718 bound_to 10713
  154.8381  135.3412  154.6512 H   0  0  0  0  0  0  0  0  0  0  0  0  # atno 10763 bound_to 10752
  153.7125  135.6963  153.5038 H   0  0  0  0  0  0  0  0  0  0  0  0  # atno 10764 bound_to 10752
  153.2441  135.4375  155.0683 H   0  0  0  0  0  0  0  0  0  0  0  0  # atno 10765 bound_to 10752
  140.8792  134.1953  157.4602 H   0  0  0  0  0  0  0  0  0  0  0  0  # atno 11005 bound_to 11000
  145.1037  139.2805  143.5673 LP  0  0  0  0  0  0  0  0  0  0  0  0  # atno 17320 bound_to 7965
  146.3531  140.0611  142.8629 LP  0  0  0  0  0  0  0  0  0  0  0  0  # atno 17321 bound_to 7965
  140.2653  143.3494  152.1286 LP  0  0  0  0  0  0  0  0  0  0  0  0  # atno 17342 bound_to 10162
  139.5112  144.6897  151.5793 LP  0  0  0  0  0  0  0  0  0  0  0  0  # atno 17343 bound_to 10162
  156.3847  130.7597  151.2593 LP  0  0  0  0  0  0  0  0  0  0  0  0  # atno 17370 bound_to 10713
  157.7504  131.0285  150.4053 LP  0  0  0  0  0  0  0  0  0  0  0  0  # atno 17371 bound_to 10713
  139.8718  134.9810  156.5097 LP  0  0  0  0  0  0  0  0  0  0  0  0  # atno 17394 bound_to 11000
  140.8481  133.8153  155.9141 LP  0  0  0  0  0  0  0  0  0  0  0  0  # atno 17395 bound_to 11000

$$$$
