AV-unprocessed.smi:2474|AV-procd|sdf|9751|dock3
  -GOLD-   2272013393D 1   1.00000     0.00000
 Structure written by MMmdl.
 40 41  0  0  0  0  0  0  0  0  1 V2000
  151.3633  136.5838  156.1968 C   0  0  0  0  0  0  0  0  0  0  0  0
  150.7108  137.6399  155.3713 C   0  0  0  0  0  0  0  0  0  0  0  0
  151.2926  138.7547  154.8205 C   0  0  0  0  0  0  0  0  0  0  0  0
  150.4022  139.5645  154.1126 N   0  0  0  0  0  0  0  0  0  0  0  0
  149.1564  139.0814  154.1165 C   0  0  0  0  0  0  0  0  0  0  0  0
  147.9857  139.7892  153.5013 C   0  0  2  0  0  0  0  0  0  0  0  0
  147.7891  141.1956  154.0855 C   0  0  0  0  0  0  0  0  0  0  0  0
  146.6902  138.9458  153.5100 C   0  0  0  0  0  0  0  0  0  0  0  0
  146.8706  137.6601  152.8383 N   0  0  0  0  0  0  0  0  0  0  0  0
  145.9263  136.7186  152.7000 C   0  0  0  0  0  0  0  0  0  0  0  0
  144.7454  136.8705  153.0124 O   0  0  0  0  0  0  0  0  0  0  0  0
  146.4378  135.5693  152.2391 N   0  0  0  0  0  0  0  0  0  0  0  0
  145.7081  134.3087  152.1460 C   0  0  2  0  0  0  0  0  0  0  0  0
  146.6529  133.1890  151.6572 C   0  0  0  0  0  0  0  0  0  0  0  0
  145.9605  131.8198  151.5798 C   0  0  0  0  0  0  0  0  0  0  0  0
  144.7753  131.8184  150.6045 C   0  0  0  0  0  0  0  0  0  0  0  0
  143.4903  132.9847  151.1309 S   0  0  0  0  0  0  0  0  0  0  0  0
  144.5025  134.4881  151.2075 C   0  0  0  0  0  0  0  0  0  0  0  0
  149.0091  137.5645  154.9988 S   0  0  0  0  0  0  0  0  0  0  0  0
  152.4192  136.8049  156.3543 H   0  0  0  0  0  0  0  0  0  0  0  0
  151.2917  135.6118  155.7082 H   0  0  0  0  0  0  0  0  0  0  0  0
  150.8867  136.5084  157.1745 H   0  0  0  0  0  0  0  0  0  0  0  0
  152.3280  139.0535  154.8895 H   0  0  0  0  0  0  0  0  0  0  0  0
  148.2451  139.9376  152.4521 H   0  0  0  0  0  0  0  0  0  0  0  0
  148.6926  141.7959  153.9756 H   0  0  0  0  0  0  0  0  0  0  0  0
  147.5436  141.1533  155.1470 H   0  0  0  0  0  0  0  0  0  0  0  0
  146.9795  141.7210  153.5787 H   0  0  0  0  0  0  0  0  0  0  0  0
  146.3430  138.7989  154.5342 H   0  0  0  0  0  0  0  0  0  0  0  0
  145.8946  139.4846  152.9949 H   0  0  0  0  0  0  0  0  0  0  0  0
  147.8085  137.4344  152.5411 H   0  0  0  0  0  0  0  0  0  0  0  0
  147.4203  135.5440  152.0092 H   0  0  0  0  0  0  0  0  0  0  0  0
  145.3305  134.0496  153.1372 H   0  0  0  0  0  0  0  0  0  0  0  0
  147.0615  133.4475  150.6794 H   0  0  0  0  0  0  0  0  0  0  0  0
  147.5080  133.1075  152.3297 H   0  0  0  0  0  0  0  0  0  0  0  0
  146.6864  131.0697  151.2648 H   0  0  0  0  0  0  0  0  0  0  0  0
  145.6230  131.5200  152.5727 H   0  0  0  0  0  0  0  0  0  0  0  0
  145.1079  132.0844  149.6006 H   0  0  0  0  0  0  0  0  0  0  0  0
  144.3381  130.8218  150.5434 H   0  0  0  0  0  0  0  0  0  0  0  0
  143.8703  135.3073  151.5516 H   0  0  0  0  0  0  0  0  0  0  0  0
  144.8343  134.7412  150.1998 H   0  0  0  0  0  0  0  0  0  0  0  0
  1  2  1  0  0  0  0
  1 20  1  0  0  0  0
  1 21  1  0  0  0  0
  1 22  1  0  0  0  0
  2 19  1  0  0  0  0
  2  3  2  0  0  0  0
  3  4  1  0  0  0  0
  3 23  1  0  0  0  0
  4  5  2  0  0  0  0
  5  6  1  0  0  0  0
  5 19  1  0  0  0  0
  6  7  1  0  0  0  0
  6  8  1  0  0  0  0
  6 24  1  0  0  0  0
  7 25  1  0  0  0  0
  7 26  1  0  0  0  0
  7 27  1  0  0  0  0
  8  9  1  0  0  0  0
  8 28  1  0  0  0  0
  8 29  1  0  0  0  0
  9 10  1  0  0  0  0
  9 30  1  0  0  0  0
 10 11  2  0  0  0  0
 10 12  1  0  0  0  0
 12 13  1  0  0  0  0
 12 31  1  0  0  0  0
 13 18  1  0  0  0  0
 13 14  1  0  0  0  0
 13 32  1  0  0  0  0
 14 15  1  0  0  0  0
 14 33  1  0  0  0  0
 14 34  1  0  0  0  0
 15 16  1  0  0  0  0
 15 35  1  0  0  0  0
 15 36  1  0  0  0  0
 16 17  1  0  0  0  0
 16 37  1  0  0  0  0
 16 38  1  0  0  0  0
 17 18  1  0  0  0  0
 18 39  1  0  0  0  0
 18 40  1  0  0  0  0
M  END
> <s_m_source_file>
AV-unprocessed.smi

> <i_m_source_file_index>
2474

> <i_lp_mmshare_version>
43012

> <i_f3d_flags>
0

> <s_epik_input>
W0NIM11jMVtjSF1uYyhzMSlbQ0BIXShbQ0gzXSlbQ0gyXVtOSF1DKD1PKVtOSF1bQ0BASF0yW0NIMl1bQ0gyXVtDSDJdU1tDSDJdMg==

> <s_epik_cmdline>
J2VwaWtfcHl0aG9uJywgJy1waCcsICc3LjAnLCAnLXRuJywgJzgnLCAnLW1hJywgJzIwMCcsICctbWV0YWxfYmluZGluZycsICctaW1hZScsICc8aW5maWxlLm1hZT4nLCAnLW9tYWUnLCAnPG91dGZpbGUubWFlPic=

> <r_epik_Ionization_Penalty>
0.000644338

> <r_epik_Ionization_Penalty_Charging>
0

> <r_epik_Ionization_Penalty_Neutral>
0.000644338

> <r_epik_State_Penalty>
0.000374131

> <r_epik_Charging_Adjusted_Penalty>
0.000374131

> <i_epik_Tot_Q>
0

> <i_epik_Tot_abs_Q>
0

> <r_epik_Metal_State_Penalty>
-0

> <b_epik_Metal_Only>
0

> <s_lp_Force_Field>
OPLS_2005

> <r_lp_Energy>
-6.83814

> <b_lp_Chiralities_Consistent>
1

> <s_lp_Variant>
AV-unprocessed.smi:2474-1

> <Gold.Version>
5.8.1

> <Gold.Id.Protein>
6NUR|6NUR_protein|mol2

> <Gold.PLP.Fitness>
40.9133

> <Gold.PLP.PLP>
-31.9781

> <Gold.PLP.part.hbond>
-3.0000

> <Gold.PLP.part.metal>
0.0000

> <Gold.PLP.part.buried>
-2.5109

> <Gold.PLP.part.nonpolar>
-27.1946

> <Gold.PLP.part.repulsive>
0.6333

> <Gold.PLP.ligand.clash>
0.0000

> <Gold.PLP.ligand.torsion>
0.0852

> <Gold.PLP.Chemscore.Hbond>
2.9920

> <Gold.PLP.Chemscore.CHOScore>
0.0000

> <Gold.PLP.Chemscore.Metal>
0.0000

> <Gold.Chemscore.Hbonds>
donor molecule, donor type, donor heavy atom, donor atom, acceptor molecule, acceptor atom, score
      L1  H     9    30       P1  7948  0.99
      L1  H    12    31       P1  7948  1.00
      P1  H  7989  7998       L1     4  0.95

> <Gold.PLP.Chemscore.Internal.Correction>
0.1297

> <Gold.Rescore>
     Score         DG    S(hbond)    S(metal)    S(lipo)     H(rot)  DE(clash)    DE(int)     intcor
     19.28     -19.77       2.57        0.00      80.80       1.46       0.30       0.19       ----

> <Gold.Chemscore.Fitness>
19.2842

> <Gold.Chemscore.DG>
-19.7748

> <Gold.Chemscore.ZeroCoef>
-5.4800

> <Gold.Chemscore.Hbond>
2.5698

> <Gold.Chemscore.Metal>
0.0000

> <Gold.Chemscore.Lipo>
80.7983

> <Gold.Chemscore.Internal_Hbond>
0.0000

> <Gold.Chemscore.DEClash>
0.2987

> <Gold.Chemscore.DEInternal>
0.1919

> <Gold.Chemscore.Rot>
1.4616

> <Gold.Chemscore.Internal.Correction>
   9.000000E+99

> <Gold.Chemscore.Hbonds>
donor molecule, donor type, donor heavy atom, donor atom, acceptor molecule, acceptor atom, score
      L1  H     9    30       P1  7948  0.93
      L1  H    12    31       P1  7948  0.98
      P1  H  7989  7998       L1     4  0.21

> <Gold.Chemscore.Hbond.Weighted>
-8.5830

> <Gold.Chemscore.Metal.Weighted>
-0.0000

> <Gold.Chemscore.Lipo.Weighted>
-9.4534

> <Gold.Chemscore.Internal_Hbond.Weighted>
0.0000

> <Gold.Chemscore.DEClash.Weighted>
0.2987

> <Gold.Chemscore.DEInternal.Weighted>
0.1919

> <Gold.Chemscore.Rot.Weighted>
3.7416

> <Gold.Chemscore.Internal.Correction.Weighted>
   9.000000E+99

> <Gold.Protein.RotatedTorsions>
[ 6907 6896 6895 6894 ] final -149.90 input  -60.11 | X-H torsion
[ 7974 7965 7964 7962 ] final   95.12 input  175.53 | X-H torsion
[ 8008 7997 7996 7995 ] final  -64.16 input   59.86 | X-H torsion
[ 10167 10162 10161 10158 ] final   74.87 input  -65.29 | X-H torsion
[ 10718 10713 10712 10709 ] final  -42.97 input   66.30 | X-H torsion
[ 10763 10752 10751 10750 ] final  -55.19 input  -60.55 | X-H torsion
[ 11005 11000 10999 10996 ] final -144.61 input  -57.11 | X-H torsion

> <Gold.Protein.ActiveResidues>
 VAL166  LYS551  ARG553  GLY616  TRP617  ASP618  TYR619  PRO620  LYS621  CYS622 
 ASP623  PHE694  ASN695  SER759  ASP760  ASP761  ALA762  ILE779  LEU786  VAL792 
 PHE793  MET794  SER795  GLU796  ALA797  LYS798  CYS799  TRP800  GLU811  SER814 

> <Gold.Protein.RotatedAtoms>
  151.1907  133.4669  159.2594 H   0  0  0  0  0  0  0  0  0  0  0  0  # atno 6907 bound_to 6896
  151.1166  135.0056  159.8529 H   0  0  0  0  0  0  0  0  0  0  0  0  # atno 6908 bound_to 6896
  152.5453  134.1822  159.8693 H   0  0  0  0  0  0  0  0  0  0  0  0  # atno 6909 bound_to 6896
  145.4565  139.2289  143.3011 H   0  0  0  0  0  0  0  0  0  0  0  0  # atno 7974 bound_to 7965
  154.4595  140.0959  156.6854 H   0  0  0  0  0  0  0  0  0  0  0  0  # atno 8008 bound_to 7997
  155.5036  140.3474  155.4357 H   0  0  0  0  0  0  0  0  0  0  0  0  # atno 8009 bound_to 7997
  156.0843  140.1381  156.9661 H   0  0  0  0  0  0  0  0  0  0  0  0  # atno 8010 bound_to 7997
  140.0090  144.5628  150.7674 H   0  0  0  0  0  0  0  0  0  0  0  0  # atno 10167 bound_to 10162
  156.2539  130.4190  149.8618 H   0  0  0  0  0  0  0  0  0  0  0  0  # atno 10718 bound_to 10713
  154.1869  135.6434  153.5049 H   0  0  0  0  0  0  0  0  0  0  0  0  # atno 10763 bound_to 10752
  153.0045  135.5419  154.6456 H   0  0  0  0  0  0  0  0  0  0  0  0  # atno 10764 bound_to 10752
  154.5834  135.2927  155.0682 H   0  0  0  0  0  0  0  0  0  0  0  0  # atno 10765 bound_to 10752
  140.8006  134.2861  157.4980 H   0  0  0  0  0  0  0  0  0  0  0  0  # atno 11005 bound_to 11000
  146.2475  140.5329  142.8907 LP  0  0  0  0  0  0  0  0  0  0  0  0  # atno 17320 bound_to 7965
  144.8029  140.6246  143.6466 LP  0  0  0  0  0  0  0  0  0  0  0  0  # atno 17321 bound_to 7965
  140.7389  143.2784  151.3673 LP  0  0  0  0  0  0  0  0  0  0  0  0  # atno 17342 bound_to 10162
  139.6218  144.0892  152.2398 LP  0  0  0  0  0  0  0  0  0  0  0  0  # atno 17343 bound_to 10162
  156.6157  130.8605  151.3464 LP  0  0  0  0  0  0  0  0  0  0  0  0  # atno 17370 bound_to 10713
  157.7225  130.9577  150.1497 LP  0  0  0  0  0  0  0  0  0  0  0  0  # atno 17371 bound_to 10713
  139.8722  134.9427  156.3833 LP  0  0  0  0  0  0  0  0  0  0  0  0  # atno 17394 bound_to 11000
  140.9298  133.7587  156.0010 LP  0  0  0  0  0  0  0  0  0  0  0  0  # atno 17395 bound_to 11000

$$$$
