AV-unprocessed.smi:1986|AV-procd|sdf|8051|dock1
  -GOLD-   2272010253D 1   1.00000     0.00000
 Structure written by MMmdl.
 47 48  0  0  0  0  0  0  0  0  1 V2000
  150.8777  138.4156  154.1627 C   0  0  0  0  0  0  0  0  0  0  0  0
  150.5003  138.1833  155.6372 C   0  0  0  0  0  0  0  0  0  0  0  0
  150.1652  139.4686  156.4589 C   0  0  2  0  0  0  0  0  0  0  0  0
  151.4295  140.3686  156.3973 C   0  0  0  0  0  0  0  0  0  0  0  0
  149.9192  139.0468  157.9450 C   0  0  0  0  0  0  0  0  0  0  0  0
  149.0241  137.8991  158.0944 N   0  0  0  0  0  0  0  0  0  0  0  0
  149.3045  136.7681  158.7600 C   0  0  0  0  0  0  0  0  0  0  0  0
  150.3624  136.5862  159.3642 O   0  0  0  0  0  0  0  0  0  0  0  0
  148.2166  135.6851  158.7323 C   0  0  0  0  0  0  0  0  0  0  0  0
  147.8785  135.1806  160.0709 N   0  0  0  0  0  0  0  0  0  0  0  0
  147.8141  133.7973  160.1474 N   0  0  0  0  0  0  0  0  0  0  0  0
  147.5535  133.2245  161.2735 C   0  0  0  0  0  0  0  0  0  0  0  0
  147.5040  131.8523  161.3042 O   0  0  0  0  0  0  0  0  0  0  0  0
  147.3190  134.0008  162.4713 C   0  0  0  0  0  0  0  0  0  0  0  0
  147.3809  135.3477  162.3863 C   0  0  0  0  0  0  0  0  0  0  0  0
  147.6795  136.0297  161.1256 C   0  0  0  0  0  0  0  0  0  0  0  0
  147.7510  137.2541  161.0237 O   0  0  0  0  0  0  0  0  0  0  0  0
  148.9924  140.1840  155.8799 N   0  0  0  0  0  0  0  0  0  0  0  0
  149.2519  140.8952  154.6222 C   0  0  0  0  0  0  0  0  0  0  0  0
  147.9653  141.4813  154.0162 C   0  0  0  0  0  0  0  0  0  0  0  0
  147.3409  142.3444  154.9588 O   0  0  0  0  0  0  0  0  0  0  0  0
  147.0204  141.6791  156.1745 C   0  0  0  0  0  0  0  0  0  0  0  0
  148.3000  141.0963  156.7980 C   0  0  0  0  0  0  0  0  0  0  0  0
  146.9013  131.6370  161.9991 H   0  0  0  0  0  0  0  0  0  0  0  0
  151.0805  137.4658  153.6679 H   0  0  0  0  0  0  0  0  0  0  0  0
  151.7739  139.0280  154.0658 H   0  0  0  0  0  0  0  0  0  0  0  0
  150.0754  138.9042  153.6097 H   0  0  0  0  0  0  0  0  0  0  0  0
  149.6687  137.4801  155.6794 H   0  0  0  0  0  0  0  0  0  0  0  0
  151.3296  137.6495  156.1026 H   0  0  0  0  0  0  0  0  0  0  0  0
  152.3453  139.8048  156.5779 H   0  0  0  0  0  0  0  0  0  0  0  0
  151.4032  141.1598  157.1470 H   0  0  0  0  0  0  0  0  0  0  0  0
  151.5370  140.8477  155.4239 H   0  0  0  0  0  0  0  0  0  0  0  0
  150.8601  138.8441  158.4568 H   0  0  0  0  0  0  0  0  0  0  0  0
  149.4549  139.8622  158.4985 H   0  0  0  0  0  0  0  0  0  0  0  0
  148.1286  137.9629  157.6323 H   0  0  0  0  0  0  0  0  0  0  0  0
  147.3361  136.0860  158.2278 H   0  0  0  0  0  0  0  0  0  0  0  0
  148.5539  134.8549  158.1084 H   0  0  0  0  0  0  0  0  0  0  0  0
  147.0995  133.5074  163.4066 H   0  0  0  0  0  0  0  0  0  0  0  0
  147.2076  135.9402  163.2727 H   0  0  0  0  0  0  0  0  0  0  0  0
  149.9617  141.7062  154.7842 H   0  0  0  0  0  0  0  0  0  0  0  0
  149.6932  140.2313  153.8812 H   0  0  0  0  0  0  0  0  0  0  0  0
  148.1956  142.0464  153.1131 H   0  0  0  0  0  0  0  0  0  0  0  0
  147.2767  140.6854  153.7283 H   0  0  0  0  0  0  0  0  0  0  0  0
  146.5567  142.3902  156.8579 H   0  0  0  0  0  0  0  0  0  0  0  0
  146.2889  140.8917  155.9860 H   0  0  0  0  0  0  0  0  0  0  0  0
  148.0202  140.5879  157.7187 H   0  0  0  0  0  0  0  0  0  0  0  0
  148.9560  141.9204  157.0781 H   0  0  0  0  0  0  0  0  0  0  0  0
  1  2  1  0  0  0  0
  1 25  1  0  0  0  0
  1 26  1  0  0  0  0
  1 27  1  0  0  0  0
  2  3  1  0  0  0  0
  2 28  1  0  0  0  0
  2 29  1  0  0  0  0
  3  4  1  0  0  0  0
  3  5  1  0  0  0  0
  3 18  1  0  0  0  0
  4 30  1  0  0  0  0
  4 31  1  0  0  0  0
  4 32  1  0  0  0  0
  5  6  1  0  0  0  0
  5 33  1  0  0  0  0
  5 34  1  0  0  0  0
  6  7  1  0  0  0  0
  6 35  1  0  0  0  0
  7  8  2  0  0  0  0
  7  9  1  0  0  0  0
  9 36  1  0  0  0  0
  9 37  1  0  0  0  0
  9 10  1  0  0  0  0
 10 11  1  0  0  0  0
 10 16  1  0  0  0  0
 11 12  2  0  0  0  0
 12 13  1  0  0  0  0
 12 14  1  0  0  0  0
 13 24  1  0  0  0  0
 14 38  1  0  0  0  0
 14 15  2  0  0  0  0
 15 39  1  0  0  0  0
 15 16  1  0  0  0  0
 16 17  2  0  0  0  0
 18 23  1  0  0  0  0
 18 19  1  0  0  0  0
 19 20  1  0  0  0  0
 19 40  1  0  0  0  0
 19 41  1  0  0  0  0
 20 21  1  0  0  0  0
 20 42  1  0  0  0  0
 20 43  1  0  0  0  0
 21 22  1  0  0  0  0
 22 23  1  0  0  0  0
 22 44  1  0  0  0  0
 22 45  1  0  0  0  0
 23 46  1  0  0  0  0
 23 47  1  0  0  0  0
M  END
> <s_m_source_file>
AV-unprocessed.smi

> <i_m_source_file_index>
1986

> <i_lp_mmshare_version>
43012

> <i_f3d_flags>
0

> <s_epik_input>
W0NIMl0xW0NIMl1PW0NIMl1bQ0gyXU4xW0NAQF0oW0NIM10pKFtDSDJdW0NIM10pW0NIMl1bTkhdQyg9TylbQ0gyXW4yW25IXWMoPU8pW2NIXVtjSF1jMj1P

> <s_epik_cmdline>
J2VwaWtfcHl0aG9uJywgJy1waCcsICc3LjAnLCAnLXRuJywgJzgnLCAnLW1hJywgJzIwMCcsICctbWV0YWxfYmluZGluZycsICctaW1hZScsICc8aW5maWxlLm1hZT4nLCAnLW9tYWUnLCAnPG91dGZpbGUubWFlPic=

> <r_epik_Ionization_Penalty>
2.44436

> <r_epik_Ionization_Penalty_Charging>
3.63754e-08

> <r_epik_Ionization_Penalty_Neutral>
2.44436

> <r_epik_State_Penalty>
2.04701

> <r_epik_Charging_Adjusted_Penalty>
2.04701

> <i_epik_Tot_Q>
0

> <i_epik_Tot_abs_Q>
0

> <r_epik_Metal_State_Penalty>
2.04701

> <b_epik_Metal_Only>
0

> <s_lp_Force_Field>
OPLS_2005

> <r_lp_Energy>
53.8062

> <b_lp_Chiralities_Consistent>
1

> <s_lp_Variant>
AV-unprocessed.smi:1986-6

> <Gold.Version>
5.8.1

> <Gold.Id.Protein>
6NUR|6NUR_protein|mol2

> <Gold.PLP.Fitness>
44.2499

> <Gold.PLP.PLP>
-37.5447

> <Gold.PLP.part.hbond>
-3.0000

> <Gold.PLP.part.metal>
0.0000

> <Gold.PLP.part.buried>
-6.5966

> <Gold.PLP.part.nonpolar>
-28.3914

> <Gold.PLP.part.repulsive>
0.2858

> <Gold.PLP.ligand.clash>
0.0000

> <Gold.PLP.ligand.torsion>
0.9250

> <Gold.PLP.Chemscore.Hbond>
2.7600

> <Gold.PLP.Chemscore.CHOScore>
0.0000

> <Gold.PLP.Chemscore.Metal>
0.0000

> <Gold.Chemscore.Hbonds>
donor molecule, donor type, donor heavy atom, donor atom, acceptor molecule, acceptor atom, score
      P1  H  6896  6908       L1     8  1.00
      P1  H  6931  6943       L1    17  0.88
      P1  H  6934  6947       L1    17  0.85

> <Gold.PLP.Chemscore.Internal.Correction>
0.2751

> <Gold.Rescore>
     Score         DG    S(hbond)    S(metal)    S(lipo)     H(rot)  DE(clash)    DE(int)     intcor
     12.13     -14.65       2.75        0.00      66.85       3.06       0.00       2.52       ----

> <Gold.Chemscore.Fitness>
12.1312

> <Gold.Chemscore.DG>
-14.6523

> <Gold.Chemscore.ZeroCoef>
-5.4800

> <Gold.Chemscore.Hbond>
2.7515

> <Gold.Chemscore.Metal>
0.0000

> <Gold.Chemscore.Lipo>
66.8462

> <Gold.Chemscore.Internal_Hbond>
0.0000

> <Gold.Chemscore.DEClash>
0.0000

> <Gold.Chemscore.DEInternal>
2.5211

> <Gold.Chemscore.Rot>
3.0620

> <Gold.Chemscore.Internal.Correction>
   9.000000E+99

> <Gold.Chemscore.Hbonds>
donor molecule, donor type, donor heavy atom, donor atom, acceptor molecule, acceptor atom, score
      P1  H  6896  6908       L1     8  1.00
      P1  H  6931  6943       L1    17  0.86
      P1  H  6934  6947       L1    17  0.83

> <Gold.Chemscore.Hbond.Weighted>
-9.1900

> <Gold.Chemscore.Metal.Weighted>
-0.0000

> <Gold.Chemscore.Lipo.Weighted>
-7.8210

> <Gold.Chemscore.Internal_Hbond.Weighted>
0.0000

> <Gold.Chemscore.DEClash.Weighted>
0.0000

> <Gold.Chemscore.DEInternal.Weighted>
2.5211

> <Gold.Chemscore.Rot.Weighted>
7.8387

> <Gold.Chemscore.Internal.Correction.Weighted>
   9.000000E+99

> <Gold.Protein.RotatedTorsions>
[ 6907 6896 6895 6894 ] final -154.59 input  -60.11 | X-H torsion
[ 7974 7965 7964 7962 ] final   60.94 input  175.53 | X-H torsion
[ 8008 7997 7996 7995 ] final -116.84 input   59.86 | X-H torsion
[ 10167 10162 10161 10158 ] final -169.04 input  -65.29 | X-H torsion
[ 10718 10713 10712 10709 ] final  -34.35 input   66.30 | X-H torsion
[ 10763 10752 10751 10750 ] final   75.51 input  -60.55 | X-H torsion
[ 11005 11000 10999 10996 ] final -157.07 input  -57.11 | X-H torsion

> <Gold.Protein.ActiveResidues>
 VAL166  LYS551  ARG553  GLY616  TRP617  ASP618  TYR619  PRO620  LYS621  CYS622 
 ASP623  PHE694  ASN695  SER759  ASP760  ASP761  ALA762  ILE779  LEU786  VAL792 
 PHE793  MET794  SER795  GLU796  ALA797  LYS798  CYS799  TRP800  GLU811  SER814 

> <Gold.Protein.RotatedAtoms>
  151.2598  133.4308  159.2615 H   0  0  0  0  0  0  0  0  0  0  0  0  # atno 6907 bound_to 6896
  151.0541  134.9693  159.8237 H   0  0  0  0  0  0  0  0  0  0  0  0  # atno 6908 bound_to 6896
  152.5387  134.2551  159.8966 H   0  0  0  0  0  0  0  0  0  0  0  0  # atno 6909 bound_to 6896
  145.8904  139.3507  143.0653 H   0  0  0  0  0  0  0  0  0  0  0  0  # atno 7974 bound_to 7965
  155.0743  140.0393  157.2618 H   0  0  0  0  0  0  0  0  0  0  0  0  # atno 8008 bound_to 7997
  154.6958  140.2663  155.6743 H   0  0  0  0  0  0  0  0  0  0  0  0  # atno 8009 bound_to 7997
  156.2744  140.2750  156.1551 H   0  0  0  0  0  0  0  0  0  0  0  0  # atno 8010 bound_to 7997
  139.5947  144.1137  152.1675 H   0  0  0  0  0  0  0  0  0  0  0  0  # atno 10167 bound_to 10162
  156.3516  130.4309  149.7699 H   0  0  0  0  0  0  0  0  0  0  0  0  # atno 10718 bound_to 10713
  153.0660  135.4986  154.8200 H   0  0  0  0  0  0  0  0  0  0  0  0  # atno 10763 bound_to 10752
  154.6953  135.2992  154.9422 H   0  0  0  0  0  0  0  0  0  0  0  0  # atno 10764 bound_to 10752
  154.0163  135.6748  153.4822 H   0  0  0  0  0  0  0  0  0  0  0  0  # atno 10765 bound_to 10752
  140.6687  134.4271  157.5232 H   0  0  0  0  0  0  0  0  0  0  0  0  # atno 11005 bound_to 11000
  145.8915  140.9300  143.0549 LP  0  0  0  0  0  0  0  0  0  0  0  0  # atno 17320 bound_to 7965
  144.6730  140.0912  143.7465 LP  0  0  0  0  0  0  0  0  0  0  0  0  # atno 17321 bound_to 7965
  140.0720  144.5771  150.7185 LP  0  0  0  0  0  0  0  0  0  0  0  0  # atno 17342 bound_to 10162
  140.7202  143.2582  151.4303 LP  0  0  0  0  0  0  0  0  0  0  0  0  # atno 17343 bound_to 10162
  156.4897  130.8079  151.3090 LP  0  0  0  0  0  0  0  0  0  0  0  0  # atno 17370 bound_to 10713
  157.7462  130.9979  150.2833 LP  0  0  0  0  0  0  0  0  0  0  0  0  # atno 17371 bound_to 10713
  139.8989  134.8604  156.1983 LP  0  0  0  0  0  0  0  0  0  0  0  0  # atno 17394 bound_to 11000
  141.0409  133.6938  156.1596 LP  0  0  0  0  0  0  0  0  0  0  0  0  # atno 17395 bound_to 11000

$$$$
