AV-unprocessed.smi:2252|AV-procd|sdf|9103|dock4
  -GOLD-   2272012303D 1   1.00000     0.00000
 Structure written by MMmdl.
 46 48  0  0  0  0  0  0  0  0  3 V2000
  146.1407  142.3225  154.1725 C   0  0  0  0  0  0  0  0  0  0  0  0
  147.3485  141.4956  154.2065 N   0  0  0  0  0  0  0  0  0  0  0  0
  148.4789  141.7307  154.9466 C   0  0  0  0  0  0  0  0  0  0  0  0
  149.3464  140.7050  154.6760 C   0  0  0  0  0  0  0  0  0  0  0  0
  148.7106  139.8870  153.7821 N   0  3  0  0  0  0  0  0  0  0  0  0
  147.4969  140.3691  153.4899 C   0  0  0  0  0  0  0  0  0  0  0  0
  146.5121  139.7322  152.5596 C   0  0  0  0  0  0  0  0  0  0  0  0
  146.5403  138.1965  152.6322 C   0  0  0  0  0  0  0  0  0  0  0  0
  145.2691  137.6090  152.2260 N   0  0  0  0  0  0  0  0  0  0  0  0
  144.8588  136.3697  152.5384 C   0  0  0  0  0  0  0  0  0  0  0  0
  145.5337  135.5851  153.2059 O   0  0  0  0  0  0  0  0  0  0  0  0
  143.4676  135.9557  152.0344 C   0  0  2  0  0  0  0  0  0  0  0  0
  142.5648  135.6722  153.2541 C   0  0  0  0  0  0  0  0  0  0  0  0
  141.1940  136.3010  153.3788 C   0  0  0  0  0  0  0  0  0  0  0  0
  142.3063  136.7406  154.2956 C   0  0  0  0  0  0  0  0  0  0  0  0
  143.5380  134.7779  151.1227 N   0  3  0  0  0  0  0  0  0  0  0  0
  144.7574  134.6950  150.2904 C   0  0  0  0  0  0  0  0  0  0  0  0
  144.8699  133.2348  149.8397 C   0  0  0  0  0  0  0  0  0  0  0  0
  143.9479  132.4428  150.7720 C   0  0  0  0  0  0  0  0  0  0  0  0
  143.4308  133.4613  151.7885 C   0  0  0  0  0  0  0  0  0  0  0  0
  146.2206  143.1159  154.9162 H   0  0  0  0  0  0  0  0  0  0  0  0
  145.2704  141.7053  154.3976 H   0  0  0  0  0  0  0  0  0  0  0  0
  146.0356  142.7652  153.1816 H   0  0  0  0  0  0  0  0  0  0  0  0
  148.5799  142.5879  155.5968 H   0  0  0  0  0  0  0  0  0  0  0  0
  150.3412  140.5004  155.0443 H   0  0  0  0  0  0  0  0  0  0  0  0
  145.5231  140.1214  152.8019 H   0  0  0  0  0  0  0  0  0  0  0  0
  146.7593  140.0841  151.5572 H   0  0  0  0  0  0  0  0  0  0  0  0
  147.3457  137.7985  152.0123 H   0  0  0  0  0  0  0  0  0  0  0  0
  146.7476  137.8758  153.6533 H   0  0  0  0  0  0  0  0  0  0  0  0
  144.6503  138.1938  151.6823 H   0  0  0  0  0  0  0  0  0  0  0  0
  143.0439  136.7896  151.4710 H   0  0  0  0  0  0  0  0  0  0  0  0
  142.6632  134.6603  153.6443 H   0  0  0  0  0  0  0  0  0  0  0  0
  140.8800  136.9991  152.6056 H   0  0  0  0  0  0  0  0  0  0  0  0
  140.4005  135.6911  153.8059 H   0  0  0  0  0  0  0  0  0  0  0  0
  142.2540  136.4262  155.3361 H   0  0  0  0  0  0  0  0  0  0  0  0
  142.7272  137.7301  154.1291 H   0  0  0  0  0  0  0  0  0  0  0  0
  144.7182  135.3825  149.4449 H   0  0  0  0  0  0  0  0  0  0  0  0
  145.6282  134.9538  150.8952 H   0  0  0  0  0  0  0  0  0  0  0  0
  144.5397  133.1241  148.8060 H   0  0  0  0  0  0  0  0  0  0  0  0
  145.9014  132.8847  149.8937 H   0  0  0  0  0  0  0  0  0  0  0  0
  143.1152  132.0297  150.2012 H   0  0  0  0  0  0  0  0  0  0  0  0
  144.4605  131.6105  151.2557 H   0  0  0  0  0  0  0  0  0  0  0  0
  144.0674  133.4482  152.6747 H   0  0  0  0  0  0  0  0  0  0  0  0
  142.4107  133.2397  152.1041 H   0  0  0  0  0  0  0  0  0  0  0  0
  142.7583  134.8430  150.4837 H   0  0  0  0  0  0  0  0  0  0  0  0
  149.1007  139.0359  153.3967 H   0  0  0  0  0  0  0  0  0  0  0  0
  1  2  1  0  0  0  0
  1 21  1  0  0  0  0
  1 22  1  0  0  0  0
  1 23  1  0  0  0  0
  2  6  1  0  0  0  0
  2  3  1  0  0  0  0
  3  4  2  0  0  0  0
  3 24  1  0  0  0  0
  4  5  1  0  0  0  0
  4 25  1  0  0  0  0
  5  6  2  0  0  0  0
  5 46  1  0  0  0  0
  6  7  1  0  0  0  0
  7  8  1  0  0  0  0
  7 26  1  0  0  0  0
  7 27  1  0  0  0  0
  8  9  1  0  0  0  0
  8 28  1  0  0  0  0
  8 29  1  0  0  0  0
  9 10  1  0  0  0  0
  9 30  1  0  0  0  0
 10 11  2  0  0  0  0
 10 12  1  0  0  0  0
 12 13  1  0  0  0  0
 12 16  1  0  0  0  0
 12 31  1  0  0  0  0
 13 15  1  0  0  0  0
 13 14  1  0  0  0  0
 13 32  1  0  0  0  0
 14 15  1  0  0  0  0
 14 33  1  0  0  0  0
 14 34  1  0  0  0  0
 15 35  1  0  0  0  0
 15 36  1  0  0  0  0
 16 20  1  0  0  0  0
 16 17  1  0  0  0  0
 16 45  1  0  0  0  0
 17 18  1  0  0  0  0
 17 37  1  0  0  0  0
 17 38  1  0  0  0  0
 18 19  1  0  0  0  0
 18 39  1  0  0  0  0
 18 40  1  0  0  0  0
 19 20  1  0  0  0  0
 19 41  1  0  0  0  0
 19 42  1  0  0  0  0
 20 43  1  0  0  0  0
 20 44  1  0  0  0  0
M  CHG  1   5   1
M  CHG  1  16   1
M  END
> <s_m_source_file>
AV-unprocessed.smi

> <i_m_source_file_index>
2252

> <i_lp_mmshare_version>
43012

> <i_f3d_flags>
0

> <s_epik_input>
W0NIM11uMVtjSF1bY0hdbmMxW0NIMl1bQ0gyXVtOSF1DKD1PKVtDQEhdKFtDSF0yW0NIMl1bQ0gyXTIpTjNbQ0gyXVtDSDJdW0NIMl1bQ0gyXTM=

> <s_epik_cmdline>
J2VwaWtfcHl0aG9uJywgJy1waCcsICc3LjAnLCAnLXRuJywgJzgnLCAnLW1hJywgJzIwMCcsICctbWV0YWxfYmluZGluZycsICctaW1hZScsICc8aW5maWxlLm1hZT4nLCAnLW9tYWUnLCAnPG91dGZpbGUubWFlPic=

> <r_lp_tautomer_probability>
1

> <r_epik_Ionization_Penalty>
0.116886

> <r_epik_Ionization_Penalty_Charging>
0.00955009

> <r_epik_Ionization_Penalty_Neutral>
0.107336

> <r_epik_State_Penalty>
0.0956868

> <r_epik_Charging_Adjusted_Penalty>
0.105237

> <i_epik_Tot_Q>
2

> <i_epik_Tot_abs_Q>
2

> <r_epik_Metal_State_Penalty>
0.438836

> <b_epik_Metal_Only>
0

> <s_lp_Force_Field>
OPLS_2005

> <r_lp_Energy>
40.5803

> <b_lp_Chiralities_Consistent>
1

> <s_lp_Variant>
AV-unprocessed.smi:2252-1

> <Gold.Version>
5.8.1

> <Gold.Id.Protein>
6NUR|6NUR_protein|mol2

> <Gold.PLP.Fitness>
46.7315

> <Gold.PLP.PLP>
-38.0792

> <Gold.PLP.part.hbond>
-3.1600

> <Gold.PLP.part.metal>
0.0000

> <Gold.PLP.part.buried>
1.2005

> <Gold.PLP.part.nonpolar>
-36.4762

> <Gold.PLP.part.repulsive>
0.2188

> <Gold.PLP.ligand.clash>
0.0000

> <Gold.PLP.ligand.torsion>
1.9630

> <Gold.PLP.Chemscore.Hbond>
2.8000

> <Gold.PLP.Chemscore.CHOScore>
1.0000

> <Gold.PLP.Chemscore.Metal>
0.0000

> <Gold.Chemscore.Hbonds>
donor molecule, donor type, donor heavy atom, donor atom, acceptor molecule, acceptor atom, score
      L1  H     9    30       P1 10171  0.86
      L1  H    16    45       P1 10186  1.70
      L1  C     3    24       P1  8028  1.00

> <Gold.PLP.Chemscore.Internal.Correction>
1.1784

> <Gold.Rescore>
     Score         DG    S(hbond)    S(metal)    S(lipo)     H(rot)  DE(clash)    DE(int)     intcor
     12.75     -14.76       1.41        0.00      83.97       2.05       0.63       1.39       ----

> <Gold.Chemscore.Fitness>
12.7453

> <Gold.Chemscore.DG>
-14.7620

> <Gold.Chemscore.ZeroCoef>
-5.4800

> <Gold.Chemscore.Hbond>
1.4056

> <Gold.Chemscore.Metal>
0.0000

> <Gold.Chemscore.Lipo>
83.9676

> <Gold.Chemscore.Internal_Hbond>
0.0000

> <Gold.Chemscore.DEClash>
0.6292

> <Gold.Chemscore.DEInternal>
1.3875

> <Gold.Chemscore.Rot>
2.0456

> <Gold.Chemscore.Internal.Correction>
   9.000000E+99

> <Gold.Chemscore.Hbonds>
donor molecule, donor type, donor heavy atom, donor atom, acceptor molecule, acceptor atom, score
      L1  H     9    30       P1 10171  0.81
      L1  H    16    45       P1 10186  0.14

> <Gold.Chemscore.Hbond.Weighted>
-4.6946

> <Gold.Chemscore.Metal.Weighted>
-0.0000

> <Gold.Chemscore.Lipo.Weighted>
-9.8242

> <Gold.Chemscore.Internal_Hbond.Weighted>
0.0000

> <Gold.Chemscore.DEClash.Weighted>
0.6292

> <Gold.Chemscore.DEInternal.Weighted>
1.3875

> <Gold.Chemscore.Rot.Weighted>
5.2368

> <Gold.Chemscore.Internal.Correction.Weighted>
   9.000000E+99

> <Gold.Protein.RotatedTorsions>
[ 6907 6896 6895 6894 ] final   78.58 input  -60.11 | X-H torsion
[ 7974 7965 7964 7962 ] final  -38.36 input  175.53 | X-H torsion
[ 8008 7997 7996 7995 ] final  176.85 input   59.86 | X-H torsion
[ 10167 10162 10161 10158 ] final  -62.40 input  -65.29 | X-H torsion
[ 10718 10713 10712 10709 ] final   93.29 input   66.30 | X-H torsion
[ 10763 10752 10751 10750 ] final -145.08 input  -60.55 | X-H torsion
[ 11005 11000 10999 10996 ] final   51.78 input  -57.11 | X-H torsion

> <Gold.Protein.ActiveResidues>
 VAL166  LYS551  ARG553  GLY616  TRP617  ASP618  TYR619  PRO620  LYS621  CYS622 
 ASP623  PHE694  ASN695  SER759  ASP760  ASP761  ALA762  ILE779  LEU786  VAL792 
 PHE793  MET794  SER795  GLU796  ALA797  LYS798  CYS799  TRP800  GLU811  SER814 

> <Gold.Protein.RotatedAtoms>
  152.5165  134.3642  159.9295 H   0  0  0  0  0  0  0  0  0  0  0  0  # atno 6907 bound_to 6896
  151.3595  133.3889  159.2696 H   0  0  0  0  0  0  0  0  0  0  0  0  # atno 6908 bound_to 6896
  150.9663  134.9062  159.7819 H   0  0  0  0  0  0  0  0  0  0  0  0  # atno 6909 bound_to 6896
  146.0494  140.6502  142.9049 H   0  0  0  0  0  0  0  0  0  0  0  0  # atno 7974 bound_to 7965
  156.0720  140.1373  156.9817 H   0  0  0  0  0  0  0  0  0  0  0  0  # atno 8008 bound_to 7997
  154.4537  140.0970  156.6745 H   0  0  0  0  0  0  0  0  0  0  0  0  # atno 8009 bound_to 7997
  155.5212  140.3456  155.4409 H   0  0  0  0  0  0  0  0  0  0  0  0  # atno 8010 bound_to 7997
  140.5942  143.2347  151.6073 H   0  0  0  0  0  0  0  0  0  0  0  0  # atno 10167 bound_to 10162
  157.6955  131.0473  150.4011 H   0  0  0  0  0  0  0  0  0  0  0  0  # atno 10718 bound_to 10713
  154.8399  135.3423  154.6448 H   0  0  0  0  0  0  0  0  0  0  0  0  # atno 10763 bound_to 10752
  153.7059  135.6967  153.5055 H   0  0  0  0  0  0  0  0  0  0  0  0  # atno 10764 bound_to 10752
  153.2487  135.4360  155.0729 H   0  0  0  0  0  0  0  0  0  0  0  0  # atno 10765 bound_to 10752
  140.0904  134.5217  155.8858 H   0  0  0  0  0  0  0  0  0  0  0  0  # atno 11005 bound_to 11000
  144.7114  140.4053  143.7077 LP  0  0  0  0  0  0  0  0  0  0  0  0  # atno 17320 bound_to 7965
  145.6751  139.1607  143.2732 LP  0  0  0  0  0  0  0  0  0  0  0  0  # atno 17321 bound_to 7965
  139.5247  144.3096  152.1004 LP  0  0  0  0  0  0  0  0  0  0  0  0  # atno 17342 bound_to 10162
  140.2266  144.4412  150.6318 LP  0  0  0  0  0  0  0  0  0  0  0  0  # atno 17343 bound_to 10162
  156.4404  130.3990  149.6701 LP  0  0  0  0  0  0  0  0  0  0  0  0  # atno 17370 bound_to 10713
  156.3886  130.7615  151.2615 LP  0  0  0  0  0  0  0  0  0  0  0  0  # atno 17371 bound_to 10713
  141.2076  133.6665  156.6315 LP  0  0  0  0  0  0  0  0  0  0  0  0  # atno 17394 bound_to 11000
  140.3361  134.7888  157.4362 LP  0  0  0  0  0  0  0  0  0  0  0  0  # atno 17395 bound_to 11000

$$$$
