AV-unprocessed.smi:73|AV-procd|sdf|760|dock3
  -GOLD-   2262017 93D 1   1.00000     0.00000
 Structure written by MMmdl.
 35 36  0  0  0  0  0  0  0  0  2 V2000
  152.1834  140.5881  157.5333 C   0  0  0  0  0  0  0  0  0  0  0  0
  151.8354  139.4398  156.5736 C   0  0  0  0  0  0  0  0  0  0  0  0
  151.1190  139.7998  155.3338 N   0  0  0  0  0  0  0  0  0  0  0  0
  151.1809  138.7073  154.3437 C   0  0  0  0  0  0  0  0  0  0  0  0
  150.5029  137.4406  154.7555 C   0  0  0  0  0  0  0  0  0  0  0  0
  149.2052  137.2652  155.0153 N   0  0  0  0  0  0  0  0  0  0  0  0
  149.0662  135.9356  155.3460 N   0  0  0  0  0  0  0  0  0  0  0  0
  150.2891  135.4079  155.2521 C   0  0  0  0  0  0  0  0  0  0  0  0
  150.6896  133.9955  155.5065 C   0  0  0  0  0  0  0  0  0  0  0  0
  151.2375  136.3039  154.8764 O   0  0  0  0  0  0  0  0  0  0  0  0
  149.7158  140.1577  155.6320 C   0  0  1  0  0  0  0  0  0  0  0  0
  149.5178  141.4678  156.4339 C   0  0  0  0  0  0  0  0  0  0  0  0
  148.3001  142.1338  155.9335 N   0  3  0  0  0  0  0  0  0  0  0  0
  147.6736  141.2561  154.9356 C   0  0  0  0  0  0  0  0  0  0  0  0
  148.8095  140.3884  154.4014 C   0  0  1  0  0  0  0  0  0  0  0  0
  149.4777  141.1139  153.3836 O   0  0  0  0  0  0  0  0  0  0  0  0
  148.4254  139.4577  153.9826 H   0  0  0  0  0  0  0  0  0  0  0  0
  152.4890  140.1914  158.5016 H   0  0  0  0  0  0  0  0  0  0  0  0
  151.3254  141.2397  157.7013 H   0  0  0  0  0  0  0  0  0  0  0  0
  153.0126  141.1937  157.1710 H   0  0  0  0  0  0  0  0  0  0  0  0
  152.7416  138.8826  156.3307 H   0  0  0  0  0  0  0  0  0  0  0  0
  151.2263  138.7561  157.1623 H   0  0  0  0  0  0  0  0  0  0  0  0
  150.7704  139.0396  153.3889 H   0  0  0  0  0  0  0  0  0  0  0  0
  152.2108  138.4235  154.1395 H   0  0  0  0  0  0  0  0  0  0  0  0
  149.8561  133.4349  155.9301 H   0  0  0  0  0  0  0  0  0  0  0  0
  151.5246  133.9637  156.2068 H   0  0  0  0  0  0  0  0  0  0  0  0
  150.9937  133.5206  154.5736 H   0  0  0  0  0  0  0  0  0  0  0  0
  149.2649  139.3527  156.2153 H   0  0  0  0  0  0  0  0  0  0  0  0
  149.4327  141.2729  157.5033 H   0  0  0  0  0  0  0  0  0  0  0  0
  150.3500  142.1567  156.2836 H   0  0  0  0  0  0  0  0  0  0  0  0
  147.6581  142.3420  156.6848 H   0  0  0  0  0  0  0  0  0  0  0  0
  146.9404  140.6303  155.4462 H   0  0  0  0  0  0  0  0  0  0  0  0
  147.1516  141.8213  154.1623 H   0  0  0  0  0  0  0  0  0  0  0  0
  149.6281  140.5354  152.6507 H   0  0  0  0  0  0  0  0  0  0  0  0
  148.5779  142.9901  155.4754 H   0  0  0  0  0  0  0  0  0  0  0  0
  1  2  1  0  0  0  0
  1 18  1  0  0  0  0
  1 19  1  0  0  0  0
  1 20  1  0  0  0  0
  2  3  1  0  0  0  0
  2 21  1  0  0  0  0
  2 22  1  0  0  0  0
  3  4  1  0  0  0  0
  3 11  1  0  0  0  0
  4  5  1  0  0  0  0
  4 23  1  0  0  0  0
  4 24  1  0  0  0  0
  5 10  1  0  0  0  0
  5  6  2  0  0  0  0
  6  7  1  0  0  0  0
  7  8  2  0  0  0  0
  8  9  1  0  0  0  0
  8 10  1  0  0  0  0
  9 25  1  0  0  0  0
  9 26  1  0  0  0  0
  9 27  1  0  0  0  0
 11 15  1  0  0  0  0
 11 12  1  0  0  0  0
 11 28  1  0  0  0  0
 12 13  1  0  0  0  0
 12 29  1  0  0  0  0
 12 30  1  0  0  0  0
 13 14  1  0  0  0  0
 13 31  1  0  0  0  0
 13 35  1  0  0  0  0
 14 15  1  0  0  0  0
 14 32  1  0  0  0  0
 14 33  1  0  0  0  0
 15 17  1  0  0  0  0
 15 16  1  0  0  0  0
 16 34  1  0  0  0  0
M  CHG  1  13   1
M  END
> <s_m_source_file>
AV-unprocessed.smi

> <i_m_source_file_index>
73

> <i_lp_mmshare_version>
43012

> <i_f3d_flags>
0

> <s_epik_input>
W09IXVtDQEBIXTFbQ0gyXVtOSF1bQ0gyXVtDQEhdMU4oW0NIMl1bQ0gzXSlbQ0gyXWMybm5jKG8yKVtDSDNd

> <s_epik_cmdline>
J2VwaWtfcHl0aG9uJywgJy1waCcsICc3LjAnLCAnLXRuJywgJzgnLCAnLW1hJywgJzIwMCcsICctbWV0YWxfYmluZGluZycsICctaW1hZScsICc8aW5maWxlLm1hZT4nLCAnLW9tYWUnLCAnPG91dGZpbGUubWFlPic=

> <r_lp_tautomer_probability>
1

> <r_epik_Ionization_Penalty>
0.00160433

> <r_epik_Ionization_Penalty_Charging>
0.000122314

> <r_epik_Ionization_Penalty_Neutral>
0.00148202

> <r_epik_State_Penalty>
-0

> <r_epik_Charging_Adjusted_Penalty>
0.000122314

> <i_epik_Tot_Q>
1

> <i_epik_Tot_abs_Q>
1

> <r_epik_Metal_State_Penalty>
-0

> <b_epik_Metal_Only>
0

> <s_lp_Force_Field>
OPLS_2005

> <r_lp_Energy>
44.8836

> <b_lp_Chiralities_Consistent>
1

> <s_lp_Variant>
AV-unprocessed.smi:73-2

> <Gold.Version>
5.8.1

> <Gold.Id.Protein>
6NUR|6NUR_protein|mol2

> <Gold.PLP.Fitness>
37.8962

> <Gold.PLP.PLP>
-25.4498

> <Gold.PLP.part.hbond>
-5.2142

> <Gold.PLP.part.metal>
0.0000

> <Gold.PLP.part.buried>
-5.2526

> <Gold.PLP.part.nonpolar>
-15.7857

> <Gold.PLP.part.repulsive>
0.4714

> <Gold.PLP.ligand.clash>
0.0000

> <Gold.PLP.ligand.torsion>
0.2003

> <Gold.PLP.Chemscore.Hbond>
4.2740

> <Gold.PLP.Chemscore.CHOScore>
0.0000

> <Gold.PLP.Chemscore.Metal>
0.0000

> <Gold.Chemscore.Hbonds>
donor molecule, donor type, donor heavy atom, donor atom, acceptor molecule, acceptor atom, score
      L1  H    13    35       P1  8028  1.86
      L1  H    16    34       P1  7957  1.00
      P1  H  8011  8017       L1    16  0.35
      P1  H 10752 10763       L1    10  1.00

> <Gold.PLP.Chemscore.Internal.Correction>
0.0250

> <Gold.Rescore>
     Score         DG    S(hbond)    S(metal)    S(lipo)     H(rot)  DE(clash)    DE(int)     intcor
     13.03     -14.05       2.92        0.00      44.77       2.51       0.03       0.99       ----

> <Gold.Chemscore.Fitness>
13.0308

> <Gold.Chemscore.DG>
-14.0536

> <Gold.Chemscore.ZeroCoef>
-5.4800

> <Gold.Chemscore.Hbond>
2.9188

> <Gold.Chemscore.Metal>
0.0000

> <Gold.Chemscore.Lipo>
44.7691

> <Gold.Chemscore.Internal_Hbond>
0.0000

> <Gold.Chemscore.DEClash>
0.0280

> <Gold.Chemscore.DEInternal>
0.9948

> <Gold.Chemscore.Rot>
2.5051

> <Gold.Chemscore.Internal.Correction>
   9.000000E+99

> <Gold.Chemscore.Hbonds>
donor molecule, donor type, donor heavy atom, donor atom, acceptor molecule, acceptor atom, score
      L1  H    13    35       P1  8028  0.91
      L1  H    16    34       P1  7957  0.96
      P1  H  8011  8017       L1    16  0.01
      P1  H 10752 10763       L1    10  0.88

> <Gold.Chemscore.Hbond.Weighted>
-9.7487

> <Gold.Chemscore.Metal.Weighted>
-0.0000

> <Gold.Chemscore.Lipo.Weighted>
-5.2380

> <Gold.Chemscore.Internal_Hbond.Weighted>
0.0000

> <Gold.Chemscore.DEClash.Weighted>
0.0280

> <Gold.Chemscore.DEInternal.Weighted>
0.9948

> <Gold.Chemscore.Rot.Weighted>
6.4131

> <Gold.Chemscore.Internal.Correction.Weighted>
   9.000000E+99

> <Gold.Protein.RotatedTorsions>
[ 6907 6896 6895 6894 ] final   91.79 input  -60.11 | X-H torsion
[ 7974 7965 7964 7962 ] final  -18.44 input  175.53 | X-H torsion
[ 8008 7997 7996 7995 ] final  172.13 input   59.86 | X-H torsion
[ 10167 10162 10161 10158 ] final -116.54 input  -65.29 | X-H torsion
[ 10718 10713 10712 10709 ] final    9.48 input   66.30 | X-H torsion
[ 10763 10752 10751 10750 ] final   62.42 input  -60.55 | X-H torsion
[ 11005 11000 10999 10996 ] final  -21.38 input  -57.11 | X-H torsion

> <Gold.Protein.ActiveResidues>
 VAL166  LYS551  ARG553  GLY616  TRP617  ASP618  TYR619  PRO620  LYS621  CYS622 
 ASP623  PHE694  ASN695  SER759  ASP760  ASP761  ALA762  ILE779  LEU786  VAL792 
 PHE793  MET794  SER795  GLU796  ALA797  LYS798  CYS799  TRP800  GLU811  SER814 

> <Gold.Protein.RotatedAtoms>
  152.5451  134.1603  159.8554 H   0  0  0  0  0  0  0  0  0  0  0  0  # atno 6907 bound_to 6896
  151.1622  133.4831  159.2601 H   0  0  0  0  0  0  0  0  0  0  0  0  # atno 6908 bound_to 6896
  151.1361  135.0167  159.8660 H   0  0  0  0  0  0  0  0  0  0  0  0  # atno 6909 bound_to 6896
  146.1892  140.3921  142.8464 H   0  0  0  0  0  0  0  0  0  0  0  0  # atno 7974 bound_to 7965
  156.1204  140.1494  156.9212 H   0  0  0  0  0  0  0  0  0  0  0  0  # atno 8008 bound_to 7997
  154.4831  140.0873  156.7466 H   0  0  0  0  0  0  0  0  0  0  0  0  # atno 8009 bound_to 7997
  155.4438  140.3432  155.4295 H   0  0  0  0  0  0  0  0  0  0  0  0  # atno 8010 bound_to 7997
  140.0781  143.4814  152.1942 H   0  0  0  0  0  0  0  0  0  0  0  0  # atno 10167 bound_to 10162
  156.9670  130.5954  149.5666 H   0  0  0  0  0  0  0  0  0  0  0  0  # atno 10718 bound_to 10713
  152.9982  135.5465  154.6190 H   0  0  0  0  0  0  0  0  0  0  0  0  # atno 10763 bound_to 10752
  154.5494  135.2825  155.1025 H   0  0  0  0  0  0  0  0  0  0  0  0  # atno 10764 bound_to 10752
  154.2271  135.6440  153.5216 H   0  0  0  0  0  0  0  0  0  0  0  0  # atno 10765 bound_to 10752
  140.8556  133.7825  156.0015 H   0  0  0  0  0  0  0  0  0  0  0  0  # atno 11005 bound_to 11000
  144.8454  140.6921  143.6202 LP  0  0  0  0  0  0  0  0  0  0  0  0  # atno 17320 bound_to 7965
  145.3845  139.1629  143.4262 LP  0  0  0  0  0  0  0  0  0  0  0  0  # atno 17321 bound_to 7965
  139.5796  144.7504  151.3675 LP  0  0  0  0  0  0  0  0  0  0  0  0  # atno 17342 bound_to 10162
  140.7092  143.7435  150.7536 LP  0  0  0  0  0  0  0  0  0  0  0  0  # atno 17343 bound_to 10162
  156.0298  130.5390  150.8505 LP  0  0  0  0  0  0  0  0  0  0  0  0  # atno 17370 bound_to 10713
  157.5619  131.0946  150.9547 LP  0  0  0  0  0  0  0  0  0  0  0  0  # atno 17371 bound_to 10713
  140.8741  134.2691  157.5176 LP  0  0  0  0  0  0  0  0  0  0  0  0  # atno 17394 bound_to 11000
  139.8705  134.9582  156.4293 LP  0  0  0  0  0  0  0  0  0  0  0  0  # atno 17395 bound_to 11000

$$$$
