AV-unprocessed.smi:1712|AV-procd|sdf|6904|dock9
  -GOLD-   22720 8113D 1   1.00000     0.00000
 Structure written by MMmdl.
 38 39  0  0  0  0  0  0  0  0  2 V2000
  148.2579  139.2825  153.8078 C   0  0  0  0  0  0  0  0  0  0  0  0
  146.7997  139.4860  153.3262 C   0  0  1  0  0  0  0  0  0  0  0  0
  145.9423  138.2252  153.6159 C   0  0  0  0  0  0  0  0  0  0  0  0
  146.3422  137.0638  152.8242 N   0  0  0  0  0  0  0  0  0  0  0  0
  145.5039  136.1714  152.2767 C   0  0  0  0  0  0  0  0  0  0  0  0
  144.2800  136.2236  152.3986 O   0  0  0  0  0  0  0  0  0  0  0  0
  146.1728  135.2252  151.5982 N   0  0  0  0  0  0  0  0  0  0  0  0
  145.6254  134.1222  150.8957 C   0  0  0  0  0  0  0  0  0  0  0  0
  146.3377  132.9362  150.5694 C   0  0  0  0  0  0  0  0  0  0  0  0
  145.5725  132.0787  149.9093 N   0  0  0  0  0  0  0  0  0  0  0  0
  144.3789  132.7065  149.8103 N   0  0  0  0  0  0  0  0  0  0  0  0
  144.3644  133.9527  150.3968 C   0  0  0  0  0  0  0  0  0  0  0  0
  146.1449  140.7010  153.9158 N   0  3  0  0  0  0  0  0  0  0  0  0
  145.8141  140.6146  155.3658 C   0  0  0  0  0  0  0  0  0  0  0  0
  145.1203  141.8973  155.8560 C   0  0  0  0  0  0  0  0  0  0  0  0
  145.9399  143.0250  155.5881 O   0  0  0  0  0  0  0  0  0  0  0  0
  146.1665  143.1819  154.1959 C   0  0  0  0  0  0  0  0  0  0  0  0
  146.9121  141.9507  153.6567 C   0  0  0  0  0  0  0  0  0  0  0  0
  143.5926  132.2767  149.3441 H   0  0  0  0  0  0  0  0  0  0  0  0
  148.7110  138.3966  153.3648 H   0  0  0  0  0  0  0  0  0  0  0  0
  148.3076  139.1685  154.8912 H   0  0  0  0  0  0  0  0  0  0  0  0
  148.9074  140.1084  153.5185 H   0  0  0  0  0  0  0  0  0  0  0  0
  146.8474  139.6287  152.2453 H   0  0  0  0  0  0  0  0  0  0  0  0
  145.9656  137.9981  154.6833 H   0  0  0  0  0  0  0  0  0  0  0  0
  144.8955  138.3954  153.3726 H   0  0  0  0  0  0  0  0  0  0  0  0
  147.3323  136.9373  152.6716 H   0  0  0  0  0  0  0  0  0  0  0  0
  147.1794  135.2991  151.5822 H   0  0  0  0  0  0  0  0  0  0  0  0
  147.3631  132.6745  150.7850 H   0  0  0  0  0  0  0  0  0  0  0  0
  143.4850  134.5796  150.4009 H   0  0  0  0  0  0  0  0  0  0  0  0
  145.1335  139.7865  155.5607 H   0  0  0  0  0  0  0  0  0  0  0  0
  146.7243  140.4368  155.9408 H   0  0  0  0  0  0  0  0  0  0  0  0
  144.1462  142.0192  155.3792 H   0  0  0  0  0  0  0  0  0  0  0  0
  144.9419  141.8391  156.9300 H   0  0  0  0  0  0  0  0  0  0  0  0
  145.2214  143.3294  153.6705 H   0  0  0  0  0  0  0  0  0  0  0  0
  146.7628  144.0803  154.0355 H   0  0  0  0  0  0  0  0  0  0  0  0
  147.8940  141.8804  154.1276 H   0  0  0  0  0  0  0  0  0  0  0  0
  147.0830  142.0976  152.5923 H   0  0  0  0  0  0  0  0  0  0  0  0
  145.2586  140.7984  153.4411 H   0  0  0  0  0  0  0  0  0  0  0  0
  1  2  1  0  0  0  0
  1 20  1  0  0  0  0
  1 21  1  0  0  0  0
  1 22  1  0  0  0  0
  2  3  1  0  0  0  0
  2 13  1  0  0  0  0
  2 23  1  0  0  0  0
  3  4  1  0  0  0  0
  3 24  1  0  0  0  0
  3 25  1  0  0  0  0
  4  5  1  0  0  0  0
  4 26  1  0  0  0  0
  5  6  2  0  0  0  0
  5  7  1  0  0  0  0
  7  8  1  0  0  0  0
  7 27  1  0  0  0  0
  8 12  2  0  0  0  0
  8  9  1  0  0  0  0
  9 10  2  0  0  0  0
  9 28  1  0  0  0  0
 10 11  1  0  0  0  0
 11 19  1  0  0  0  0
 11 12  1  0  0  0  0
 12 29  1  0  0  0  0
 13 18  1  0  0  0  0
 13 14  1  0  0  0  0
 13 38  1  0  0  0  0
 14 15  1  0  0  0  0
 14 30  1  0  0  0  0
 14 31  1  0  0  0  0
 15 16  1  0  0  0  0
 15 32  1  0  0  0  0
 15 33  1  0  0  0  0
 16 17  1  0  0  0  0
 17 18  1  0  0  0  0
 17 34  1  0  0  0  0
 17 35  1  0  0  0  0
 18 36  1  0  0  0  0
 18 37  1  0  0  0  0
M  CHG  1  13   1
M  END
> <s_m_source_file>
AV-unprocessed.smi

> <i_m_source_file_index>
1712

> <i_lp_mmshare_version>
43012

> <i_f3d_flags>
0

> <s_epik_input>
W0NIMl0xW0NIMl1PW0NIMl1bQ0gyXU4xW0NASF0oW0NIM10pW0NIMl1bTkhdQyg9TylbTkhdYzJbY0hdbltuSF1bY0hdMg==

> <s_epik_cmdline>
J2VwaWtfcHl0aG9uJywgJy1waCcsICc3LjAnLCAnLXRuJywgJzgnLCAnLW1hJywgJzIwMCcsICctbWV0YWxfYmluZGluZycsICctaW1hZScsICc8aW5maWxlLm1hZT4nLCAnLW9tYWUnLCAnPG91dGZpbGUubWFlPic=

> <r_lp_tautomer_probability>
0.5

> <r_epik_Ionization_Penalty>
0.646007

> <r_epik_Ionization_Penalty_Charging>
0.645968

> <r_epik_Ionization_Penalty_Neutral>
3.91929e-05

> <r_epik_State_Penalty>
0.664063

> <r_epik_Charging_Adjusted_Penalty>
1.31003

> <i_epik_Tot_Q>
1

> <i_epik_Tot_abs_Q>
1

> <r_epik_Metal_State_Penalty>
0.664064

> <b_epik_Metal_Only>
0

> <s_lp_Force_Field>
OPLS_2005

> <r_lp_Energy>
23.8856

> <b_lp_Chiralities_Consistent>
1

> <s_lp_Variant>
AV-unprocessed.smi:1712-4

> <Gold.Version>
5.8.1

> <Gold.Id.Protein>
6NUR|6NUR_protein|mol2

> <Gold.PLP.Fitness>
42.9744

> <Gold.PLP.PLP>
-26.1947

> <Gold.PLP.part.hbond>
-3.0721

> <Gold.PLP.part.metal>
0.0000

> <Gold.PLP.part.buried>
-5.3028

> <Gold.PLP.part.nonpolar>
-18.7566

> <Gold.PLP.part.repulsive>
0.7003

> <Gold.PLP.ligand.clash>
0.0000

> <Gold.PLP.ligand.torsion>
0.3492

> <Gold.PLP.Chemscore.Hbond>
4.0000

> <Gold.PLP.Chemscore.CHOScore>
1.8086

> <Gold.PLP.Chemscore.Metal>
0.0000

> <Gold.Chemscore.Hbonds>
donor molecule, donor type, donor heavy atom, donor atom, acceptor molecule, acceptor atom, score
      L1  H     4    26       P1  7948  1.00
      L1  H     7    27       P1  7948  1.00
      L1  H    13    38       P1 10175  2.00
      L1  C     9    28       P1 10747  1.00
      L1  C    12    29       P1 10186  0.79

> <Gold.PLP.Chemscore.Internal.Correction>
0.0523

> <Gold.Rescore>
     Score         DG    S(hbond)    S(metal)    S(lipo)     H(rot)  DE(clash)    DE(int)     intcor
     16.01     -17.27       2.83        0.00      56.74       1.68       0.02       1.24       ----

> <Gold.Chemscore.Fitness>
16.0138

> <Gold.Chemscore.DG>
-17.2728

> <Gold.Chemscore.ZeroCoef>
-5.4800

> <Gold.Chemscore.Hbond>
2.8287

> <Gold.Chemscore.Metal>
0.0000

> <Gold.Chemscore.Lipo>
56.7396

> <Gold.Chemscore.Internal_Hbond>
0.0000

> <Gold.Chemscore.DEClash>
0.0206

> <Gold.Chemscore.DEInternal>
1.2384

> <Gold.Chemscore.Rot>
1.6771

> <Gold.Chemscore.Internal.Correction>
   9.000000E+99

> <Gold.Chemscore.Hbonds>
donor molecule, donor type, donor heavy atom, donor atom, acceptor molecule, acceptor atom, score
      L1  H     4    26       P1  7948  0.98
      L1  H     7    27       P1  7948  0.92
      L1  H    13    38       P1 10175  0.82

> <Gold.Chemscore.Hbond.Weighted>
-9.4477

> <Gold.Chemscore.Metal.Weighted>
-0.0000

> <Gold.Chemscore.Lipo.Weighted>
-6.6385

> <Gold.Chemscore.Internal_Hbond.Weighted>
0.0000

> <Gold.Chemscore.DEClash.Weighted>
0.0206

> <Gold.Chemscore.DEInternal.Weighted>
1.2384

> <Gold.Chemscore.Rot.Weighted>
4.2935

> <Gold.Chemscore.Internal.Correction.Weighted>
   9.000000E+99

> <Gold.Protein.RotatedTorsions>
[ 6907 6896 6895 6894 ] final  -75.68 input  -60.11 | X-H torsion
[ 7974 7965 7964 7962 ] final  127.75 input  175.53 | X-H torsion
[ 8008 7997 7996 7995 ] final -133.05 input   59.86 | X-H torsion
[ 10167 10162 10161 10158 ] final   -8.63 input  -65.29 | X-H torsion
[ 10718 10713 10712 10709 ] final  175.73 input   66.30 | X-H torsion
[ 10763 10752 10751 10750 ] final  -42.31 input  -60.55 | X-H torsion
[ 11005 11000 10999 10996 ] final  157.98 input  -57.11 | X-H torsion

> <Gold.Protein.ActiveResidues>
 VAL166  LYS551  ARG553  GLY616  TRP617  ASP618  TYR619  PRO620  LYS621  CYS622 
 ASP623  PHE694  ASN695  SER759  ASP760  ASP761  ALA762  ILE779  LEU786  VAL792 
 PHE793  MET794  SER795  GLU796  ALA797  LYS798  CYS799  TRP800  GLU811  SER814 

> <Gold.Protein.RotatedAtoms>
  150.7051  134.4685  159.5413 H   0  0  0  0  0  0  0  0  0  0  0  0  # atno 6907 bound_to 6896
  152.2346  134.8286  160.0478 H   0  0  0  0  0  0  0  0  0  0  0  0  # atno 6908 bound_to 6896
  151.9090  133.3521  159.3894 H   0  0  0  0  0  0  0  0  0  0  0  0  # atno 6909 bound_to 6896
  145.0471  139.3914  143.5073 H   0  0  0  0  0  0  0  0  0  0  0  0  # atno 7974 bound_to 7965
  155.3391  140.0471  157.3044 H   0  0  0  0  0  0  0  0  0  0  0  0  # atno 8008 bound_to 7997
  154.5287  140.2249  155.8809 H   0  0  0  0  0  0  0  0  0  0  0  0  # atno 8009 bound_to 7997
  156.1766  140.3084  155.9076 H   0  0  0  0  0  0  0  0  0  0  0  0  # atno 8010 bound_to 7997
  140.7064  143.5947  150.8858 H   0  0  0  0  0  0  0  0  0  0  0  0  # atno 10167 bound_to 10162
  156.9306  130.9970  151.2988 H   0  0  0  0  0  0  0  0  0  0  0  0  # atno 10718 bound_to 10713
  153.9770  135.6721  153.4749 H   0  0  0  0  0  0  0  0  0  0  0  0  # atno 10763 bound_to 10752
  153.0766  135.4945  154.8414 H   0  0  0  0  0  0  0  0  0  0  0  0  # atno 10764 bound_to 10752
  154.7186  135.3112  154.9044 H   0  0  0  0  0  0  0  0  0  0  0  0  # atno 10765 bound_to 10752
  140.1821  134.8468  157.2815 H   0  0  0  0  0  0  0  0  0  0  0  0  # atno 11005 bound_to 11000
  146.3515  140.0102  142.8668 LP  0  0  0  0  0  0  0  0  0  0  0  0  # atno 17320 bound_to 7965
  145.1574  140.9655  143.4397 LP  0  0  0  0  0  0  0  0  0  0  0  0  # atno 17321 bound_to 7965
  139.9672  143.6097  152.2984 LP  0  0  0  0  0  0  0  0  0  0  0  0  # atno 17342 bound_to 10162
  139.6671  144.7662  151.1853 LP  0  0  0  0  0  0  0  0  0  0  0  0  # atno 17343 bound_to 10162
  157.5849  130.8402  149.8575 LP  0  0  0  0  0  0  0  0  0  0  0  0  # atno 17370 bound_to 10713
  156.0449  130.3730  150.1343 LP  0  0  0  0  0  0  0  0  0  0  0  0  # atno 17371 bound_to 10713
  140.2255  134.3971  155.7545 LP  0  0  0  0  0  0  0  0  0  0  0  0  # atno 17394 bound_to 11000
  141.2223  133.7188  156.8559 LP  0  0  0  0  0  0  0  0  0  0  0  0  # atno 17395 bound_to 11000

$$$$
