AV-unprocessed.smi:3231|AV-procd|sdf|12337|dock4
  -GOLD-   2272018193D 1   1.00000     0.00000
 Structure written by MMmdl.
 40 41  0  0  0  0  0  0  0  0  1 V2000
  146.6922  140.1490  151.8910 O   0  0  0  0  0  0  0  0  0  0  0  0
  146.9917  138.9856  152.6344 C   0  0  2  0  0  0  0  0  0  0  0  0
  146.0680  137.8669  152.1247 C   0  0  0  0  0  0  0  0  0  0  0  0
  146.4390  136.5734  152.6895 N   0  0  0  0  0  0  0  0  0  0  0  0
  145.4167  135.5453  152.5150 C   0  0  0  0  0  0  0  0  0  0  0  0
  145.3449  135.0632  151.0573 C   0  0  0  0  0  0  0  0  0  0  0  0
  144.9759  133.6626  150.9578 N   0  0  0  0  0  0  0  0  0  0  0  0
  145.6677  132.5594  151.4117 C   0  0  0  0  0  0  0  0  0  0  0  0
  144.9265  131.4570  151.0957 C   0  0  0  0  0  0  0  0  0  0  0  0
  143.7836  131.9948  150.4407 C   0  0  0  0  0  0  0  0  0  0  0  0
  143.8165  133.3151  150.3583 N   0  0  0  0  0  0  0  0  0  0  0  0
  146.7619  139.2974  154.1302 C   0  0  0  0  0  0  0  0  0  0  0  0
  147.9283  139.7953  154.8614 N   0  0  0  0  0  0  0  0  0  0  0  0
  148.9909  138.7955  154.8859 C   0  0  0  0  0  0  0  0  0  0  0  0
  150.2304  139.2898  155.6513 C   0  0  0  0  0  0  0  0  0  0  0  0
  150.6963  140.5024  155.0689 O   0  0  0  0  0  0  0  0  0  0  0  0
  149.7046  141.5238  155.0648 C   0  0  0  0  0  0  0  0  0  0  0  0
  148.4605  141.0365  154.3014 C   0  0  0  0  0  0  0  0  0  0  0  0
  145.7976  140.3958  152.0688 H   0  0  0  0  0  0  0  0  0  0  0  0
  148.0255  138.7069  152.4332 H   0  0  0  0  0  0  0  0  0  0  0  0
  145.0300  138.1008  152.3643 H   0  0  0  0  0  0  0  0  0  0  0  0
  146.1321  137.8147  151.0369 H   0  0  0  0  0  0  0  0  0  0  0  0
  147.3141  136.2605  152.2814 H   0  0  0  0  0  0  0  0  0  0  0  0
  145.6146  134.6998  153.1750 H   0  0  0  0  0  0  0  0  0  0  0  0
  144.4440  135.9437  152.8052 H   0  0  0  0  0  0  0  0  0  0  0  0
  144.6081  135.6510  150.5086 H   0  0  0  0  0  0  0  0  0  0  0  0
  146.3010  135.2138  150.5540 H   0  0  0  0  0  0  0  0  0  0  0  0
  146.6170  132.6507  151.9182 H   0  0  0  0  0  0  0  0  0  0  0  0
  145.1641  130.4238  151.3015 H   0  0  0  0  0  0  0  0  0  0  0  0
  142.9368  131.4686  150.0252 H   0  0  0  0  0  0  0  0  0  0  0  0
  145.9546  140.0278  154.2012 H   0  0  0  0  0  0  0  0  0  0  0  0
  146.3902  138.4029  154.6323 H   0  0  0  0  0  0  0  0  0  0  0  0
  148.6255  137.8787  155.3499 H   0  0  0  0  0  0  0  0  0  0  0  0
  149.2780  138.5355  153.8658 H   0  0  0  0  0  0  0  0  0  0  0  0
  149.9960  139.4499  156.7049 H   0  0  0  0  0  0  0  0  0  0  0  0
  151.0252  138.5453  155.6085 H   0  0  0  0  0  0  0  0  0  0  0  0
  149.4468  141.7933  156.0901 H   0  0  0  0  0  0  0  0  0  0  0  0
  150.1142  142.4166  154.5922 H   0  0  0  0  0  0  0  0  0  0  0  0
  148.7169  140.8893  153.2511 H   0  0  0  0  0  0  0  0  0  0  0  0
  147.7085  141.8233  154.3328 H   0  0  0  0  0  0  0  0  0  0  0  0
  1  2  1  0  0  0  0
  1 19  1  0  0  0  0
  2  3  1  0  0  0  0
  2 12  1  0  0  0  0
  2 20  1  0  0  0  0
  3  4  1  0  0  0  0
  3 21  1  0  0  0  0
  3 22  1  0  0  0  0
  4  5  1  0  0  0  0
  4 23  1  0  0  0  0
  5  6  1  0  0  0  0
  5 24  1  0  0  0  0
  5 25  1  0  0  0  0
  6  7  1  0  0  0  0
  6 26  1  0  0  0  0
  6 27  1  0  0  0  0
  7 11  1  0  0  0  0
  7  8  1  0  0  0  0
  8  9  2  0  0  0  0
  8 28  1  0  0  0  0
  9 10  1  0  0  0  0
  9 29  1  0  0  0  0
 10 11  2  0  0  0  0
 10 30  1  0  0  0  0
 12 13  1  0  0  0  0
 12 31  1  0  0  0  0
 12 32  1  0  0  0  0
 13 18  1  0  0  0  0
 13 14  1  0  0  0  0
 14 15  1  0  0  0  0
 14 33  1  0  0  0  0
 14 34  1  0  0  0  0
 15 16  1  0  0  0  0
 15 35  1  0  0  0  0
 15 36  1  0  0  0  0
 16 17  1  0  0  0  0
 17 18  1  0  0  0  0
 17 37  1  0  0  0  0
 17 38  1  0  0  0  0
 18 39  1  0  0  0  0
 18 40  1  0  0  0  0
M  END
> <s_m_source_file>
AV-unprocessed.smi

> <i_m_source_file_index>
3231

> <i_lp_mmshare_version>
43012

> <i_f3d_flags>
0

> <s_epik_input>
W0NIMl0xW0NIMl1PW0NIMl1bQ0gyXU4xW0NIMl1bQ0BIXShbT0hdKVtDSDJdW05IXVtDSDJdW0NIMl1uMltjSF1bY0hdW2NIXW4y

> <s_epik_cmdline>
J2VwaWtfcHl0aG9uJywgJy1waCcsICc3LjAnLCAnLXRuJywgJzgnLCAnLW1hJywgJzIwMCcsICctbWV0YWxfYmluZGluZycsICctaW1hZScsICc8aW5maWxlLm1hZT4nLCAnLW9tYWUnLCAnPG91dGZpbGUubWFlPic=

> <r_lp_tautomer_probability>
1

> <r_epik_Ionization_Penalty>
2.37071

> <r_epik_Ionization_Penalty_Charging>
0

> <r_epik_Ionization_Penalty_Neutral>
2.37071

> <r_epik_State_Penalty>
1.72455

> <r_epik_Charging_Adjusted_Penalty>
1.72455

> <i_epik_Tot_Q>
0

> <i_epik_Tot_abs_Q>
0

> <r_epik_Metal_State_Penalty>
1.72366

> <b_epik_Metal_Only>
0

> <s_lp_Force_Field>
OPLS_2005

> <r_lp_Energy>
31.2728

> <b_lp_Chiralities_Consistent>
1

> <s_lp_Variant>
AV-unprocessed.smi:3231-7

> <Gold.Version>
5.8.1

> <Gold.Id.Protein>
6NUR|6NUR_protein|mol2

> <Gold.PLP.Fitness>
44.5316

> <Gold.PLP.PLP>
-33.8763

> <Gold.PLP.part.hbond>
-3.8317

> <Gold.PLP.part.metal>
0.0000

> <Gold.PLP.part.buried>
-5.1215

> <Gold.PLP.part.nonpolar>
-27.5661

> <Gold.PLP.part.repulsive>
0.9013

> <Gold.PLP.ligand.clash>
0.0000

> <Gold.PLP.ligand.torsion>
0.7483

> <Gold.PLP.Chemscore.Hbond>
2.9913

> <Gold.PLP.Chemscore.CHOScore>
1.0000

> <Gold.PLP.Chemscore.Metal>
0.0000

> <Gold.Chemscore.Hbonds>
donor molecule, donor type, donor heavy atom, donor atom, acceptor molecule, acceptor atom, score
      L1  H     1    19       P1 10175  0.73
      L1  H     4    23       P1  7948  1.00
      P1  H  7989  7998       L1    16  1.00
      L1  C    10    30       P1 10952  1.00

> <Gold.PLP.Chemscore.Internal.Correction>
0.1781

> <Gold.Rescore>
     Score         DG    S(hbond)    S(metal)    S(lipo)     H(rot)  DE(clash)    DE(int)     intcor
     16.35     -17.11       2.77        0.00      79.84       2.72       0.04       0.72       ----

> <Gold.Chemscore.Fitness>
16.3460

> <Gold.Chemscore.DG>
-17.1074

> <Gold.Chemscore.ZeroCoef>
-5.4800

> <Gold.Chemscore.Hbond>
2.7681

> <Gold.Chemscore.Metal>
0.0000

> <Gold.Chemscore.Lipo>
79.8367

> <Gold.Chemscore.Internal_Hbond>
0.0000

> <Gold.Chemscore.DEClash>
0.0397

> <Gold.Chemscore.DEInternal>
0.7217

> <Gold.Chemscore.Rot>
2.7183

> <Gold.Chemscore.Internal.Correction>
   9.000000E+99

> <Gold.Chemscore.Hbonds>
donor molecule, donor type, donor heavy atom, donor atom, acceptor molecule, acceptor atom, score
      L1  H     1    19       P1 10175  0.19
      L1  H     4    23       P1  7948  1.00
      P1  H  7989  7998       L1    16  0.29

> <Gold.Chemscore.Hbond.Weighted>
-9.2454

> <Gold.Chemscore.Metal.Weighted>
-0.0000

> <Gold.Chemscore.Lipo.Weighted>
-9.3409

> <Gold.Chemscore.Internal_Hbond.Weighted>
0.0000

> <Gold.Chemscore.DEClash.Weighted>
0.0397

> <Gold.Chemscore.DEInternal.Weighted>
0.7217

> <Gold.Chemscore.Rot.Weighted>
6.9589

> <Gold.Chemscore.Internal.Correction.Weighted>
   9.000000E+99

> <Gold.Protein.RotatedTorsions>
[ 6907 6896 6895 6894 ] final  141.29 input  -60.11 | X-H torsion
[ 7974 7965 7964 7962 ] final   91.14 input  175.53 | X-H torsion
[ 8008 7997 7996 7995 ] final   71.51 input   59.86 | X-H torsion
[ 10167 10162 10161 10158 ] final   20.71 input  -65.29 | X-H torsion
[ 10718 10713 10712 10709 ] final  119.33 input   66.30 | X-H torsion
[ 10763 10752 10751 10750 ] final    9.81 input  -60.55 | X-H torsion
[ 11005 11000 10999 10996 ] final  120.46 input  -57.11 | X-H torsion

> <Gold.Protein.ActiveResidues>
 VAL166  LYS551  ARG553  GLY616  TRP617  ASP618  TYR619  PRO620  LYS621  CYS622 
 ASP623  PHE694  ASN695  SER759  ASP760  ASP761  ALA762  ILE779  LEU786  VAL792 
 PHE793  MET794  SER795  GLU796  ALA797  LYS798  CYS799  TRP800  GLU811  SER814 

> <Gold.Protein.RotatedAtoms>
  152.2327  133.5071  159.5224 H   0  0  0  0  0  0  0  0  0  0  0  0  # atno 6907 bound_to 6896
  150.7042  134.1194  159.4038 H   0  0  0  0  0  0  0  0  0  0  0  0  # atno 6908 bound_to 6896
  151.9116  135.0336  160.0565 H   0  0  0  0  0  0  0  0  0  0  0  0  # atno 6909 bound_to 6896
  145.5097  139.2277  143.2731 H   0  0  0  0  0  0  0  0  0  0  0  0  # atno 7974 bound_to 7965
  155.7550  140.3488  155.5169 H   0  0  0  0  0  0  0  0  0  0  0  0  # atno 8008 bound_to 7997
  155.8968  140.1027  157.1400 H   0  0  0  0  0  0  0  0  0  0  0  0  # atno 8009 bound_to 7997
  154.4039  140.1294  156.4372 H   0  0  0  0  0  0  0  0  0  0  0  0  # atno 8010 bound_to 7997
  140.5483  143.9555  150.6561 H   0  0  0  0  0  0  0  0  0  0  0  0  # atno 10167 bound_to 10162
  157.5969  131.1056  150.7881 H   0  0  0  0  0  0  0  0  0  0  0  0  # atno 10718 bound_to 10713
  153.2100  135.6867  153.8126 H   0  0  0  0  0  0  0  0  0  0  0  0  # atno 10763 bound_to 10752
  153.7362  135.3245  155.3296 H   0  0  0  0  0  0  0  0  0  0  0  0  # atno 10764 bound_to 10752
  154.8217  135.4647  154.0903 H   0  0  0  0  0  0  0  0  0  0  0  0  # atno 10765 bound_to 10752
  139.9186  134.9634  156.7810 H   0  0  0  0  0  0  0  0  0  0  0  0  # atno 11005 bound_to 11000
  146.2174  140.5903  142.9032 LP  0  0  0  0  0  0  0  0  0  0  0  0  # atno 17320 bound_to 7965
  144.7734  140.5688  143.6654 LP  0  0  0  0  0  0  0  0  0  0  0  0  # atno 17321 bound_to 7965
  140.2974  143.3283  152.1004 LP  0  0  0  0  0  0  0  0  0  0  0  0  # atno 17342 bound_to 10162
  139.5016  144.6718  151.6225 LP  0  0  0  0  0  0  0  0  0  0  0  0  # atno 17343 bound_to 10162
  156.8289  130.5009  149.5334 LP  0  0  0  0  0  0  0  0  0  0  0  0  # atno 17370 bound_to 10713
  156.1034  130.5986  150.9931 LP  0  0  0  0  0  0  0  0  0  0  0  0  # atno 17371 bound_to 10713
  140.6544  133.9702  155.7772 LP  0  0  0  0  0  0  0  0  0  0  0  0  # atno 17394 bound_to 11000
  141.0686  134.0240  157.3559 LP  0  0  0  0  0  0  0  0  0  0  0  0  # atno 17395 bound_to 11000

$$$$
