AV-unprocessed.smi:1566|AV-procd|sdf|6303|dock2
  -GOLD-   22720 6503D 1   1.00000     0.00000
 Structure written by MMmdl.
 42 43  0  0  0  0  0  0  0  0  1 V2000
  145.5029  137.0410  151.9731 C   0  0  0  0  0  0  0  0  0  0  0  0
  146.2423  138.3499  151.6653 C   0  0  0  0  0  0  0  0  0  0  0  0
  147.5286  138.4139  152.3494 N   0  0  0  0  0  0  0  0  0  0  0  0
  147.8519  139.3011  153.3011 C   0  0  0  0  0  0  0  0  0  0  0  0
  147.0852  140.1767  153.7022 O   0  0  0  0  0  0  0  0  0  0  0  0
  149.1116  139.1141  153.7310 N   0  0  0  0  0  0  0  0  0  0  0  0
  149.8184  139.8341  154.7313 C   0  0  0  0  0  0  0  0  0  0  0  0
  151.0016  139.2686  155.2437 C   0  0  0  0  0  0  0  0  0  0  0  0
  151.7142  139.9527  156.2464 C   0  0  0  0  0  0  0  0  0  0  0  0
  151.2190  141.1890  156.7233 C   0  0  0  0  0  0  0  0  0  0  0  0
  151.9188  141.8945  157.7261 N   0  0  0  0  0  0  0  0  0  0  0  0
  151.5092  143.2826  157.9219 C   0  0  0  0  0  0  0  0  0  0  0  0
  152.5338  144.0279  158.7982 C   0  0  1  0  0  0  0  0  0  0  0  0
  152.0785  145.4532  159.1287 C   0  0  0  0  0  0  0  0  0  0  0  0
  152.7098  143.3193  160.0221 O   0  0  0  0  0  0  0  0  0  0  0  0
  153.2160  142.0026  159.8207 C   0  0  1  0  0  0  0  0  0  0  0  0
  153.4563  141.3634  161.1924 C   0  0  0  0  0  0  0  0  0  0  0  0
  152.2094  141.1982  158.9775 C   0  0  0  0  0  0  0  0  0  0  0  0
  150.0669  141.7212  156.2463 N   0  0  0  0  0  0  0  0  0  0  0  0
  149.3884  141.0646  155.2817 C   0  0  0  0  0  0  0  0  0  0  0  0
  144.5597  136.9927  151.4289 H   0  0  0  0  0  0  0  0  0  0  0  0
  145.2752  136.9535  153.0360 H   0  0  0  0  0  0  0  0  0  0  0  0
  146.0980  136.1742  151.6845 H   0  0  0  0  0  0  0  0  0  0  0  0
  146.4235  138.4260  150.5930 H   0  0  0  0  0  0  0  0  0  0  0  0
  145.6253  139.2079  151.9378 H   0  0  0  0  0  0  0  0  0  0  0  0
  148.2228  137.7333  152.0771 H   0  0  0  0  0  0  0  0  0  0  0  0
  149.6459  138.4082  153.2464 H   0  0  0  0  0  0  0  0  0  0  0  0
  151.3648  138.3212  154.8730 H   0  0  0  0  0  0  0  0  0  0  0  0
  152.6178  139.5167  156.6455 H   0  0  0  0  0  0  0  0  0  0  0  0
  151.4047  143.8077  156.9734 H   0  0  0  0  0  0  0  0  0  0  0  0
  150.5283  143.2928  158.3992 H   0  0  0  0  0  0  0  0  0  0  0  0
  153.4909  144.0831  158.2760 H   0  0  0  0  0  0  0  0  0  0  0  0
  151.9368  146.0401  158.2208 H   0  0  0  0  0  0  0  0  0  0  0  0
  152.8191  145.9655  159.7433 H   0  0  0  0  0  0  0  0  0  0  0  0
  151.1356  145.4497  159.6761 H   0  0  0  0  0  0  0  0  0  0  0  0
  154.1706  142.0631  159.2947 H   0  0  0  0  0  0  0  0  0  0  0  0
  153.8573  140.3546  161.0898 H   0  0  0  0  0  0  0  0  0  0  0  0
  152.5309  141.2995  161.7655 H   0  0  0  0  0  0  0  0  0  0  0  0
  154.1696  141.9469  161.7749 H   0  0  0  0  0  0  0  0  0  0  0  0
  151.2811  141.0569  159.5332 H   0  0  0  0  0  0  0  0  0  0  0  0
  152.6201  140.2092  158.7701 H   0  0  0  0  0  0  0  0  0  0  0  0
  148.4713  141.5408  154.9724 H   0  0  0  0  0  0  0  0  0  0  0  0
  1  2  1  0  0  0  0
  1 21  1  0  0  0  0
  1 22  1  0  0  0  0
  1 23  1  0  0  0  0
  2  3  1  0  0  0  0
  2 24  1  0  0  0  0
  2 25  1  0  0  0  0
  3  4  1  0  0  0  0
  3 26  1  0  0  0  0
  4  5  2  0  0  0  0
  4  6  1  0  0  0  0
  6  7  1  0  0  0  0
  6 27  1  0  0  0  0
  7 20  1  0  0  0  0
  7  8  2  0  0  0  0
  8  9  1  0  0  0  0
  8 28  1  0  0  0  0
  9 10  2  0  0  0  0
  9 29  1  0  0  0  0
 10 11  1  0  0  0  0
 10 19  1  0  0  0  0
 11 18  1  0  0  0  0
 11 12  1  0  0  0  0
 12 13  1  0  0  0  0
 12 30  1  0  0  0  0
 12 31  1  0  0  0  0
 13 14  1  0  0  0  0
 13 15  1  0  0  0  0
 13 32  1  0  0  0  0
 14 33  1  0  0  0  0
 14 34  1  0  0  0  0
 14 35  1  0  0  0  0
 15 16  1  0  0  0  0
 16 17  1  0  0  0  0
 16 18  1  0  0  0  0
 16 36  1  0  0  0  0
 17 37  1  0  0  0  0
 17 38  1  0  0  0  0
 17 39  1  0  0  0  0
 18 40  1  0  0  0  0
 18 41  1  0  0  0  0
 19 20  2  0  0  0  0
 20 42  1  0  0  0  0
M  END
> <s_m_source_file>
AV-unprocessed.smi

> <i_m_source_file_index>
1566

> <i_lp_mmshare_version>
43012

> <i_f3d_flags>
0

> <s_epik_input>
W0NIM11bQ0gyXVtOSF1DKD1PKVtOSF1jMVtjSF1bY0hdYyhuW2NIXTEpTjJbQ0gyXVtDQEBIXShbQ0gzXSlPW0NAQEhdKFtDSDNdKVtDSDJdMg==

> <s_epik_cmdline>
J2VwaWtfcHl0aG9uJywgJy1waCcsICc3LjAnLCAnLXRuJywgJzgnLCAnLW1hJywgJzIwMCcsICctbWV0YWxfYmluZGluZycsICctaW1hZScsICc8aW5maWxlLm1hZT4nLCAnLW9tYWUnLCAnPG91dGZpbGUubWFlPic=

> <r_lp_tautomer_probability>
1

> <r_epik_Ionization_Penalty>
0.0027066

> <r_epik_Ionization_Penalty_Charging>
0

> <r_epik_Ionization_Penalty_Neutral>
0.0027066

> <r_epik_State_Penalty>
0.00185803

> <r_epik_Charging_Adjusted_Penalty>
0.00185803

> <i_epik_Tot_Q>
0

> <i_epik_Tot_abs_Q>
0

> <r_epik_Metal_State_Penalty>
-0

> <b_epik_Metal_Only>
0

> <s_lp_Force_Field>
OPLS_2005

> <r_lp_Energy>
18.2391

> <b_lp_Chiralities_Consistent>
1

> <s_lp_Variant>
AV-unprocessed.smi:1566-1

> <Gold.Version>
5.8.1

> <Gold.Id.Protein>
6NUR|6NUR_protein|mol2

> <Gold.PLP.Fitness>
46.3195

> <Gold.PLP.PLP>
-43.4828

> <Gold.PLP.part.hbond>
-3.0000

> <Gold.PLP.part.metal>
0.0000

> <Gold.PLP.part.buried>
-1.3274

> <Gold.PLP.part.nonpolar>
-40.2556

> <Gold.PLP.part.repulsive>
0.4373

> <Gold.PLP.ligand.clash>
0.0000

> <Gold.PLP.ligand.torsion>
0.2439

> <Gold.PLP.Chemscore.Hbond>
1.0000

> <Gold.PLP.Chemscore.CHOScore>
0.0000

> <Gold.PLP.Chemscore.Metal>
0.0000

> <Gold.Chemscore.Hbonds>
donor molecule, donor type, donor heavy atom, donor atom, acceptor molecule, acceptor atom, score
      L1  H     3    26       P1  7948  1.00

> <Gold.PLP.Chemscore.Internal.Correction>
0.3244

> <Gold.Rescore>
     Score         DG    S(hbond)    S(metal)    S(lipo)     H(rot)  DE(clash)    DE(int)     intcor
     16.33     -18.62       0.99        0.00     110.02       1.19       0.84       1.45       ----

> <Gold.Chemscore.Fitness>
16.3342

> <Gold.Chemscore.DG>
-18.6243

> <Gold.Chemscore.ZeroCoef>
-5.4800

> <Gold.Chemscore.Hbond>
0.9915

> <Gold.Chemscore.Metal>
0.0000

> <Gold.Chemscore.Lipo>
110.0205

> <Gold.Chemscore.Internal_Hbond>
0.0000

> <Gold.Chemscore.DEClash>
0.8441

> <Gold.Chemscore.DEInternal>
1.4460

> <Gold.Chemscore.Rot>
1.1873

> <Gold.Chemscore.Internal.Correction>
   9.000000E+99

> <Gold.Chemscore.Hbonds>
donor molecule, donor type, donor heavy atom, donor atom, acceptor molecule, acceptor atom, score
      L1  H     3    26       P1  7948  0.99

> <Gold.Chemscore.Hbond.Weighted>
-3.3115

> <Gold.Chemscore.Metal.Weighted>
-0.0000

> <Gold.Chemscore.Lipo.Weighted>
-12.8724

> <Gold.Chemscore.Internal_Hbond.Weighted>
0.0000

> <Gold.Chemscore.DEClash.Weighted>
0.8441

> <Gold.Chemscore.DEInternal.Weighted>
1.4460

> <Gold.Chemscore.Rot.Weighted>
3.0396

> <Gold.Chemscore.Internal.Correction.Weighted>
   9.000000E+99

> <Gold.Protein.RotatedTorsions>
[ 6907 6896 6895 6894 ] final    1.40 input  -60.11 | X-H torsion
[ 7974 7965 7964 7962 ] final   33.87 input  175.53 | X-H torsion
[ 8008 7997 7996 7995 ] final   65.01 input   59.86 | X-H torsion
[ 10167 10162 10161 10158 ] final   77.74 input  -65.29 | X-H torsion
[ 10718 10713 10712 10709 ] final -113.86 input   66.30 | X-H torsion
[ 10763 10752 10751 10750 ] final  171.83 input  -60.55 | X-H torsion
[ 11005 11000 10999 10996 ] final   42.32 input  -57.11 | X-H torsion

> <Gold.Protein.ActiveResidues>
 VAL166  LYS551  ARG553  GLY616  TRP617  ASP618  TYR619  PRO620  LYS621  CYS622 
 ASP623  PHE694  ASN695  SER759  ASP760  ASP761  ALA762  ILE779  LEU786  VAL792 
 PHE793  MET794  SER795  GLU796  ALA797  LYS798  CYS799  TRP800  GLU811  SER814 

> <Gold.Protein.RotatedAtoms>
  151.5920  135.1053  160.0040 H   0  0  0  0  0  0  0  0  0  0  0  0  # atno 6907 bound_to 6896
  152.4301  133.7259  159.6570 H   0  0  0  0  0  0  0  0  0  0  0  0  # atno 6908 bound_to 6896
  150.8193  133.8210  159.3169 H   0  0  0  0  0  0  0  0  0  0  0  0  # atno 6909 bound_to 6896
  146.1392  139.6342  142.9175 H   0  0  0  0  0  0  0  0  0  0  0  0  # atno 7974 bound_to 7965
  155.6550  140.3497  155.4762 H   0  0  0  0  0  0  0  0  0  0  0  0  # atno 8008 bound_to 7997
  155.9816  140.1175  157.0744 H   0  0  0  0  0  0  0  0  0  0  0  0  # atno 8009 bound_to 7997
  154.4193  140.1137  156.5430 H   0  0  0  0  0  0  0  0  0  0  0  0  # atno 8010 bound_to 7997
  139.9783  144.5844  150.7923 H   0  0  0  0  0  0  0  0  0  0  0  0  # atno 10167 bound_to 10162
  156.0793  130.5995  150.8698 H   0  0  0  0  0  0  0  0  0  0  0  0  # atno 10718 bound_to 10713
  154.4174  135.2757  155.1997 H   0  0  0  0  0  0  0  0  0  0  0  0  # atno 10763 bound_to 10752
  154.3957  135.6056  153.5872 H   0  0  0  0  0  0  0  0  0  0  0  0  # atno 10764 bound_to 10752
  152.9832  135.5914  154.4465 H   0  0  0  0  0  0  0  0  0  0  0  0  # atno 10765 bound_to 10752
  140.1750  134.4175  155.8234 H   0  0  0  0  0  0  0  0  0  0  0  0  # atno 11005 bound_to 11000
  145.5087  141.0436  143.2500 LP  0  0  0  0  0  0  0  0  0  0  0  0  # atno 17320 bound_to 7965
  144.7773  139.6602  143.7169 LP  0  0  0  0  0  0  0  0  0  0  0  0  # atno 17321 bound_to 7965
  140.7498  143.2944  151.3243 LP  0  0  0  0  0  0  0  0  0  0  0  0  # atno 17342 bound_to 10162
  139.6428  144.0506  152.2568 LP  0  0  0  0  0  0  0  0  0  0  0  0  # atno 17343 bound_to 10162
  157.5903  131.0944  150.9130 LP  0  0  0  0  0  0  0  0  0  0  0  0  # atno 17370 bound_to 10713
  156.9307  130.5349  149.5279 LP  0  0  0  0  0  0  0  0  0  0  0  0  # atno 17371 bound_to 10713
  141.2220  133.6973  156.7830 LP  0  0  0  0  0  0  0  0  0  0  0  0  # atno 17394 bound_to 11000
  140.2333  134.8669  157.3499 LP  0  0  0  0  0  0  0  0  0  0  0  0  # atno 17395 bound_to 11000

$$$$
