AV-unprocessed.smi:3161|AV-procd|sdf|12058|dock7
  -GOLD-   2272017483D 1   1.00000     0.00000
 Structure written by MMmdl.
 41 42  0  0  0  0  0  0  0  0  2 V2000
  154.1310  138.1323  157.0968 C   0  0  0  0  0  0  0  0  0  0  0  0
  153.0282  138.6760  156.2346 C   0  0  0  0  0  0  0  0  0  0  0  0
  153.0907  139.0394  154.8592 C   0  0  0  0  0  0  0  0  0  0  0  0
  151.9371  139.4904  154.3934 N   0  0  0  0  0  0  0  0  0  0  0  0
  151.0989  139.4250  155.4492 N   0  0  0  0  0  0  0  0  0  0  0  0
  149.7209  139.8575  155.3024 C   0  0  0  0  0  0  0  0  0  0  0  0
  149.5915  141.2970  154.7506 C   0  0  1  0  0  0  0  0  0  0  0  0
  148.1286  141.7072  154.5090 C   0  0  0  0  0  0  0  0  0  0  0  0
  150.2287  142.2776  155.6578 N   0  3  0  0  0  0  0  0  0  0  0  0
  150.0869  141.9954  157.1022 C   0  0  0  0  0  0  0  0  0  0  0  0
  151.1981  142.6844  157.9071 C   0  0  1  0  0  0  0  0  0  0  0  0
  151.2506  144.2000  157.6334 C   0  0  0  0  0  0  0  0  0  0  0  0
  152.3088  144.8709  158.5167 C   0  0  0  0  0  0  0  0  0  0  0  0
  152.0613  144.5087  159.9847 C   0  0  0  0  0  0  0  0  0  0  0  0
  151.9544  142.9843  160.1485 C   0  0  0  0  0  0  0  0  0  0  0  0
  150.9355  142.4731  159.2933 O   0  0  0  0  0  0  0  0  0  0  0  0
  151.7327  138.9440  156.5754 C   0  0  0  0  0  0  0  0  0  0  0  0
  154.9285  137.6869  156.5017 H   0  0  0  0  0  0  0  0  0  0  0  0
  153.7688  137.3599  157.7757 H   0  0  0  0  0  0  0  0  0  0  0  0
  154.5838  138.9126  157.7086 H   0  0  0  0  0  0  0  0  0  0  0  0
  153.9366  138.9906  154.1892 H   0  0  0  0  0  0  0  0  0  0  0  0
  149.2118  139.1553  154.6409 H   0  0  0  0  0  0  0  0  0  0  0  0
  149.2428  139.7694  156.2780 H   0  0  0  0  0  0  0  0  0  0  0  0
  150.1049  141.3538  153.7893 H   0  0  0  0  0  0  0  0  0  0  0  0
  147.6504  141.0733  153.7618 H   0  0  0  0  0  0  0  0  0  0  0  0
  148.0644  142.7332  154.1452 H   0  0  0  0  0  0  0  0  0  0  0  0
  147.5416  141.6416  155.4257 H   0  0  0  0  0  0  0  0  0  0  0  0
  151.2185  142.2776  155.4551 H   0  0  0  0  0  0  0  0  0  0  0  0
  149.1165  142.3552  157.4442 H   0  0  0  0  0  0  0  0  0  0  0  0
  150.1116  140.9186  157.2755 H   0  0  0  0  0  0  0  0  0  0  0  0
  152.1586  142.2360  157.6457 H   0  0  0  0  0  0  0  0  0  0  0  0
  151.4707  144.3885  156.5821 H   0  0  0  0  0  0  0  0  0  0  0  0
  150.2748  144.6452  157.8334 H   0  0  0  0  0  0  0  0  0  0  0  0
  153.3029  144.5358  158.2182 H   0  0  0  0  0  0  0  0  0  0  0  0
  152.2884  145.9527  158.3825 H   0  0  0  0  0  0  0  0  0  0  0  0
  152.8631  144.9012  160.6109 H   0  0  0  0  0  0  0  0  0  0  0  0
  151.1380  144.9774  160.3277 H   0  0  0  0  0  0  0  0  0  0  0  0
  152.9070  142.5008  159.9266 H   0  0  0  0  0  0  0  0  0  0  0  0
  151.7054  142.7360  161.1805 H   0  0  0  0  0  0  0  0  0  0  0  0
  151.2149  138.8306  157.5167 H   0  0  0  0  0  0  0  0  0  0  0  0
  149.8630  143.1978  155.4588 H   0  0  0  0  0  0  0  0  0  0  0  0
  1  2  1  0  0  0  0
  1 18  1  0  0  0  0
  1 19  1  0  0  0  0
  1 20  1  0  0  0  0
  2 17  2  0  0  0  0
  2  3  1  0  0  0  0
  3  4  2  0  0  0  0
  3 21  1  0  0  0  0
  4  5  1  0  0  0  0
  5  6  1  0  0  0  0
  5 17  1  0  0  0  0
  6  7  1  0  0  0  0
  6 22  1  0  0  0  0
  6 23  1  0  0  0  0
  7  8  1  0  0  0  0
  7  9  1  0  0  0  0
  7 24  1  0  0  0  0
  8 25  1  0  0  0  0
  8 26  1  0  0  0  0
  8 27  1  0  0  0  0
  9 10  1  0  0  0  0
  9 28  1  0  0  0  0
  9 41  1  0  0  0  0
 10 11  1  0  0  0  0
 10 29  1  0  0  0  0
 10 30  1  0  0  0  0
 11 16  1  0  0  0  0
 11 12  1  0  0  0  0
 11 31  1  0  0  0  0
 12 13  1  0  0  0  0
 12 32  1  0  0  0  0
 12 33  1  0  0  0  0
 13 14  1  0  0  0  0
 13 34  1  0  0  0  0
 13 35  1  0  0  0  0
 14 15  1  0  0  0  0
 14 36  1  0  0  0  0
 14 37  1  0  0  0  0
 15 16  1  0  0  0  0
 15 38  1  0  0  0  0
 15 39  1  0  0  0  0
 17 40  1  0  0  0  0
M  CHG  1   9   1
M  END
> <s_m_source_file>
AV-unprocessed.smi

> <i_m_source_file_index>
3161

> <i_lp_mmshare_version>
43012

> <i_f3d_flags>
0

> <s_epik_input>
W0NIM11jMVtjSF1ubihbY0hdMSlbQ0gyXVtDQEhdKFtDSDNdKVtOSF1bQ0gyXVtDQEBIXTJbQ0gyXVtDSDJdW0NIMl1bQ0gyXU8y

> <s_epik_cmdline>
J2VwaWtfcHl0aG9uJywgJy1waCcsICc3LjAnLCAnLXRuJywgJzgnLCAnLW1hJywgJzIwMCcsICctbWV0YWxfYmluZGluZycsICctaW1hZScsICc8aW5maWxlLm1hZT4nLCAnLW9tYWUnLCAnPG91dGZpbGUubWFlPic=

> <r_lp_tautomer_probability>
1

> <r_epik_Ionization_Penalty>
0.00849661

> <r_epik_Ionization_Penalty_Charging>
0.00848754

> <r_epik_Ionization_Penalty_Neutral>
9.06711e-06

> <r_epik_State_Penalty>
0.00639836

> <r_epik_Charging_Adjusted_Penalty>
0.0148859

> <i_epik_Tot_Q>
1

> <i_epik_Tot_abs_Q>
1

> <r_epik_Metal_State_Penalty>
0.00639921

> <b_epik_Metal_Only>
0

> <s_lp_Force_Field>
OPLS_2005

> <r_lp_Energy>
12.4103

> <b_lp_Chiralities_Consistent>
1

> <s_lp_Variant>
AV-unprocessed.smi:3161-4

> <Gold.Version>
5.8.1

> <Gold.Id.Protein>
6NUR|6NUR_protein|mol2

> <Gold.PLP.Fitness>
45.8248

> <Gold.PLP.PLP>
-37.7082

> <Gold.PLP.part.hbond>
-2.0806

> <Gold.PLP.part.metal>
0.0000

> <Gold.PLP.part.buried>
-0.4045

> <Gold.PLP.part.nonpolar>
-34.8990

> <Gold.PLP.part.repulsive>
0.3055

> <Gold.PLP.ligand.clash>
0.0000

> <Gold.PLP.ligand.torsion>
0.4579

> <Gold.PLP.Chemscore.Hbond>
3.0000

> <Gold.PLP.Chemscore.CHOScore>
0.0000

> <Gold.PLP.Chemscore.Metal>
0.0000

> <Gold.Chemscore.Hbonds>
donor molecule, donor type, donor heavy atom, donor atom, acceptor molecule, acceptor atom, score
      L1  H     9    41       P1  8028  2.00
      P1  H  7989  7998       L1     4  0.91

> <Gold.PLP.Chemscore.Internal.Correction>
0.0325

> <Gold.Rescore>
     Score         DG    S(hbond)    S(metal)    S(lipo)     H(rot)  DE(clash)    DE(int)     intcor
     19.50     -20.24       1.79        0.00     109.32       1.57       0.23       0.51       ----

> <Gold.Chemscore.Fitness>
19.4980

> <Gold.Chemscore.DG>
-20.2372

> <Gold.Chemscore.ZeroCoef>
-5.4800

> <Gold.Chemscore.Hbond>
1.7934

> <Gold.Chemscore.Metal>
0.0000

> <Gold.Chemscore.Lipo>
109.3156

> <Gold.Chemscore.Internal_Hbond>
0.0000

> <Gold.Chemscore.DEClash>
0.2256

> <Gold.Chemscore.DEInternal>
0.5135

> <Gold.Chemscore.Rot>
1.5714

> <Gold.Chemscore.Internal.Correction>
   9.000000E+99

> <Gold.Chemscore.Hbonds>
donor molecule, donor type, donor heavy atom, donor atom, acceptor molecule, acceptor atom, score
      L1  H     9    41       P1  8028  1.00
      P1  H  7989  7998       L1     4  0.72

> <Gold.Chemscore.Hbond.Weighted>
-5.9901

> <Gold.Chemscore.Metal.Weighted>
-0.0000

> <Gold.Chemscore.Lipo.Weighted>
-12.7899

> <Gold.Chemscore.Internal_Hbond.Weighted>
0.0000

> <Gold.Chemscore.DEClash.Weighted>
0.2256

> <Gold.Chemscore.DEInternal.Weighted>
0.5135

> <Gold.Chemscore.Rot.Weighted>
4.0228

> <Gold.Chemscore.Internal.Correction.Weighted>
   9.000000E+99

> <Gold.Protein.RotatedTorsions>
[ 6907 6896 6895 6894 ] final -155.33 input  -60.11 | X-H torsion
[ 7974 7965 7964 7962 ] final  -20.01 input  175.53 | X-H torsion
[ 8008 7997 7996 7995 ] final -152.37 input   59.86 | X-H torsion
[ 10167 10162 10161 10158 ] final  -60.35 input  -65.29 | X-H torsion
[ 10718 10713 10712 10709 ] final  178.69 input   66.30 | X-H torsion
[ 10763 10752 10751 10750 ] final  -92.72 input  -60.55 | X-H torsion
[ 11005 11000 10999 10996 ] final    5.32 input  -57.11 | X-H torsion

> <Gold.Protein.ActiveResidues>
 VAL166  LYS551  ARG553  GLY616  TRP617  ASP618  TYR619  PRO620  LYS621  CYS622 
 ASP623  PHE694  ASN695  SER759  ASP760  ASP761  ALA762  ILE779  LEU786  VAL792 
 PHE793  MET794  SER795  GLU796  ALA797  LYS798  CYS799  TRP800  GLU811  SER814 

> <Gold.Protein.RotatedAtoms>
  151.2709  133.4255  159.2620 H   0  0  0  0  0  0  0  0  0  0  0  0  # atno 6907 bound_to 6896
  151.0446  134.9631  159.8190 H   0  0  0  0  0  0  0  0  0  0  0  0  # atno 6908 bound_to 6896
  152.5371  134.2666  159.9008 H   0  0  0  0  0  0  0  0  0  0  0  0  # atno 6909 bound_to 6896
  146.1811  140.4142  142.8494 H   0  0  0  0  0  0  0  0  0  0  0  0  # atno 7974 bound_to 7965
  155.6541  140.0715  157.2577 H   0  0  0  0  0  0  0  0  0  0  0  0  # atno 8008 bound_to 7997
  154.4156  140.1728  156.1756 H   0  0  0  0  0  0  0  0  0  0  0  0  # atno 8009 bound_to 7997
  155.9752  140.3358  155.6616 H   0  0  0  0  0  0  0  0  0  0  0  0  # atno 8010 bound_to 7997
  140.6077  143.2378  151.5783 H   0  0  0  0  0  0  0  0  0  0  0  0  # atno 10167 bound_to 10162
  156.8868  130.9834  151.3055 H   0  0  0  0  0  0  0  0  0  0  0  0  # atno 10718 bound_to 10713
  154.6889  135.5220  153.8365 H   0  0  0  0  0  0  0  0  0  0  0  0  # atno 10763 bound_to 10752
  153.0618  135.6571  154.0455 H   0  0  0  0  0  0  0  0  0  0  0  0  # atno 10764 bound_to 10752
  154.0332  135.2983  155.3345 H   0  0  0  0  0  0  0  0  0  0  0  0  # atno 10765 bound_to 10752
  140.5720  134.0093  155.8012 H   0  0  0  0  0  0  0  0  0  0  0  0  # atno 11005 bound_to 11000
  144.8317  140.6717  143.6287 LP  0  0  0  0  0  0  0  0  0  0  0  0  # atno 17320 bound_to 7965
  145.4073  139.1586  143.4145 LP  0  0  0  0  0  0  0  0  0  0  0  0  # atno 17321 bound_to 7965
  139.5337  144.2842  152.1205 LP  0  0  0  0  0  0  0  0  0  0  0  0  # atno 17342 bound_to 10162
  140.2035  144.4634  150.6420 LP  0  0  0  0  0  0  0  0  0  0  0  0  # atno 17343 bound_to 10162
  157.6107  130.8581  149.8948 LP  0  0  0  0  0  0  0  0  0  0  0  0  # atno 17370 bound_to 10713
  156.0649  130.3694  150.0900 LP  0  0  0  0  0  0  0  0  0  0  0  0  # atno 17371 bound_to 10713
  141.1050  133.9708  157.3013 LP  0  0  0  0  0  0  0  0  0  0  0  0  # atno 17394 bound_to 11000
  139.9357  135.0196  156.8548 LP  0  0  0  0  0  0  0  0  0  0  0  0  # atno 17395 bound_to 11000

$$$$
