AV-unprocessed.smi:2102|AV-procd|sdf|8581|dock7
  -GOLD-   2272011313D 1   1.00000     0.00000
 Structure written by MMmdl.
 29 30  0  0  0  0  0  0  0  0  1 V2000
  153.5403  141.2027  160.3540 C   0  0  0  0  0  0  0  0  0  0  0  0
  152.5652  141.8914  159.5343 N   0  0  0  0  0  0  0  0  0  0  0  0
  151.9825  143.0908  160.0112 C   0  0  0  0  0  0  0  0  0  0  0  0
  152.2721  143.5835  161.1019 O   0  0  0  0  0  0  0  0  0  0  0  0
  151.0103  143.6903  159.1047 C   0  0  0  0  0  0  0  0  0  0  0  0
  150.7201  143.1146  157.9174 C   0  0  0  0  0  0  0  0  0  0  0  0
  151.3054  141.9421  157.4754 N   0  0  0  0  0  0  0  0  0  0  0  0
  150.9462  141.3985  156.1593 C   0  0  0  0  0  0  0  0  0  0  0  0
  149.4662  141.0033  156.0611 C   0  0  0  0  0  0  0  0  0  0  0  0
  149.1240  139.8240  156.1608 O   0  0  0  0  0  0  0  0  0  0  0  0
  148.6029  142.0061  155.8445 N   0  0  0  0  0  0  0  0  0  0  0  0
  147.1881  141.8683  155.7164 C   0  0  0  0  0  0  0  0  0  0  0  0
  146.6657  140.9499  154.6330 C   0  0  0  0  0  0  0  0  0  0  0  0
  146.5359  142.4399  154.4760 C   0  0  0  0  0  0  0  0  0  0  0  0
  152.2570  141.2947  158.2924 C   0  0  0  0  0  0  0  0  0  0  0  0
  152.7947  140.2469  157.9247 O   0  0  0  0  0  0  0  0  0  0  0  0
  153.7407  141.7470  161.2761 H   0  0  0  0  0  0  0  0  0  0  0  0
  154.4585  141.1227  159.7692 H   0  0  0  0  0  0  0  0  0  0  0  0
  153.1286  140.2187  160.5848 H   0  0  0  0  0  0  0  0  0  0  0  0
  150.5177  144.6088  159.3876 H   0  0  0  0  0  0  0  0  0  0  0  0
  149.9955  143.6007  157.2803 H   0  0  0  0  0  0  0  0  0  0  0  0
  151.1919  142.1188  155.3765 H   0  0  0  0  0  0  0  0  0  0  0  0
  151.5488  140.5147  155.9449 H   0  0  0  0  0  0  0  0  0  0  0  0
  148.9762  142.9414  155.7721 H   0  0  0  0  0  0  0  0  0  0  0  0
  146.5964  141.9119  156.6300 H   0  0  0  0  0  0  0  0  0  0  0  0
  147.3920  140.4403  154.0024 H   0  0  0  0  0  0  0  0  0  0  0  0
  145.7596  140.3868  154.8476 H   0  0  0  0  0  0  0  0  0  0  0  0
  145.5437  142.8730  154.5865 H   0  0  0  0  0  0  0  0  0  0  0  0
  147.1752  142.9240  153.7400 H   0  0  0  0  0  0  0  0  0  0  0  0
  1  2  1  0  0  0  0
  1 17  1  0  0  0  0
  1 18  1  0  0  0  0
  1 19  1  0  0  0  0
  2 15  1  0  0  0  0
  2  3  1  0  0  0  0
  3  4  2  0  0  0  0
  3  5  1  0  0  0  0
  5  6  2  0  0  0  0
  5 20  1  0  0  0  0
  6  7  1  0  0  0  0
  6 21  1  0  0  0  0
  7  8  1  0  0  0  0
  7 15  1  0  0  0  0
  8  9  1  0  0  0  0
  8 22  1  0  0  0  0
  8 23  1  0  0  0  0
  9 10  2  0  0  0  0
  9 11  1  0  0  0  0
 11 12  1  0  0  0  0
 11 24  1  0  0  0  0
 12 14  1  0  0  0  0
 12 13  1  0  0  0  0
 12 25  1  0  0  0  0
 13 14  1  0  0  0  0
 13 26  1  0  0  0  0
 13 27  1  0  0  0  0
 14 28  1  0  0  0  0
 14 29  1  0  0  0  0
 15 16  2  0  0  0  0
M  END
> <s_m_source_file>
AV-unprocessed.smi

> <i_m_source_file_index>
2102

> <i_lp_mmshare_version>
43012

> <i_f3d_flags>
0

> <s_epik_input>
W0NIM11uMWMoPU8pW2NIXVtjSF1uKGMxPU8pW0NIMl1DKD1PKVtOSF1bQ0hdMltDSDJdW0NIMl0y

> <s_epik_cmdline>
J2VwaWtfcHl0aG9uJywgJy1waCcsICc3LjAnLCAnLXRuJywgJzgnLCAnLW1hJywgJzIwMCcsICctbWV0YWxfYmluZGluZycsICctaW1hZScsICc8aW5maWxlLm1hZT4nLCAnLW9tYWUnLCAnPG91dGZpbGUubWFlPic=

> <r_lp_tautomer_probability>
1

> <r_epik_Ionization_Penalty>
3.25544e-08

> <r_epik_Ionization_Penalty_Charging>
1.18841e-08

> <r_epik_Ionization_Penalty_Neutral>
2.06703e-08

> <r_epik_State_Penalty>
-0

> <r_epik_Charging_Adjusted_Penalty>
1.18841e-08

> <i_epik_Tot_Q>
0

> <i_epik_Tot_abs_Q>
0

> <r_epik_Metal_State_Penalty>
-0

> <b_epik_Metal_Only>
0

> <s_lp_Force_Field>
OPLS_2005

> <r_lp_Energy>
23.1094

> <b_lp_Chiralities_Consistent>
1

> <s_lp_Variant>
AV-unprocessed.smi:2102-1

> <Gold.Version>
5.8.1

> <Gold.Id.Protein>
6NUR|6NUR_protein|mol2

> <Gold.PLP.Fitness>
39.8209

> <Gold.PLP.PLP>
-31.5728

> <Gold.PLP.part.hbond>
-2.0000

> <Gold.PLP.part.metal>
0.0000

> <Gold.PLP.part.buried>
-3.5119

> <Gold.PLP.part.nonpolar>
-25.7527

> <Gold.PLP.part.repulsive>
0.2310

> <Gold.PLP.ligand.clash>
0.0000

> <Gold.PLP.ligand.torsion>
0.2983

> <Gold.PLP.Chemscore.Hbond>
1.9360

> <Gold.PLP.Chemscore.CHOScore>
1.0000

> <Gold.PLP.Chemscore.Metal>
0.0000

> <Gold.Chemscore.Hbonds>
donor molecule, donor type, donor heavy atom, donor atom, acceptor molecule, acceptor atom, score
      L1  H    11    24       P1  8028  1.00
      P1  H  7997  8010       L1    16  0.94
      L1  C     6    21       P1  8028  1.00

> <Gold.PLP.Chemscore.Internal.Correction>
0.0368

> <Gold.Rescore>
     Score         DG    S(hbond)    S(metal)    S(lipo)     H(rot)  DE(clash)    DE(int)     intcor
     13.42     -13.75       1.91        0.00      51.59       1.62       0.03       0.30       ----

> <Gold.Chemscore.Fitness>
13.4199

> <Gold.Chemscore.DG>
-13.7482

> <Gold.Chemscore.ZeroCoef>
-5.4800

> <Gold.Chemscore.Hbond>
1.9095

> <Gold.Chemscore.Metal>
0.0000

> <Gold.Chemscore.Lipo>
51.5877

> <Gold.Chemscore.Internal_Hbond>
0.0000

> <Gold.Chemscore.DEClash>
0.0300

> <Gold.Chemscore.DEInternal>
0.2983

> <Gold.Chemscore.Rot>
1.6192

> <Gold.Chemscore.Internal.Correction>
   9.000000E+99

> <Gold.Chemscore.Hbonds>
donor molecule, donor type, donor heavy atom, donor atom, acceptor molecule, acceptor atom, score
      L1  H    11    24       P1  8028  0.98
      P1  H  7997  8010       L1    16  0.88

> <Gold.Chemscore.Hbond.Weighted>
-6.3776

> <Gold.Chemscore.Metal.Weighted>
-0.0000

> <Gold.Chemscore.Lipo.Weighted>
-6.0358

> <Gold.Chemscore.Internal_Hbond.Weighted>
0.0000

> <Gold.Chemscore.DEClash.Weighted>
0.0300

> <Gold.Chemscore.DEInternal.Weighted>
0.2983

> <Gold.Chemscore.Rot.Weighted>
4.1452

> <Gold.Chemscore.Internal.Correction.Weighted>
   9.000000E+99

> <Gold.Protein.RotatedTorsions>
[ 6907 6896 6895 6894 ] final  174.07 input  -60.11 | X-H torsion
[ 7974 7965 7964 7962 ] final -164.65 input  175.53 | X-H torsion
[ 8008 7997 7996 7995 ] final   50.62 input   59.86 | X-H torsion
[ 10167 10162 10161 10158 ] final   45.49 input  -65.29 | X-H torsion
[ 10718 10713 10712 10709 ] final  -57.48 input   66.30 | X-H torsion
[ 10763 10752 10751 10750 ] final -141.05 input  -60.55 | X-H torsion
[ 11005 11000 10999 10996 ] final   73.83 input  -57.11 | X-H torsion

> <Gold.Protein.ActiveResidues>
 VAL166  LYS551  ARG553  GLY616  TRP617  ASP618  TYR619  PRO620  LYS621  CYS622 
 ASP623  PHE694  ASN695  SER759  ASP760  ASP761  ALA762  ILE779  LEU786  VAL792 
 PHE793  MET794  SER795  GLU796  ALA797  LYS798  CYS799  TRP800  GLU811  SER814 

> <Gold.Protein.RotatedAtoms>
  151.7581  133.3332  159.3409 H   0  0  0  0  0  0  0  0  0  0  0  0  # atno 6907 bound_to 6896
  150.7508  134.6130  159.6105 H   0  0  0  0  0  0  0  0  0  0  0  0  # atno 6908 bound_to 6896
  152.3423  134.7119  160.0311 H   0  0  0  0  0  0  0  0  0  0  0  0  # atno 6909 bound_to 6896
  144.7291  140.2929  143.6217 H   0  0  0  0  0  0  0  0  0  0  0  0  # atno 7974 bound_to 7965
  155.4218  140.3447  155.4272 H   0  0  0  0  0  0  0  0  0  0  0  0  # atno 8008 bound_to 7997
  156.1388  140.1536  156.8984 H   0  0  0  0  0  0  0  0  0  0  0  0  # atno 8009 bound_to 7997
  154.4954  140.0829  156.7665 H   0  0  0  0  0  0  0  0  0  0  0  0  # atno 8010 bound_to 7997
  140.3236  144.2675  150.6179 H   0  0  0  0  0  0  0  0  0  0  0  0  # atno 10167 bound_to 10162
  156.1208  130.4166  150.0446 H   0  0  0  0  0  0  0  0  0  0  0  0  # atno 10718 bound_to 10713
  154.8558  135.3535  154.5805 H   0  0  0  0  0  0  0  0  0  0  0  0  # atno 10763 bound_to 10752
  153.6416  135.6998  153.5244 H   0  0  0  0  0  0  0  0  0  0  0  0  # atno 10764 bound_to 10752
  153.2966  135.4219  155.1174 H   0  0  0  0  0  0  0  0  0  0  0  0  # atno 10765 bound_to 10752
  139.9420  134.7381  156.1074 H   0  0  0  0  0  0  0  0  0  0  0  0  # atno 11005 bound_to 11000
  145.7837  139.1901  143.2143 LP  0  0  0  0  0  0  0  0  0  0  0  0  # atno 17320 bound_to 7965
  146.0813  140.7761  142.9640 LP  0  0  0  0  0  0  0  0  0  0  0  0  # atno 17321 bound_to 7965
  140.5461  143.2214  151.8004 LP  0  0  0  0  0  0  0  0  0  0  0  0  # atno 17342 bound_to 10162
  139.4869  144.4537  151.9624 LP  0  0  0  0  0  0  0  0  0  0  0  0  # atno 17343 bound_to 10162
  156.8385  130.9417  151.3633 LP  0  0  0  0  0  0  0  0  0  0  0  0  # atno 17370 bound_to 10713
  157.6391  130.8791  149.9414 LP  0  0  0  0  0  0  0  0  0  0  0  0  # atno 17371 bound_to 10713
  141.1058  133.6660  156.2861 LP  0  0  0  0  0  0  0  0  0  0  0  0  # atno 17394 bound_to 11000
  140.5927  134.5634  157.5502 LP  0  0  0  0  0  0  0  0  0  0  0  0  # atno 17395 bound_to 11000

$$$$
