AV-unprocessed.smi:699|AV-procd|sdf|3405|dock4
  -GOLD-   22720 0383D 1   1.00000     0.00000
 Structure written by MMmdl.
 35 36  0  0  0  0  0  0  0  0  2 V2000
  147.7522  134.2663  153.3008 N   0  0  0  0  0  0  0  0  0  0  0  0
  146.7986  133.6514  152.5966 C   0  0  0  0  0  0  0  0  0  0  0  0
  147.0467  132.6938  151.8657 O   0  0  0  0  0  0  0  0  0  0  0  0
  145.3635  134.2061  152.7306 C   0  0  2  0  0  0  0  0  0  0  0  0
  144.3945  133.4438  151.8147 C   0  0  0  0  0  0  0  0  0  0  0  0
  144.4345  134.1703  150.4676 C   0  0  0  0  0  0  0  0  0  0  0  0
  144.7886  135.6286  150.7864 C   0  0  0  0  0  0  0  0  0  0  0  0
  145.1791  135.6791  152.2760 C   0  0  2  0  0  0  0  0  0  0  0  0
  146.3449  136.5394  152.4883 N   0  0  0  0  0  0  0  0  0  0  0  0
  146.3144  137.7456  153.0719 C   0  0  0  0  0  0  0  0  0  0  0  0
  145.2816  138.2713  153.4859 O   0  0  0  0  0  0  0  0  0  0  0  0
  147.5439  138.2867  153.1309 N   0  0  0  0  0  0  0  0  0  0  0  0
  147.9446  139.5375  153.6763 C   0  0  0  0  0  0  0  0  0  0  0  0
  147.0875  140.6410  153.4672 C   0  0  0  0  0  0  0  0  0  0  0  0
  147.4439  141.9066  153.9754 C   0  0  0  0  0  0  0  0  0  0  0  0
  148.6038  142.0578  154.6498 N   0  3  0  0  0  0  0  0  0  0  0  0
  149.4614  141.0373  154.8640 C   0  0  0  0  0  0  0  0  0  0  0  0
  149.1590  139.7484  154.3791 C   0  0  0  0  0  0  0  0  0  0  0  0
  148.7042  133.9330  153.2521 H   0  0  0  0  0  0  0  0  0  0  0  0
  147.5183  135.0553  153.8861 H   0  0  0  0  0  0  0  0  0  0  0  0
  145.0521  134.1003  153.7714 H   0  0  0  0  0  0  0  0  0  0  0  0
  144.6361  132.3844  151.7145 H   0  0  0  0  0  0  0  0  0  0  0  0
  143.3876  133.5023  152.2304 H   0  0  0  0  0  0  0  0  0  0  0  0
  145.2086  133.7340  149.8351 H   0  0  0  0  0  0  0  0  0  0  0  0
  143.4898  134.0829  149.9300 H   0  0  0  0  0  0  0  0  0  0  0  0
  145.6058  135.9554  150.1415 H   0  0  0  0  0  0  0  0  0  0  0  0
  143.9438  136.2905  150.5914 H   0  0  0  0  0  0  0  0  0  0  0  0
  144.3331  136.0974  152.8250 H   0  0  0  0  0  0  0  0  0  0  0  0
  147.2353  136.1787  152.1777 H   0  0  0  0  0  0  0  0  0  0  0  0
  148.2779  137.7545  152.6868 H   0  0  0  0  0  0  0  0  0  0  0  0
  146.1600  140.5215  152.9258 H   0  0  0  0  0  0  0  0  0  0  0  0
  146.8415  142.7961  153.8618 H   0  0  0  0  0  0  0  0  0  0  0  0
  150.3620  141.2812  155.4087 H   0  0  0  0  0  0  0  0  0  0  0  0
  149.8703  138.9550  154.5477 H   0  0  0  0  0  0  0  0  0  0  0  0
  148.8442  142.9824  155.0086 H   0  0  0  0  0  0  0  0  0  0  0  0
  1  2  1  0  0  0  0
  1 19  1  0  0  0  0
  1 20  1  0  0  0  0
  2  3  2  0  0  0  0
  2  4  1  0  0  0  0
  4  8  1  0  0  0  0
  4  5  1  0  0  0  0
  4 21  1  0  0  0  0
  5  6  1  0  0  0  0
  5 22  1  0  0  0  0
  5 23  1  0  0  0  0
  6  7  1  0  0  0  0
  6 24  1  0  0  0  0
  6 25  1  0  0  0  0
  7  8  1  0  0  0  0
  7 26  1  0  0  0  0
  7 27  1  0  0  0  0
  8  9  1  0  0  0  0
  8 28  1  0  0  0  0
  9 10  1  0  0  0  0
  9 29  1  0  0  0  0
 10 11  2  0  0  0  0
 10 12  1  0  0  0  0
 12 13  1  0  0  0  0
 12 30  1  0  0  0  0
 13 18  1  0  0  0  0
 13 14  2  0  0  0  0
 14 15  1  0  0  0  0
 14 31  1  0  0  0  0
 15 16  2  0  0  0  0
 15 32  1  0  0  0  0
 16 17  1  0  0  0  0
 16 35  1  0  0  0  0
 17 18  2  0  0  0  0
 17 33  1  0  0  0  0
 18 34  1  0  0  0  0
M  CHG  1  16   1
M  END
> <s_m_source_file>
AV-unprocessed.smi

> <i_m_source_file_index>
699

> <i_lp_mmshare_version>
43012

> <i_f3d_flags>
0

> <s_epik_input>
W05IMl1DKD1PKVtDQEBIXTFbQ0gyXVtDSDJdW0NIMl1bQ0BIXTFbTkhdQyg9TylbTkhdYzJbY0hdW2NIXW5bY0hdW2NIXTI=

> <s_epik_cmdline>
J2VwaWtfcHl0aG9uJywgJy1waCcsICc3LjAnLCAnLXRuJywgJzgnLCAnLW1hJywgJzIwMCcsICctbWV0YWxfYmluZGluZycsICctaW1hZScsICc8aW5maWxlLm1hZT4nLCAnLW9tYWUnLCAnPG91dGZpbGUubWFlPic=

> <r_epik_Ionization_Penalty>
1.0332

> <r_epik_Ionization_Penalty_Charging>
1.03318

> <r_epik_Ionization_Penalty_Neutral>
1.91967e-05

> <r_epik_State_Penalty>
1.08452

> <r_epik_Charging_Adjusted_Penalty>
2.11769

> <i_epik_Tot_Q>
1

> <i_epik_Tot_abs_Q>
1

> <r_epik_Metal_State_Penalty>
1.18144

> <b_epik_Metal_Only>
0

> <s_lp_Force_Field>
OPLS_2005

> <r_lp_Energy>
24.8338

> <b_lp_Chiralities_Consistent>
1

> <s_lp_Variant>
AV-unprocessed.smi:699-7

> <Gold.Version>
5.8.1

> <Gold.Id.Protein>
6NUR|6NUR_protein|mol2

> <Gold.PLP.Fitness>
40.1980

> <Gold.PLP.PLP>
-29.0136

> <Gold.PLP.part.hbond>
-4.0000

> <Gold.PLP.part.metal>
0.0000

> <Gold.PLP.part.buried>
-4.2623

> <Gold.PLP.part.nonpolar>
-22.9930

> <Gold.PLP.part.repulsive>
2.1882

> <Gold.PLP.ligand.clash>
0.0000

> <Gold.PLP.ligand.torsion>
0.4173

> <Gold.PLP.Chemscore.Hbond>
4.0000

> <Gold.PLP.Chemscore.CHOScore>
0.0000

> <Gold.PLP.Chemscore.Metal>
0.0000

> <Gold.Chemscore.Hbonds>
donor molecule, donor type, donor heavy atom, donor atom, acceptor molecule, acceptor atom, score
      L1  H     9    29       P1  7948  1.00
      L1  H    12    30       P1  7948  1.00
      L1  H    16    35       P1  8028  2.00

> <Gold.PLP.Chemscore.Internal.Correction>
0.0189

> <Gold.Rescore>
     Score         DG    S(hbond)    S(metal)    S(lipo)     H(rot)  DE(clash)    DE(int)     intcor
     15.26     -18.33       2.96        0.00      58.22       1.50       0.16       2.91       ----

> <Gold.Chemscore.Fitness>
15.2634

> <Gold.Chemscore.DG>
-18.3295

> <Gold.Chemscore.ZeroCoef>
-5.4800

> <Gold.Chemscore.Hbond>
2.9605

> <Gold.Chemscore.Metal>
0.0000

> <Gold.Chemscore.Lipo>
58.2154

> <Gold.Chemscore.Internal_Hbond>
0.0000

> <Gold.Chemscore.DEClash>
0.1562

> <Gold.Chemscore.DEInternal>
2.9099

> <Gold.Chemscore.Rot>
1.5038

> <Gold.Chemscore.Internal.Correction>
   9.000000E+99

> <Gold.Chemscore.Hbonds>
donor molecule, donor type, donor heavy atom, donor atom, acceptor molecule, acceptor atom, score
      L1  H     9    29       P1  7948  0.99
      L1  H    12    30       P1  7948  0.98
      L1  H    16    35       P1  8028  1.00

> <Gold.Chemscore.Hbond.Weighted>
-9.8879

> <Gold.Chemscore.Metal.Weighted>
-0.0000

> <Gold.Chemscore.Lipo.Weighted>
-6.8112

> <Gold.Chemscore.Internal_Hbond.Weighted>
0.0000

> <Gold.Chemscore.DEClash.Weighted>
0.1562

> <Gold.Chemscore.DEInternal.Weighted>
2.9099

> <Gold.Chemscore.Rot.Weighted>
3.8496

> <Gold.Chemscore.Internal.Correction.Weighted>
   9.000000E+99

> <Gold.Protein.RotatedTorsions>
[ 6907 6896 6895 6894 ] final   62.08 input  -60.11 | X-H torsion
[ 7974 7965 7964 7962 ] final  -34.54 input  175.53 | X-H torsion
[ 8008 7997 7996 7995 ] final  -69.85 input   59.86 | X-H torsion
[ 10167 10162 10161 10158 ] final  -86.36 input  -65.29 | X-H torsion
[ 10718 10713 10712 10709 ] final  -13.95 input   66.30 | X-H torsion
[ 10763 10752 10751 10750 ] final  152.12 input  -60.55 | X-H torsion
[ 11005 11000 10999 10996 ] final  -85.25 input  -57.11 | X-H torsion

> <Gold.Protein.ActiveResidues>
 VAL166  LYS551  ARG553  GLY616  TRP617  ASP618  TYR619  PRO620  LYS621  CYS622 
 ASP623  PHE694  ASN695  SER759  ASP760  ASP761  ALA762  ILE779  LEU786  VAL792 
 PHE793  MET794  SER795  GLU796  ALA797  LYS798  CYS799  TRP800  GLU811  SER814 

> <Gold.Protein.RotatedAtoms>
  152.4142  134.6071  160.0015 H   0  0  0  0  0  0  0  0  0  0  0  0  # atno 6907 bound_to 6896
  151.6239  133.3331  159.3102 H   0  0  0  0  0  0  0  0  0  0  0  0  # atno 6908 bound_to 6896
  150.8031  134.7178  159.6686 H   0  0  0  0  0  0  0  0  0  0  0  0  # atno 6909 bound_to 6896
  146.0820  140.6051  142.8904 H   0  0  0  0  0  0  0  0  0  0  0  0  # atno 7974 bound_to 7965
  154.4969  140.0845  156.7715 H   0  0  0  0  0  0  0  0  0  0  0  0  # atno 8008 bound_to 7997
  155.4095  140.3441  155.4244 H   0  0  0  0  0  0  0  0  0  0  0  0  # atno 8009 bound_to 7997
  156.1405  140.1528  156.8915 H   0  0  0  0  0  0  0  0  0  0  0  0  # atno 8010 bound_to 7997
  140.3949  143.2688  151.9217 H   0  0  0  0  0  0  0  0  0  0  0  0  # atno 10167 bound_to 10162
  156.6229  130.4880  149.6158 H   0  0  0  0  0  0  0  0  0  0  0  0  # atno 10718 bound_to 10713
  154.1149  135.2836  155.3222 H   0  0  0  0  0  0  0  0  0  0  0  0  # atno 10763 bound_to 10752
  154.6464  135.5384  153.7853 H   0  0  0  0  0  0  0  0  0  0  0  0  # atno 10764 bound_to 10752
  153.0333  135.6499  154.1305 H   0  0  0  0  0  0  0  0  0  0  0  0  # atno 10765 bound_to 10752
  141.1643  133.7389  156.8987 H   0  0  0  0  0  0  0  0  0  0  0  0  # atno 11005 bound_to 11000
  144.7300  140.4642  143.6945 LP  0  0  0  0  0  0  0  0  0  0  0  0  # atno 17320 bound_to 7965
  145.6199  139.1523  143.3028 LP  0  0  0  0  0  0  0  0  0  0  0  0  # atno 17321 bound_to 7965
  139.4787  144.5691  151.8117 LP  0  0  0  0  0  0  0  0  0  0  0  0  # atno 17342 bound_to 10162
  140.4801  144.1462  150.5931 LP  0  0  0  0  0  0  0  0  0  0  0  0  # atno 17343 bound_to 10162
  156.2297  130.6787  151.1451 LP  0  0  0  0  0  0  0  0  0  0  0  0  # atno 17370 bound_to 10713
  157.7222  131.0674  150.6085 LP  0  0  0  0  0  0  0  0  0  0  0  0  # atno 17371 bound_to 10713
  140.1597  134.9174  157.2699 LP  0  0  0  0  0  0  0  0  0  0  0  0  # atno 17394 bound_to 11000
  140.2625  134.3554  155.7401 LP  0  0  0  0  0  0  0  0  0  0  0  0  # atno 17395 bound_to 11000

$$$$
