AV-unprocessed.smi:2775|AV-procd|sdf|10693|dock10
  -GOLD-   2272015133D 1   1.00000     0.00000
 Structure written by MMmdl.
 42 45  0  0  0  0  0  0  0  0  1 V2000
  144.0910  132.3553  150.8470 C   0  0  0  0  0  0  0  0  0  0  0  0
  144.1063  133.6617  151.6182 C   0  0  0  0  0  0  0  0  0  0  0  0
  142.8979  134.1349  151.9927 N   0  0  0  0  0  0  0  0  0  0  0  0
  142.8564  135.2904  152.6869 C   0  0  0  0  0  0  0  0  0  0  0  0
  144.0042  136.0280  153.0348 C   0  0  0  0  0  0  0  0  0  0  0  0
  145.2712  135.5421  152.6319 C   0  0  0  0  0  0  0  0  0  0  0  0
  146.5021  136.1870  152.9332 N   0  0  0  0  0  0  0  0  0  0  0  0
  146.7741  137.1610  153.8231 C   0  0  0  0  0  0  0  0  0  0  0  0
  145.9505  137.6913  154.5649 O   0  0  0  0  0  0  0  0  0  0  0  0
  148.0652  137.5364  153.8341 N   0  0  0  0  0  0  0  0  0  0  0  0
  148.6832  138.5612  154.6775 C   0  0  1  0  0  0  0  0  0  0  0  0
  150.0719  138.9862  154.1645 C   0  0  2  0  0  0  0  0  0  0  0  0
  151.2912  138.7274  155.0075 C   0  0  0  0  0  0  0  0  0  0  0  0
  151.5078  140.0673  155.7167 C   0  0  0  0  0  0  0  0  0  0  0  0
  150.2344  140.7071  155.6770 O   0  0  0  0  0  0  0  0  0  0  0  0
  149.6558  140.4332  154.4047 C   0  0  2  0  0  0  0  0  0  0  0  0
  148.1848  140.0002  154.4245 C   0  0  0  0  0  0  0  0  0  0  0  0
  147.2573  140.3719  153.2517 C   0  0  0  0  0  0  0  0  0  0  0  0
  146.1176  140.5446  154.2595 C   0  0  0  0  0  0  0  0  0  0  0  0
  147.1724  140.6723  155.3626 C   0  0  0  0  0  0  0  0  0  0  0  0
  145.3206  134.3231  151.9156 C   0  0  0  0  0  0  0  0  0  0  0  0
  146.8374  133.6557  151.4088 Cl  0  0  0  0  0  0  0  0  0  0  0  0
  144.5432  132.4903  149.8643 H   0  0  0  0  0  0  0  0  0  0  0  0
  143.0751  131.9852  150.7025 H   0  0  0  0  0  0  0  0  0  0  0  0
  144.6544  131.5925  151.3846 H   0  0  0  0  0  0  0  0  0  0  0  0
  141.8764  135.6367  152.9802 H   0  0  0  0  0  0  0  0  0  0  0  0
  143.8853  136.9344  153.6067 H   0  0  0  0  0  0  0  0  0  0  0  0
  147.2806  135.8988  152.3585 H   0  0  0  0  0  0  0  0  0  0  0  0
  148.6823  137.0607  153.1915 H   0  0  0  0  0  0  0  0  0  0  0  0
  148.7122  138.3180  155.7420 H   0  0  0  0  0  0  0  0  0  0  0  0
  150.2040  138.7851  153.0996 H   0  0  0  0  0  0  0  0  0  0  0  0
  151.1041  137.9323  155.7299 H   0  0  0  0  0  0  0  0  0  0  0  0
  152.1598  138.4425  154.4135 H   0  0  0  0  0  0  0  0  0  0  0  0
  151.8660  139.9496  156.7396 H   0  0  0  0  0  0  0  0  0  0  0  0
  152.2282  140.6775  155.1700 H   0  0  0  0  0  0  0  0  0  0  0  0
  149.9530  141.1244  153.6147 H   0  0  0  0  0  0  0  0  0  0  0  0
  147.5369  141.3155  152.7809 H   0  0  0  0  0  0  0  0  0  0  0  0
  147.0905  139.5954  152.5055 H   0  0  0  0  0  0  0  0  0  0  0  0
  145.5082  141.4359  154.1079 H   0  0  0  0  0  0  0  0  0  0  0  0
  145.5028  139.6498  154.3612 H   0  0  0  0  0  0  0  0  0  0  0  0
  146.9479  140.1125  156.2709 H   0  0  0  0  0  0  0  0  0  0  0  0
  147.4282  141.7100  155.5820 H   0  0  0  0  0  0  0  0  0  0  0  0
  1  2  1  0  0  0  0
  1 23  1  0  0  0  0
  1 24  1  0  0  0  0
  1 25  1  0  0  0  0
  2 21  1  0  0  0  0
  2  3  2  0  0  0  0
  3  4  1  0  0  0  0
  4  5  2  0  0  0  0
  4 26  1  0  0  0  0
  5  6  1  0  0  0  0
  5 27  1  0  0  0  0
  6  7  1  0  0  0  0
  6 21  2  0  0  0  0
  7  8  1  0  0  0  0
  7 28  1  0  0  0  0
  8  9  2  0  0  0  0
  8 10  1  0  0  0  0
 10 11  1  0  0  0  0
 10 29  1  0  0  0  0
 11 17  1  0  0  0  0
 11 12  1  0  0  0  0
 11 30  1  0  0  0  0
 12 16  1  0  0  0  0
 12 13  1  0  0  0  0
 12 31  1  0  0  0  0
 13 14  1  0  0  0  0
 13 32  1  0  0  0  0
 13 33  1  0  0  0  0
 14 15  1  0  0  0  0
 14 34  1  0  0  0  0
 14 35  1  0  0  0  0
 15 16  1  0  0  0  0
 16 17  1  0  0  0  0
 16 36  1  0  0  0  0
 17 20  1  0  0  0  0
 17 18  1  0  0  0  0
 18 19  1  0  0  0  0
 18 37  1  0  0  0  0
 18 38  1  0  0  0  0
 19 20  1  0  0  0  0
 19 39  1  0  0  0  0
 19 40  1  0  0  0  0
 20 41  1  0  0  0  0
 20 42  1  0  0  0  0
 21 22  1  0  0  0  0
M  END
> <s_m_source_file>
AV-unprocessed.smi

> <i_m_source_file_index>
2775

> <i_lp_mmshare_version>
43012

> <i_f3d_flags>
0

> <s_epik_input>
W0NIM11jMW5bY0hdW2NIXWMoYzFDbClbTkhdQyg9TylbTkhdW0NAQEhdMltDQEhdKFtDSDJdW0NIMl1PMylbQ0BASF0zQzI0W0NIMl1bQ0gyXVtDSDJdNA==

> <s_epik_cmdline>
J2VwaWtfcHl0aG9uJywgJy1waCcsICc3LjAnLCAnLXRuJywgJzgnLCAnLW1hJywgJzIwMCcsICctbWV0YWxfYmluZGluZycsICctaW1hZScsICc8aW5maWxlLm1hZT4nLCAnLW9tYWUnLCAnPG91dGZpbGUubWFlPic=

> <r_epik_Ionization_Penalty>
0.01026

> <r_epik_Ionization_Penalty_Charging>
0

> <r_epik_Ionization_Penalty_Neutral>
0.01026

> <r_epik_State_Penalty>
0.00780685

> <r_epik_Charging_Adjusted_Penalty>
0.00780685

> <i_epik_Tot_Q>
0

> <i_epik_Tot_abs_Q>
0

> <r_epik_Metal_State_Penalty>
0.00767411

> <b_epik_Metal_Only>
0

> <s_lp_Force_Field>
OPLS_2005

> <r_lp_Energy>
55.7344

> <b_lp_Chiralities_Consistent>
1

> <s_lp_Variant>
AV-unprocessed.smi:2775-6

> <Gold.Version>
5.8.1

> <Gold.Id.Protein>
6NUR|6NUR_protein|mol2

> <Gold.PLP.Fitness>
36.5753

> <Gold.PLP.PLP>
-30.8303

> <Gold.PLP.part.hbond>
-1.9925

> <Gold.PLP.part.metal>
0.0000

> <Gold.PLP.part.buried>
-0.2188

> <Gold.PLP.part.nonpolar>
-28.6616

> <Gold.PLP.part.repulsive>
0.4650

> <Gold.PLP.ligand.clash>
0.0000

> <Gold.PLP.ligand.torsion>
0.1645

> <Gold.PLP.Chemscore.Hbond>
1.9600

> <Gold.PLP.Chemscore.CHOScore>
0.0000

> <Gold.PLP.Chemscore.Metal>
0.0000

> <Gold.Chemscore.Hbonds>
donor molecule, donor type, donor heavy atom, donor atom, acceptor molecule, acceptor atom, score
      L1  H     7    28       P1  7948  0.96
      L1  H    10    29       P1  7948  1.00

> <Gold.PLP.Chemscore.Internal.Correction>
0.1940

> <Gold.Rescore>
     Score         DG    S(hbond)    S(metal)    S(lipo)     H(rot)  DE(clash)    DE(int)     intcor
     18.06     -19.41       1.91        0.00      86.55       1.00       0.14       1.22       ----

> <Gold.Chemscore.Fitness>
18.0614

> <Gold.Chemscore.DG>
-19.4136

> <Gold.Chemscore.ZeroCoef>
-5.4800

> <Gold.Chemscore.Hbond>
1.9065

> <Gold.Chemscore.Metal>
0.0000

> <Gold.Chemscore.Lipo>
86.5469

> <Gold.Chemscore.Internal_Hbond>
0.0000

> <Gold.Chemscore.DEClash>
0.1368

> <Gold.Chemscore.DEInternal>
1.2154

> <Gold.Chemscore.Rot>
1.0000

> <Gold.Chemscore.Internal.Correction>
   9.000000E+99

> <Gold.Chemscore.Hbonds>
donor molecule, donor type, donor heavy atom, donor atom, acceptor molecule, acceptor atom, score
      L1  H     7    28       P1  7948  0.92
      L1  H    10    29       P1  7948  0.94

> <Gold.Chemscore.Hbond.Weighted>
-6.3676

> <Gold.Chemscore.Metal.Weighted>
-0.0000

> <Gold.Chemscore.Lipo.Weighted>
-10.1260

> <Gold.Chemscore.Internal_Hbond.Weighted>
0.0000

> <Gold.Chemscore.DEClash.Weighted>
0.1368

> <Gold.Chemscore.DEInternal.Weighted>
1.2154

> <Gold.Chemscore.Rot.Weighted>
2.5600

> <Gold.Chemscore.Internal.Correction.Weighted>
   9.000000E+99

> <Gold.Protein.RotatedTorsions>
[ 6907 6896 6895 6894 ] final   90.12 input  -60.11 | X-H torsion
[ 7974 7965 7964 7962 ] final  -88.38 input  175.53 | X-H torsion
[ 8008 7997 7996 7995 ] final -130.99 input   59.86 | X-H torsion
[ 10167 10162 10161 10158 ] final  143.40 input  -65.29 | X-H torsion
[ 10718 10713 10712 10709 ] final  154.41 input   66.30 | X-H torsion
[ 10763 10752 10751 10750 ] final -106.45 input  -60.55 | X-H torsion
[ 11005 11000 10999 10996 ] final  -83.27 input  -57.11 | X-H torsion

> <Gold.Protein.ActiveResidues>
 VAL166  LYS551  ARG553  GLY616  TRP617  ASP618  TYR619  PRO620  LYS621  CYS622 
 ASP623  PHE694  ASN695  SER759  ASP760  ASP761  ALA762  ILE779  LEU786  VAL792 
 PHE793  MET794  SER795  GLU796  ALA797  LYS798  CYS799  TRP800  GLU811  SER814 

> <Gold.Protein.RotatedAtoms>
  152.5442  134.1861  159.8654 H   0  0  0  0  0  0  0  0  0  0  0  0  # atno 6907 bound_to 6896
  151.1859  133.4689  159.2602 H   0  0  0  0  0  0  0  0  0  0  0  0  # atno 6908 bound_to 6896
  151.1131  135.0049  159.8559 H   0  0  0  0  0  0  0  0  0  0  0  0  # atno 6909 bound_to 6896
  145.4539  140.9561  143.2007 H   0  0  0  0  0  0  0  0  0  0  0  0  # atno 7974 bound_to 7965
  155.3049  140.0454  157.3031 H   0  0  0  0  0  0  0  0  0  0  0  0  # atno 8008 bound_to 7997
  154.5466  140.2304  155.8520 H   0  0  0  0  0  0  0  0  0  0  0  0  # atno 8009 bound_to 7997
  156.1929  140.3046  155.9375 H   0  0  0  0  0  0  0  0  0  0  0  0  # atno 8010 bound_to 7997
  139.4971  144.6043  151.6413 H   0  0  0  0  0  0  0  0  0  0  0  0  # atno 10167 bound_to 10162
  157.2319  131.0741  151.1847 H   0  0  0  0  0  0  0  0  0  0  0  0  # atno 10718 bound_to 10713
  154.8013  135.4711  154.0283 H   0  0  0  0  0  0  0  0  0  0  0  0  # atno 10763 bound_to 10752
  153.1786  135.6837  153.8516 H   0  0  0  0  0  0  0  0  0  0  0  0  # atno 10764 bound_to 10752
  153.8074  135.3221  155.3374 H   0  0  0  0  0  0  0  0  0  0  0  0  # atno 10765 bound_to 10752
  141.1659  133.7286  156.8694 H   0  0  0  0  0  0  0  0  0  0  0  0  # atno 11005 bound_to 11000
  144.8044  139.6078  143.7057 LP  0  0  0  0  0  0  0  0  0  0  0  0  # atno 17320 bound_to 7965
  146.2489  139.6157  142.9440 LP  0  0  0  0  0  0  0  0  0  0  0  0  # atno 17321 bound_to 7965
  140.5701  144.0124  150.6212 LP  0  0  0  0  0  0  0  0  0  0  0  0  # atno 17342 bound_to 10162
  140.3238  143.3120  152.0757 LP  0  0  0  0  0  0  0  0  0  0  0  0  # atno 17343 bound_to 10162
  157.3469  130.7062  149.6416 LP  0  0  0  0  0  0  0  0  0  0  0  0  # atno 17370 bound_to 10713
  155.9675  130.4264  150.4696 LP  0  0  0  0  0  0  0  0  0  0  0  0  # atno 17371 bound_to 10713
  140.1792  134.9045  157.2928 LP  0  0  0  0  0  0  0  0  0  0  0  0  # atno 17394 bound_to 11000
  140.2414  134.3791  155.7479 LP  0  0  0  0  0  0  0  0  0  0  0  0  # atno 17395 bound_to 11000

$$$$
