AV-unprocessed.smi:1927|AV-procd|sdf|7796|dock8
  -GOLD-   22720 9543D 1   1.00000     0.00000
 Structure written by MMmdl.
 34 35  0  0  0  0  0  0  0  0  1 V2000
  151.9000  144.6383  157.5408 C   0  0  0  0  0  0  0  0  0  0  0  0
  152.0230  143.2935  158.2392 C   0  0  0  0  0  0  0  0  0  0  0  0
  152.9766  143.1338  159.2670 C   0  0  0  0  0  0  0  0  0  0  0  0
  153.0897  141.8893  159.9101 C   0  0  0  0  0  0  0  0  0  0  0  0
  152.2385  140.8507  159.4956 C   0  0  0  0  0  0  0  0  0  0  0  0
  151.3239  140.9947  158.5150 N   0  0  0  0  0  0  0  0  0  0  0  0
  151.2019  142.1896  157.8839 C   0  0  0  0  0  0  0  0  0  0  0  0
  150.2572  142.4165  156.8435 N   0  0  0  0  0  0  0  0  0  0  0  0
  149.6472  141.5153  156.0534 C   0  0  0  0  0  0  0  0  0  0  0  0
  149.8271  140.2977  156.0878 O   0  0  0  0  0  0  0  0  0  0  0  0
  148.8037  142.1158  155.2011 N   0  0  0  0  0  0  0  0  0  0  0  0
  147.9820  141.4395  154.2024 C   0  0  0  0  0  0  0  0  0  0  0  0
  146.5026  141.8533  154.3048 C   0  0  2  0  0  0  0  0  0  0  0  0
  146.2237  143.2542  153.8004 C   0  0  0  0  0  0  0  0  0  0  0  0
  144.8672  143.5583  154.4305 C   0  0  0  0  0  0  0  0  0  0  0  0
  144.8183  142.8079  155.6412 O   0  0  0  0  0  0  0  0  0  0  0  0
  145.9495  141.9474  155.7279 C   0  0  0  0  0  0  0  0  0  0  0  0
  152.6071  145.3629  157.9458 H   0  0  0  0  0  0  0  0  0  0  0  0
  150.8954  145.0435  157.6657 H   0  0  0  0  0  0  0  0  0  0  0  0
  152.1022  144.5340  156.4744 H   0  0  0  0  0  0  0  0  0  0  0  0
  153.6154  143.9534  159.5622 H   0  0  0  0  0  0  0  0  0  0  0  0
  153.8094  141.7351  160.7004 H   0  0  0  0  0  0  0  0  0  0  0  0
  152.2911  139.8793  159.9645 H   0  0  0  0  0  0  0  0  0  0  0  0
  150.0119  143.3828  156.6883 H   0  0  0  0  0  0  0  0  0  0  0  0
  148.7220  143.1210  155.2458 H   0  0  0  0  0  0  0  0  0  0  0  0
  148.3640  141.6167  153.1953 H   0  0  0  0  0  0  0  0  0  0  0  0
  148.0712  140.3669  154.3755 H   0  0  0  0  0  0  0  0  0  0  0  0
  145.8887  141.1533  153.7352 H   0  0  0  0  0  0  0  0  0  0  0  0
  146.9744  143.9508  154.1773 H   0  0  0  0  0  0  0  0  0  0  0  0
  146.2109  143.3238  152.7123 H   0  0  0  0  0  0  0  0  0  0  0  0
  144.7268  144.6233  154.6164 H   0  0  0  0  0  0  0  0  0  0  0  0
  144.0598  143.2195  153.7801 H   0  0  0  0  0  0  0  0  0  0  0  0
  145.6787  140.9749  156.1395 H   0  0  0  0  0  0  0  0  0  0  0  0
  146.6799  142.4057  156.3962 H   0  0  0  0  0  0  0  0  0  0  0  0
  1  2  1  0  0  0  0
  1 18  1  0  0  0  0
  1 19  1  0  0  0  0
  1 20  1  0  0  0  0
  2  7  1  0  0  0  0
  2  3  2  0  0  0  0
  3  4  1  0  0  0  0
  3 21  1  0  0  0  0
  4  5  2  0  0  0  0
  4 22  1  0  0  0  0
  5  6  1  0  0  0  0
  5 23  1  0  0  0  0
  6  7  2  0  0  0  0
  7  8  1  0  0  0  0
  8  9  1  0  0  0  0
  8 24  1  0  0  0  0
  9 10  2  0  0  0  0
  9 11  1  0  0  0  0
 11 12  1  0  0  0  0
 11 25  1  0  0  0  0
 12 13  1  0  0  0  0
 12 26  1  0  0  0  0
 12 27  1  0  0  0  0
 13 17  1  0  0  0  0
 13 14  1  0  0  0  0
 13 28  1  0  0  0  0
 14 15  1  0  0  0  0
 14 29  1  0  0  0  0
 14 30  1  0  0  0  0
 15 16  1  0  0  0  0
 15 31  1  0  0  0  0
 15 32  1  0  0  0  0
 16 17  1  0  0  0  0
 17 33  1  0  0  0  0
 17 34  1  0  0  0  0
M  END
> <s_m_source_file>
AV-unprocessed.smi

> <i_m_source_file_index>
1927

> <i_lp_mmshare_version>
43012

> <i_f3d_flags>
0

> <s_epik_input>
W0NIM11jMVtjSF1bY0hdW2NIXW5jMVtOSF1DKD1PKVtOSF1bQ0gyXVtDQEBIXTJbQ0gyXVtDSDJdT1tDSDJdMg==

> <s_epik_cmdline>
J2VwaWtfcHl0aG9uJywgJy1waCcsICc3LjAnLCAnLXRuJywgJzgnLCAnLW1hJywgJzIwMCcsICctbWV0YWxfYmluZGluZycsICctaW1hZScsICc8aW5maWxlLm1hZT4nLCAnLW9tYWUnLCAnPG91dGZpbGUubWFlPic=

> <r_lp_tautomer_probability>
1

> <r_epik_Ionization_Penalty>
5.84082e-05

> <r_epik_Ionization_Penalty_Charging>
0

> <r_epik_Ionization_Penalty_Neutral>
5.84082e-05

> <r_epik_State_Penalty>
-0

> <r_epik_Charging_Adjusted_Penalty>
0

> <i_epik_Tot_Q>
0

> <i_epik_Tot_abs_Q>
0

> <r_epik_Metal_State_Penalty>
-0

> <b_epik_Metal_Only>
0

> <s_lp_Force_Field>
OPLS_2005

> <r_lp_Energy>
21.003

> <b_lp_Chiralities_Consistent>
1

> <s_lp_Variant>
AV-unprocessed.smi:1927-1

> <Gold.Version>
5.8.1

> <Gold.Id.Protein>
6NUR|6NUR_protein|mol2

> <Gold.PLP.Fitness>
42.5142

> <Gold.PLP.PLP>
-37.0700

> <Gold.PLP.part.hbond>
-2.0000

> <Gold.PLP.part.metal>
0.0000

> <Gold.PLP.part.buried>
-6.5085

> <Gold.PLP.part.nonpolar>
-30.0131

> <Gold.PLP.part.repulsive>
0.3672

> <Gold.PLP.ligand.clash>
0.0000

> <Gold.PLP.ligand.torsion>
0.2448

> <Gold.PLP.Chemscore.Hbond>
1.9760

> <Gold.PLP.Chemscore.CHOScore>
0.0000

> <Gold.PLP.Chemscore.Metal>
0.0000

> <Gold.Chemscore.Hbonds>
donor molecule, donor type, donor heavy atom, donor atom, acceptor molecule, acceptor atom, score
      L1  H     8    24       P1  8028  0.98
      L1  H    11    25       P1  8028  1.00

> <Gold.PLP.Chemscore.Internal.Correction>
0.0057

> <Gold.Rescore>
     Score         DG    S(hbond)    S(metal)    S(lipo)     H(rot)  DE(clash)    DE(int)     intcor
     17.49     -18.87       1.95        0.00      85.88       1.23       0.07       1.32       ----

> <Gold.Chemscore.Fitness>
17.4883

> <Gold.Chemscore.DG>
-18.8723

> <Gold.Chemscore.ZeroCoef>
-5.4800

> <Gold.Chemscore.Hbond>
1.9467

> <Gold.Chemscore.Metal>
0.0000

> <Gold.Chemscore.Lipo>
85.8833

> <Gold.Chemscore.Internal_Hbond>
0.0000

> <Gold.Chemscore.DEClash>
0.0659

> <Gold.Chemscore.DEInternal>
1.3180

> <Gold.Chemscore.Rot>
1.2337

> <Gold.Chemscore.Internal.Correction>
   9.000000E+99

> <Gold.Chemscore.Hbonds>
donor molecule, donor type, donor heavy atom, donor atom, acceptor molecule, acceptor atom, score
      L1  H     8    24       P1  8028  0.87
      L1  H    11    25       P1  8028  1.00

> <Gold.Chemscore.Hbond.Weighted>
-6.5021

> <Gold.Chemscore.Metal.Weighted>
-0.0000

> <Gold.Chemscore.Lipo.Weighted>
-10.0483

> <Gold.Chemscore.Internal_Hbond.Weighted>
0.0000

> <Gold.Chemscore.DEClash.Weighted>
0.0659

> <Gold.Chemscore.DEInternal.Weighted>
1.3180

> <Gold.Chemscore.Rot.Weighted>
3.1582

> <Gold.Chemscore.Internal.Correction.Weighted>
   9.000000E+99

> <Gold.Protein.RotatedTorsions>
[ 6907 6896 6895 6894 ] final   69.82 input  -60.11 | X-H torsion
[ 7974 7965 7964 7962 ] final  104.17 input  175.53 | X-H torsion
[ 8008 7997 7996 7995 ] final   47.82 input   59.86 | X-H torsion
[ 10167 10162 10161 10158 ] final  -24.10 input  -65.29 | X-H torsion
[ 10718 10713 10712 10709 ] final -144.91 input   66.30 | X-H torsion
[ 10763 10752 10751 10750 ] final  -49.85 input  -60.55 | X-H torsion
[ 11005 11000 10999 10996 ] final  164.67 input  -57.11 | X-H torsion

> <Gold.Protein.ActiveResidues>
 VAL166  LYS551  ARG553  GLY616  TRP617  ASP618  TYR619  PRO620  LYS621  CYS622 
 ASP623  PHE694  ASN695  SER759  ASP760  ASP761  ALA762  ILE779  LEU786  VAL792 
 PHE793  MET794  SER795  GLU796  ALA797  LYS798  CYS799  TRP800  GLU811  SER814 

> <Gold.Protein.RotatedAtoms>
  152.4711  134.4959  159.9709 H   0  0  0  0  0  0  0  0  0  0  0  0  # atno 6907 bound_to 6896
  151.4985  133.3503  159.2873 H   0  0  0  0  0  0  0  0  0  0  0  0  # atno 6908 bound_to 6896
  150.8721  134.8124  159.7224 H   0  0  0  0  0  0  0  0  0  0  0  0  # atno 6909 bound_to 6896
  145.3362  139.2474  143.3634 H   0  0  0  0  0  0  0  0  0  0  0  0  # atno 7974 bound_to 7965
  155.3753  140.3426  155.4244 H   0  0  0  0  0  0  0  0  0  0  0  0  # atno 8008 bound_to 7997
  156.1640  140.1610  156.8597 H   0  0  0  0  0  0  0  0  0  0  0  0  # atno 8009 bound_to 7997
  154.5167  140.0777  156.8076 H   0  0  0  0  0  0  0  0  0  0  0  0  # atno 8010 bound_to 7997
  140.7288  143.4383  151.0695 H   0  0  0  0  0  0  0  0  0  0  0  0  # atno 10167 bound_to 10162
  156.3759  130.7812  151.1999 H   0  0  0  0  0  0  0  0  0  0  0  0  # atno 10718 bound_to 10713
  154.1008  135.6563  153.4868 H   0  0  0  0  0  0  0  0  0  0  0  0  # atno 10763 bound_to 10752
  153.0289  135.5224  154.7288 H   0  0  0  0  0  0  0  0  0  0  0  0  # atno 10764 bound_to 10752
  154.6439  135.2992  155.0038 H   0  0  0  0  0  0  0  0  0  0  0  0  # atno 10765 bound_to 10752
  140.2483  134.7997  157.3477 H   0  0  0  0  0  0  0  0  0  0  0  0  # atno 11005 bound_to 11000
  146.3026  140.3950  142.8699 LP  0  0  0  0  0  0  0  0  0  0  0  0  # atno 17320 bound_to 7965
  144.8825  140.7419  143.5977 LP  0  0  0  0  0  0  0  0  0  0  0  0  # atno 17321 bound_to 7965
  139.8048  143.8034  152.3166 LP  0  0  0  0  0  0  0  0  0  0  0  0  # atno 17342 bound_to 10162
  139.8063  144.7354  150.9757 LP  0  0  0  0  0  0  0  0  0  0  0  0  # atno 17343 bound_to 10162
  157.7488  131.0358  150.4381 LP  0  0  0  0  0  0  0  0  0  0  0  0  # atno 17370 bound_to 10713
  156.4616  130.4033  149.6572 LP  0  0  0  0  0  0  0  0  0  0  0  0  # atno 17371 bound_to 10713
  140.1584  134.4760  155.7912 LP  0  0  0  0  0  0  0  0  0  0  0  0  # atno 17394 bound_to 11000
  141.2204  133.6891  156.7501 LP  0  0  0  0  0  0  0  0  0  0  0  0  # atno 17395 bound_to 11000

$$$$
