AV-unprocessed.smi:66|AV-procd|sdf|624|dock3
  -GOLD-   2262016513D 1   1.00000     0.00000
 Structure written by MMmdl.
 28 30  0  0  0  0  0  0  0  0  2 V2000
  152.3614  136.8958  156.7928 O   0  0  0  0  0  0  0  0  0  0  0  0
  152.7288  138.0682  157.0252 C   0  0  0  0  0  0  0  0  0  0  0  0
  153.4361  138.4255  157.9935 O   0  5  0  0  0  0  0  0  0  0  0  0
  152.2619  139.1454  156.0319 C   0  0  1  0  0  0  0  0  0  0  0  0
  151.6029  138.5257  154.7865 C   0  0  0  0  0  0  0  0  0  0  0  0
  150.1092  138.5702  155.1078 C   0  0  2  0  0  0  0  0  0  0  0  0
  149.3036  138.5580  153.9479 O   0  0  0  0  0  0  0  0  0  0  0  0
  149.9730  139.8711  155.8996 C   0  0  0  0  0  0  0  0  0  0  0  0
  151.2362  140.0112  156.6152 N   0  0  0  0  0  0  0  0  0  0  0  0
  151.5319  141.1947  157.3280 C   0  0  0  0  0  0  0  0  0  0  0  0
  151.1654  142.3798  156.7823 N   0  0  0  0  0  0  0  0  0  0  0  0
  151.4464  143.5063  157.4494 C   0  0  0  0  0  0  0  0  0  0  0  0
  152.0623  143.6586  158.6309 N   0  0  0  0  0  0  0  0  0  0  0  0
  152.4276  142.4991  159.1927 C   0  0  0  0  0  0  0  0  0  0  0  0
  153.0737  142.3571  160.4133 N   0  0  0  0  0  0  0  0  0  0  0  0
  153.1947  141.0345  160.5076 C   0  0  0  0  0  0  0  0  0  0  0  0
  152.7042  140.3170  159.4847 N   0  0  0  0  0  0  0  0  0  0  0  0
  152.1849  141.2311  158.5814 C   0  0  0  0  0  0  0  0  0  0  0  0
  152.7049  139.3076  159.4200 H   0  0  0  0  0  0  0  0  0  0  0  0
  153.1225  139.7356  155.7157 H   0  0  0  0  0  0  0  0  0  0  0  0
  151.8187  139.1521  153.9196 H   0  0  0  0  0  0  0  0  0  0  0  0
  151.9529  137.5181  154.5562 H   0  0  0  0  0  0  0  0  0  0  0  0
  149.8432  137.7224  155.7404 H   0  0  0  0  0  0  0  0  0  0  0  0
  149.6801  139.1526  153.3178 H   0  0  0  0  0  0  0  0  0  0  0  0
  149.8447  140.7223  155.2284 H   0  0  0  0  0  0  0  0  0  0  0  0
  149.1223  139.8377  156.5813 H   0  0  0  0  0  0  0  0  0  0  0  0
  151.1342  144.4207  156.9672 H   0  0  0  0  0  0  0  0  0  0  0  0
  153.6580  140.5637  161.3622 H   0  0  0  0  0  0  0  0  0  0  0  0
  1  2  2  0  0  0  0
  2  3  1  0  0  0  0
  2  4  1  0  0  0  0
  4  9  1  0  0  0  0
  4  5  1  0  0  0  0
  4 20  1  0  0  0  0
  5  6  1  0  0  0  0
  5 21  1  0  0  0  0
  5 22  1  0  0  0  0
  6  7  1  0  0  0  0
  6  8  1  0  0  0  0
  6 23  1  0  0  0  0
  7 24  1  0  0  0  0
  8  9  1  0  0  0  0
  8 25  1  0  0  0  0
  8 26  1  0  0  0  0
  9 10  1  0  0  0  0
 10 18  1  0  0  0  0
 10 11  2  0  0  0  0
 11 12  1  0  0  0  0
 12 13  2  0  0  0  0
 12 27  1  0  0  0  0
 13 14  1  0  0  0  0
 14 18  2  0  0  0  0
 14 15  1  0  0  0  0
 15 16  2  0  0  0  0
 16 17  1  0  0  0  0
 16 28  1  0  0  0  0
 17 19  1  0  0  0  0
 17 18  1  0  0  0  0
M  CHG  1   3  -1
M  END
> <s_m_source_file>
AV-unprocessed.smi

> <i_m_source_file_index>
66

> <i_lp_mmshare_version>
43012

> <i_f3d_flags>
0

> <s_epik_input>
Tz1DKFtPSF0pW0NAQEhdMVtDSDJdW0NAQEhdKFtPSF0pW0NIMl1OMWMobltjSF1uMiljKGMyMylbbkhdW2NIXW4z

> <s_epik_cmdline>
J2VwaWtfcHl0aG9uJywgJy1waCcsICc3LjAnLCAnLXRuJywgJzgnLCAnLW1hJywgJzIwMCcsICctbWV0YWxfYmluZGluZycsICctaW1hZScsICc8aW5maWxlLm1hZT4nLCAnLW9tYWUnLCAnPG91dGZpbGUubWFlPic=

> <r_lp_tautomer_probability>
0.0419193

> <r_epik_Ionization_Penalty>
0.0157405

> <r_epik_Ionization_Penalty_Charging>
0.000248217

> <r_epik_Ionization_Penalty_Neutral>
0.0154923

> <r_epik_State_Penalty>
1.99742

> <r_epik_Charging_Adjusted_Penalty>
1.99767

> <i_epik_Tot_Q>
-1

> <i_epik_Tot_abs_Q>
1

> <r_epik_Metal_State_Penalty>
2.31035

> <b_epik_Metal_Only>
0

> <s_lp_Force_Field>
OPLS_2005

> <r_lp_Energy>
19.7313

> <b_lp_Chiralities_Consistent>
1

> <s_lp_Variant>
AV-unprocessed.smi:66-8

> <Gold.Version>
5.8.1

> <Gold.Id.Protein>
6NUR|6NUR_protein|mol2

> <Gold.PLP.Fitness>
46.2813

> <Gold.PLP.PLP>
-30.7322

> <Gold.PLP.part.hbond>
-4.0000

> <Gold.PLP.part.metal>
0.0000

> <Gold.PLP.part.buried>
-5.2636

> <Gold.PLP.part.nonpolar>
-21.8395

> <Gold.PLP.part.repulsive>
0.2442

> <Gold.PLP.ligand.clash>
0.0000

> <Gold.PLP.ligand.torsion>
1.1461

> <Gold.PLP.Chemscore.Hbond>
4.8880

> <Gold.PLP.Chemscore.CHOScore>
0.9983

> <Gold.PLP.Chemscore.Metal>
0.0000

> <Gold.Chemscore.Hbonds>
donor molecule, donor type, donor heavy atom, donor atom, acceptor molecule, acceptor atom, score
      L1  H     7    24       P1  7957  0.25
      P1  H  7997  8010       L1     3  0.68
      P1  H 10752 10765       L1     1  0.29
      L1  C    12    27       P1  8028  0.79

> <Gold.PLP.Chemscore.Internal.Correction>
0.1824

> <Gold.Rescore>
     Score         DG    S(hbond)    S(metal)    S(lipo)     H(rot)  DE(clash)    DE(int)     intcor
     12.18     -14.00       2.69        0.00      35.18       1.78       0.67       1.14       ----

> <Gold.Chemscore.Fitness>
12.1844

> <Gold.Chemscore.DG>
-14.0011

> <Gold.Chemscore.ZeroCoef>
-5.4800

> <Gold.Chemscore.Hbond>
2.6866

> <Gold.Chemscore.Metal>
0.0000

> <Gold.Chemscore.Lipo>
35.1763

> <Gold.Chemscore.Internal_Hbond>
0.0000

> <Gold.Chemscore.DEClash>
0.6735

> <Gold.Chemscore.DEInternal>
1.1433

> <Gold.Chemscore.Rot>
1.7842

> <Gold.Chemscore.Internal.Correction>
   9.000000E+99

> <Gold.Chemscore.Hbonds>
donor molecule, donor type, donor heavy atom, donor atom, acceptor molecule, acceptor atom, score
      L1  H     7    24       P1  7957  0.24
      P1  H  7997  8010       L1     3  0.04
      P1  H 10752 10765       L1     1  0.17

> <Gold.Chemscore.Hbond.Weighted>
-8.9731

> <Gold.Chemscore.Metal.Weighted>
-0.0000

> <Gold.Chemscore.Lipo.Weighted>
-4.1156

> <Gold.Chemscore.Internal_Hbond.Weighted>
0.0000

> <Gold.Chemscore.DEClash.Weighted>
0.6735

> <Gold.Chemscore.DEInternal.Weighted>
1.1433

> <Gold.Chemscore.Rot.Weighted>
4.5676

> <Gold.Chemscore.Internal.Correction.Weighted>
   9.000000E+99

> <Gold.Protein.RotatedTorsions>
[ 6907 6896 6895 6894 ] final -133.01 input  -60.11 | X-H torsion
[ 7974 7965 7964 7962 ] final   68.10 input  175.53 | X-H torsion
[ 8008 7997 7996 7995 ] final   47.78 input   59.86 | X-H torsion
[ 10167 10162 10161 10158 ] final  -93.92 input  -65.29 | X-H torsion
[ 10718 10713 10712 10709 ] final -109.40 input   66.30 | X-H torsion
[ 10763 10752 10751 10750 ] final -150.99 input  -60.55 | X-H torsion
[ 11005 11000 10999 10996 ] final   88.81 input  -57.11 | X-H torsion

> <Gold.Protein.ActiveResidues>
 VAL166  LYS551  ARG553  GLY616  TRP617  ASP618  TYR619  PRO620  LYS621  CYS622 
 ASP623  PHE694  ASN695  SER759  ASP760  ASP761  ALA762  ILE779  LEU786  VAL792 
 PHE793  MET794  SER795  GLU796  ALA797  LYS798  CYS799  TRP800  GLU811  SER814 

> <Gold.Protein.RotatedAtoms>
  150.9691  133.6363  159.2740 H   0  0  0  0  0  0  0  0  0  0  0  0  # atno 6907 bound_to 6896
  151.3658  135.0912  159.9459 H   0  0  0  0  0  0  0  0  0  0  0  0  # atno 6908 bound_to 6896
  152.5176  133.9255  159.7610 H   0  0  0  0  0  0  0  0  0  0  0  0  # atno 6909 bound_to 6896
  145.8066  139.3010  143.1123 H   0  0  0  0  0  0  0  0  0  0  0  0  # atno 7974 bound_to 7965
  155.3747  140.3425  155.4244 H   0  0  0  0  0  0  0  0  0  0  0  0  # atno 8008 bound_to 7997
  156.1643  140.1611  156.8592 H   0  0  0  0  0  0  0  0  0  0  0  0  # atno 8009 bound_to 7997
  154.5170  140.0776  156.8082 H   0  0  0  0  0  0  0  0  0  0  0  0  # atno 8010 bound_to 7997
  140.3197  143.3056  152.0059 H   0  0  0  0  0  0  0  0  0  0  0  0  # atno 10167 bound_to 10162
  156.0535  130.5762  150.8094 H   0  0  0  0  0  0  0  0  0  0  0  0  # atno 10718 bound_to 10713
  154.8085  135.3271  154.7367 H   0  0  0  0  0  0  0  0  0  0  0  0  # atno 10763 bound_to 10752
  153.8021  135.6902  153.4858 H   0  0  0  0  0  0  0  0  0  0  0  0  # atno 10764 bound_to 10752
  153.1847  135.4573  155.0019 H   0  0  0  0  0  0  0  0  0  0  0  0  # atno 10765 bound_to 10752
  139.8888  134.8512  156.3053 H   0  0  0  0  0  0  0  0  0  0  0  0  # atno 11005 bound_to 11000
  145.9821  140.8674  143.0109 LP  0  0  0  0  0  0  0  0  0  0  0  0  # atno 17320 bound_to 7965
  144.6762  140.2095  143.7378 LP  0  0  0  0  0  0  0  0  0  0  0  0  # atno 17321 bound_to 7965
  139.4877  144.6320  151.7050 LP  0  0  0  0  0  0  0  0  0  0  0  0  # atno 17342 bound_to 10162
  140.5494  144.0449  150.6121 LP  0  0  0  0  0  0  0  0  0  0  0  0  # atno 17343 bound_to 10162
  157.5484  131.0943  150.9731 LP  0  0  0  0  0  0  0  0  0  0  0  0  # atno 17370 bound_to 10713
  156.9996  130.5595  149.5310 LP  0  0  0  0  0  0  0  0  0  0  0  0  # atno 17371 bound_to 10713
  140.9886  133.7223  156.0779 LP  0  0  0  0  0  0  0  0  0  0  0  0  # atno 17394 bound_to 11000
  140.7655  134.3891  157.5518 LP  0  0  0  0  0  0  0  0  0  0  0  0  # atno 17395 bound_to 11000

$$$$
