AV-unprocessed.smi:283|AV-procd|sdf|2152|dock5
  -GOLD-   2262021493D 1   1.00000     0.00000
 Structure written by MMmdl.
 48 51  0  0  0  0  0  0  0  0  1 V2000
  153.2527  140.4091  160.1492 C   0  0  0  0  0  0  0  0  0  0  0  0
  152.7331  141.0134  158.8300 C   0  0  1  0  0  0  0  0  0  0  0  0
  151.6724  140.2040  158.2334 N   0  0  0  0  0  0  0  0  0  0  0  0
  151.9196  138.9853  157.7046 C   0  0  0  0  0  0  0  0  0  0  0  0
  153.1188  138.6906  157.1384 N   0  0  0  0  0  0  0  0  0  0  0  0
  153.3326  137.4773  156.6221 C   0  0  0  0  0  0  0  0  0  0  0  0
  152.5001  136.4356  156.5672 N   0  0  0  0  0  0  0  0  0  0  0  0
  151.2911  136.7264  157.1289 C   0  0  0  0  0  0  0  0  0  0  0  0
  150.9266  137.9722  157.7125 C   0  0  0  0  0  0  0  0  0  0  0  0
  149.6213  137.9098  158.1801 N   0  0  0  0  0  0  0  0  0  0  0  0
  149.2400  136.6959  157.8876 C   0  0  0  0  0  0  0  0  0  0  0  0
  150.1835  135.9113  157.2612 N   0  0  0  0  0  0  0  0  0  0  0  0
  150.0202  134.4936  156.8094 C   0  0  1  0  0  0  0  0  0  0  0  0
  149.1616  134.4844  155.7048 O   0  0  0  0  0  0  0  0  0  0  0  0
  149.8283  133.9151  154.5831 C   0  0  2  0  0  0  0  0  0  0  0  0
  148.8596  133.3432  153.5263 C   0  0  0  0  0  0  0  0  0  0  0  0
  147.8061  134.2213  153.1889 O   0  0  0  0  0  0  0  0  0  0  0  0
  150.9532  133.0458  155.1622 C   0  0  2  0  0  0  0  0  0  0  0  0
  150.4911  131.7594  155.5404 O   0  0  0  0  0  0  0  0  0  0  0  0
  151.3640  133.8811  156.3727 C   0  0  2  0  0  0  0  0  0  0  0  0
  151.9744  133.0875  157.3726 O   0  0  0  0  0  0  0  0  0  0  0  0
  152.3276  142.4750  159.0155 C   0  0  0  0  0  0  0  0  0  0  0  0
  152.7758  143.1451  160.1761 C   0  0  0  0  0  0  0  0  0  0  0  0
  152.4406  144.4924  160.4067 C   0  0  0  0  0  0  0  0  0  0  0  0
  151.6463  145.1867  159.4777 C   0  0  0  0  0  0  0  0  0  0  0  0
  151.1878  144.5304  158.3211 C   0  0  0  0  0  0  0  0  0  0  0  0
  151.5207  143.1815  158.0819 C   0  0  0  0  0  0  0  0  0  0  0  0
  150.9113  142.4448  156.6398 Cl  0  0  0  0  0  0  0  0  0  0  0  0
  149.5493  133.9719  157.6439 H   0  0  0  0  0  0  0  0  0  0  0  0
  150.3228  134.7517  154.0902 H   0  0  0  0  0  0  0  0  0  0  0  0
  151.7739  132.9231  154.4547 H   0  0  0  0  0  0  0  0  0  0  0  0
  152.0481  134.6707  156.0600 H   0  0  0  0  0  0  0  0  0  0  0  0
  154.0748  141.0029  160.5495 H   0  0  0  0  0  0  0  0  0  0  0  0
  153.6270  139.3952  160.0097 H   0  0  0  0  0  0  0  0  0  0  0  0
  152.4762  140.3657  160.9122 H   0  0  0  0  0  0  0  0  0  0  0  0
  153.5648  141.0160  158.1242 H   0  0  0  0  0  0  0  0  0  0  0  0
  150.7350  140.5554  158.3686 H   0  0  0  0  0  0  0  0  0  0  0  0
  154.3100  137.3183  156.1913 H   0  0  0  0  0  0  0  0  0  0  0  0
  148.2499  136.3352  158.1261 H   0  0  0  0  0  0  0  0  0  0  0  0
  149.4081  133.0884  152.6190 H   0  0  0  0  0  0  0  0  0  0  0  0
  148.4189  132.4179  153.8981 H   0  0  0  0  0  0  0  0  0  0  0  0
  148.1374  134.8708  152.5876 H   0  0  0  0  0  0  0  0  0  0  0  0
  149.9176  131.8555  156.2862 H   0  0  0  0  0  0  0  0  0  0  0  0
  152.7377  132.6754  156.9967 H   0  0  0  0  0  0  0  0  0  0  0  0
  153.3868  142.6261  160.9003 H   0  0  0  0  0  0  0  0  0  0  0  0
  152.7939  144.9925  161.2966 H   0  0  0  0  0  0  0  0  0  0  0  0
  151.3879  146.2209  159.6517 H   0  0  0  0  0  0  0  0  0  0  0  0
  150.5748  145.0670  157.6118 H   0  0  0  0  0  0  0  0  0  0  0  0
  1  2  1  0  0  0  0
  1 33  1  0  0  0  0
  1 34  1  0  0  0  0
  1 35  1  0  0  0  0
  2  3  1  0  0  0  0
  2 22  1  0  0  0  0
  2 36  1  0  0  0  0
  3  4  1  0  0  0  0
  3 37  1  0  0  0  0
  4  9  1  0  0  0  0
  4  5  2  0  0  0  0
  5  6  1  0  0  0  0
  6  7  2  0  0  0  0
  6 38  1  0  0  0  0
  7  8  1  0  0  0  0
  8 12  1  0  0  0  0
  8  9  2  0  0  0  0
  9 10  1  0  0  0  0
 10 11  2  0  0  0  0
 11 12  1  0  0  0  0
 11 39  1  0  0  0  0
 12 13  1  0  0  0  0
 13 29  1  0  0  0  0
 13 20  1  0  0  0  0
 13 14  1  0  0  0  0
 14 15  1  0  0  0  0
 15 30  1  0  0  0  0
 15 16  1  0  0  0  0
 15 18  1  0  0  0  0
 16 17  1  0  0  0  0
 16 40  1  0  0  0  0
 16 41  1  0  0  0  0
 17 42  1  0  0  0  0
 18 31  1  0  0  0  0
 18 19  1  0  0  0  0
 18 20  1  0  0  0  0
 19 43  1  0  0  0  0
 20 32  1  0  0  0  0
 20 21  1  0  0  0  0
 21 44  1  0  0  0  0
 22 27  1  0  0  0  0
 22 23  2  0  0  0  0
 23 24  1  0  0  0  0
 23 45  1  0  0  0  0
 24 25  2  0  0  0  0
 24 46  1  0  0  0  0
 25 26  1  0  0  0  0
 25 47  1  0  0  0  0
 26 27  2  0  0  0  0
 26 48  1  0  0  0  0
 27 28  1  0  0  0  0
M  END
> <s_m_source_file>
AV-unprocessed.smi

> <i_m_source_file_index>
283

> <i_lp_mmshare_version>
43012

> <i_f3d_flags>
0

> <s_epik_input>
Q2xjMVtjSF1bY0hdW2NIXVtjSF1jMVtDQEhdKFtDSDNdKVtOSF1jKG5bY0hdbjIpYyhjMjMpbltjSF1uM1tDQEBIXTRPW0NASF0oW0NIMl1bT0hdKVtDQEBIXShbT0hdKVtDQEhdNFtPSF0=

> <s_epik_cmdline>
J2VwaWtfcHl0aG9uJywgJy1waCcsICc3LjAnLCAnLXRuJywgJzgnLCAnLW1hJywgJzIwMCcsICctbWV0YWxfYmluZGluZycsICctaW1hZScsICc8aW5maWxlLm1hZT4nLCAnLW9tYWUnLCAnPG91dGZpbGUubWFlPic=

> <r_lp_tautomer_probability>
1

> <r_epik_Ionization_Penalty>
0.000266407

> <r_epik_Ionization_Penalty_Charging>
0

> <r_epik_Ionization_Penalty_Neutral>
0.000266407

> <r_epik_State_Penalty>
-0

> <r_epik_Charging_Adjusted_Penalty>
0

> <i_epik_Tot_Q>
0

> <i_epik_Tot_abs_Q>
0

> <r_epik_Metal_State_Penalty>
-0

> <b_epik_Metal_Only>
0

> <s_epik_Chemistry_Notes>
This compound contains an acetal/aminal-like group ( X-CH(R)-Y where X, Y are N, S, or O) that may be acid/base labile, releasing an aldehyde.

> <s_lp_Force_Field>
OPLS_2005

> <r_lp_Energy>
54.2889

> <b_lp_Chiralities_Consistent>
1

> <s_lp_Variant>
AV-unprocessed.smi:283-28

> <Gold.Version>
5.8.1

> <Gold.Id.Protein>
6NUR|6NUR_protein|mol2

> <Gold.PLP.Fitness>
53.0725

> <Gold.PLP.PLP>
-44.2642

> <Gold.PLP.part.hbond>
-4.0000

> <Gold.PLP.part.metal>
0.0000

> <Gold.PLP.part.buried>
-6.6128

> <Gold.PLP.part.nonpolar>
-32.6213

> <Gold.PLP.part.repulsive>
0.1387

> <Gold.PLP.ligand.clash>
0.0000

> <Gold.PLP.ligand.torsion>
1.1276

> <Gold.PLP.Chemscore.Hbond>
3.6500

> <Gold.PLP.Chemscore.CHOScore>
0.0000

> <Gold.PLP.Chemscore.Metal>
0.0000

> <Gold.Chemscore.Hbonds>
donor molecule, donor type, donor heavy atom, donor atom, acceptor molecule, acceptor atom, score
      L1  H    17    42       P1  7948  1.00
      P1  H  6896  6909       L1    21  0.72
      P1  H  7997  8009       L1     5  1.00
      P1  H 10752 10763       L1     7  1.00

> <Gold.PLP.Chemscore.Internal.Correction>
0.1136

> <Gold.Rescore>
     Score         DG    S(hbond)    S(metal)    S(lipo)     H(rot)  DE(clash)    DE(int)     intcor
     14.01     -18.06       2.79        0.00     117.38       4.10       0.24       3.81       ----

> <Gold.Chemscore.Fitness>
14.0080

> <Gold.Chemscore.DG>
-18.0556

> <Gold.Chemscore.ZeroCoef>
-5.4800

> <Gold.Chemscore.Hbond>
2.7935

> <Gold.Chemscore.Metal>
0.0000

> <Gold.Chemscore.Lipo>
117.3787

> <Gold.Chemscore.Internal_Hbond>
0.0000

> <Gold.Chemscore.DEClash>
0.2369

> <Gold.Chemscore.DEInternal>
3.8108

> <Gold.Chemscore.Rot>
4.0968

> <Gold.Chemscore.Internal.Correction>
   9.000000E+99

> <Gold.Chemscore.Hbonds>
donor molecule, donor type, donor heavy atom, donor atom, acceptor molecule, acceptor atom, score
      L1  H    17    42       P1  7948  0.70
      P1  H  6896  6909       L1    21  0.69
      P1  H  7997  8009       L1     5  0.91
      P1  H 10752 10763       L1     7  0.34

> <Gold.Chemscore.Hbond.Weighted>
-9.3303

> <Gold.Chemscore.Metal.Weighted>
-0.0000

> <Gold.Chemscore.Lipo.Weighted>
-13.7333

> <Gold.Chemscore.Internal_Hbond.Weighted>
0.0000

> <Gold.Chemscore.DEClash.Weighted>
0.2369

> <Gold.Chemscore.DEInternal.Weighted>
3.8108

> <Gold.Chemscore.Rot.Weighted>
10.4879

> <Gold.Chemscore.Internal.Correction.Weighted>
   9.000000E+99

> <Gold.Protein.RotatedTorsions>
[ 6907 6896 6895 6894 ] final  -46.73 input  -60.11 | X-H torsion
[ 7974 7965 7964 7962 ] final  -53.75 input  175.53 | X-H torsion
[ 8008 7997 7996 7995 ] final  177.66 input   59.86 | X-H torsion
[ 10167 10162 10161 10158 ] final   64.07 input  -65.29 | X-H torsion
[ 10718 10713 10712 10709 ] final -175.68 input   66.30 | X-H torsion
[ 10763 10752 10751 10750 ] final   87.07 input  -60.55 | X-H torsion
[ 11005 11000 10999 10996 ] final -145.43 input  -57.11 | X-H torsion

> <Gold.Protein.ActiveResidues>
 VAL166  LYS551  ARG553  GLY616  TRP617  ASP618  TYR619  PRO620  LYS621  CYS622 
 ASP623  PHE694  ASN695  SER759  ASP760  ASP761  ALA762  ILE779  LEU786  VAL792 
 PHE793  MET794  SER795  GLU796  ALA797  LYS798  CYS799  TRP800  GLU811  SER814 

> <Gold.Protein.RotatedAtoms>
  150.9082  134.8497  159.7406 H   0  0  0  0  0  0  0  0  0  0  0  0  # atno 6907 bound_to 6896
  152.4930  134.4400  159.9550 H   0  0  0  0  0  0  0  0  0  0  0  0  # atno 6908 bound_to 6896
  151.4445  133.3595  159.2821 H   0  0  0  0  0  0  0  0  0  0  0  0  # atno 6909 bound_to 6896
  145.8933  140.8053  142.9780 H   0  0  0  0  0  0  0  0  0  0  0  0  # atno 7974 bound_to 7965
  156.0632  140.1353  156.9916 H   0  0  0  0  0  0  0  0  0  0  0  0  # atno 8008 bound_to 7997
  154.4493  140.0987  156.6620 H   0  0  0  0  0  0  0  0  0  0  0  0  # atno 8009 bound_to 7997
  155.5344  140.3459  155.4435 H   0  0  0  0  0  0  0  0  0  0  0  0  # atno 8010 bound_to 7997
  140.1262  144.4686  150.6891 H   0  0  0  0  0  0  0  0  0  0  0  0  # atno 10167 bound_to 10162
  156.8035  130.9560  151.3118 H   0  0  0  0  0  0  0  0  0  0  0  0  # atno 10718 bound_to 10713
  153.1632  135.4557  154.9801 H   0  0  0  0  0  0  0  0  0  0  0  0  # atno 10763 bound_to 10752
  154.7913  135.3221  154.7774 H   0  0  0  0  0  0  0  0  0  0  0  0  # atno 10764 bound_to 10752
  153.8260  135.6942  153.4875 H   0  0  0  0  0  0  0  0  0  0  0  0  # atno 10765 bound_to 10752
  140.7923  134.2954  157.5009 H   0  0  0  0  0  0  0  0  0  0  0  0  # atno 11005 bound_to 11000
  144.6731  140.1563  143.7426 LP  0  0  0  0  0  0  0  0  0  0  0  0  # atno 17320 bound_to 7965
  145.8882  139.2360  143.1565 LP  0  0  0  0  0  0  0  0  0  0  0  0  # atno 17321 bound_to 7965
  140.6844  143.2342  151.5300 LP  0  0  0  0  0  0  0  0  0  0  0  0  # atno 17342 bound_to 10162
  139.5543  144.2315  152.1585 LP  0  0  0  0  0  0  0  0  0  0  0  0  # atno 17343 bound_to 10162
  157.6542  130.8910  149.9694 LP  0  0  0  0  0  0  0  0  0  0  0  0  # atno 17370 bound_to 10713
  156.1087  130.3651  150.0087 LP  0  0  0  0  0  0  0  0  0  0  0  0  # atno 17371 bound_to 10713
  139.8730  134.9382  156.3707 LP  0  0  0  0  0  0  0  0  0  0  0  0  # atno 17394 bound_to 11000
  140.9377  133.7536  156.0106 LP  0  0  0  0  0  0  0  0  0  0  0  0  # atno 17395 bound_to 11000

$$$$
