AV-unprocessed.smi:2062|AV-procd|sdf|8404|dock10
  -GOLD-   2272011 93D 1   1.00000     0.00000
 Structure written by MMmdl.
 42 43  0  0  0  0  0  0  0  0  3 V2000
  146.3789  132.5305  149.6763 C   0  0  0  0  0  0  0  0  0  0  0  0
  145.9285  132.6051  151.1448 C   0  0  0  0  0  0  0  0  0  0  0  0
  144.5270  133.2258  151.2436 C   0  0  0  0  0  0  0  0  0  0  0  0
  146.9318  133.3925  152.0148 C   0  0  0  0  0  0  0  0  0  0  0  0
  146.5091  133.4950  153.4381 N   0  3  1  0  0  0  0  0  0  0  0  0
  146.3512  132.1808  154.1072 C   0  0  0  0  0  0  0  0  0  0  0  0
  147.7162  131.5922  154.5040 C   0  0  0  0  0  0  0  0  0  0  0  0
  148.3989  132.5170  155.3400 O   0  0  0  0  0  0  0  0  0  0  0  0
  148.6747  133.7497  154.6811 C   0  0  2  0  0  0  0  0  0  0  0  0
  149.4755  134.6407  155.6395 C   0  0  0  0  0  0  0  0  0  0  0  0
  149.6081  135.9850  155.0956 N   0  0  0  0  0  0  0  0  0  0  0  0
  150.3639  136.9576  155.6191 C   0  0  0  0  0  0  0  0  0  0  0  0
  151.0142  136.7442  156.6448 O   0  0  0  0  0  0  0  0  0  0  0  0
  150.3169  138.1144  154.9211 N   0  5  0  0  0  0  0  0  0  0  0  0
  150.1211  139.2786  155.5616 C   0  0  0  0  0  0  0  0  0  0  0  0
  149.9282  140.4385  154.9230 N   0  0  0  0  0  0  0  0  0  0  0  0
  149.7382  141.5211  155.7837 C   0  0  0  0  0  0  0  0  0  0  0  0
  149.7775  141.1759  157.1086 C   0  0  0  0  0  0  0  0  0  0  0  0
  150.0569  139.4704  157.3160 S   0  0  0  0  0  0  0  0  0  0  0  0
  147.3371  134.4054  154.2710 C   0  0  0  0  0  0  0  0  0  0  0  0
  146.4729  133.5251  149.2390 H   0  0  0  0  0  0  0  0  0  0  0  0
  145.6616  131.9712  149.0747 H   0  0  0  0  0  0  0  0  0  0  0  0
  147.3426  132.0305  149.5775 H   0  0  0  0  0  0  0  0  0  0  0  0
  145.8472  131.5863  151.5223 H   0  0  0  0  0  0  0  0  0  0  0  0
  144.5204  134.2531  150.8772 H   0  0  0  0  0  0  0  0  0  0  0  0
  144.1734  133.2382  152.2750 H   0  0  0  0  0  0  0  0  0  0  0  0
  143.8032  132.6591  150.6570 H   0  0  0  0  0  0  0  0  0  0  0  0
  147.8967  132.8867  151.9578 H   0  0  0  0  0  0  0  0  0  0  0  0
  147.0945  134.3876  151.6010 H   0  0  0  0  0  0  0  0  0  0  0  0
  145.7480  132.3238  155.0047 H   0  0  0  0  0  0  0  0  0  0  0  0
  145.7961  131.4875  153.4744 H   0  0  0  0  0  0  0  0  0  0  0  0
  147.5768  130.6607  155.0528 H   0  0  0  0  0  0  0  0  0  0  0  0
  148.3192  131.3558  153.6259 H   0  0  0  0  0  0  0  0  0  0  0  0
  149.2855  133.5596  153.7972 H   0  0  0  0  0  0  0  0  0  0  0  0
  148.9689  134.6973  156.6043 H   0  0  0  0  0  0  0  0  0  0  0  0
  150.4653  134.2174  155.8172 H   0  0  0  0  0  0  0  0  0  0  0  0
  149.0954  136.1957  154.2519 H   0  0  0  0  0  0  0  0  0  0  0  0
  149.5799  142.5041  155.3655 H   0  0  0  0  0  0  0  0  0  0  0  0
  149.6591  141.8156  157.9699 H   0  0  0  0  0  0  0  0  0  0  0  0
  147.5139  135.3513  153.7604 H   0  0  0  0  0  0  0  0  0  0  0  0
  146.7663  134.6494  155.1682 H   0  0  0  0  0  0  0  0  0  0  0  0
  145.5830  133.8970  153.4053 H   0  0  0  0  0  0  0  0  0  0  0  0
  1  2  1  0  0  0  0
  1 21  1  0  0  0  0
  1 22  1  0  0  0  0
  1 23  1  0  0  0  0
  2  3  1  0  0  0  0
  2  4  1  0  0  0  0
  2 24  1  0  0  0  0
  3 25  1  0  0  0  0
  3 26  1  0  0  0  0
  3 27  1  0  0  0  0
  4  5  1  0  0  0  0
  4 28  1  0  0  0  0
  4 29  1  0  0  0  0
  5 20  1  0  0  0  0
  5  6  1  0  0  0  0
  5 42  1  0  0  0  0
  6  7  1  0  0  0  0
  6 30  1  0  0  0  0
  6 31  1  0  0  0  0
  7  8  1  0  0  0  0
  7 32  1  0  0  0  0
  7 33  1  0  0  0  0
  8  9  1  0  0  0  0
  9 10  1  0  0  0  0
  9 20  1  0  0  0  0
  9 34  1  0  0  0  0
 10 11  1  0  0  0  0
 10 35  1  0  0  0  0
 10 36  1  0  0  0  0
 11 12  1  0  0  0  0
 11 37  1  0  0  0  0
 12 13  2  0  0  0  0
 12 14  1  0  0  0  0
 14 15  1  0  0  0  0
 15 19  1  0  0  0  0
 15 16  2  0  0  0  0
 16 17  1  0  0  0  0
 17 18  2  0  0  0  0
 17 38  1  0  0  0  0
 18 19  1  0  0  0  0
 18 39  1  0  0  0  0
 20 40  1  0  0  0  0
 20 41  1  0  0  0  0
M  CHG  1   5   1
M  CHG  1  14  -1
M  END
> <s_m_source_file>
AV-unprocessed.smi

> <i_m_source_file_index>
2062

> <i_lp_mmshare_version>
43012

> <i_f3d_flags>
0

> <s_epik_input>
W0NIM11bQ0hdKFtDSDNdKVtDSDJdTjFbQ0gyXVtDSDJdT1tDQEhdKFtDSDJdMSlbQ0gyXVtOSF1DKD1PKVtOSF1jMm5bY0hdW2NIXXMy

> <s_epik_cmdline>
J2VwaWtfcHl0aG9uJywgJy1waCcsICc3LjAnLCAnLXRuJywgJzgnLCAnLW1hJywgJzIwMCcsICctbWV0YWxfYmluZGluZycsICctaW1hZScsICc8aW5maWxlLm1hZT4nLCAnLW9tYWUnLCAnPG91dGZpbGUubWFlPic=

> <r_lp_tautomer_probability>
0.999

> <r_epik_Ionization_Penalty>
6.35835

> <r_epik_Ionization_Penalty_Charging>
5.49938

> <r_epik_Ionization_Penalty_Neutral>
0.858963

> <r_epik_State_Penalty>
5.49328

> <r_epik_Charging_Adjusted_Penalty>
10.9927

> <i_epik_Tot_Q>
0

> <i_epik_Tot_abs_Q>
2

> <r_epik_Metal_State_Penalty>
1.51523

> <b_epik_Metal_Only>
1

> <s_lp_Force_Field>
OPLS_2005

> <r_lp_Energy>
10.2516

> <b_lp_Chiralities_Consistent>
1

> <s_lp_Variant>
AV-unprocessed.smi:2062-9

> <Gold.Version>
5.8.1

> <Gold.Id.Protein>
6NUR|6NUR_protein|mol2

> <Gold.PLP.Fitness>
44.2443

> <Gold.PLP.PLP>
-33.4298

> <Gold.PLP.part.hbond>
-3.8481

> <Gold.PLP.part.metal>
0.0000

> <Gold.PLP.part.buried>
-3.6463

> <Gold.PLP.part.nonpolar>
-25.6955

> <Gold.PLP.part.repulsive>
0.4773

> <Gold.PLP.ligand.clash>
0.0000

> <Gold.PLP.ligand.torsion>
0.5061

> <Gold.PLP.Chemscore.Hbond>
2.9040

> <Gold.PLP.Chemscore.CHOScore>
1.0000

> <Gold.PLP.Chemscore.Metal>
0.0000

> <Gold.Chemscore.Hbonds>
donor molecule, donor type, donor heavy atom, donor atom, acceptor molecule, acceptor atom, score
      L1  H    11    37       P1  7948  0.13
      P1  H  7989  7998       L1    16  0.41
      L1  C    17    38       P1  8028  1.00

> <Gold.PLP.Chemscore.Internal.Correction>
0.1146

> <Gold.Rescore>
     Score         DG    S(hbond)    S(metal)    S(lipo)     H(rot)  DE(clash)    DE(int)     intcor
     16.21     -17.07       2.44        0.00      67.01       1.72       0.08       0.79       ----

> <Gold.Chemscore.Fitness>
16.2094

> <Gold.Chemscore.DG>
-17.0732

> <Gold.Chemscore.ZeroCoef>
-5.4800

> <Gold.Chemscore.Hbond>
2.4416

> <Gold.Chemscore.Metal>
0.0000

> <Gold.Chemscore.Lipo>
67.0086

> <Gold.Chemscore.Internal_Hbond>
0.0000

> <Gold.Chemscore.DEClash>
0.0757

> <Gold.Chemscore.DEInternal>
0.7880

> <Gold.Chemscore.Rot>
1.7194

> <Gold.Chemscore.Internal.Correction>
   9.000000E+99

> <Gold.Chemscore.Hbonds>
donor molecule, donor type, donor heavy atom, donor atom, acceptor molecule, acceptor atom, score
      L1  H    11    37       P1  7948  0.14
      P1  H  7989  7998       L1    16  0.24

> <Gold.Chemscore.Hbond.Weighted>
-8.1549

> <Gold.Chemscore.Metal.Weighted>
-0.0000

> <Gold.Chemscore.Lipo.Weighted>
-7.8400

> <Gold.Chemscore.Internal_Hbond.Weighted>
0.0000

> <Gold.Chemscore.DEClash.Weighted>
0.0757

> <Gold.Chemscore.DEInternal.Weighted>
0.7880

> <Gold.Chemscore.Rot.Weighted>
4.4017

> <Gold.Chemscore.Internal.Correction.Weighted>
   9.000000E+99

> <Gold.Protein.RotatedTorsions>
[ 6907 6896 6895 6894 ] final  144.75 input  -60.11 | X-H torsion
[ 7974 7965 7964 7962 ] final -128.02 input  175.53 | X-H torsion
[ 8008 7997 7996 7995 ] final -158.45 input   59.86 | X-H torsion
[ 10167 10162 10161 10158 ] final   32.18 input  -65.29 | X-H torsion
[ 10718 10713 10712 10709 ] final  -83.13 input   66.30 | X-H torsion
[ 10763 10752 10751 10750 ] final  -38.14 input  -60.55 | X-H torsion
[ 11005 11000 10999 10996 ] final  -23.51 input  -57.11 | X-H torsion

> <Gold.Protein.ActiveResidues>
 VAL166  LYS551  ARG553  GLY616  TRP617  ASP618  TYR619  PRO620  LYS621  CYS622 
 ASP623  PHE694  ASN695  SER759  ASP760  ASP761  ALA762  ILE779  LEU786  VAL792 
 PHE793  MET794  SER795  GLU796  ALA797  LYS798  CYS799  TRP800  GLU811  SER814 

> <Gold.Protein.RotatedAtoms>
  152.1896  133.4764  159.5000 H   0  0  0  0  0  0  0  0  0  0  0  0  # atno 6907 bound_to 6896
  150.6949  134.1729  159.4228 H   0  0  0  0  0  0  0  0  0  0  0  0  # atno 6908 bound_to 6896
  151.9643  135.0108  160.0600 H   0  0  0  0  0  0  0  0  0  0  0  0  # atno 6909 bound_to 6896
  144.9712  140.7547  143.4669 H   0  0  0  0  0  0  0  0  0  0  0  0  # atno 7974 bound_to 7965
  155.7477  140.0822  157.2216 H   0  0  0  0  0  0  0  0  0  0  0  0  # atno 8008 bound_to 7997
  154.4015  140.1566  156.2744 H   0  0  0  0  0  0  0  0  0  0  0  0  # atno 8009 bound_to 7997
  155.8960  140.3412  155.5994 H   0  0  0  0  0  0  0  0  0  0  0  0  # atno 8010 bound_to 7997
  140.4522  144.1031  150.6194 H   0  0  0  0  0  0  0  0  0  0  0  0  # atno 10167 bound_to 10162
  156.0023  130.4656  150.4211 H   0  0  0  0  0  0  0  0  0  0  0  0  # atno 10718 bound_to 10713
  153.9078  135.6795  153.4752 H   0  0  0  0  0  0  0  0  0  0  0  0  # atno 10763 bound_to 10752
  153.1094  135.4790  154.9006 H   0  0  0  0  0  0  0  0  0  0  0  0  # atno 10764 bound_to 10752
  154.7542  135.3193  154.8456 H   0  0  0  0  0  0  0  0  0  0  0  0  # atno 10765 bound_to 10752
  140.8758  133.7688  156.0242 H   0  0  0  0  0  0  0  0  0  0  0  0  # atno 11005 bound_to 11000
  145.2556  139.2013  143.4919 LP  0  0  0  0  0  0  0  0  0  0  0  0  # atno 17320 bound_to 7965
  146.3382  140.2476  142.8597 LP  0  0  0  0  0  0  0  0  0  0  0  0  # atno 17321 bound_to 7965
  140.4194  143.2619  151.9735 LP  0  0  0  0  0  0  0  0  0  0  0  0  # atno 17342 bound_to 10162
  139.4798  144.5845  151.7877 LP  0  0  0  0  0  0  0  0  0  0  0  0  # atno 17343 bound_to 10162
  157.2267  131.0495  151.2516 LP  0  0  0  0  0  0  0  0  0  0  0  0  # atno 17370 bound_to 10713
  157.3750  130.7201  149.6590 LP  0  0  0  0  0  0  0  0  0  0  0  0  # atno 17371 bound_to 10713
  140.8519  134.2943  157.5271 LP  0  0  0  0  0  0  0  0  0  0  0  0  # atno 17394 bound_to 11000
  139.8715  134.9472  156.3961 LP  0  0  0  0  0  0  0  0  0  0  0  0  # atno 17395 bound_to 11000

$$$$
