AV-unprocessed.smi:133|AV-procd|sdf|1166|dock10
  -GOLD-   2262018303D 1   1.00000     0.00000
 Structure written by MMmdl.
 47 50  0  0  0  0  0  0  0  0  1 V2000
  156.3086  140.5487  162.2392 O   0  0  0  0  0  0  0  0  0  0  0  0
  155.3363  140.4068  162.9793 C   0  0  0  0  0  0  0  0  0  0  0  0
  155.5362  139.6534  164.3073 C   0  0  0  0  0  0  0  0  0  0  0  0
  155.8894  140.5008  165.4703 N   0  0  0  0  0  0  0  0  0  0  0  0
  156.9438  140.0829  166.3206 C   0  0  0  0  0  0  0  0  0  0  0  0
  157.5575  139.0362  166.1085 O   0  0  0  0  0  0  0  0  0  0  0  0
  157.2296  140.9612  167.4498 C   0  0  0  0  0  0  0  0  0  0  0  0
  158.2064  140.6381  168.3140 F   0  0  0  0  0  0  0  0  0  0  0  0
  156.5223  142.0929  167.6449 C   0  0  0  0  0  0  0  0  0  0  0  0
  155.4998  142.4906  166.8040 N   0  0  0  0  0  0  0  0  0  0  0  0
  154.7256  143.7613  167.0682 C   0  0  1  0  0  0  0  0  0  0  0  0
  153.2819  143.4316  167.4669 C   0  0  0  0  0  0  0  0  0  0  0  0
  153.3318  143.5529  168.9754 C   0  0  0  0  0  0  0  0  0  0  0  0
  154.3576  144.6641  169.1597 C   0  0  0  0  0  0  0  0  0  0  0  0
  155.3220  144.4387  168.1371 O   0  0  0  0  0  0  0  0  0  0  0  0
  155.1481  141.6847  165.6995 C   0  0  0  0  0  0  0  0  0  0  0  0
  154.2101  141.9972  164.9632 O   0  0  0  0  0  0  0  0  0  0  0  0
  154.0968  140.8522  162.6915 N   0  0  0  0  0  0  0  0  0  0  0  0
  153.6484  141.5536  161.5409 C   0  0  0  0  0  0  0  0  0  0  0  0
  154.3235  141.5145  160.2889 C   0  0  0  0  0  0  0  0  0  0  0  0
  153.8348  142.2440  159.1828 C   0  0  0  0  0  0  0  0  0  0  0  0
  152.6739  143.0164  159.3529 C   0  0  0  0  0  0  0  0  0  0  0  0
  152.0213  143.0736  160.5770 C   0  0  0  0  0  0  0  0  0  0  0  0
  152.4928  142.3554  161.6893 C   0  0  0  0  0  0  0  0  0  0  0  0
  150.8115  143.9657  160.5187 C   0  0  0  0  0  0  0  0  0  0  0  0
  150.8944  144.6146  159.1157 C   0  0  0  0  0  0  0  0  0  0  0  0
  151.9847  143.8606  158.3162 C   0  0  0  0  0  0  0  0  0  0  0  0
  154.6283  139.0827  164.5089 H   0  0  0  0  0  0  0  0  0  0  0  0
  156.2922  138.8834  164.1459 H   0  0  0  0  0  0  0  0  0  0  0  0
  156.7707  142.7032  168.5007 H   0  0  0  0  0  0  0  0  0  0  0  0
  154.8042  144.3710  166.1669 H   0  0  0  0  0  0  0  0  0  0  0  0
  152.6230  144.1908  167.0441 H   0  0  0  0  0  0  0  0  0  0  0  0
  152.9645  142.4507  167.1102 H   0  0  0  0  0  0  0  0  0  0  0  0
  152.3637  143.7885  169.4183 H   0  0  0  0  0  0  0  0  0  0  0  0
  153.6951  142.6249  169.4186 H   0  0  0  0  0  0  0  0  0  0  0  0
  153.8956  145.6397  169.0011 H   0  0  0  0  0  0  0  0  0  0  0  0
  154.8133  144.6587  170.1502 H   0  0  0  0  0  0  0  0  0  0  0  0
  153.3743  140.5880  163.3450 H   0  0  0  0  0  0  0  0  0  0  0  0
  155.2271  140.9395  160.1579 H   0  0  0  0  0  0  0  0  0  0  0  0
  154.3444  142.2114  158.2311 H   0  0  0  0  0  0  0  0  0  0  0  0
  151.9730  142.4106  162.6350 H   0  0  0  0  0  0  0  0  0  0  0  0
  149.9103  143.3608  160.6225 H   0  0  0  0  0  0  0  0  0  0  0  0
  150.8275  144.7087  161.3166 H   0  0  0  0  0  0  0  0  0  0  0  0
  149.9325  144.6304  158.6025 H   0  0  0  0  0  0  0  0  0  0  0  0
  151.2086  145.6524  159.2335 H   0  0  0  0  0  0  0  0  0  0  0  0
  152.6837  144.5419  157.8300 H   0  0  0  0  0  0  0  0  0  0  0  0
  151.5432  143.2133  157.5579 H   0  0  0  0  0  0  0  0  0  0  0  0
  1  2  2  0  0  0  0
  2  3  1  0  0  0  0
  2 18  1  0  0  0  0
  3  4  1  0  0  0  0
  3 28  1  0  0  0  0
  3 29  1  0  0  0  0
  4 16  1  0  0  0  0
  4  5  1  0  0  0  0
  5  6  2  0  0  0  0
  5  7  1  0  0  0  0
  7  8  1  0  0  0  0
  7  9  2  0  0  0  0
  9 10  1  0  0  0  0
  9 30  1  0  0  0  0
 10 11  1  0  0  0  0
 10 16  1  0  0  0  0
 11 15  1  0  0  0  0
 11 12  1  0  0  0  0
 11 31  1  0  0  0  0
 12 13  1  0  0  0  0
 12 32  1  0  0  0  0
 12 33  1  0  0  0  0
 13 14  1  0  0  0  0
 13 34  1  0  0  0  0
 13 35  1  0  0  0  0
 14 15  1  0  0  0  0
 14 36  1  0  0  0  0
 14 37  1  0  0  0  0
 16 17  2  0  0  0  0
 18 19  1  0  0  0  0
 18 38  1  0  0  0  0
 19 24  1  0  0  0  0
 19 20  2  0  0  0  0
 20 21  1  0  0  0  0
 20 39  1  0  0  0  0
 21 22  2  0  0  0  0
 21 40  1  0  0  0  0
 22 27  1  0  0  0  0
 22 23  1  0  0  0  0
 23 24  2  0  0  0  0
 23 25  1  0  0  0  0
 24 41  1  0  0  0  0
 25 26  1  0  0  0  0
 25 42  1  0  0  0  0
 25 43  1  0  0  0  0
 26 27  1  0  0  0  0
 26 44  1  0  0  0  0
 26 45  1  0  0  0  0
 27 46  1  0  0  0  0
 27 47  1  0  0  0  0
M  END
> <s_m_source_file>
AV-unprocessed.smi

> <i_m_source_file_index>
133

> <i_lp_mmshare_version>
43012

> <i_f3d_flags>
0

> <s_epik_input>
W0NIMl0xW0NIMl1bQ0gyXWMoYzEyKVtjSF1jKFtjSF1bY0hdMilbTkhdQyg9TylbQ0gyXW4zYyg9TyljKEYpW2NIXW4oYzM9TylbQ0BASF00W0NIMl1bQ0gyXVtDSDJdTzQ=

> <s_epik_cmdline>
J2VwaWtfcHl0aG9uJywgJy1waCcsICc3LjAnLCAnLXRuJywgJzgnLCAnLW1hJywgJzIwMCcsICctbWV0YWxfYmluZGluZycsICctaW1hZScsICc8aW5maWxlLm1hZT4nLCAnLW9tYWUnLCAnPG91dGZpbGUubWFlPic=

> <r_lp_tautomer_probability>
1

> <r_epik_Ionization_Penalty>
4.05675e-06

> <r_epik_Ionization_Penalty_Charging>
3.88729e-08

> <r_epik_Ionization_Penalty_Neutral>
4.01788e-06

> <r_epik_State_Penalty>
-0

> <r_epik_Charging_Adjusted_Penalty>
3.88729e-08

> <i_epik_Tot_Q>
0

> <i_epik_Tot_abs_Q>
0

> <r_epik_Metal_State_Penalty>
-0

> <b_epik_Metal_Only>
0

> <s_epik_Chemistry_Notes>
This compound contains an acetal/aminal-like group ( X-CH(R)-Y where X, Y are N, S, or O) that may be acid/base labile, releasing an aldehyde.

> <s_lp_Force_Field>
OPLS_2005

> <r_lp_Energy>
47.0615

> <b_lp_Chiralities_Consistent>
1

> <s_lp_Variant>
AV-unprocessed.smi:133-2

> <Gold.Version>
5.8.1

> <Gold.Id.Protein>
6NUR|6NUR_protein|mol2

> <Gold.PLP.Fitness>
49.4265

> <Gold.PLP.PLP>
-50.8880

> <Gold.PLP.part.hbond>
-1.9334

> <Gold.PLP.part.metal>
0.0000

> <Gold.PLP.part.buried>
-4.1155

> <Gold.PLP.part.nonpolar>
-45.2349

> <Gold.PLP.part.repulsive>
0.0360

> <Gold.PLP.ligand.clash>
0.0000

> <Gold.PLP.ligand.torsion>
0.7406

> <Gold.PLP.Chemscore.Hbond>
0.0000

> <Gold.PLP.Chemscore.CHOScore>
0.0000

> <Gold.PLP.Chemscore.Metal>
0.0000

> <Gold.PLP.Chemscore.Internal.Correction>
0.0198

> <Gold.Rescore>
     Score         DG    S(hbond)    S(metal)    S(lipo)     H(rot)  DE(clash)    DE(int)     intcor
     12.50     -17.38       0.00        0.00     136.44       1.59       1.50       3.38       ----

> <Gold.Chemscore.Fitness>
12.4975

> <Gold.Chemscore.DG>
-17.3810

> <Gold.Chemscore.ZeroCoef>
-5.4800

> <Gold.Chemscore.Hbond>
0.0000

> <Gold.Chemscore.Metal>
0.0000

> <Gold.Chemscore.Lipo>
136.4392

> <Gold.Chemscore.Internal_Hbond>
0.0000

> <Gold.Chemscore.DEClash>
1.5024

> <Gold.Chemscore.DEInternal>
3.3810

> <Gold.Chemscore.Rot>
1.5869

> <Gold.Chemscore.Internal.Correction>
   9.000000E+99

> <Gold.Chemscore.Hbond.Weighted>
-0.0000

> <Gold.Chemscore.Metal.Weighted>
-0.0000

> <Gold.Chemscore.Lipo.Weighted>
-15.9634

> <Gold.Chemscore.Internal_Hbond.Weighted>
0.0000

> <Gold.Chemscore.DEClash.Weighted>
1.5024

> <Gold.Chemscore.DEInternal.Weighted>
3.3810

> <Gold.Chemscore.Rot.Weighted>
4.0624

> <Gold.Chemscore.Internal.Correction.Weighted>
   9.000000E+99

> <Gold.Protein.RotatedTorsions>
[ 6907 6896 6895 6894 ] final   68.06 input  -60.11 | X-H torsion
[ 7974 7965 7964 7962 ] final   71.49 input  175.53 | X-H torsion
[ 8008 7997 7996 7995 ] final  160.29 input   59.86 | X-H torsion
[ 10167 10162 10161 10158 ] final   61.95 input  -65.29 | X-H torsion
[ 10718 10713 10712 10709 ] final -143.28 input   66.30 | X-H torsion
[ 10763 10752 10751 10750 ] final  176.95 input  -60.55 | X-H torsion
[ 11005 11000 10999 10996 ] final  -99.02 input  -57.11 | X-H torsion

> <Gold.Protein.ActiveResidues>
 VAL166  LYS551  ARG553  GLY616  TRP617  ASP618  TYR619  PRO620  LYS621  CYS622 
 ASP623  PHE694  ASN695  SER759  ASP760  ASP761  ALA762  ILE779  LEU786  VAL792 
 PHE793  MET794  SER795  GLU796  ALA797  LYS798  CYS799  TRP800  GLU811  SER814 

> <Gold.Protein.RotatedAtoms>
  152.4595  134.5216  159.9784 H   0  0  0  0  0  0  0  0  0  0  0  0  # atno 6907 bound_to 6896
  151.5269  133.3450  159.2919 H   0  0  0  0  0  0  0  0  0  0  0  0  # atno 6908 bound_to 6896
  150.8552  134.7919  159.7102 H   0  0  0  0  0  0  0  0  0  0  0  0  # atno 6909 bound_to 6896
  145.7651  139.2818  143.1353 H   0  0  0  0  0  0  0  0  0  0  0  0  # atno 7974 bound_to 7965
  156.2182  140.1808  156.7538 H   0  0  0  0  0  0  0  0  0  0  0  0  # atno 8008 bound_to 7997
  154.5825  140.0664  156.9153 H   0  0  0  0  0  0  0  0  0  0  0  0  # atno 8009 bound_to 7997
  155.2478  140.3326  155.4288 H   0  0  0  0  0  0  0  0  0  0  0  0  # atno 8010 bound_to 7997
  140.1492  144.4479  150.6768 H   0  0  0  0  0  0  0  0  0  0  0  0  # atno 10167 bound_to 10162
  156.3560  130.7713  151.1873 H   0  0  0  0  0  0  0  0  0  0  0  0  # atno 10718 bound_to 10713
  154.4880  135.2778  155.1519 H   0  0  0  0  0  0  0  0  0  0  0  0  # atno 10763 bound_to 10752
  154.3202  135.6211  153.5508 H   0  0  0  0  0  0  0  0  0  0  0  0  # atno 10764 bound_to 10752
  152.9884  135.5741  154.5295 H   0  0  0  0  0  0  0  0  0  0  0  0  # atno 10765 bound_to 10752
  141.1324  133.8290  157.0917 H   0  0  0  0  0  0  0  0  0  0  0  0  # atno 11005 bound_to 11000
  146.0225  140.8334  142.9916 LP  0  0  0  0  0  0  0  0  0  0  0  0  # atno 17320 bound_to 7965
  144.6823  140.2650  143.7314 LP  0  0  0  0  0  0  0  0  0  0  0  0  # atno 17321 bound_to 7965
  140.6713  143.2287  151.5618 LP  0  0  0  0  0  0  0  0  0  0  0  0  # atno 17342 bound_to 10162
  139.5434  144.2586  152.1396 LP  0  0  0  0  0  0  0  0  0  0  0  0  # atno 17343 bound_to 10162
  157.7467  131.0414  150.4643 LP  0  0  0  0  0  0  0  0  0  0  0  0  # atno 17370 bound_to 10713
  156.4846  130.4081  149.6442 LP  0  0  0  0  0  0  0  0  0  0  0  0  # atno 17371 bound_to 10713
  140.0388  134.9864  157.0923 LP  0  0  0  0  0  0  0  0  0  0  0  0  # atno 17394 bound_to 11000
  140.4168  134.1923  155.7163 LP  0  0  0  0  0  0  0  0  0  0  0  0  # atno 17395 bound_to 11000

$$$$
