AV-unprocessed.smi:415|AV-procd|sdf|2525|dock4
  -GOLD-   2262022483D 1   1.00000     0.00000
 Structure written by MMmdl.
 53 54  0  0  0  0  0  0  0  0  1 V2000
  152.1138  132.2180  157.7203 C   0  0  0  0  0  0  0  0  0  0  0  0
  151.7024  133.5510  157.9658 O   0  0  0  0  0  0  0  0  0  0  0  0
  152.7777  134.4729  157.8993 C   0  0  0  0  0  0  0  0  0  0  0  0
  153.7580  134.2011  159.0526 C   0  0  0  0  0  0  0  0  0  0  0  0
  154.5262  135.3708  159.4370 N   0  0  0  0  0  0  0  0  0  0  0  0
  155.9096  135.4599  159.3056 C   0  0  0  0  0  0  0  0  0  0  0  0
  156.6216  134.3849  158.8048 N   0  0  0  0  0  0  0  0  0  0  0  0
  156.5809  136.5749  159.6701 C   0  0  0  0  0  0  0  0  0  0  0  0
  155.9004  137.7372  160.2243 C   0  0  0  0  0  0  0  0  0  0  0  0
  156.4923  138.7692  160.5415 O   0  0  0  0  0  0  0  0  0  0  0  0
  154.5003  137.6138  160.3760 N   0  0  0  0  0  0  0  0  0  0  0  0
  153.7348  138.7545  160.9256 C   0  0  0  0  0  0  0  0  0  0  0  0
  153.3999  139.8169  159.8687 C   0  0  0  0  0  0  0  0  0  0  0  0
  153.6165  139.6085  158.6742 O   0  0  0  0  0  0  0  0  0  0  0  0
  152.8776  140.9620  160.3328 N   0  0  0  0  0  0  0  0  0  0  0  0
  152.4758  142.1040  159.5141 C   0  0  1  0  0  0  0  0  0  0  0  0
  151.5001  141.6342  158.4141 C   0  0  0  0  0  0  0  0  0  0  0  0
  150.9806  142.8058  157.5700 C   0  0  0  0  0  0  0  0  0  0  0  0
  150.3396  143.8857  158.4554 C   0  0  0  0  0  0  0  0  0  0  0  0
  151.3038  144.3908  159.5481 C   0  0  2  0  0  0  0  0  0  0  0  0
  152.4137  145.2852  158.9580 C   0  0  0  0  0  0  0  0  0  0  0  0
  151.8289  143.2024  160.3977 C   0  0  2  0  0  0  0  0  0  0  0  0
  152.7411  143.6632  161.5518 C   0  0  0  0  0  0  0  0  0  0  0  0
  153.7945  136.4496  159.9956 C   0  0  0  0  0  0  0  0  0  0  0  0
  152.5709  136.3861  160.1476 O   0  0  0  0  0  0  0  0  0  0  0  0
  151.2534  131.5524  157.7855 H   0  0  0  0  0  0  0  0  0  0  0  0
  152.8500  131.8901  158.4552 H   0  0  0  0  0  0  0  0  0  0  0  0
  152.5439  132.1150  156.7230 H   0  0  0  0  0  0  0  0  0  0  0  0
  153.2975  134.3572  156.9473 H   0  0  0  0  0  0  0  0  0  0  0  0
  152.4046  135.4975  157.9404 H   0  0  0  0  0  0  0  0  0  0  0  0
  153.2385  133.8406  159.9395 H   0  0  0  0  0  0  0  0  0  0  0  0
  154.4680  133.4105  158.8035 H   0  0  0  0  0  0  0  0  0  0  0  0
  156.1635  133.5284  158.5287 H   0  0  0  0  0  0  0  0  0  0  0  0
  157.5917  134.4755  158.5385 H   0  0  0  0  0  0  0  0  0  0  0  0
  157.6545  136.6144  159.5518 H   0  0  0  0  0  0  0  0  0  0  0  0
  152.8125  138.4012  161.3908 H   0  0  0  0  0  0  0  0  0  0  0  0
  154.2679  139.2466  161.7399 H   0  0  0  0  0  0  0  0  0  0  0  0
  152.7392  141.0480  161.3292 H   0  0  0  0  0  0  0  0  0  0  0  0
  153.3663  142.5212  159.0413 H   0  0  0  0  0  0  0  0  0  0  0  0
  151.9867  140.9073  157.7626 H   0  0  0  0  0  0  0  0  0  0  0  0
  150.6540  141.1179  158.8702 H   0  0  0  0  0  0  0  0  0  0  0  0
  151.7991  143.2332  156.9902 H   0  0  0  0  0  0  0  0  0  0  0  0
  150.2517  142.4429  156.8450 H   0  0  0  0  0  0  0  0  0  0  0  0
  149.9949  144.7169  157.8398 H   0  0  0  0  0  0  0  0  0  0  0  0
  149.4476  143.4725  158.9280 H   0  0  0  0  0  0  0  0  0  0  0  0
  150.7185  145.0303  160.2103 H   0  0  0  0  0  0  0  0  0  0  0  0
  153.0948  144.7279  158.3158 H   0  0  0  0  0  0  0  0  0  0  0  0
  153.0081  145.7552  159.7412 H   0  0  0  0  0  0  0  0  0  0  0  0
  151.9863  146.0903  158.3600 H   0  0  0  0  0  0  0  0  0  0  0  0
  150.9523  142.7541  160.8689 H   0  0  0  0  0  0  0  0  0  0  0  0
  153.7042  144.0187  161.1855 H   0  0  0  0  0  0  0  0  0  0  0  0
  152.9387  142.8524  162.2533 H   0  0  0  0  0  0  0  0  0  0  0  0
  152.2783  144.4715  162.1185 H   0  0  0  0  0  0  0  0  0  0  0  0
  1  2  1  0  0  0  0
  1 26  1  0  0  0  0
  1 27  1  0  0  0  0
  1 28  1  0  0  0  0
  2  3  1  0  0  0  0
  3  4  1  0  0  0  0
  3 29  1  0  0  0  0
  3 30  1  0  0  0  0
  4  5  1  0  0  0  0
  4 31  1  0  0  0  0
  4 32  1  0  0  0  0
  5 24  1  0  0  0  0
  5  6  1  0  0  0  0
  6  7  1  0  0  0  0
  6  8  2  0  0  0  0
  7 33  1  0  0  0  0
  7 34  1  0  0  0  0
  8  9  1  0  0  0  0
  8 35  1  0  0  0  0
  9 10  2  0  0  0  0
  9 11  1  0  0  0  0
 11 12  1  0  0  0  0
 11 24  1  0  0  0  0
 12 13  1  0  0  0  0
 12 36  1  0  0  0  0
 12 37  1  0  0  0  0
 13 14  2  0  0  0  0
 13 15  1  0  0  0  0
 15 16  1  0  0  0  0
 15 38  1  0  0  0  0
 16 22  1  0  0  0  0
 16 17  1  0  0  0  0
 16 39  1  0  0  0  0
 17 18  1  0  0  0  0
 17 40  1  0  0  0  0
 17 41  1  0  0  0  0
 18 19  1  0  0  0  0
 18 42  1  0  0  0  0
 18 43  1  0  0  0  0
 19 20  1  0  0  0  0
 19 44  1  0  0  0  0
 19 45  1  0  0  0  0
 20 21  1  0  0  0  0
 20 22  1  0  0  0  0
 20 46  1  0  0  0  0
 21 47  1  0  0  0  0
 21 48  1  0  0  0  0
 21 49  1  0  0  0  0
 22 23  1  0  0  0  0
 22 50  1  0  0  0  0
 23 51  1  0  0  0  0
 23 52  1  0  0  0  0
 23 53  1  0  0  0  0
 24 25  2  0  0  0  0
M  END
> <s_m_source_file>
AV-unprocessed.smi

> <i_m_source_file_index>
415

> <i_lp_mmshare_version>
43012

> <i_f3d_flags>
0

> <s_epik_input>
W0NIM11PW0NIMl1bQ0gyXW4xYyhbTkgyXSlbY0hdYyg9TyluKGMxPU8pW0NIMl1DKD1PKVtOSF1bQ0BASF0yW0NIMl1bQ0gyXVtDSDJdW0NAQEhdKFtDSDNdKVtDQEhdMltDSDNd

> <s_epik_cmdline>
J2VwaWtfcHl0aG9uJywgJy1waCcsICc3LjAnLCAnLXRuJywgJzgnLCAnLW1hJywgJzIwMCcsICctbWV0YWxfYmluZGluZycsICctaW1hZScsICc8aW5maWxlLm1hZT4nLCAnLW9tYWUnLCAnPG91dGZpbGUubWFlPic=

> <r_lp_tautomer_probability>
1

> <r_epik_Ionization_Penalty>
8.6647e-06

> <r_epik_Ionization_Penalty_Charging>
1.81162e-08

> <r_epik_Ionization_Penalty_Neutral>
8.64658e-06

> <r_epik_State_Penalty>
-0

> <r_epik_Charging_Adjusted_Penalty>
1.81162e-08

> <i_epik_Tot_Q>
0

> <i_epik_Tot_abs_Q>
0

> <r_epik_Metal_State_Penalty>
-0

> <b_epik_Metal_Only>
0

> <s_lp_Force_Field>
OPLS_2005

> <r_lp_Energy>
23.106

> <b_lp_Chiralities_Consistent>
1

> <s_lp_Variant>
AV-unprocessed.smi:415-8

> <Gold.Version>
5.8.1

> <Gold.Id.Protein>
6NUR|6NUR_protein|mol2

> <Gold.PLP.Fitness>
41.3114

> <Gold.PLP.PLP>
-34.5578

> <Gold.PLP.part.hbond>
-3.0000

> <Gold.PLP.part.metal>
0.0000

> <Gold.PLP.part.buried>
-4.3869

> <Gold.PLP.part.nonpolar>
-28.0655

> <Gold.PLP.part.repulsive>
0.1137

> <Gold.PLP.ligand.clash>
0.0000

> <Gold.PLP.ligand.torsion>
0.6076

> <Gold.PLP.Chemscore.Hbond>
2.6503

> <Gold.PLP.Chemscore.CHOScore>
0.0000

> <Gold.PLP.Chemscore.Metal>
0.0000

> <Gold.Chemscore.Hbonds>
donor molecule, donor type, donor heavy atom, donor atom, acceptor molecule, acceptor atom, score
      P1  H  6896  6907       L1    25  0.78
      P1  H  7997  8009       L1    14  1.00

> <Gold.PLP.Chemscore.Internal.Correction>
0.0181

> <Gold.Rescore>
     Score         DG    S(hbond)    S(metal)    S(lipo)     H(rot)  DE(clash)    DE(int)     intcor
     19.03     -19.76       2.65        0.00      95.79       2.26       0.08       0.64       ----

> <Gold.Chemscore.Fitness>
19.0343

> <Gold.Chemscore.DG>
-19.7585

> <Gold.Chemscore.ZeroCoef>
-5.4800

> <Gold.Chemscore.Hbond>
2.6550

> <Gold.Chemscore.Metal>
0.0000

> <Gold.Chemscore.Lipo>
95.7949

> <Gold.Chemscore.Internal_Hbond>
0.0000

> <Gold.Chemscore.DEClash>
0.0834

> <Gold.Chemscore.DEInternal>
0.6408

> <Gold.Chemscore.Rot>
2.2645

> <Gold.Chemscore.Internal.Correction>
   9.000000E+99

> <Gold.Chemscore.Hbonds>
donor molecule, donor type, donor heavy atom, donor atom, acceptor molecule, acceptor atom, score
      P1  H  6896  6907       L1    25  0.74
      P1  H  7997  8009       L1    14  0.99

> <Gold.Chemscore.Hbond.Weighted>
-8.8677

> <Gold.Chemscore.Metal.Weighted>
-0.0000

> <Gold.Chemscore.Lipo.Weighted>
-11.2080

> <Gold.Chemscore.Internal_Hbond.Weighted>
0.0000

> <Gold.Chemscore.DEClash.Weighted>
0.0834

> <Gold.Chemscore.DEInternal.Weighted>
0.6408

> <Gold.Chemscore.Rot.Weighted>
5.7972

> <Gold.Chemscore.Internal.Correction.Weighted>
   9.000000E+99

> <Gold.Protein.RotatedTorsions>
[ 6907 6896 6895 6894 ] final   20.07 input  -60.11 | X-H torsion
[ 7974 7965 7964 7962 ] final   32.26 input  175.53 | X-H torsion
[ 8008 7997 7996 7995 ] final  145.70 input   59.86 | X-H torsion
[ 10167 10162 10161 10158 ] final  -15.24 input  -65.29 | X-H torsion
[ 10718 10713 10712 10709 ] final   -3.42 input   66.30 | X-H torsion
[ 10763 10752 10751 10750 ] final   77.61 input  -60.55 | X-H torsion
[ 11005 11000 10999 10996 ] final   -4.69 input  -57.11 | X-H torsion

> <Gold.Protein.ActiveResidues>
 VAL166  LYS551  ARG553  GLY616  TRP617  ASP618  TYR619  PRO620  LYS621  CYS622 
 ASP623  PHE694  ASN695  SER759  ASP760  ASP761  ALA762  ILE779  LEU786  VAL792 
 PHE793  MET794  SER795  GLU796  ALA797  LYS798  CYS799  TRP800  GLU811  SER814 

> <Gold.Protein.RotatedAtoms>
  151.8907  135.0417  160.0497 H   0  0  0  0  0  0  0  0  0  0  0  0  # atno 6907 bound_to 6896
  152.2438  133.5153  159.5294 H   0  0  0  0  0  0  0  0  0  0  0  0  # atno 6908 bound_to 6896
  150.7062  134.0969  159.3994 H   0  0  0  0  0  0  0  0  0  0  0  0  # atno 6909 bound_to 6896
  146.1498  139.6550  142.9106 H   0  0  0  0  0  0  0  0  0  0  0  0  # atno 7974 bound_to 7965
  156.2876  140.2202  156.5258 H   0  0  0  0  0  0  0  0  0  0  0  0  # atno 8008 bound_to 7997
  154.7490  140.0482  157.0899 H   0  0  0  0  0  0  0  0  0  0  0  0  # atno 8009 bound_to 7997
  155.0134  140.3115  155.4824 H   0  0  0  0  0  0  0  0  0  0  0  0  # atno 8010 bound_to 7997
  140.7215  143.5239  150.9600 H   0  0  0  0  0  0  0  0  0  0  0  0  # atno 10167 bound_to 10162
  156.7763  130.5316  149.5758 H   0  0  0  0  0  0  0  0  0  0  0  0  # atno 10718 bound_to 10713
  153.0811  135.4908  154.8505 H   0  0  0  0  0  0  0  0  0  0  0  0  # atno 10763 bound_to 10752
  154.7152  135.3028  154.9137 H   0  0  0  0  0  0  0  0  0  0  0  0  # atno 10764 bound_to 10752
  153.9818  135.6789  153.4803 H   0  0  0  0  0  0  0  0  0  0  0  0  # atno 10765 bound_to 10752
  140.6830  133.9137  155.8568 H   0  0  0  0  0  0  0  0  0  0  0  0  # atno 11005 bound_to 11000
  145.4851  141.0438  143.2624 LP  0  0  0  0  0  0  0  0  0  0  0  0  # atno 17320 bound_to 7965
  144.7890  139.6367  143.7121 LP  0  0  0  0  0  0  0  0  0  0  0  0  # atno 17321 bound_to 7965
  139.8957  143.6898  152.3139 LP  0  0  0  0  0  0  0  0  0  0  0  0  # atno 17342 bound_to 10162
  139.7229  144.7599  151.0925 LP  0  0  0  0  0  0  0  0  0  0  0  0  # atno 17343 bound_to 10162
  156.1246  130.6135  151.0245 LP  0  0  0  0  0  0  0  0  0  0  0  0  # atno 17370 bound_to 10713
  157.6668  131.0870  150.7710 LP  0  0  0  0  0  0  0  0  0  0  0  0  # atno 17371 bound_to 10713
  141.0302  134.0767  157.4023 LP  0  0  0  0  0  0  0  0  0  0  0  0  # atno 17394 bound_to 11000
  139.8946  135.0136  156.6958 LP  0  0  0  0  0  0  0  0  0  0  0  0  # atno 17395 bound_to 11000

$$$$
