#       Name:                AV-unprocessed.smi:409
#       Creating user name   scv26
#       Creation time:       Thu Mar 26 22:45:39 2020


#       File generated by GOLD software.
#

@<TRIPOS>MOLECULE
AV-unprocessed.smi:409
    41    42     1
SMALL
NO_CHARGES


@<TRIPOS>ATOM
      1 ****         0.2031   0.4041   1.3578 O.2            1 S1                 0.0000
      2 ****         0.6931   0.0711   0.2775 C.2            1 S1                 0.0000
      3 ****         2.2114   0.1206   0.0547 C.3            1 S1                 0.0000
      4 ****         2.8980   1.0430   0.9709 N.am           1 S1                 0.0000
      5 ****         3.5168   0.5615   2.1159 C.2            1 S1                 0.0000
      6 ****         4.1556   1.3550   3.0080 C.2            1 S1                 0.0000
      7 ****         4.2233   2.7971   2.7980 C.2            1 S1                 0.0000
      8 ****         4.7791   3.5975   3.5468 O.2            1 S1                 0.0000
      9 ****         3.5873   3.2431   1.6366 N.am           1 S1                 0.0000
     10 ****         2.9258   2.4311   0.7139 C.2            1 S1                 0.0000
     11 ****         2.3934   2.9287  -0.2776 O.2            1 S1                 0.0000
     12 ****        -0.0396  -0.3717  -0.7558 N.am           1 S1                 0.0000
     13 ****        -1.4930  -0.5055  -0.7649 C.3            1 S1                 0.0000
     14 ****        -1.9231  -1.8283  -0.0968 C.3            1 S1                 0.0000
     15 ****        -3.4464  -2.0236  -0.1659 C.3            1 S1                 0.0000
     16 ****        -3.9542  -1.9475  -1.6143 C.3            1 S1                 0.0000
     17 ****        -3.5323  -0.6287  -2.2808 C.3            1 S1                 0.0000
     18 ****        -2.0089  -0.4330  -2.2147 C.3            1 S1                 0.0000
     19 ****         3.6055   4.2353   1.4506 H              1 S1                 0.0000
     20 ****         2.6033  -0.8906   0.1727 H              1 S1                 0.0000
     21 ****         2.4247   0.3925  -0.9812 H              1 S1                 0.0000
     22 ****         3.4880  -0.5005   2.3151 H              1 S1                 0.0000
     23 ****         4.6179   0.9201   3.8824 H              1 S1                 0.0000
     24 ****         0.4456  -0.6295  -1.6029 H              1 S1                 0.0000
     25 ****        -1.9286   0.3279  -0.2100 H              1 S1                 0.0000
     26 ****        -1.4290  -2.6679  -0.5881 H              1 S1                 0.0000
     27 ****        -1.6011  -1.8480   0.9450 H              1 S1                 0.0000
     28 ****        -3.7180  -2.9839   0.2732 H              1 S1                 0.0000
     29 ****        -3.9392  -1.2585   0.4351 H              1 S1                 0.0000
     30 ****        -3.5590  -2.7887  -2.1851 H              1 S1                 0.0000
     31 ****        -5.0402  -2.0438  -1.6337 H              1 S1                 0.0000
     32 ****        -3.8640  -0.6148  -3.3195 H              1 S1                 0.0000
     33 ****        -4.0296   0.2064  -1.7858 H              1 S1                 0.0000
     34 ****        -1.7436   0.5273  -2.6586 H              1 S1                 0.0000
     35 ****        -1.5214  -1.1986  -2.8202 H              1 S1                 0.0000
     36 ****         0.7959   0.7112   2.1023 LP             1 S1                 0.0000
     37 ****        -0.7874   0.3673   1.4902 LP             1 S1                 0.0000
     38 ****         5.2328   3.2735   4.3770 LP             1 S1                 0.0000
     39 ****         4.7777   4.5728   3.3260 LP             1 S1                 0.0000
     40 ****         1.9191   2.3448  -0.9365 LP             1 S1                 0.0000
     41 ****         2.4350   3.9170  -0.4244 LP             1 S1                 0.0000
@<TRIPOS>BOND
    1    1    2 2     
    2    2    3 1     
    3    2   12 am    
    4    3    4 1     
    5    3   20 1     
    6    3   21 1     
    7    4   10 1     
    8    4    5 1     
    9    5    6 2     
   10    5   22 1     
   11    6    7 1     
   12    6   23 1     
   13    7    8 2     
   14    7    9 1     
   15    9   19 1     
   16    9   10 1     
   17   10   11 2     
   18   12   13 1     
   19   12   24 1     
   20   13   18 1     
   21   13   14 1     
   22   13   25 1     
   23   14   15 1     
   24   14   26 1     
   25   14   27 1     
   26   15   16 1     
   27   15   28 1     
   28   15   29 1     
   29   16   17 1     
   30   16   30 1     
   31   16   31 1     
   32   17   18 1     
   33   17   32 1     
   34   17   33 1     
   35   18   34 1     
   36   18   35 1     
   37    1   36 1     
   38    1   37 1     
   39    8   38 1     
   40    8   39 1     
   41   11   40 1     
   42   11   41 1     
@<TRIPOS>SUBSTRUCTURE
      1 S1             1
@<TRIPOS>SET
LONE_PAIRS      STATIC     ATOMS    <user>   **** ""
6 36 37 38 39 40 41
DONOR_HYDROGENS      STATIC     ATOMS    <user>   **** ""
2 19 24
ATOM$BLUE        STATIC     ATOMS    COLORGROUP SYSTEM
6 36 37 38 39 40 41
ATOM$RED        STATIC     ATOMS    COLORGROUP SYSTEM
2 19 24
