#       Name:                AV-unprocessed.smi:54
#       Creating user name   scv26
#       Creation time:       Thu Mar 26 16:42:09 2020


#       File generated by GOLD software.
#

@<TRIPOS>MOLECULE
AV-unprocessed.smi:54
    58    60     1
SMALL
NO_CHARGES


@<TRIPOS>ATOM
      1 ****         0.4244   4.3085  -0.6004 C.3            1 S1                 0.0000
      2 ****        -0.7150   3.9453   0.3656 C.3            1 S1                 0.0000
      3 ****        -0.6064   4.7357   1.6797 C.3            1 S1                 0.0000
      4 ****        -0.7230   2.4373   0.6373 C.2            1 S1                 0.0000
      5 ****         0.2049   1.8712   1.2157 O.2            1 S1                 0.0000
      6 ****        -1.9001   1.7244   0.1821 N.am           1 S1                 0.0000
      7 ****        -2.1119   0.3936   0.2774 C.2            1 S1                 0.0000
      8 ****        -1.1245  -0.4883   0.2210 N.2            1 S1                 0.0000
      9 ****        -1.5223  -1.7947   0.3103 C.2            1 S1                 0.0000
     10 ****        -2.8197  -2.2469   0.4449 C.2            1 S1                 0.0000
     11 ****        -2.8423  -3.6354   0.5058 N.2            1 S1                 0.0000
     12 ****        -1.5892  -3.9762   0.3964 C.2            1 S1                 0.0000
     13 ****        -0.7204  -2.9202   0.2673 N.pl3          1 S1                 0.0000
     14 ****         0.7657  -2.9834   0.0997 C.3            1 S1                 0.0000
     15 ****         1.3558  -1.8867   0.7176 O.3            1 S1                 0.0000
     16 ****         2.5939  -1.5975   0.0742 C.3            1 S1                 0.0000
     17 ****         2.7581  -0.0715  -0.0513 C.3            1 S1                 0.0000
     18 ****         1.9377   0.4693  -1.0672 O.3            1 S1                 0.0000
     19 ****         2.6168  -2.3843  -1.2536 C.3            1 S1                 0.0000
     20 ****         3.5592  -3.4364  -1.1608 O.3            1 S1                 0.0000
     21 ****         1.2091  -2.9559  -1.3688 C.3            1 S1                 0.0000
     22 ****         0.3934  -2.1363  -2.1854 O.3            1 S1                 0.0000
     23 ****        -3.8987  -1.3028   0.4952 C.2            1 S1                 0.0000
     24 ****        -5.1021  -1.5270   0.6055 O.2            1 S1                 0.0000
     25 ****        -3.4493   0.0197   0.3967 N.am           1 S1                 0.0000
     26 ****         1.0725  -3.8958   0.6133 H              1 S1                 0.0000
     27 ****         3.3790  -1.9619   0.7392 H              1 S1                 0.0000
     28 ****         2.8887  -1.7709  -2.1138 H              1 S1                 0.0000
     29 ****         1.1914  -3.9661  -1.7801 H              1 S1                 0.0000
     30 ****         0.3541   3.7401  -1.5288 H              1 S1                 0.0000
     31 ****         1.4021   4.1076  -0.1603 H              1 S1                 0.0000
     32 ****         0.3915   5.3664  -0.8621 H              1 S1                 0.0000
     33 ****        -1.6599   4.2108  -0.1108 H              1 S1                 0.0000
     34 ****        -1.4090   4.4721   2.3695 H              1 S1                 0.0000
     35 ****        -0.6744   5.8081   1.4951 H              1 S1                 0.0000
     36 ****         0.3423   4.5479   2.1845 H              1 S1                 0.0000
     37 ****        -2.6501   2.2860  -0.1929 H              1 S1                 0.0000
     38 ****        -1.2659  -5.0070   0.3976 H              1 S1                 0.0000
     39 ****         2.5393   0.4168   0.8983 H              1 S1                 0.0000
     40 ****         3.7924   0.1667  -0.2997 H              1 S1                 0.0000
     41 ****         2.0488   1.4076  -1.0729 H              1 S1                 0.0000
     42 ****         3.3534  -3.9603  -0.4019 H              1 S1                 0.0000
     43 ****         0.3660  -1.2718  -1.8024 H              1 S1                 0.0000
     44 ****        -4.1553   0.7405   0.4229 H              1 S1                 0.0000
     45 ****         0.9969   2.3977   1.5248 LP             1 S1                 0.0000
     46 ****         0.1665   0.8850   1.3764 LP             1 S1                 0.0000
     47 ****        -0.1661  -0.2208   0.1213 LP             1 S1                 0.0000
     48 ****        -3.6364  -4.2342   0.6096 LP             1 S1                 0.0000
     49 ****         1.5203  -2.0943   1.6819 LP             1 S1                 0.0000
     50 ****         0.7486  -1.0954   0.6459 LP             1 S1                 0.0000
     51 ****         0.9808   0.2438  -0.8842 LP             1 S1                 0.0000
     52 ****         2.2054   0.0923  -1.9538 LP             1 S1                 0.0000
     53 ****         4.4797  -3.0567  -1.0683 LP             1 S1                 0.0000
     54 ****         3.5134  -4.0029  -1.9835 LP             1 S1                 0.0000
     55 ****        -0.5306  -2.5160  -2.2305 LP             1 S1                 0.0000
     56 ****         0.7786  -2.0863  -3.1069 LP             1 S1                 0.0000
     57 ****        -5.4311  -2.4689   0.6730 LP             1 S1                 0.0000
     58 ****        -5.7522  -0.7675   0.6277 LP             1 S1                 0.0000
@<TRIPOS>BOND
    1    1    2 1     
    2    1   30 1     
    3    1   31 1     
    4    1   32 1     
    5    2    3 1     
    6    2    4 1     
    7    2   33 1     
    8    3   34 1     
    9    3   35 1     
   10    3   36 1     
   11    4    5 2     
   12    4    6 am    
   13    6   37 1     
   14    6    7 1     
   15    7   25 1     
   16    7    8 2     
   17    8    9 1     
   18    9   13 1     
   19    9   10 2     
   20   10   11 1     
   21   10   23 1     
   22   11   12 2     
   23   12   13 1     
   24   12   38 1     
   25   13   14 1     
   26   14   26 1     
   27   14   21 1     
   28   14   15 1     
   29   15   16 1     
   30   16   27 1     
   31   16   17 1     
   32   16   19 1     
   33   17   18 1     
   34   17   39 1     
   35   17   40 1     
   36   18   41 1     
   37   19   28 1     
   38   19   20 1     
   39   19   21 1     
   40   20   42 1     
   41   21   29 1     
   42   21   22 1     
   43   22   43 1     
   44   23   24 2     
   45   23   25 am    
   46   25   44 1     
   47    5   45 1     
   48    5   46 1     
   49    8   47 1     
   50   11   48 1     
   51   15   49 1     
   52   15   50 1     
   53   18   51 1     
   54   18   52 1     
   55   20   53 1     
   56   20   54 1     
   57   22   55 1     
   58   22   56 1     
   59   24   57 1     
   60   24   58 1     
@<TRIPOS>SUBSTRUCTURE
      1 S1             1
@<TRIPOS>SET
LONE_PAIRS      STATIC     ATOMS    <user>   **** ""
14 45 46 47 48 49 50 51 52 53 54 55 56 57 58
DONOR_HYDROGENS      STATIC     ATOMS    <user>   **** ""
5 37 41 42 43 44
ATOM$BLUE        STATIC     ATOMS    COLORGROUP SYSTEM
14 45 46 47 48 49 50 51 52 53 54 55 56 57 58
ATOM$RED        STATIC     ATOMS    COLORGROUP SYSTEM
5 37 41 42 43 44
