#       Name:                AV-unprocessed.smi:2226
#       Creating user name   scv26
#       Creation time:       Fri Mar 27 12:21:56 2020


#       File generated by GOLD software.
#

@<TRIPOS>MOLECULE
AV-unprocessed.smi:2226
    45    47     1
SMALL
NO_CHARGES


@<TRIPOS>ATOM
      1 ****        -1.4391  -3.4280   0.0009 C.3            1 S1                 0.0000
      2 ****        -2.2009  -2.1563   0.0004 N.4            1 S1                 1.0000
      3 ****        -2.0262  -1.3252  -1.2157 C.3            1 S1                 0.0000
      4 ****        -3.1715  -0.2876  -1.2820 C.3            1 S1                 0.0000
      5 ****        -3.3224   0.5574  -0.0006 C.3            1 S1                 0.0000
      6 ****        -3.1717  -0.2868   1.2814 C.3            1 S1                 0.0000
      7 ****        -2.0263  -1.3243   1.2159 C.3            1 S1                 0.0000
      8 ****        -0.6003  -0.7230   1.2864 C.3            1 S1                 0.0000
      9 ****        -0.1402   0.0003  -0.0005 C.3            1 S1                 0.0000
     10 ****         1.3191   0.0933  -0.0005 N.am           1 S1                 0.0000
     11 ****         2.0511   1.2182   0.0004 C.2            1 S1                 0.0000
     12 ****         1.5275   2.3367   0.0013 O.2            1 S1                 0.0000
     13 ****         3.4012   0.8979   0.0001 N.2            1 S1                 0.0000
     14 ****         4.2959   1.8384   0.0000 C.2            1 S1                 0.0000
     15 ****         4.2145   3.2286   0.0001 N.pl3          1 S1                 0.0000
     16 ****         5.4860   3.7300   0.0000 C.2            1 S1                 0.0000
     17 ****         6.3328   2.7051  -0.0001 C.2            1 S1                 0.0000
     18 ****         5.6341   1.5353  -0.0001 O.3            1 S1                 0.0000
     19 ****        -0.6002  -0.7242  -1.2867 C.3            1 S1                 0.0000
     20 ****        -0.3616  -3.2655   0.0013 H              1 S1                 0.0000
     21 ****        -1.6900  -4.0217  -0.8785 H              1 S1                 0.0000
     22 ****        -1.6906  -4.0213   0.8804 H              1 S1                 0.0000
     23 ****        -2.1481  -1.9752  -2.0834 H              1 S1                 0.0000
     24 ****        -3.0464   0.3641  -2.1474 H              1 S1                 0.0000
     25 ****        -4.1069  -0.8240  -1.4468 H              1 S1                 0.0000
     26 ****        -2.6105   1.3784  -0.0007 H              1 S1                 0.0000
     27 ****        -4.2977   1.0450  -0.0008 H              1 S1                 0.0000
     28 ****        -3.0470   0.3653   2.1465 H              1 S1                 0.0000
     29 ****        -4.1072  -0.8233   1.4463 H              1 S1                 0.0000
     30 ****        -2.1481  -1.9737   2.0840 H              1 S1                 0.0000
     31 ****        -0.5215  -0.0453   2.1373 H              1 S1                 0.0000
     32 ****         0.0956  -1.5345   1.5036 H              1 S1                 0.0000
     33 ****        -0.5612   1.0020  -0.0011 H              1 S1                 0.0000
     34 ****         1.8244  -0.7811  -0.0012 H              1 S1                 0.0000
     35 ****         3.3865   3.8073   0.0002 H              1 S1                 0.0000
     36 ****         5.6536   4.7970   0.0001 H              1 S1                 0.0000
     37 ****         7.4110   2.6446  -0.0002 H              1 S1                 0.0000
     38 ****         0.0957  -1.5360  -1.5029 H              1 S1                 0.0000
     39 ****        -0.5211  -0.0475  -2.1383 H              1 S1                 0.0000
     40 ****        -3.1708  -2.4386   0.0005 H              1 S1                 0.0000
     41 ****         0.5311   2.4223   0.0014 LP             1 S1                 0.0000
     42 ****         2.0998   3.1567   0.0020 LP             1 S1                 0.0000
     43 ****         3.6859  -0.0608  -0.0000 LP             1 S1                 0.0000
     44 ****         5.8614   1.0046  -0.8166 LP             1 S1                 0.0000
     45 ****         5.8615   1.0045   0.8164 LP             1 S1                 0.0000
@<TRIPOS>BOND
    1    1    2 1     
    2    1   20 1     
    3    1   21 1     
    4    1   22 1     
    5    2    7 1     
    6    2    3 1     
    7    2   40 1     
    8    3   19 1     
    9    3    4 1     
   10    3   23 1     
   11    4    5 1     
   12    4   24 1     
   13    4   25 1     
   14    5    6 1     
   15    5   26 1     
   16    5   27 1     
   17    6    7 1     
   18    6   28 1     
   19    6   29 1     
   20    7    8 1     
   21    7   30 1     
   22    8    9 1     
   23    8   31 1     
   24    8   32 1     
   25    9   10 1     
   26    9   19 1     
   27    9   33 1     
   28   10   34 1     
   29   10   11 am    
   30   11   13 1     
   31   11   12 2     
   32   13   14 2     
   33   14   18 1     
   34   14   15 1     
   35   15   35 1     
   36   15   16 1     
   37   16   36 1     
   38   16   17 2     
   39   17   37 1     
   40   17   18 1     
   41   19   38 1     
   42   19   39 1     
   43   12   41 1     
   44   12   42 1     
   45   13   43 1     
   46   18   44 1     
   47   18   45 1     
@<TRIPOS>SUBSTRUCTURE
      1 S1             1
@<TRIPOS>SET
LONE_PAIRS      STATIC     ATOMS    <user>   **** ""
5 41 42 43 44 45
DONOR_HYDROGENS      STATIC     ATOMS    <user>   **** ""
3 40 34 35
ATOM$BLUE        STATIC     ATOMS    COLORGROUP SYSTEM
5 41 42 43 44 45
ATOM$RED        STATIC     ATOMS    COLORGROUP SYSTEM
3 40 34 35
