#       Name:                AV-unprocessed.smi:2176
#       Creating user name   scv26
#       Creation time:       Fri Mar 27 12:03:59 2020


#       File generated by GOLD software.
#

@<TRIPOS>MOLECULE
AV-unprocessed.smi:2176
    35    36     1
SMALL
NO_CHARGES


@<TRIPOS>ATOM
      1 ****        -0.3805   0.4679  -1.6952 O.2            1 S1                 0.0000
      2 ****         0.1995  -0.2643  -0.8923 C.2            1 S1                 0.0000
      3 ****         1.7059  -0.1095  -0.6468 C.3            1 S1                 0.0000
      4 ****         2.1061   1.2976  -0.4889 N.am           1 S1                 0.0000
      5 ****         2.6409   1.9582  -1.6089 C.2            1 S1                 0.0000
      6 ****         3.0273   3.2472  -1.5557 C.2            1 S1                 0.0000
      7 ****         2.8801   3.9607  -0.2932 C.2            1 S1                 0.0000
      8 ****         3.2324   5.1366  -0.2250 O.2            1 S1                 0.0000
      9 ****         2.3518   3.2774   0.7639 N.pl3          1 S1                -1.0000
     10 ****         1.9605   1.9671   0.6946 C.2            1 S1                 0.0000
     11 ****         1.4837   1.3700   1.6606 O.2            1 S1                 0.0000
     12 ****        -0.4155  -1.2416  -0.2117 N.am           1 S1                 0.0000
     13 ****        -1.8380  -1.5376  -0.2933 C.3            1 S1                 0.0000
     14 ****        -2.3371  -2.4581   0.8004 C.3            1 S1                 0.0000
     15 ****        -3.8107  -2.5403   1.1225 C.3            1 S1                 0.0000
     16 ****        -2.8577  -1.9010   2.1045 C.3            1 S1                 0.0000
     17 ****         2.0074  -0.6869   0.2295 H              1 S1                 0.0000
     18 ****         2.2345  -0.5653  -1.4848 H              1 S1                 0.0000
     19 ****         2.7099   1.3606  -2.5059 H              1 S1                 0.0000
     20 ****         3.4329   3.7415  -2.4261 H              1 S1                 0.0000
     21 ****         0.1352  -1.7979   0.4261 H              1 S1                 0.0000
     22 ****        -2.4115  -0.6092  -0.2650 H              1 S1                 0.0000
     23 ****        -2.0415  -2.0053  -1.2574 H              1 S1                 0.0000
     24 ****        -1.7918  -3.3982   0.8639 H              1 S1                 0.0000
     25 ****        -4.4865  -1.8827   0.5792 H              1 S1                 0.0000
     26 ****        -4.2159  -3.5170   1.3788 H              1 S1                 0.0000
     27 ****        -2.6235  -2.4520   3.0129 H              1 S1                 0.0000
     28 ****        -2.8980  -0.8189   2.2131 H              1 S1                 0.0000
     29 ****         0.1308   1.1691  -2.1922 LP             1 S1                 0.0000
     30 ****        -1.3626   0.3612  -1.8501 LP             1 S1                 0.0000
     31 ****         3.6143   5.5916  -1.0294 LP             1 S1                 0.0000
     32 ****         3.1370   5.6381   0.6349 LP             1 S1                 0.0000
     33 ****         2.2451   3.7587   1.6339 LP             1 S1                 0.0000
     34 ****         1.2107   0.4122   1.5713 LP             1 S1                 0.0000
     35 ****         1.3696   1.8431   2.5342 LP             1 S1                 0.0000
@<TRIPOS>BOND
    1    1    2 2     
    2    2    3 1     
    3    2   12 am    
    4    3    4 1     
    5    3   17 1     
    6    3   18 1     
    7    4   10 am    
    8    4    5 1     
    9    5    6 2     
   10    5   19 1     
   11    6    7 1     
   12    6   20 1     
   13    7    8 2     
   14    7    9 1     
   15    9   10 1     
   16   10   11 2     
   17   12   13 1     
   18   12   21 1     
   19   13   14 1     
   20   13   22 1     
   21   13   23 1     
   22   14   16 1     
   23   14   15 1     
   24   14   24 1     
   25   15   16 1     
   26   15   25 1     
   27   15   26 1     
   28   16   27 1     
   29   16   28 1     
   30    1   29 1     
   31    1   30 1     
   32    8   31 1     
   33    8   32 1     
   34    9   33 1     
   35   11   34 1     
   36   11   35 1     
@<TRIPOS>SUBSTRUCTURE
      1 S1             1
@<TRIPOS>SET
LONE_PAIRS      STATIC     ATOMS    <user>   **** ""
7 29 30 31 32 33 34 35
DONOR_HYDROGENS      STATIC     ATOMS    <user>   **** ""
1 21
ATOM$BLUE        STATIC     ATOMS    COLORGROUP SYSTEM
7 29 30 31 32 33 34 35
ATOM$RED        STATIC     ATOMS    COLORGROUP SYSTEM
1 21
