AV-unprocessed.smi:35|AV-procd|sdf|247|dock9
  -GOLD-   2262016 03D 1   1.00000     0.00000
 Structure written by MMmdl.
 29 30  0  0  0  0  0  0  0  0  1 V2000
  140.5723  135.0738  154.0582 O   0  0  0  0  0  0  0  0  0  0  0  0
  141.6877  135.4391  153.6931 C   0  0  0  0  0  0  0  0  0  0  0  0
  142.7778  134.5690  153.7765 N   0  0  0  0  0  0  0  0  0  0  0  0
  144.0849  134.8681  153.3885 C   0  0  0  0  0  0  0  0  0  0  0  0
  144.9729  134.0268  153.5222 O   0  0  0  0  0  0  0  0  0  0  0  0
  144.3264  136.1521  152.8486 N   0  0  0  0  0  0  0  0  0  0  0  0
  145.7472  136.4985  152.4360 C   0  0  2  0  0  0  0  0  0  0  0  0
  146.5442  136.6374  153.5755 O   0  0  0  0  0  0  0  0  0  0  0  0
  146.6419  138.0141  153.9269 C   0  0  1  0  0  0  0  0  0  0  0  0
  147.8032  138.2621  154.9047 C   0  0  0  0  0  0  0  0  0  0  0  0
  149.0018  137.7431  154.3690 O   0  0  0  0  0  0  0  0  0  0  0  0
  146.7730  138.6762  152.5524 C   0  0  1  0  0  0  0  0  0  0  0  0
  148.1095  138.5880  152.0840 O   0  0  0  0  0  0  0  0  0  0  0  0
  145.7951  137.8612  151.7060 C   0  0  1  0  0  0  0  0  0  0  0  0
  146.1974  137.7648  150.3517 O   0  0  0  0  0  0  0  0  0  0  0  0
  143.2751  137.0608  152.7730 C   0  0  0  0  0  0  0  0  0  0  0  0
  142.0134  136.7560  153.1583 C   0  0  0  0  0  0  0  0  0  0  0  0
  140.6581  138.1881  152.9644 Br  0  0  0  0  0  0  0  0  0  0  0  0
  142.6058  133.6484  154.1536 H   0  0  0  0  0  0  0  0  0  0  0  0
  146.0950  135.6478  151.8465 H   0  0  0  0  0  0  0  0  0  0  0  0
  145.7023  138.3449  154.3739 H   0  0  0  0  0  0  0  0  0  0  0  0
  147.9177  139.3231  155.1287 H   0  0  0  0  0  0  0  0  0  0  0  0
  147.6170  137.7472  155.8477 H   0  0  0  0  0  0  0  0  0  0  0  0
  148.8273  137.4255  153.4962 H   0  0  0  0  0  0  0  0  0  0  0  0
  146.4940  139.7301  152.5839 H   0  0  0  0  0  0  0  0  0  0  0  0
  148.2492  137.7147  151.7500 H   0  0  0  0  0  0  0  0  0  0  0  0
  144.8117  138.3319  151.7516 H   0  0  0  0  0  0  0  0  0  0  0  0
  145.4741  138.0361  149.8065 H   0  0  0  0  0  0  0  0  0  0  0  0
  143.4412  138.0596  152.3992 H   0  0  0  0  0  0  0  0  0  0  0  0
  1  2  2  0  0  0  0
  2 17  1  0  0  0  0
  2  3  1  0  0  0  0
  3 19  1  0  0  0  0
  3  4  1  0  0  0  0
  4  5  2  0  0  0  0
  4  6  1  0  0  0  0
  6  7  1  0  0  0  0
  6 16  1  0  0  0  0
  7 14  1  0  0  0  0
  7  8  1  0  0  0  0
  7 20  1  0  0  0  0
  8  9  1  0  0  0  0
  9 10  1  0  0  0  0
  9 12  1  0  0  0  0
  9 21  1  0  0  0  0
 10 11  1  0  0  0  0
 10 22  1  0  0  0  0
 10 23  1  0  0  0  0
 11 24  1  0  0  0  0
 12 13  1  0  0  0  0
 12 14  1  0  0  0  0
 12 25  1  0  0  0  0
 13 26  1  0  0  0  0
 14 15  1  0  0  0  0
 14 27  1  0  0  0  0
 15 28  1  0  0  0  0
 16 17  2  0  0  0  0
 16 29  1  0  0  0  0
 17 18  1  0  0  0  0
M  END
> <s_m_source_file>
AV-unprocessed.smi

> <i_m_source_file_index>
35

> <i_lp_mmshare_version>
43012

> <i_f3d_flags>
0

> <s_epik_input>
Tz1jMVtuSF1jKD1PKW4oW2NIXWMxQnIpW0NAQEhdMk9bQ0BASF0oW0NIMl1bT0hdKVtDQEBIXShbT0hdKVtDQEhdMltPSF0=

> <s_epik_cmdline>
J2VwaWtfcHl0aG9uJywgJy1waCcsICc3LjAnLCAnLXRuJywgJzgnLCAnLW1hJywgJzIwMCcsICctbWV0YWxfYmluZGluZycsICctaW1hZScsICc8aW5maWxlLm1hZT4nLCAnLW9tYWUnLCAnPG91dGZpbGUubWFlPic=

> <r_lp_tautomer_probability>
0.999537

> <r_epik_Ionization_Penalty>
0.10812

> <r_epik_Ionization_Penalty_Charging>
0.108119

> <r_epik_Ionization_Penalty_Neutral>
4.93006e-07

> <r_epik_State_Penalty>
0.0979238

> <r_epik_Charging_Adjusted_Penalty>
0.206043

> <i_epik_Tot_Q>
0

> <i_epik_Tot_abs_Q>
0

> <r_epik_Metal_State_Penalty>
3.07911

> <b_epik_Metal_Only>
0

> <s_epik_Chemistry_Notes>
This compound contains an acetal/aminal-like group ( X-CH(R)-Y where X, Y are N, S, or O) that may be acid/base labile, releasing an aldehyde.

> <s_lp_Force_Field>
OPLS_2005

> <r_lp_Energy>
33.4515

> <b_lp_Chiralities_Consistent>
1

> <s_lp_Variant>
AV-unprocessed.smi:35-1

> <Gold.Version>
5.8.1

> <Gold.Id.Protein>
6NUR|6NUR_protein|mol2

> <Gold.PLP.Fitness>
47.6222

> <Gold.PLP.PLP>
-25.9706

> <Gold.PLP.part.hbond>
-7.5418

> <Gold.PLP.part.metal>
0.0000

> <Gold.PLP.part.buried>
-1.5946

> <Gold.PLP.part.nonpolar>
-17.6647

> <Gold.PLP.part.repulsive>
1.2124

> <Gold.PLP.ligand.clash>
0.0000

> <Gold.PLP.ligand.torsion>
0.2085

> <Gold.PLP.Chemscore.Hbond>
5.7440

> <Gold.PLP.Chemscore.CHOScore>
1.6044

> <Gold.PLP.Chemscore.Metal>
0.0000

> <Gold.Chemscore.Hbonds>
donor molecule, donor type, donor heavy atom, donor atom, acceptor molecule, acceptor atom, score
      L1  H     3    19       P1 10957  1.00
      L1  H    11    24       P1  7948  1.00
      L1  H    13    26       P1  7948  1.00
      L1  H    15    28       P1 10171  0.93
      P1  H  7954  7966       L1    15  0.82
      P1  H 11000 11005       L1     1  1.00
      L1  C    16    29       P1 10171  0.59
      L1  C    16    29       P1 10175  1.00

> <Gold.PLP.Chemscore.Internal.Correction>
0.0234

> <Gold.Rescore>
     Score         DG    S(hbond)    S(metal)    S(lipo)     H(rot)  DE(clash)    DE(int)     intcor
     17.41     -18.79       5.67        0.00      32.15       3.67       0.41       0.97       ----

> <Gold.Chemscore.Fitness>
17.4064

> <Gold.Chemscore.DG>
-18.7930

> <Gold.Chemscore.ZeroCoef>
-5.4800

> <Gold.Chemscore.Hbond>
5.6728

> <Gold.Chemscore.Metal>
0.0000

> <Gold.Chemscore.Lipo>
32.1472

> <Gold.Chemscore.Internal_Hbond>
0.0000

> <Gold.Chemscore.DEClash>
0.4134

> <Gold.Chemscore.DEInternal>
0.9733

> <Gold.Chemscore.Rot>
3.6701

> <Gold.Chemscore.Internal.Correction>
   9.000000E+99

> <Gold.Chemscore.Hbonds>
donor molecule, donor type, donor heavy atom, donor atom, acceptor molecule, acceptor atom, score
      L1  H     3    19       P1 10957  0.97
      L1  H    11    24       P1  7948  0.94
      L1  H    13    26       P1  7948  0.95
      L1  H    15    28       P1 10171  0.89
      P1  H  7954  7966       L1    15  0.76
      P1  H 11000 11005       L1     1  0.99

> <Gold.Chemscore.Hbond.Weighted>
-18.9473

> <Gold.Chemscore.Metal.Weighted>
-0.0000

> <Gold.Chemscore.Lipo.Weighted>
-3.7612

> <Gold.Chemscore.Internal_Hbond.Weighted>
0.0000

> <Gold.Chemscore.DEClash.Weighted>
0.4134

> <Gold.Chemscore.DEInternal.Weighted>
0.9733

> <Gold.Chemscore.Rot.Weighted>
9.3955

> <Gold.Chemscore.Internal.Correction.Weighted>
   9.000000E+99

> <Gold.Protein.RotatedTorsions>
[ 6907 6896 6895 6894 ] final  -79.02 input  -60.11 | X-H torsion
[ 7974 7965 7964 7962 ] final  -97.56 input  175.53 | X-H torsion
[ 8008 7997 7996 7995 ] final  -58.21 input   59.86 | X-H torsion
[ 10167 10162 10161 10158 ] final  142.61 input  -65.29 | X-H torsion
[ 10718 10713 10712 10709 ] final  -79.57 input   66.30 | X-H torsion
[ 10763 10752 10751 10750 ] final  -81.22 input  -60.55 | X-H torsion
[ 11005 11000 10999 10996 ] final   41.36 input  -57.11 | X-H torsion

> <Gold.Protein.ActiveResidues>
 VAL166  LYS551  ARG553  GLY616  TRP617  ASP618  TYR619  PRO620  LYS621  CYS622 
 ASP623  PHE694  ASN695  SER759  ASP760  ASP761  ALA762  ILE779  LEU786  VAL792 
 PHE793  MET794  SER795  GLU796  ALA797  LYS798  CYS799  TRP800  GLU811  SER814 

> <Gold.Protein.RotatedAtoms>
  150.6959  134.4183  159.5193 H   0  0  0  0  0  0  0  0  0  0  0  0  # atno 6907 bound_to 6896
  152.1930  134.8652  160.0525 H   0  0  0  0  0  0  0  0  0  0  0  0  # atno 6908 bound_to 6896
  151.9600  133.3657  159.4069 H   0  0  0  0  0  0  0  0  0  0  0  0  # atno 6909 bound_to 6896
  145.3321  140.9443  143.2655 H   0  0  0  0  0  0  0  0  0  0  0  0  # atno 7974 bound_to 7965
  154.4299  140.1089  156.5921 H   0  0  0  0  0  0  0  0  0  0  0  0  # atno 8008 bound_to 7997
  155.6001  140.3493  155.4572 H   0  0  0  0  0  0  0  0  0  0  0  0  # atno 8009 bound_to 7997
  156.0180  140.1233  157.0376 H   0  0  0  0  0  0  0  0  0  0  0  0  # atno 8010 bound_to 7997
  139.4990  144.6095  151.6302 H   0  0  0  0  0  0  0  0  0  0  0  0  # atno 10167 bound_to 10162
  156.0089  130.4549  150.3668 H   0  0  0  0  0  0  0  0  0  0  0  0  # atno 10718 bound_to 10713
  154.5608  135.5634  153.7006 H   0  0  0  0  0  0  0  0  0  0  0  0  # atno 10763 bound_to 10752
  153.0017  135.6273  154.2247 H   0  0  0  0  0  0  0  0  0  0  0  0  # atno 10764 bound_to 10752
  154.2185  135.2870  155.2913 H   0  0  0  0  0  0  0  0  0  0  0  0  # atno 10765 bound_to 10752
  140.1842  134.4066  155.8182 H   0  0  0  0  0  0  0  0  0  0  0  0  # atno 11005 bound_to 11000
  144.8856  139.4844  143.6702 LP  0  0  0  0  0  0  0  0  0  0  0  0  # atno 17320 bound_to 7965
  146.3041  139.7522  142.9069 LP  0  0  0  0  0  0  0  0  0  0  0  0  # atno 17321 bound_to 7965
  140.5766  144.0017  150.6245 LP  0  0  0  0  0  0  0  0  0  0  0  0  # atno 17342 bound_to 10162
  140.3153  143.3172  152.0839 LP  0  0  0  0  0  0  0  0  0  0  0  0  # atno 17343 bound_to 10162
  157.1755  131.0379  151.2774 LP  0  0  0  0  0  0  0  0  0  0  0  0  # atno 17370 bound_to 10713
  157.4192  130.7428  149.6900 LP  0  0  0  0  0  0  0  0  0  0  0  0  # atno 17371 bound_to 10713
  141.2224  133.7015  156.7984 LP  0  0  0  0  0  0  0  0  0  0  0  0  # atno 17394 bound_to 11000
  140.2232  134.8741  157.3399 LP  0  0  0  0  0  0  0  0  0  0  0  0  # atno 17395 bound_to 11000

$$$$
