AV-unprocessed.smi:2883|AV-procd|sdf|11079|dock2
  -GOLD-   2272015553D 1   1.00000     0.00000
 Structure written by MMmdl.
 39 41  0  0  0  0  0  0  0  0  1 V2000
  147.0218  142.2989  154.0620 C   0  0  0  0  0  0  0  0  0  0  0  0
  147.2682  140.7806  154.2261 C   0  0  0  0  0  0  0  0  0  0  0  0
  146.1758  140.2713  155.1964 C   0  0  0  0  0  0  0  0  0  0  0  0
  147.1135  140.0830  152.8623 C   0  0  0  0  0  0  0  0  0  0  0  0
  148.6740  140.5046  154.7859 C   0  0  0  0  0  0  0  0  0  0  0  0
  149.4463  139.6428  154.1107 N   0  0  0  0  0  0  0  0  0  0  0  0
  150.6288  139.2997  154.6634 C   0  0  0  0  0  0  0  0  0  0  0  0
  151.0327  139.7949  155.9184 C   0  0  0  0  0  0  0  0  0  0  0  0
  150.1333  140.6621  156.5691 C   0  0  0  0  0  0  0  0  0  0  0  0
  150.4642  141.1823  157.8279 N   0  0  0  0  0  0  0  0  0  0  0  0
  151.2717  142.3912  157.9515 C   0  0  2  0  0  0  0  0  0  0  0  0
  152.4592  142.2274  158.9090 C   0  0  0  0  0  0  0  0  0  0  0  0
  152.2241  143.3702  159.9041 C   0  0  1  0  0  0  0  0  0  0  0  0
  152.4381  144.7503  159.2678 C   0  0  0  0  0  0  0  0  0  0  0  0
  151.1964  144.8839  158.3865 C   0  0  0  0  0  0  0  0  0  0  0  0
  150.4961  143.5385  158.6207 C   0  0  2  0  0  0  0  0  0  0  0  0
  150.8106  143.3360  159.9893 O   0  0  0  0  0  0  0  0  0  0  0  0
  148.9509  140.9945  156.0012 N   0  0  0  0  0  0  0  0  0  0  0  0
  146.0099  142.5013  153.7091 H   0  0  0  0  0  0  0  0  0  0  0  0
  147.7023  142.7477  153.3376 H   0  0  0  0  0  0  0  0  0  0  0  0
  147.1502  142.8267  155.0078 H   0  0  0  0  0  0  0  0  0  0  0  0
  146.2775  140.7259  156.1827 H   0  0  0  0  0  0  0  0  0  0  0  0
  146.2156  139.1890  155.3265 H   0  0  0  0  0  0  0  0  0  0  0  0
  145.1768  140.5071  154.8281 H   0  0  0  0  0  0  0  0  0  0  0  0
  146.1243  140.2548  152.4369 H   0  0  0  0  0  0  0  0  0  0  0  0
  147.2502  139.0047  152.9517 H   0  0  0  0  0  0  0  0  0  0  0  0
  147.8489  140.4486  152.1449 H   0  0  0  0  0  0  0  0  0  0  0  0
  151.2542  138.6202  154.1036 H   0  0  0  0  0  0  0  0  0  0  0  0
  151.9794  139.5158  156.3571 H   0  0  0  0  0  0  0  0  0  0  0  0
  150.2857  140.6341  158.6569 H   0  0  0  0  0  0  0  0  0  0  0  0
  151.6007  142.7017  156.9588 H   0  0  0  0  0  0  0  0  0  0  0  0
  152.4290  141.2679  159.4277 H   0  0  0  0  0  0  0  0  0  0  0  0
  153.4214  142.3060  158.4018 H   0  0  0  0  0  0  0  0  0  0  0  0
  152.7354  143.2366  160.8579 H   0  0  0  0  0  0  0  0  0  0  0  0
  152.4537  145.5325  160.0277 H   0  0  0  0  0  0  0  0  0  0  0  0
  153.3684  144.8038  158.7013 H   0  0  0  0  0  0  0  0  0  0  0  0
  150.5717  145.7090  158.7306 H   0  0  0  0  0  0  0  0  0  0  0  0
  151.4372  145.0534  157.3365 H   0  0  0  0  0  0  0  0  0  0  0  0
  149.4291  143.5580  158.3954 H   0  0  0  0  0  0  0  0  0  0  0  0
  1  2  1  0  0  0  0
  1 19  1  0  0  0  0
  1 20  1  0  0  0  0
  1 21  1  0  0  0  0
  2  3  1  0  0  0  0
  2  4  1  0  0  0  0
  2  5  1  0  0  0  0
  3 22  1  0  0  0  0
  3 23  1  0  0  0  0
  3 24  1  0  0  0  0
  4 25  1  0  0  0  0
  4 26  1  0  0  0  0
  4 27  1  0  0  0  0
  5 18  1  0  0  0  0
  5  6  2  0  0  0  0
  6  7  1  0  0  0  0
  7  8  2  0  0  0  0
  7 28  1  0  0  0  0
  8  9  1  0  0  0  0
  8 29  1  0  0  0  0
  9 10  1  0  0  0  0
  9 18  2  0  0  0  0
 10 11  1  0  0  0  0
 10 30  1  0  0  0  0
 11 16  1  0  0  0  0
 11 12  1  0  0  0  0
 11 31  1  0  0  0  0
 12 13  1  0  0  0  0
 12 32  1  0  0  0  0
 12 33  1  0  0  0  0
 13 17  1  0  0  0  0
 13 14  1  0  0  0  0
 13 34  1  0  0  0  0
 14 15  1  0  0  0  0
 14 35  1  0  0  0  0
 14 36  1  0  0  0  0
 15 16  1  0  0  0  0
 15 37  1  0  0  0  0
 15 38  1  0  0  0  0
 16 17  1  0  0  0  0
 16 39  1  0  0  0  0
M  END
> <s_m_source_file>
AV-unprocessed.smi

> <i_m_source_file_index>
2883

> <i_lp_mmshare_version>
43012

> <i_f3d_flags>
0

> <s_epik_input>
W0NIM11DKFtDSDNdKShbQ0gzXSljMW5bY0hdW2NIXWMobjEpW05IXVtDQEhdKFtDSDJdW0NAQEhdMjMpW0NAQEhdKE8zKVtDSDJdW0NIMl0y

> <s_epik_cmdline>
J2VwaWtfcHl0aG9uJywgJy1waCcsICc3LjAnLCAnLXRuJywgJzgnLCAnLW1hJywgJzIwMCcsICctbWV0YWxfYmluZGluZycsICctaW1hZScsICc8aW5maWxlLm1hZT4nLCAnLW9tYWUnLCAnPG91dGZpbGUubWFlPic=

> <r_lp_tautomer_probability>
1

> <r_epik_Ionization_Penalty>
0.453006

> <r_epik_Ionization_Penalty_Charging>
0

> <r_epik_Ionization_Penalty_Neutral>
0.453006

> <r_epik_State_Penalty>
0.455155

> <r_epik_Charging_Adjusted_Penalty>
0.455155

> <i_epik_Tot_Q>
0

> <i_epik_Tot_abs_Q>
0

> <r_epik_Metal_State_Penalty>
0.255592

> <b_epik_Metal_Only>
0

> <s_lp_Force_Field>
OPLS_2005

> <r_lp_Energy>
33.3258

> <b_lp_Chiralities_Consistent>
1

> <s_lp_Variant>
AV-unprocessed.smi:2883-5

> <Gold.Version>
5.8.1

> <Gold.Id.Protein>
6NUR|6NUR_protein|mol2

> <Gold.PLP.Fitness>
34.4062

> <Gold.PLP.PLP>
-35.9917

> <Gold.PLP.part.hbond>
-1.0000

> <Gold.PLP.part.metal>
0.0000

> <Gold.PLP.part.buried>
-4.1394

> <Gold.PLP.part.nonpolar>
-32.0974

> <Gold.PLP.part.repulsive>
1.3286

> <Gold.PLP.ligand.clash>
0.0000

> <Gold.PLP.ligand.torsion>
0.8691

> <Gold.PLP.Chemscore.Hbond>
0.0000

> <Gold.PLP.Chemscore.CHOScore>
0.0000

> <Gold.PLP.Chemscore.Metal>
0.0000

> <Gold.PLP.Chemscore.Internal.Correction>
0.1526

> <Gold.Rescore>
     Score         DG    S(hbond)    S(metal)    S(lipo)     H(rot)  DE(clash)    DE(int)     intcor
     13.52     -14.79       0.00        0.00     104.72       1.15       0.41       0.86       ----

> <Gold.Chemscore.Fitness>
13.5245

> <Gold.Chemscore.DG>
-14.7925

> <Gold.Chemscore.ZeroCoef>
-5.4800

> <Gold.Chemscore.Hbond>
0.0000

> <Gold.Chemscore.Metal>
0.0000

> <Gold.Chemscore.Lipo>
104.7156

> <Gold.Chemscore.Internal_Hbond>
0.0000

> <Gold.Chemscore.DEClash>
0.4089

> <Gold.Chemscore.DEInternal>
0.8590

> <Gold.Chemscore.Rot>
1.1482

> <Gold.Chemscore.Internal.Correction>
   9.000000E+99

> <Gold.Chemscore.Hbond.Weighted>
-0.0000

> <Gold.Chemscore.Metal.Weighted>
-0.0000

> <Gold.Chemscore.Lipo.Weighted>
-12.2517

> <Gold.Chemscore.Internal_Hbond.Weighted>
0.0000

> <Gold.Chemscore.DEClash.Weighted>
0.4089

> <Gold.Chemscore.DEInternal.Weighted>
0.8590

> <Gold.Chemscore.Rot.Weighted>
2.9393

> <Gold.Chemscore.Internal.Correction.Weighted>
   9.000000E+99

> <Gold.Protein.RotatedTorsions>
[ 6907 6896 6895 6894 ] final  -43.27 input  -60.11 | X-H torsion
[ 7974 7965 7964 7962 ] final   97.89 input  175.53 | X-H torsion
[ 8008 7997 7996 7995 ] final   40.48 input   59.86 | X-H torsion
[ 10167 10162 10161 10158 ] final  -13.85 input  -65.29 | X-H torsion
[ 10718 10713 10712 10709 ] final   58.16 input   66.30 | X-H torsion
[ 10763 10752 10751 10750 ] final -170.18 input  -60.55 | X-H torsion
[ 11005 11000 10999 10996 ] final -126.36 input  -57.11 | X-H torsion

> <Gold.Protein.ActiveResidues>
 VAL166  LYS551  ARG553  GLY616  TRP617  ASP618  TYR619  PRO620  LYS621  CYS622 
 ASP623  PHE694  ASN695  SER759  ASP760  ASP761  ALA762  ILE779  LEU786  VAL792 
 PHE793  MET794  SER795  GLU796  ALA797  LYS798  CYS799  TRP800  GLU811  SER814 

> <Gold.Protein.RotatedAtoms>
  150.9459  134.8864  159.7641 H   0  0  0  0  0  0  0  0  0  0  0  0  # atno 6907 bound_to 6896
  152.5099  134.3876  159.9383 H   0  0  0  0  0  0  0  0  0  0  0  0  # atno 6908 bound_to 6896
  151.3894  133.3754  159.2754 H   0  0  0  0  0  0  0  0  0  0  0  0  # atno 6909 bound_to 6896
  145.4194  139.2323  143.3204 H   0  0  0  0  0  0  0  0  0  0  0  0  # atno 7974 bound_to 7965
  155.2538  140.3354  155.4279 H   0  0  0  0  0  0  0  0  0  0  0  0  # atno 8008 bound_to 7997
  156.2204  140.1807  156.7533 H   0  0  0  0  0  0  0  0  0  0  0  0  # atno 8009 bound_to 7997
  154.5817  140.0652  156.9098 H   0  0  0  0  0  0  0  0  0  0  0  0  # atno 8010 bound_to 7997
  140.7190  143.5382  150.9439 H   0  0  0  0  0  0  0  0  0  0  0  0  # atno 10167 bound_to 10162
  157.5573  130.8810  149.9056 H   0  0  0  0  0  0  0  0  0  0  0  0  # atno 10718 bound_to 10713
  154.6442  135.2902  155.0066 H   0  0  0  0  0  0  0  0  0  0  0  0  # atno 10763 bound_to 10752
  154.1182  135.6552  153.4902 H   0  0  0  0  0  0  0  0  0  0  0  0  # atno 10764 bound_to 10752
  153.0342  135.5281  154.7322 H   0  0  0  0  0  0  0  0  0  0  0  0  # atno 10765 bound_to 10752
  140.9688  134.0835  157.3892 H   0  0  0  0  0  0  0  0  0  0  0  0  # atno 11005 bound_to 11000
  146.2664  140.4916  142.8832 LP  0  0  0  0  0  0  0  0  0  0  0  0  # atno 17320 bound_to 7965
  144.8255  140.6622  143.6325 LP  0  0  0  0  0  0  0  0  0  0  0  0  # atno 17321 bound_to 7965
  139.9104  143.6727  152.3116 LP  0  0  0  0  0  0  0  0  0  0  0  0  # atno 17342 bound_to 10162
  139.7108  144.7620  151.1116 LP  0  0  0  0  0  0  0  0  0  0  0  0  # atno 17343 bound_to 10162
  156.0630  130.3696  150.0939 LP  0  0  0  0  0  0  0  0  0  0  0  0  # atno 17370 bound_to 10713
  156.9107  130.9650  151.3563 LP  0  0  0  0  0  0  0  0  0  0  0  0  # atno 17371 bound_to 10713
  139.8904  135.0112  156.6735 LP  0  0  0  0  0  0  0  0  0  0  0  0  # atno 17394 bound_to 11000
  140.7360  133.9018  155.8244 LP  0  0  0  0  0  0  0  0  0  0  0  0  # atno 17395 bound_to 11000

$$$$
