AV-unprocessed.smi:1762|AV-procd|sdf|7115|dock7
  -GOLD-   22720 8343D 1   1.00000     0.00000
 Structure written by MMmdl.
 53 54  0  0  0  0  0  0  0  0  2 V2000
  148.8014  131.6742  153.5748 C   0  0  0  0  0  0  0  0  0  0  0  0
  148.2850  133.0017  153.0087 C   0  0  2  0  0  0  0  0  0  0  0  0
  147.9035  133.9975  154.1211 C   0  0  0  0  0  0  0  0  0  0  0  0
  147.3332  135.2502  153.5509 N   0  3  2  0  0  0  0  0  0  0  0  0
  146.9724  136.3051  154.5602 C   0  0  2  0  0  0  0  0  0  0  0  0
  148.2312  137.0426  155.0659 C   0  0  0  0  0  0  0  0  0  0  0  0
  148.1618  137.7873  156.0444 O   0  0  0  0  0  0  0  0  0  0  0  0
  149.3703  136.8243  154.3923 N   0  0  0  0  0  0  0  0  0  0  0  0
  150.6517  137.4300  154.7264 C   0  0  0  0  0  0  0  0  0  0  0  0
  150.6923  138.8954  154.2714 C   0  0  0  0  0  0  0  0  0  0  0  0
  150.9527  139.8469  155.4239 C   0  0  0  0  0  0  0  0  0  0  0  0
  151.9964  139.5999  156.3413 C   0  0  0  0  0  0  0  0  0  0  0  0
  152.1994  140.5189  157.3892 C   0  0  0  0  0  0  0  0  0  0  0  0
  151.3565  141.6434  157.4780 C   0  0  0  0  0  0  0  0  0  0  0  0
  150.3433  141.7999  156.5111 C   0  0  0  0  0  0  0  0  0  0  0  0
  150.1398  140.9247  155.5027 N   0  0  0  0  0  0  0  0  0  0  0  0
  146.1190  135.7805  155.7647 C   0  0  0  0  0  0  0  0  0  0  0  0
  146.9520  135.0126  156.8101 C   0  0  0  0  0  0  0  0  0  0  0  0
  144.8907  134.9437  155.3489 C   0  0  0  0  0  0  0  0  0  0  0  0
  146.1997  134.8966  152.6480 C   0  0  0  0  0  0  0  0  0  0  0  0
  146.6391  133.8884  151.5713 C   0  0  2  0  0  0  0  0  0  0  0  0
  145.4775  133.4664  150.6648 C   0  0  0  0  0  0  0  0  0  0  0  0
  147.1421  132.7244  152.2116 O   0  0  0  0  0  0  0  0  0  0  0  0
  149.6885  131.8272  154.1898 H   0  0  0  0  0  0  0  0  0  0  0  0
  149.0687  130.9860  152.7724 H   0  0  0  0  0  0  0  0  0  0  0  0
  148.0456  131.1876  154.1921 H   0  0  0  0  0  0  0  0  0  0  0  0
  149.0653  133.4353  152.3802 H   0  0  0  0  0  0  0  0  0  0  0  0
  147.1810  133.5473  154.8039 H   0  0  0  0  0  0  0  0  0  0  0  0
  148.8075  134.1984  154.6922 H   0  0  0  0  0  0  0  0  0  0  0  0
  146.3553  137.0328  154.0292 H   0  0  0  0  0  0  0  0  0  0  0  0
  149.3488  136.2016  153.5975 H   0  0  0  0  0  0  0  0  0  0  0  0
  150.8078  137.3659  155.8044 H   0  0  0  0  0  0  0  0  0  0  0  0
  151.4576  136.8696  154.2492 H   0  0  0  0  0  0  0  0  0  0  0  0
  151.4709  139.0321  153.5193 H   0  0  0  0  0  0  0  0  0  0  0  0
  149.7504  139.1634  153.7908 H   0  0  0  0  0  0  0  0  0  0  0  0
  152.6281  138.7289  156.2463 H   0  0  0  0  0  0  0  0  0  0  0  0
  152.9880  140.3644  158.1109 H   0  0  0  0  0  0  0  0  0  0  0  0
  151.4833  142.3690  158.2678 H   0  0  0  0  0  0  0  0  0  0  0  0
  149.6794  142.6511  156.5482 H   0  0  0  0  0  0  0  0  0  0  0  0
  145.7520  136.6461  156.3141 H   0  0  0  0  0  0  0  0  0  0  0  0
  147.3070  134.0542  156.4303 H   0  0  0  0  0  0  0  0  0  0  0  0
  146.3595  134.8049  157.7015 H   0  0  0  0  0  0  0  0  0  0  0  0
  147.8207  135.5915  157.1248 H   0  0  0  0  0  0  0  0  0  0  0  0
  145.1820  133.9935  154.9013 H   0  0  0  0  0  0  0  0  0  0  0  0
  144.2620  135.4675  154.6294 H   0  0  0  0  0  0  0  0  0  0  0  0
  144.2682  134.7142  156.2142 H   0  0  0  0  0  0  0  0  0  0  0  0
  145.3833  134.4793  153.2400 H   0  0  0  0  0  0  0  0  0  0  0  0
  145.8025  135.7780  152.1450 H   0  0  0  0  0  0  0  0  0  0  0  0
  147.4209  134.3291  150.9498 H   0  0  0  0  0  0  0  0  0  0  0  0
  145.0570  134.3239  150.1387 H   0  0  0  0  0  0  0  0  0  0  0  0
  144.6766  133.0001  151.2395 H   0  0  0  0  0  0  0  0  0  0  0  0
  145.8103  132.7483  149.9149 H   0  0  0  0  0  0  0  0  0  0  0  0
  148.0541  135.6547  152.9697 H   0  0  0  0  0  0  0  0  0  0  0  0
  1  2  1  0  0  0  0
  1 24  1  0  0  0  0
  1 25  1  0  0  0  0
  1 26  1  0  0  0  0
  2 23  1  0  0  0  0
  2  3  1  0  0  0  0
  2 27  1  0  0  0  0
  3  4  1  0  0  0  0
  3 28  1  0  0  0  0
  3 29  1  0  0  0  0
  4  5  1  0  0  0  0
  4 20  1  0  0  0  0
  4 53  1  0  0  0  0
  5  6  1  0  0  0  0
  5 17  1  0  0  0  0
  5 30  1  0  0  0  0
  6  7  2  0  0  0  0
  6  8  1  0  0  0  0
  8  9  1  0  0  0  0
  8 31  1  0  0  0  0
  9 10  1  0  0  0  0
  9 32  1  0  0  0  0
  9 33  1  0  0  0  0
 10 11  1  0  0  0  0
 10 34  1  0  0  0  0
 10 35  1  0  0  0  0
 11 16  1  0  0  0  0
 11 12  2  0  0  0  0
 12 13  1  0  0  0  0
 12 36  1  0  0  0  0
 13 14  2  0  0  0  0
 13 37  1  0  0  0  0
 14 15  1  0  0  0  0
 14 38  1  0  0  0  0
 15 16  2  0  0  0  0
 15 39  1  0  0  0  0
 17 18  1  0  0  0  0
 17 19  1  0  0  0  0
 17 40  1  0  0  0  0
 18 41  1  0  0  0  0
 18 42  1  0  0  0  0
 18 43  1  0  0  0  0
 19 44  1  0  0  0  0
 19 45  1  0  0  0  0
 19 46  1  0  0  0  0
 20 21  1  0  0  0  0
 20 47  1  0  0  0  0
 20 48  1  0  0  0  0
 21 22  1  0  0  0  0
 21 23  1  0  0  0  0
 21 49  1  0  0  0  0
 22 50  1  0  0  0  0
 22 51  1  0  0  0  0
 22 52  1  0  0  0  0
M  CHG  1   4   1
M  END
> <s_m_source_file>
AV-unprocessed.smi

> <i_m_source_file_index>
1762

> <i_lp_mmshare_version>
43012

> <i_f3d_flags>
0

> <s_epik_input>
W0NIM11bQ0BASF0xW0NIMl1OKFtDSDJdW0NASF0oTzEpW0NIM10pW0NAQEhdKFtDSF0oW0NIM10pW0NIM10pQyg9TylbTkhdW0NIMl1bQ0gyXWMyW2NIXVtjSF1bY0hdW2NIXW4y

> <s_epik_cmdline>
J2VwaWtfcHl0aG9uJywgJy1waCcsICc3LjAnLCAnLXRuJywgJzgnLCAnLW1hJywgJzIwMCcsICctbWV0YWxfYmluZGluZycsICctaW1hZScsICc8aW5maWxlLm1hZT4nLCAnLW9tYWUnLCAnPG91dGZpbGUubWFlPic=

> <r_epik_Ionization_Penalty>
2.27005

> <r_epik_Ionization_Penalty_Charging>
2.24983

> <r_epik_Ionization_Penalty_Neutral>
0.0202209

> <r_epik_State_Penalty>
2.40228

> <r_epik_Charging_Adjusted_Penalty>
4.65211

> <i_epik_Tot_Q>
1

> <i_epik_Tot_abs_Q>
1

> <r_epik_Metal_State_Penalty>
2.40762

> <b_epik_Metal_Only>
0

> <s_lp_Force_Field>
OPLS_2005

> <r_lp_Energy>
21.2519

> <b_lp_Chiralities_Consistent>
1

> <s_lp_Variant>
AV-unprocessed.smi:1762-17

> <Gold.Version>
5.8.1

> <Gold.Id.Protein>
6NUR|6NUR_protein|mol2

> <Gold.PLP.Fitness>
41.6048

> <Gold.PLP.PLP>
-32.7067

> <Gold.PLP.part.hbond>
-2.0000

> <Gold.PLP.part.metal>
0.0000

> <Gold.PLP.part.buried>
-3.2139

> <Gold.PLP.part.nonpolar>
-26.7307

> <Gold.PLP.part.repulsive>
0.2592

> <Gold.PLP.ligand.clash>
0.0000

> <Gold.PLP.ligand.torsion>
1.4318

> <Gold.PLP.Chemscore.Hbond>
2.8320

> <Gold.PLP.Chemscore.CHOScore>
1.0000

> <Gold.PLP.Chemscore.Metal>
0.0000

> <Gold.Chemscore.Hbonds>
donor molecule, donor type, donor heavy atom, donor atom, acceptor molecule, acceptor atom, score
      L1  H     4    53       P1  7948  1.98
      L1  H     8    31       P1  7948  0.82
      L1  C    15    39       P1  8028  1.00

> <Gold.PLP.Chemscore.Internal.Correction>
0.2656

> <Gold.Rescore>
     Score         DG    S(hbond)    S(metal)    S(lipo)     H(rot)  DE(clash)    DE(int)     intcor
     13.64     -17.26       1.96        0.00      81.24       1.66       0.07       3.55       ----

> <Gold.Chemscore.Fitness>
13.6406

> <Gold.Chemscore.DG>
-17.2582

> <Gold.Chemscore.ZeroCoef>
-5.4800

> <Gold.Chemscore.Hbond>
1.9555

> <Gold.Chemscore.Metal>
0.0000

> <Gold.Chemscore.Lipo>
81.2423

> <Gold.Chemscore.Internal_Hbond>
0.0000

> <Gold.Chemscore.DEClash>
0.0687

> <Gold.Chemscore.DEInternal>
3.5488

> <Gold.Chemscore.Rot>
1.6635

> <Gold.Chemscore.Internal.Correction>
   9.000000E+99

> <Gold.Chemscore.Hbonds>
donor molecule, donor type, donor heavy atom, donor atom, acceptor molecule, acceptor atom, score
      L1  H     4    53       P1  7948  0.92
      L1  H     8    31       P1  7948  0.62

> <Gold.Chemscore.Hbond.Weighted>
-6.5315

> <Gold.Chemscore.Metal.Weighted>
-0.0000

> <Gold.Chemscore.Lipo.Weighted>
-9.5054

> <Gold.Chemscore.Internal_Hbond.Weighted>
0.0000

> <Gold.Chemscore.DEClash.Weighted>
0.0687

> <Gold.Chemscore.DEInternal.Weighted>
3.5488

> <Gold.Chemscore.Rot.Weighted>
4.2586

> <Gold.Chemscore.Internal.Correction.Weighted>
   9.000000E+99

> <Gold.Protein.RotatedTorsions>
[ 6907 6896 6895 6894 ] final  -50.51 input  -60.11 | X-H torsion
[ 7974 7965 7964 7962 ] final  173.75 input  175.53 | X-H torsion
[ 8008 7997 7996 7995 ] final -124.91 input   59.86 | X-H torsion
[ 10167 10162 10161 10158 ] final  -99.76 input  -65.29 | X-H torsion
[ 10718 10713 10712 10709 ] final  113.47 input   66.30 | X-H torsion
[ 10763 10752 10751 10750 ] final  132.29 input  -60.55 | X-H torsion
[ 11005 11000 10999 10996 ] final  -52.75 input  -57.11 | X-H torsion

> <Gold.Protein.ActiveResidues>
 VAL166  LYS551  ARG553  GLY616  TRP617  ASP618  TYR619  PRO620  LYS621  CYS622 
 ASP623  PHE694  ASN695  SER759  ASP760  ASP761  ALA762  ILE779  LEU786  VAL792 
 PHE793  MET794  SER795  GLU796  ALA797  LYS798  CYS799  TRP800  GLU811  SER814 

> <Gold.Protein.RotatedAtoms>
  150.8700  134.8072  159.7147 H   0  0  0  0  0  0  0  0  0  0  0  0  # atno 6907 bound_to 6896
  152.4708  134.4962  159.9720 H   0  0  0  0  0  0  0  0  0  0  0  0  # atno 6908 bound_to 6896
  151.5052  133.3458  159.2911 H   0  0  0  0  0  0  0  0  0  0  0  0  # atno 6909 bound_to 6896
  144.7236  139.9694  143.6436 H   0  0  0  0  0  0  0  0  0  0  0  0  # atno 7974 bound_to 7965
  155.2046  140.0417  157.2923 H   0  0  0  0  0  0  0  0  0  0  0  0  # atno 8008 bound_to 7997
  154.6052  140.2462  155.7712 H   0  0  0  0  0  0  0  0  0  0  0  0  # atno 8009 bound_to 7997
  156.2345  140.2926  156.0286 H   0  0  0  0  0  0  0  0  0  0  0  0  # atno 8010 bound_to 7997
  140.2590  143.3420  152.0643 H   0  0  0  0  0  0  0  0  0  0  0  0  # atno 10167 bound_to 10162
  157.6336  131.0984  150.7045 H   0  0  0  0  0  0  0  0  0  0  0  0  # atno 10718 bound_to 10713
  153.7883  135.3159  155.3375 H   0  0  0  0  0  0  0  0  0  0  0  0  # atno 10763 bound_to 10752
  154.8135  135.4651  154.0584 H   0  0  0  0  0  0  0  0  0  0  0  0  # atno 10764 bound_to 10752
  153.1894  135.6906  153.8459 H   0  0  0  0  0  0  0  0  0  0  0  0  # atno 10765 bound_to 10752
  141.0940  133.6627  156.4070 H   0  0  0  0  0  0  0  0  0  0  0  0  # atno 11005 bound_to 11000
  146.0574  139.3570  143.0602 LP  0  0  0  0  0  0  0  0  0  0  0  0  # atno 17320 bound_to 7965
  145.8136  140.9714  143.0936 LP  0  0  0  0  0  0  0  0  0  0  0  0  # atno 17321 bound_to 7965
  139.5022  144.6731  151.6195 LP  0  0  0  0  0  0  0  0  0  0  0  0  # atno 17342 bound_to 10162
  140.5981  143.9660  150.6368 LP  0  0  0  0  0  0  0  0  0  0  0  0  # atno 17343 bound_to 10162
  156.7380  130.4730  149.5484 LP  0  0  0  0  0  0  0  0  0  0  0  0  # atno 17370 bound_to 10713
  156.1558  130.6341  151.0655 LP  0  0  0  0  0  0  0  0  0  0  0  0  # atno 17371 bound_to 10713
  140.5184  134.6328  157.5309 LP  0  0  0  0  0  0  0  0  0  0  0  0  # atno 17394 bound_to 11000
  139.9772  134.7195  155.9926 LP  0  0  0  0  0  0  0  0  0  0  0  0  # atno 17395 bound_to 11000

$$$$
