AV-unprocessed.smi:2224|AV-procd|sdf|8992|dock8
  -GOLD-   2272012203D 1   1.00000     0.00000
 Structure written by MMmdl.
 44 46  0  0  0  0  0  0  0  0  1 V2000
  145.2286  132.2042  149.8840 C   0  0  0  0  0  0  0  0  0  0  0  0
  144.8244  133.2436  150.9085 C   0  0  0  0  0  0  0  0  0  0  0  0
  143.5009  133.3134  151.3835 C   0  0  0  0  0  0  0  0  0  0  0  0
  143.1882  134.3024  152.3365 C   0  0  0  0  0  0  0  0  0  0  0  0
  141.7841  134.4358  152.8879 C   0  0  0  0  0  0  0  0  0  0  0  0
  144.0962  135.1823  152.8104 N   0  0  0  0  0  0  0  0  0  0  0  0
  145.3743  135.1243  152.3607 C   0  0  0  0  0  0  0  0  0  0  0  0
  146.4025  136.0031  152.7940 N   0  0  0  0  0  0  0  0  0  0  0  0
  146.3599  136.9031  153.7923 C   0  0  0  0  0  0  0  0  0  0  0  0
  145.3947  137.1059  154.5298 O   0  0  0  0  0  0  0  0  0  0  0  0
  147.5149  137.5757  153.8905 N   0  0  0  0  0  0  0  0  0  0  0  0
  147.7788  138.6309  154.8750 C   0  0  1  0  0  0  0  0  0  0  0  0
  149.2586  138.7279  155.2560 C   0  0  1  0  0  0  0  0  0  0  0  0
  150.4490  137.8460  155.1404 C   0  0  0  0  0  0  0  0  0  0  0  0
  151.4612  138.9426  154.7100 C   0  0  0  0  0  0  0  0  0  0  0  0
  150.6712  140.1249  154.4214 O   0  0  0  0  0  0  0  0  0  0  0  0
  149.4142  139.6075  154.0329 C   0  0  2  0  0  0  0  0  0  0  0  0
  147.9662  140.0850  154.2836 C   0  0  0  0  0  0  0  0  0  0  0  0
  147.1663  140.4403  153.0252 C   0  0  0  0  0  0  0  0  0  0  0  0
  147.7743  141.2684  155.2493 C   0  0  0  0  0  0  0  0  0  0  0  0
  145.7718  134.1615  151.4057 C   0  0  0  0  0  0  0  0  0  0  0  0
  144.3682  131.6266  149.5445 H   0  0  0  0  0  0  0  0  0  0  0  0
  145.9552  131.5141  150.3131 H   0  0  0  0  0  0  0  0  0  0  0  0
  145.6803  132.6844  149.0157 H   0  0  0  0  0  0  0  0  0  0  0  0
  142.7458  132.6279  151.0272 H   0  0  0  0  0  0  0  0  0  0  0  0
  141.1669  133.5822  152.6058 H   0  0  0  0  0  0  0  0  0  0  0  0
  141.3127  135.3405  152.5034 H   0  0  0  0  0  0  0  0  0  0  0  0
  141.8043  134.4940  153.9766 H   0  0  0  0  0  0  0  0  0  0  0  0
  147.2671  135.9472  152.2764 H   0  0  0  0  0  0  0  0  0  0  0  0
  148.2602  137.3496  153.2487 H   0  0  0  0  0  0  0  0  0  0  0  0
  147.1203  138.5990  155.7448 H   0  0  0  0  0  0  0  0  0  0  0  0
  149.3339  139.2883  156.1911 H   0  0  0  0  0  0  0  0  0  0  0  0
  150.7194  137.3708  156.0837 H   0  0  0  0  0  0  0  0  0  0  0  0
  150.3242  137.0801  154.3740 H   0  0  0  0  0  0  0  0  0  0  0  0
  152.1787  139.1679  155.4994 H   0  0  0  0  0  0  0  0  0  0  0  0
  152.0182  138.6316  153.8253 H   0  0  0  0  0  0  0  0  0  0  0  0
  149.5061  139.0532  153.0931 H   0  0  0  0  0  0  0  0  0  0  0  0
  147.4409  141.4225  152.6396 H   0  0  0  0  0  0  0  0  0  0  0  0
  146.0945  140.4522  153.2249 H   0  0  0  0  0  0  0  0  0  0  0  0
  147.3363  139.7283  152.2175 H   0  0  0  0  0  0  0  0  0  0  0  0
  148.2408  142.1737  154.8600 H   0  0  0  0  0  0  0  0  0  0  0  0
  148.1968  141.0970  156.2378 H   0  0  0  0  0  0  0  0  0  0  0  0
  146.7169  141.4878  155.4011 H   0  0  0  0  0  0  0  0  0  0  0  0
  146.7932  134.1256  151.0549 H   0  0  0  0  0  0  0  0  0  0  0  0
  1  2  1  0  0  0  0
  1 22  1  0  0  0  0
  1 23  1  0  0  0  0
  1 24  1  0  0  0  0
  2 21  1  0  0  0  0
  2  3  2  0  0  0  0
  3  4  1  0  0  0  0
  3 25  1  0  0  0  0
  4  5  1  0  0  0  0
  4  6  2  0  0  0  0
  5 26  1  0  0  0  0
  5 27  1  0  0  0  0
  5 28  1  0  0  0  0
  6  7  1  0  0  0  0
  7  8  1  0  0  0  0
  7 21  2  0  0  0  0
  8  9  1  0  0  0  0
  8 29  1  0  0  0  0
  9 10  2  0  0  0  0
  9 11  1  0  0  0  0
 11 12  1  0  0  0  0
 11 30  1  0  0  0  0
 12 18  1  0  0  0  0
 12 13  1  0  0  0  0
 12 31  1  0  0  0  0
 13 17  1  0  0  0  0
 13 14  1  0  0  0  0
 13 32  1  0  0  0  0
 14 15  1  0  0  0  0
 14 33  1  0  0  0  0
 14 34  1  0  0  0  0
 15 16  1  0  0  0  0
 15 35  1  0  0  0  0
 15 36  1  0  0  0  0
 16 17  1  0  0  0  0
 17 18  1  0  0  0  0
 17 37  1  0  0  0  0
 18 19  1  0  0  0  0
 18 20  1  0  0  0  0
 19 38  1  0  0  0  0
 19 39  1  0  0  0  0
 19 40  1  0  0  0  0
 20 41  1  0  0  0  0
 20 42  1  0  0  0  0
 20 43  1  0  0  0  0
 21 44  1  0  0  0  0
M  END
> <s_m_source_file>
AV-unprocessed.smi

> <i_m_source_file_index>
2224

> <i_lp_mmshare_version>
43012

> <i_f3d_flags>
0

> <s_epik_input>
W0NIM11jMVtjSF1jKFtDSDNdKW5jKFtjSF0xKVtOSF1DKD1PKVtOSF1bQ0BIXTJDKFtDSDNdKShbQ0gzXSlbQ0BIXShbQ0BASF0yMylPW0NIMl1bQ0gyXTM=

> <s_epik_cmdline>
J2VwaWtfcHl0aG9uJywgJy1waCcsICc3LjAnLCAnLXRuJywgJzgnLCAnLW1hJywgJzIwMCcsICctbWV0YWxfYmluZGluZycsICctaW1hZScsICc8aW5maWxlLm1hZT4nLCAnLW9tYWUnLCAnPG91dGZpbGUubWFlPic=

> <r_lp_tautomer_probability>
1

> <r_epik_Ionization_Penalty>
0.000276544

> <r_epik_Ionization_Penalty_Charging>
0

> <r_epik_Ionization_Penalty_Neutral>
0.000276544

> <r_epik_State_Penalty>
-0

> <r_epik_Charging_Adjusted_Penalty>
0

> <i_epik_Tot_Q>
0

> <i_epik_Tot_abs_Q>
0

> <r_epik_Metal_State_Penalty>
-0

> <b_epik_Metal_Only>
0

> <s_lp_Force_Field>
OPLS_2005

> <r_lp_Energy>
64.3875

> <b_lp_Chiralities_Consistent>
1

> <s_lp_Variant>
AV-unprocessed.smi:2224-2

> <Gold.Version>
5.8.1

> <Gold.Id.Protein>
6NUR|6NUR_protein|mol2

> <Gold.PLP.Fitness>
42.1580

> <Gold.PLP.PLP>
-33.3781

> <Gold.PLP.part.hbond>
-2.9345

> <Gold.PLP.part.metal>
0.0000

> <Gold.PLP.part.buried>
-3.3213

> <Gold.PLP.part.nonpolar>
-27.4110

> <Gold.PLP.part.repulsive>
0.2518

> <Gold.PLP.ligand.clash>
0.0000

> <Gold.PLP.ligand.torsion>
0.2263

> <Gold.PLP.Chemscore.Hbond>
2.9913

> <Gold.PLP.Chemscore.CHOScore>
0.0000

> <Gold.PLP.Chemscore.Metal>
0.0000

> <Gold.Chemscore.Hbonds>
donor molecule, donor type, donor heavy atom, donor atom, acceptor molecule, acceptor atom, score
      L1  H     8    29       P1  7948  1.00
      L1  H    11    30       P1  7948  1.00
      P1  H  7989  7998       L1    16  0.99

> <Gold.PLP.Chemscore.Internal.Correction>
0.2588

> <Gold.Rescore>
     Score         DG    S(hbond)    S(metal)    S(lipo)     H(rot)  DE(clash)    DE(int)     intcor
     19.98     -22.24       2.83        0.00      84.30       1.00       0.76       1.50       ----

> <Gold.Chemscore.Fitness>
19.9788

> <Gold.Chemscore.DG>
-22.2383

> <Gold.Chemscore.ZeroCoef>
-5.4800

> <Gold.Chemscore.Hbond>
2.8309

> <Gold.Chemscore.Metal>
0.0000

> <Gold.Chemscore.Lipo>
84.3007

> <Gold.Chemscore.Internal_Hbond>
0.0000

> <Gold.Chemscore.DEClash>
0.7570

> <Gold.Chemscore.DEInternal>
1.5025

> <Gold.Chemscore.Rot>
1.0000

> <Gold.Chemscore.Internal.Correction>
   9.000000E+99

> <Gold.Chemscore.Hbonds>
donor molecule, donor type, donor heavy atom, donor atom, acceptor molecule, acceptor atom, score
      L1  H     8    29       P1  7948  1.00
      L1  H    11    30       P1  7948  0.94
      P1  H  7989  7998       L1    16  0.24

> <Gold.Chemscore.Hbond.Weighted>
-9.4551

> <Gold.Chemscore.Metal.Weighted>
-0.0000

> <Gold.Chemscore.Lipo.Weighted>
-9.8632

> <Gold.Chemscore.Internal_Hbond.Weighted>
0.0000

> <Gold.Chemscore.DEClash.Weighted>
0.7570

> <Gold.Chemscore.DEInternal.Weighted>
1.5025

> <Gold.Chemscore.Rot.Weighted>
2.5600

> <Gold.Chemscore.Internal.Correction.Weighted>
   9.000000E+99

> <Gold.Protein.RotatedTorsions>
[ 6907 6896 6895 6894 ] final  145.87 input  -60.11 | X-H torsion
[ 7974 7965 7964 7962 ] final   58.36 input  175.53 | X-H torsion
[ 8008 7997 7996 7995 ] final    7.35 input   59.86 | X-H torsion
[ 10167 10162 10161 10158 ] final  143.11 input  -65.29 | X-H torsion
[ 10718 10713 10712 10709 ] final  -96.41 input   66.30 | X-H torsion
[ 10763 10752 10751 10750 ] final   29.26 input  -60.55 | X-H torsion
[ 11005 11000 10999 10996 ] final   -8.87 input  -57.11 | X-H torsion

> <Gold.Protein.ActiveResidues>
 VAL166  LYS551  ARG553  GLY616  TRP617  ASP618  TYR619  PRO620  LYS621  CYS622 
 ASP623  PHE694  ASN695  SER759  ASP760  ASP761  ALA762  ILE779  LEU786  VAL792 
 PHE793  MET794  SER795  GLU796  ALA797  LYS798  CYS799  TRP800  GLU811  SER814 

> <Gold.Protein.RotatedAtoms>
  152.1753  133.4671  159.4929 H   0  0  0  0  0  0  0  0  0  0  0  0  # atno 6907 bound_to 6896
  150.6926  134.1901  159.4291 H   0  0  0  0  0  0  0  0  0  0  0  0  # atno 6908 bound_to 6896
  151.9810  135.0028  160.0608 H   0  0  0  0  0  0  0  0  0  0  0  0  # atno 6909 bound_to 6896
  145.9190  139.3714  143.0490 H   0  0  0  0  0  0  0  0  0  0  0  0  # atno 7974 bound_to 7965
  154.7527  140.2770  155.6279 H   0  0  0  0  0  0  0  0  0  0  0  0  # atno 8008 bound_to 7997
  156.2899  140.2675  156.2211 H   0  0  0  0  0  0  0  0  0  0  0  0  # atno 8009 bound_to 7997
  155.0117  140.0372  157.2392 H   0  0  0  0  0  0  0  0  0  0  0  0  # atno 8010 bound_to 7997
  139.4977  144.6062  151.6373 H   0  0  0  0  0  0  0  0  0  0  0  0  # atno 10167 bound_to 10162
  156.0061  130.5150  150.6221 H   0  0  0  0  0  0  0  0  0  0  0  0  # atno 10718 bound_to 10713
  153.0441  135.6493  154.0863 H   0  0  0  0  0  0  0  0  0  0  0  0  # atno 10763 bound_to 10752
  154.0564  135.2891  155.3333 H   0  0  0  0  0  0  0  0  0  0  0  0  # atno 10764 bound_to 10752
  154.6686  135.5364  153.8175 H   0  0  0  0  0  0  0  0  0  0  0  0  # atno 10765 bound_to 10752
  140.7281  133.8772  155.8871 H   0  0  0  0  0  0  0  0  0  0  0  0  # atno 11005 bound_to 11000
  145.8574  140.9494  143.0718 LP  0  0  0  0  0  0  0  0  0  0  0  0  # atno 17320 bound_to 7965
  144.6751  140.0486  143.7479 LP  0  0  0  0  0  0  0  0  0  0  0  0  # atno 17321 bound_to 7965
  140.5724  144.0086  150.6224 LP  0  0  0  0  0  0  0  0  0  0  0  0  # atno 17342 bound_to 10162
  140.3208  143.3138  152.0786 LP  0  0  0  0  0  0  0  0  0  0  0  0  # atno 17343 bound_to 10162
  157.4034  131.0813  151.1287 LP  0  0  0  0  0  0  0  0  0  0  0  0  # atno 17370 bound_to 10713
  157.1941  130.6365  149.5715 LP  0  0  0  0  0  0  0  0  0  0  0  0  # atno 17371 bound_to 10713
  140.9945  134.1233  157.4376 LP  0  0  0  0  0  0  0  0  0  0  0  0  # atno 17394 bound_to 11000
  139.8832  135.0050  156.6287 LP  0  0  0  0  0  0  0  0  0  0  0  0  # atno 17395 bound_to 11000

$$$$
