AV-unprocessed.smi:2428|AV-procd|sdf|9580|dock7
  -GOLD-   2272013213D 1   1.00000     0.00000
 Structure written by MMmdl.
 30 31  0  0  0  0  0  0  0  0  1 V2000
  148.9703  138.2884  155.6383 F   0  0  0  0  0  0  0  0  0  0  0  0
  149.8654  139.1504  155.1554 C   0  0  0  0  0  0  0  0  0  0  0  0
  150.5814  138.5317  154.2160 F   0  0  0  0  0  0  0  0  0  0  0  0
  149.2189  140.1728  154.5966 F   0  0  0  0  0  0  0  0  0  0  0  0
  150.7453  139.6679  156.2816 C   0  0  0  0  0  0  0  0  0  0  0  0
  150.1846  140.4028  157.3460 C   0  0  0  0  0  0  0  0  0  0  0  0
  151.0267  140.8721  158.3725 C   0  0  0  0  0  0  0  0  0  0  0  0
  152.4068  140.5905  158.3023 C   0  0  0  0  0  0  0  0  0  0  0  0
  153.2388  141.0606  159.3289 N   0  0  0  0  0  0  0  0  0  0  0  0
  152.7209  141.9274  160.3806 C   0  0  0  0  0  0  0  0  0  0  0  0
  152.8116  143.4164  160.0073 C   0  0  2  0  0  0  0  0  0  0  0  0
  152.0599  144.3309  160.9706 C   0  0  0  0  0  0  0  0  0  0  0  0
  151.8021  145.5760  160.1387 C   0  0  0  0  0  0  0  0  0  0  0  0
  151.9439  145.0904  158.6929 C   0  0  0  0  0  0  0  0  0  0  0  0
  152.1496  143.6867  158.7817 O   0  0  0  0  0  0  0  0  0  0  0  0
  152.9523  139.8945  157.2769 N   0  0  0  0  0  0  0  0  0  0  0  0
  152.1394  139.4457  156.2967 C   0  0  0  0  0  0  0  0  0  0  0  0
  149.1240  140.6050  157.3765 H   0  0  0  0  0  0  0  0  0  0  0  0
  150.6160  141.4352  159.1981 H   0  0  0  0  0  0  0  0  0  0  0  0
  154.2368  141.0539  159.1766 H   0  0  0  0  0  0  0  0  0  0  0  0
  151.7025  141.6534  160.6577 H   0  0  0  0  0  0  0  0  0  0  0  0
  153.3314  141.7467  161.2655 H   0  0  0  0  0  0  0  0  0  0  0  0
  153.8535  143.7351  159.9361 H   0  0  0  0  0  0  0  0  0  0  0  0
  151.1092  143.8771  161.2542 H   0  0  0  0  0  0  0  0  0  0  0  0
  152.6206  144.5371  161.8825 H   0  0  0  0  0  0  0  0  0  0  0  0
  150.8142  145.9916  160.3388 H   0  0  0  0  0  0  0  0  0  0  0  0
  152.5416  146.3484  160.3519 H   0  0  0  0  0  0  0  0  0  0  0  0
  151.0631  145.3123  158.0902 H   0  0  0  0  0  0  0  0  0  0  0  0
  152.8087  145.5534  158.2156 H   0  0  0  0  0  0  0  0  0  0  0  0
  152.6243  138.8967  155.5034 H   0  0  0  0  0  0  0  0  0  0  0  0
  1  2  1  0  0  0  0
  2  3  1  0  0  0  0
  2  4  1  0  0  0  0
  2  5  1  0  0  0  0
  5 17  1  0  0  0  0
  5  6  2  0  0  0  0
  6  7  1  0  0  0  0
  6 18  1  0  0  0  0
  7  8  2  0  0  0  0
  7 19  1  0  0  0  0
  8  9  1  0  0  0  0
  8 16  1  0  0  0  0
  9 10  1  0  0  0  0
  9 20  1  0  0  0  0
 10 11  1  0  0  0  0
 10 21  1  0  0  0  0
 10 22  1  0  0  0  0
 11 15  1  0  0  0  0
 11 12  1  0  0  0  0
 11 23  1  0  0  0  0
 12 13  1  0  0  0  0
 12 24  1  0  0  0  0
 12 25  1  0  0  0  0
 13 14  1  0  0  0  0
 13 26  1  0  0  0  0
 13 27  1  0  0  0  0
 14 15  1  0  0  0  0
 14 28  1  0  0  0  0
 14 29  1  0  0  0  0
 16 17  2  0  0  0  0
 17 30  1  0  0  0  0
M  END
> <s_m_source_file>
AV-unprocessed.smi

> <i_m_source_file_index>
2428

> <i_lp_mmshare_version>
43012

> <i_f3d_flags>
0

> <s_epik_input>
RkMoRikoRiljMVtjSF1bY0hdYyhuW2NIXTEpW05IXVtDSDJdW0NAQEhdMltDSDJdW0NIMl1bQ0gyXU8y

> <s_epik_cmdline>
J2VwaWtfcHl0aG9uJywgJy1waCcsICc3LjAnLCAnLXRuJywgJzgnLCAnLW1hJywgJzIwMCcsICctbWV0YWxfYmluZGluZycsICctaW1hZScsICc8aW5maWxlLm1hZT4nLCAnLW9tYWUnLCAnPG91dGZpbGUubWFlPic=

> <r_lp_tautomer_probability>
1

> <r_epik_Ionization_Penalty>
0.000819842

> <r_epik_Ionization_Penalty_Charging>
0

> <r_epik_Ionization_Penalty_Neutral>
0.000819842

> <r_epik_State_Penalty>
0.000527207

> <r_epik_Charging_Adjusted_Penalty>
0.000527207

> <i_epik_Tot_Q>
0

> <i_epik_Tot_abs_Q>
0

> <r_epik_Metal_State_Penalty>
-0

> <b_epik_Metal_Only>
0

> <s_lp_Force_Field>
OPLS_2005

> <r_lp_Energy>
19.3564

> <b_lp_Chiralities_Consistent>
1

> <s_lp_Variant>
AV-unprocessed.smi:2428-1

> <Gold.Version>
5.8.1

> <Gold.Id.Protein>
6NUR|6NUR_protein|mol2

> <Gold.PLP.Fitness>
41.8034

> <Gold.PLP.PLP>
-39.2703

> <Gold.PLP.part.hbond>
-1.0000

> <Gold.PLP.part.metal>
0.0000

> <Gold.PLP.part.buried>
-3.9736

> <Gold.PLP.part.nonpolar>
-33.1775

> <Gold.PLP.part.repulsive>
0.1085

> <Gold.PLP.ligand.clash>
0.0000

> <Gold.PLP.ligand.torsion>
0.2439

> <Gold.PLP.Chemscore.Hbond>
1.0000

> <Gold.PLP.Chemscore.CHOScore>
0.0000

> <Gold.PLP.Chemscore.Metal>
0.0000

> <Gold.Chemscore.Hbonds>
donor molecule, donor type, donor heavy atom, donor atom, acceptor molecule, acceptor atom, score
      P1  H  7997  8010       L1    16  1.00

> <Gold.PLP.Chemscore.Internal.Correction>
0.0208

> <Gold.Rescore>
     Score         DG    S(hbond)    S(metal)    S(lipo)     H(rot)  DE(clash)    DE(int)     intcor
     15.00     -15.50       0.95        0.00      85.90       1.25       0.22       0.28       ----

> <Gold.Chemscore.Fitness>
14.9990

> <Gold.Chemscore.DG>
-15.5037

> <Gold.Chemscore.ZeroCoef>
-5.4800

> <Gold.Chemscore.Hbond>
0.9512

> <Gold.Chemscore.Metal>
0.0000

> <Gold.Chemscore.Lipo>
85.9000

> <Gold.Chemscore.Internal_Hbond>
0.0000

> <Gold.Chemscore.DEClash>
0.2206

> <Gold.Chemscore.DEInternal>
0.2841

> <Gold.Chemscore.Rot>
1.2514

> <Gold.Chemscore.Internal.Correction>
   9.000000E+99

> <Gold.Chemscore.Hbonds>
donor molecule, donor type, donor heavy atom, donor atom, acceptor molecule, acceptor atom, score
      P1  H  7997  8010       L1    16  0.67

> <Gold.Chemscore.Hbond.Weighted>
-3.1770

> <Gold.Chemscore.Metal.Weighted>
-0.0000

> <Gold.Chemscore.Lipo.Weighted>
-10.0503

> <Gold.Chemscore.Internal_Hbond.Weighted>
0.0000

> <Gold.Chemscore.DEClash.Weighted>
0.2206

> <Gold.Chemscore.DEInternal.Weighted>
0.2841

> <Gold.Chemscore.Rot.Weighted>
3.2036

> <Gold.Chemscore.Internal.Correction.Weighted>
   9.000000E+99

> <Gold.Protein.RotatedTorsions>
[ 6907 6896 6895 6894 ] final  115.57 input  -60.11 | X-H torsion
[ 7974 7965 7964 7962 ] final  -46.94 input  175.53 | X-H torsion
[ 8008 7997 7996 7995 ] final   56.96 input   59.86 | X-H torsion
[ 10167 10162 10161 10158 ] final   24.23 input  -65.29 | X-H torsion
[ 10718 10713 10712 10709 ] final -146.62 input   66.30 | X-H torsion
[ 10763 10752 10751 10750 ] final  -31.04 input  -60.55 | X-H torsion
[ 11005 11000 10999 10996 ] final    4.35 input  -57.11 | X-H torsion

> <Gold.Protein.ActiveResidues>
 VAL166  LYS551  ARG553  GLY616  TRP617  ASP618  TYR619  PRO620  LYS621  CYS622 
 ASP623  PHE694  ASN695  SER759  ASP760  ASP761  ALA762  ILE779  LEU786  VAL792 
 PHE793  MET794  SER795  GLU796  ALA797  LYS798  CYS799  TRP800  GLU811  SER814 

> <Gold.Protein.RotatedAtoms>
  152.4733  133.8080  159.6988 H   0  0  0  0  0  0  0  0  0  0  0  0  # atno 6907 bound_to 6896
  150.8735  133.7462  159.2960 H   0  0  0  0  0  0  0  0  0  0  0  0  # atno 6908 bound_to 6896
  151.4989  135.1064  159.9876 H   0  0  0  0  0  0  0  0  0  0  0  0  # atno 6909 bound_to 6896
  145.9668  140.7424  142.9430 H   0  0  0  0  0  0  0  0  0  0  0  0  # atno 7974 bound_to 7965
  155.5260  140.3481  155.4416 H   0  0  0  0  0  0  0  0  0  0  0  0  # atno 8008 bound_to 7997
  156.0751  140.1372  156.9808 H   0  0  0  0  0  0  0  0  0  0  0  0  # atno 8009 bound_to 7997
  154.4549  140.0957  156.6703 H   0  0  0  0  0  0  0  0  0  0  0  0  # atno 8010 bound_to 7997
  140.5205  144.0011  150.6414 H   0  0  0  0  0  0  0  0  0  0  0  0  # atno 10167 bound_to 10162
  156.3972  130.7915  151.2123 H   0  0  0  0  0  0  0  0  0  0  0  0  # atno 10718 bound_to 10713
  153.7908  135.6898  153.4872 H   0  0  0  0  0  0  0  0  0  0  0  0  # atno 10763 bound_to 10752
  153.1750  135.4528  154.9952 H   0  0  0  0  0  0  0  0  0  0  0  0  # atno 10764 bound_to 10752
  154.8045  135.3351  154.7404 H   0  0  0  0  0  0  0  0  0  0  0  0  # atno 10765 bound_to 10752
  140.5829  133.9996  155.8055 H   0  0  0  0  0  0  0  0  0  0  0  0  # atno 11005 bound_to 11000
  144.6827  140.2682  143.7309 LP  0  0  0  0  0  0  0  0  0  0  0  0  # atno 17320 bound_to 7965
  145.7963  139.1946  143.2074 LP  0  0  0  0  0  0  0  0  0  0  0  0  # atno 17321 bound_to 7965
  140.3358  143.3049  152.0639 LP  0  0  0  0  0  0  0  0  0  0  0  0  # atno 17342 bound_to 10162
  139.4922  144.6477  151.6743 LP  0  0  0  0  0  0  0  0  0  0  0  0  # atno 17343 bound_to 10162
  157.7502  131.0298  150.4107 LP  0  0  0  0  0  0  0  0  0  0  0  0  # atno 17370 bound_to 10713
  156.4380  130.3985  149.6716 LP  0  0  0  0  0  0  0  0  0  0  0  0  # atno 17371 bound_to 10713
  141.0985  133.9806  157.3120 LP  0  0  0  0  0  0  0  0  0  0  0  0  # atno 17394 bound_to 11000
  139.9309  135.0200  156.8396 LP  0  0  0  0  0  0  0  0  0  0  0  0  # atno 17395 bound_to 11000

$$$$
