AV-unprocessed.smi:464|AV-procd|sdf|2638|dock9
  -GOLD-   2262023 43D 1   1.00000     0.00000
 Structure written by MMmdl.
 24 25  0  0  0  0  0  0  0  0  2 V2000
  150.1898  140.4684  154.8417 O   0  0  0  0  0  0  0  0  0  0  0  0
  150.7412  140.9644  155.8216 C   0  0  0  0  0  0  0  0  0  0  0  0
  150.4310  142.2422  156.1313 N   0  0  0  0  0  0  0  0  0  0  0  0
  151.0063  142.8934  157.2241 C   0  0  0  0  0  0  0  0  0  0  0  0
  151.9001  142.2705  158.0203 C   0  0  0  0  0  0  0  0  0  0  0  0
  152.4913  142.8911  159.1106 N   0  0  0  0  0  0  0  0  0  0  0  0
  152.7967  142.1974  160.3538 C   0  0  0  0  0  0  0  0  0  0  0  0
  152.0078  142.8234  161.5176 C   0  0  0  0  0  0  0  0  0  0  0  0
  152.2842  144.2199  161.5853 O   0  0  0  0  0  0  0  0  0  0  0  0
  151.9017  144.9005  160.3930 C   0  0  0  0  0  0  0  0  0  0  0  0
  152.6882  144.3310  159.1987 C   0  0  0  0  0  0  0  0  0  0  0  0
  152.2464  140.8772  157.6979 C   0  0  0  0  0  0  0  0  0  0  0  0
  153.0544  140.2652  158.3969 O   0  0  0  0  0  0  0  0  0  0  0  0
  151.6433  140.3050  156.6116 N   0  5  0  0  0  0  0  0  0  0  0  0
  149.7689  142.7533  155.5658 H   0  0  0  0  0  0  0  0  0  0  0  0
  150.6747  143.9121  157.3596 H   0  0  0  0  0  0  0  0  0  0  0  0
  152.5567  141.1372  160.2645 H   0  0  0  0  0  0  0  0  0  0  0  0
  153.8684  142.2649  160.5441 H   0  0  0  0  0  0  0  0  0  0  0  0
  150.9361  142.6595  161.3959 H   0  0  0  0  0  0  0  0  0  0  0  0
  152.2952  142.3579  162.4604 H   0  0  0  0  0  0  0  0  0  0  0  0
  150.8266  144.8026  160.2346 H   0  0  0  0  0  0  0  0  0  0  0  0
  152.1105  145.9641  160.5085 H   0  0  0  0  0  0  0  0  0  0  0  0
  153.7528  144.5380  159.3135 H   0  0  0  0  0  0  0  0  0  0  0  0
  152.3688  144.8140  158.2743 H   0  0  0  0  0  0  0  0  0  0  0  0
  1  2  2  0  0  0  0
  2 14  1  0  0  0  0
  2  3  1  0  0  0  0
  3 15  1  0  0  0  0
  3  4  1  0  0  0  0
  4  5  2  0  0  0  0
  4 16  1  0  0  0  0
  5  6  1  0  0  0  0
  5 12  1  0  0  0  0
  6 11  1  0  0  0  0
  6  7  1  0  0  0  0
  7  8  1  0  0  0  0
  7 17  1  0  0  0  0
  7 18  1  0  0  0  0
  8  9  1  0  0  0  0
  8 19  1  0  0  0  0
  8 20  1  0  0  0  0
  9 10  1  0  0  0  0
 10 11  1  0  0  0  0
 10 21  1  0  0  0  0
 10 22  1  0  0  0  0
 11 23  1  0  0  0  0
 11 24  1  0  0  0  0
 12 13  2  0  0  0  0
 12 14  1  0  0  0  0
M  CHG  1  14  -1
M  END
> <s_m_source_file>
AV-unprocessed.smi

> <i_m_source_file_index>
464

> <i_lp_mmshare_version>
43012

> <i_f3d_flags>
0

> <s_epik_input>
Tz1jMVtuSF1bY0hdYyhjKD1PKVtuSF0xKU4yW0NIMl1bQ0gyXU9bQ0gyXVtDSDJdMg==

> <s_epik_cmdline>
J2VwaWtfcHl0aG9uJywgJy1waCcsICc3LjAnLCAnLXRuJywgJzgnLCAnLW1hJywgJzIwMCcsICctbWV0YWxfYmluZGluZycsICctaW1hZScsICc8aW5maWxlLm1hZT4nLCAnLW9tYWUnLCAnPG91dGZpbGUubWFlPic=

> <r_lp_tautomer_probability>
0.999801

> <r_epik_Ionization_Penalty>
3.03283

> <r_epik_Ionization_Penalty_Charging>
1.33068e-05

> <r_epik_Ionization_Penalty_Neutral>
3.03282

> <r_epik_State_Penalty>
3.03418

> <r_epik_Charging_Adjusted_Penalty>
3.03419

> <i_epik_Tot_Q>
-1

> <i_epik_Tot_abs_Q>
1

> <r_epik_Metal_State_Penalty>
0.478531

> <b_epik_Metal_Only>
1

> <s_lp_Force_Field>
OPLS_2005

> <r_lp_Energy>
27.0677

> <b_lp_Chiralities_Consistent>
1

> <s_lp_Variant>
AV-unprocessed.smi:464-3

> <Gold.Version>
5.8.1

> <Gold.Id.Protein>
6NUR|6NUR_protein|mol2

> <Gold.PLP.Fitness>
38.2352

> <Gold.PLP.PLP>
-29.5883

> <Gold.PLP.part.hbond>
-3.0000

> <Gold.PLP.part.metal>
0.0000

> <Gold.PLP.part.buried>
-1.8540

> <Gold.PLP.part.nonpolar>
-23.8933

> <Gold.PLP.part.repulsive>
0.3620

> <Gold.PLP.ligand.clash>
0.0000

> <Gold.PLP.ligand.torsion>
0.4183

> <Gold.PLP.Chemscore.Hbond>
2.2439

> <Gold.PLP.Chemscore.CHOScore>
0.6551

> <Gold.PLP.Chemscore.Metal>
0.0000

> <Gold.Chemscore.Hbonds>
donor molecule, donor type, donor heavy atom, donor atom, acceptor molecule, acceptor atom, score
      L1  H     3    15       P1  8028  0.48
      P1  H  7989  7998       L1     1  0.88
      P1  H  7997  8010       L1    13  0.79
      L1  C     4    16       P1  8028  0.64

> <Gold.PLP.Chemscore.Internal.Correction>
0.7863

> <Gold.Rescore>
     Score         DG    S(hbond)    S(metal)    S(lipo)     H(rot)  DE(clash)    DE(int)     intcor
     17.51     -19.86       1.99        0.00      66.19       0.00       0.48       1.87       ----

> <Gold.Chemscore.Fitness>
17.5119

> <Gold.Chemscore.DG>
-19.8622

> <Gold.Chemscore.ZeroCoef>
-5.4800

> <Gold.Chemscore.Hbond>
1.9875

> <Gold.Chemscore.Metal>
0.0000

> <Gold.Chemscore.Lipo>
66.1888

> <Gold.Chemscore.Internal_Hbond>
0.0000

> <Gold.Chemscore.DEClash>
0.4838

> <Gold.Chemscore.DEInternal>
1.8666

> <Gold.Chemscore.Rot>
0.0000

> <Gold.Chemscore.Internal.Correction>
   9.000000E+99

> <Gold.Chemscore.Hbonds>
donor molecule, donor type, donor heavy atom, donor atom, acceptor molecule, acceptor atom, score
      L1  H     3    15       P1  8028  0.48
      P1  H  7989  7998       L1     1  0.16
      P1  H  7997  8010       L1    13  0.26

> <Gold.Chemscore.Hbond.Weighted>
-6.6382

> <Gold.Chemscore.Metal.Weighted>
-0.0000

> <Gold.Chemscore.Lipo.Weighted>
-7.7441

> <Gold.Chemscore.Internal_Hbond.Weighted>
0.0000

> <Gold.Chemscore.DEClash.Weighted>
0.4838

> <Gold.Chemscore.DEInternal.Weighted>
1.8666

> <Gold.Chemscore.Rot.Weighted>
0.0000

> <Gold.Chemscore.Internal.Correction.Weighted>
   9.000000E+99

> <Gold.Protein.RotatedTorsions>
[ 6907 6896 6895 6894 ] final  173.19 input  -60.11 | X-H torsion
[ 7974 7965 7964 7962 ] final -170.60 input  175.53 | X-H torsion
[ 8008 7997 7996 7995 ] final   27.83 input   59.86 | X-H torsion
[ 10167 10162 10161 10158 ] final   43.33 input  -65.29 | X-H torsion
[ 10718 10713 10712 10709 ] final  -20.12 input   66.30 | X-H torsion
[ 10763 10752 10751 10750 ] final  128.56 input  -60.55 | X-H torsion
[ 11005 11000 10999 10996 ] final  150.96 input  -57.11 | X-H torsion

> <Gold.Protein.ActiveResidues>
 VAL166  LYS551  ARG553  GLY616  TRP617  ASP618  TYR619  PRO620  LYS621  CYS622 
 ASP623  PHE694  ASN695  SER759  ASP760  ASP761  ALA762  ILE779  LEU786  VAL792 
 PHE793  MET794  SER795  GLU796  ALA797  LYS798  CYS799  TRP800  GLU811  SER814 

> <Gold.Protein.RotatedAtoms>
  151.7722  133.3342  159.3447 H   0  0  0  0  0  0  0  0  0  0  0  0  # atno 6907 bound_to 6896
  150.7457  134.6008  159.6045 H   0  0  0  0  0  0  0  0  0  0  0  0  # atno 6908 bound_to 6896
  152.3333  134.7232  160.0335 H   0  0  0  0  0  0  0  0  0  0  0  0  # atno 6909 bound_to 6896
  144.7168  140.2047  143.6334 H   0  0  0  0  0  0  0  0  0  0  0  0  # atno 7974 bound_to 7965
  155.0491  140.3178  155.4698 H   0  0  0  0  0  0  0  0  0  0  0  0  # atno 8008 bound_to 7997
  156.2838  140.2149  156.5560 H   0  0  0  0  0  0  0  0  0  0  0  0  # atno 8009 bound_to 7997
  154.7226  140.0488  157.0641 H   0  0  0  0  0  0  0  0  0  0  0  0  # atno 8010 bound_to 7997
  140.3454  144.2417  150.6151 H   0  0  0  0  0  0  0  0  0  0  0  0  # atno 10167 bound_to 10162
  156.5363  130.4667  149.6521 H   0  0  0  0  0  0  0  0  0  0  0  0  # atno 10718 bound_to 10713
  153.7275  135.3244  155.3279 H   0  0  0  0  0  0  0  0  0  0  0  0  # atno 10763 bound_to 10752
  154.8336  135.4514  154.1155 H   0  0  0  0  0  0  0  0  0  0  0  0  # atno 10764 bound_to 10752
  153.2293  135.6958  153.7989 H   0  0  0  0  0  0  0  0  0  0  0  0  # atno 10765 bound_to 10752
  140.1177  134.8884  157.2027 H   0  0  0  0  0  0  0  0  0  0  0  0  # atno 11005 bound_to 11000
  145.8647  139.2241  143.1696 LP  0  0  0  0  0  0  0  0  0  0  0  0  # atno 17320 bound_to 7965
  146.0141  140.8409  142.9956 LP  0  0  0  0  0  0  0  0  0  0  0  0  # atno 17321 bound_to 7965
  140.5269  143.2252  151.8300 LP  0  0  0  0  0  0  0  0  0  0  0  0  # atno 17342 bound_to 10162
  139.4834  144.4768  151.9356 LP  0  0  0  0  0  0  0  0  0  0  0  0  # atno 17343 bound_to 10162
  156.3013  130.7178  151.2050 LP  0  0  0  0  0  0  0  0  0  0  0  0  # atno 17370 bound_to 10713
  157.7413  131.0505  150.5106 LP  0  0  0  0  0  0  0  0  0  0  0  0  # atno 17371 bound_to 10713
  140.3007  134.3135  155.7290 LP  0  0  0  0  0  0  0  0  0  0  0  0  # atno 17394 bound_to 11000
  141.2145  133.7590  156.9636 LP  0  0  0  0  0  0  0  0  0  0  0  0  # atno 17395 bound_to 11000

$$$$
