AV-unprocessed.smi:2061|AV-procd|sdf|8380|dock10
  -GOLD-   2272011 63D 1   1.00000     0.00000
 Structure written by MMmdl.
 45 46  0  0  0  0  0  0  0  0  3 V2000
  151.0585  141.3649  156.2659 C   0  0  0  0  0  0  0  0  0  0  0  0
  151.4147  140.0486  155.6638 C   0  0  0  0  0  0  0  0  0  0  0  0
  150.7113  138.8922  155.4795 C   0  0  0  0  0  0  0  0  0  0  0  0
  151.6508  138.0394  154.8383 C   0  0  0  0  0  0  0  0  0  0  0  0
  151.4295  136.7724  154.4547 N   0  5  0  0  0  0  0  0  0  0  0  0
  150.5208  136.0129  155.1078 C   0  0  0  0  0  0  0  0  0  0  0  0
  150.5563  135.6884  156.2971 O   0  0  0  0  0  0  0  0  0  0  0  0
  149.5105  135.5947  154.3321 N   0  0  0  0  0  0  0  0  0  0  0  0
  148.4063  134.7404  154.7601 C   0  0  0  0  0  0  0  0  0  0  0  0
  148.1886  133.5155  153.8301 C   0  0  2  0  0  0  0  0  0  0  0  0
  149.5528  132.8827  153.4600 C   0  0  0  0  0  0  0  0  0  0  0  0
  147.3690  133.8984  152.6334 N   0  3  1  0  0  0  0  0  0  0  0  0
  147.0838  132.7905  151.6797 C   0  0  0  0  0  0  0  0  0  0  0  0
  146.2641  133.2849  150.4722 C   0  0  1  0  0  0  0  0  0  0  0  0
  145.8818  132.1398  149.5275 C   0  0  0  0  0  0  0  0  0  0  0  0
  145.0652  133.8941  150.9310 O   0  0  0  0  0  0  0  0  0  0  0  0
  145.3201  135.0260  151.7508 C   0  0  1  0  0  0  0  0  0  0  0  0
  143.9745  135.6703  152.1031 C   0  0  0  0  0  0  0  0  0  0  0  0
  146.0925  134.5701  153.0022 C   0  0  0  0  0  0  0  0  0  0  0  0
  152.8268  138.6199  154.6672 N   0  0  0  0  0  0  0  0  0  0  0  0
  152.6816  139.9116  155.1875 O   0  0  0  0  0  0  0  0  0  0  0  0
  151.0558  141.3023  157.3540 H   0  0  0  0  0  0  0  0  0  0  0  0
  150.0671  141.6819  155.9420 H   0  0  0  0  0  0  0  0  0  0  0  0
  151.7708  142.1365  155.9729 H   0  0  0  0  0  0  0  0  0  0  0  0
  149.6869  138.6894  155.7540 H   0  0  0  0  0  0  0  0  0  0  0  0
  149.5167  135.8878  153.3659 H   0  0  0  0  0  0  0  0  0  0  0  0
  148.5983  134.4499  155.7917 H   0  0  0  0  0  0  0  0  0  0  0  0
  147.5031  135.3507  154.7826 H   0  0  0  0  0  0  0  0  0  0  0  0
  147.6277  132.7542  154.3743 H   0  0  0  0  0  0  0  0  0  0  0  0
  150.1462  132.6516  154.3443 H   0  0  0  0  0  0  0  0  0  0  0  0
  150.1461  133.5512  152.8353 H   0  0  0  0  0  0  0  0  0  0  0  0
  149.4356  131.9350  152.9348 H   0  0  0  0  0  0  0  0  0  0  0  0
  148.0092  132.3677  151.2905 H   0  0  0  0  0  0  0  0  0  0  0  0
  146.5508  131.9927  152.2001 H   0  0  0  0  0  0  0  0  0  0  0  0
  146.8457  134.0172  149.9092 H   0  0  0  0  0  0  0  0  0  0  0  0
  146.7684  131.6434  149.1323 H   0  0  0  0  0  0  0  0  0  0  0  0
  145.3033  132.5102  148.6807 H   0  0  0  0  0  0  0  0  0  0  0  0
  145.2784  131.3895  150.0396 H   0  0  0  0  0  0  0  0  0  0  0  0
  145.9150  135.7516  151.1930 H   0  0  0  0  0  0  0  0  0  0  0  0
  144.1128  136.5553  152.7247 H   0  0  0  0  0  0  0  0  0  0  0  0
  143.3343  134.9754  152.6474 H   0  0  0  0  0  0  0  0  0  0  0  0
  143.4419  135.9778  151.2029 H   0  0  0  0  0  0  0  0  0  0  0  0
  145.4797  133.8841  153.5896 H   0  0  0  0  0  0  0  0  0  0  0  0
  146.2723  135.4424  153.6271 H   0  0  0  0  0  0  0  0  0  0  0  0
  147.9189  134.5718  152.1196 H   0  0  0  0  0  0  0  0  0  0  0  0
  1  2  1  0  0  0  0
  1 22  1  0  0  0  0
  1 23  1  0  0  0  0
  1 24  1  0  0  0  0
  2 21  1  0  0  0  0
  2  3  2  0  0  0  0
  3  4  1  0  0  0  0
  3 25  1  0  0  0  0
  4  5  1  0  0  0  0
  4 20  2  0  0  0  0
  5  6  1  0  0  0  0
  6  7  2  0  0  0  0
  6  8  1  0  0  0  0
  8  9  1  0  0  0  0
  8 26  1  0  0  0  0
  9 10  1  0  0  0  0
  9 27  1  0  0  0  0
  9 28  1  0  0  0  0
 10 11  1  0  0  0  0
 10 12  1  0  0  0  0
 10 29  1  0  0  0  0
 11 30  1  0  0  0  0
 11 31  1  0  0  0  0
 11 32  1  0  0  0  0
 12 19  1  0  0  0  0
 12 13  1  0  0  0  0
 12 45  1  0  0  0  0
 13 14  1  0  0  0  0
 13 33  1  0  0  0  0
 13 34  1  0  0  0  0
 14 15  1  0  0  0  0
 14 16  1  0  0  0  0
 14 35  1  0  0  0  0
 15 36  1  0  0  0  0
 15 37  1  0  0  0  0
 15 38  1  0  0  0  0
 16 17  1  0  0  0  0
 17 18  1  0  0  0  0
 17 19  1  0  0  0  0
 17 39  1  0  0  0  0
 18 40  1  0  0  0  0
 18 41  1  0  0  0  0
 18 42  1  0  0  0  0
 19 43  1  0  0  0  0
 19 44  1  0  0  0  0
 20 21  1  0  0  0  0
M  CHG  1   5  -1
M  CHG  1  12   1
M  END
> <s_m_source_file>
AV-unprocessed.smi

> <i_m_source_file_index>
2061

> <i_lp_mmshare_version>
43012

> <i_f3d_flags>
0

> <s_epik_input>
W0NIM11jMVtjSF1jKG5vMSlbTkhdQyg9TylbTkhdW0NIMl1bQ0BIXShbQ0gzXSlOMltDSDJdW0NAQEhdKFtDSDNdKU9bQ0BASF0oW0NIM10pW0NIMl0y

> <s_epik_cmdline>
J2VwaWtfcHl0aG9uJywgJy1waCcsICc3LjAnLCAnLXRuJywgJzgnLCAnLW1hJywgJzIwMCcsICctbWV0YWxfYmluZGluZycsICctaW1hZScsICc8aW5maWxlLm1hZT4nLCAnLW9tYWUnLCAnPG91dGZpbGUubWFlPic=

> <r_epik_Ionization_Penalty>
6.73511

> <r_epik_Ionization_Penalty_Charging>
6.73502

> <r_epik_Ionization_Penalty_Neutral>
9.50841e-05

> <r_epik_State_Penalty>
6.93549

> <r_epik_Charging_Adjusted_Penalty>
13.6705

> <i_epik_Tot_Q>
0

> <i_epik_Tot_abs_Q>
2

> <r_epik_Metal_State_Penalty>
2.87211

> <b_epik_Metal_Only>
1

> <s_lp_Force_Field>
OPLS_2005

> <r_lp_Energy>
7.84015

> <b_lp_Chiralities_Consistent>
1

> <s_lp_Variant>
AV-unprocessed.smi:2061-21

> <Gold.Version>
5.8.1

> <Gold.Id.Protein>
6NUR|6NUR_protein|mol2

> <Gold.PLP.Fitness>
53.1430

> <Gold.PLP.PLP>
-37.0228

> <Gold.PLP.part.hbond>
-5.0000

> <Gold.PLP.part.metal>
0.0000

> <Gold.PLP.part.buried>
-4.6789

> <Gold.PLP.part.nonpolar>
-27.8547

> <Gold.PLP.part.repulsive>
0.3782

> <Gold.PLP.ligand.clash>
0.0000

> <Gold.PLP.ligand.torsion>
0.9876

> <Gold.PLP.Chemscore.Hbond>
6.0000

> <Gold.PLP.Chemscore.CHOScore>
0.0000

> <Gold.PLP.Chemscore.Metal>
0.0000

> <Gold.Chemscore.Hbonds>
donor molecule, donor type, donor heavy atom, donor atom, acceptor molecule, acceptor atom, score
      L1  H     8    26       P1  7948  1.00
      L1  H    12    45       P1  7948  2.00
      P1  H  7997  8010       L1    21  0.95
      P1  H 10752 10765       L1     5  2.00

> <Gold.PLP.Chemscore.Internal.Correction>
0.0954

> <Gold.Rescore>
     Score         DG    S(hbond)    S(metal)    S(lipo)     H(rot)  DE(clash)    DE(int)     intcor
     18.10     -19.15       2.91        0.00      67.90       1.56       0.10       0.95       ----

> <Gold.Chemscore.Fitness>
18.0988

> <Gold.Chemscore.DG>
-19.1522

> <Gold.Chemscore.ZeroCoef>
-5.4800

> <Gold.Chemscore.Hbond>
2.9068

> <Gold.Chemscore.Metal>
0.0000

> <Gold.Chemscore.Lipo>
67.8998

> <Gold.Chemscore.Internal_Hbond>
0.0000

> <Gold.Chemscore.DEClash>
0.1002

> <Gold.Chemscore.DEInternal>
0.9532

> <Gold.Chemscore.Rot>
1.5550

> <Gold.Chemscore.Internal.Correction>
   9.000000E+99

> <Gold.Chemscore.Hbonds>
donor molecule, donor type, donor heavy atom, donor atom, acceptor molecule, acceptor atom, score
      L1  H     8    26       P1  7948  0.25
      L1  H    12    45       P1  7948  0.30
      P1  H  7997  8010       L1    21  0.21
      P1  H 10752 10765       L1     5  0.42

> <Gold.Chemscore.Hbond.Weighted>
-9.7088

> <Gold.Chemscore.Metal.Weighted>
-0.0000

> <Gold.Chemscore.Lipo.Weighted>
-7.9443

> <Gold.Chemscore.Internal_Hbond.Weighted>
0.0000

> <Gold.Chemscore.DEClash.Weighted>
0.1002

> <Gold.Chemscore.DEInternal.Weighted>
0.9532

> <Gold.Chemscore.Rot.Weighted>
3.9809

> <Gold.Chemscore.Internal.Correction.Weighted>
   9.000000E+99

> <Gold.Protein.RotatedTorsions>
[ 6907 6896 6895 6894 ] final   -0.14 input  -60.11 | X-H torsion
[ 7974 7965 7964 7962 ] final  152.25 input  175.53 | X-H torsion
[ 8008 7997 7996 7995 ] final  114.34 input   59.86 | X-H torsion
[ 10167 10162 10161 10158 ] final -159.27 input  -65.29 | X-H torsion
[ 10718 10713 10712 10709 ] final  131.18 input   66.30 | X-H torsion
[ 10763 10752 10751 10750 ] final  164.65 input  -60.55 | X-H torsion
[ 11005 11000 10999 10996 ] final -145.80 input  -57.11 | X-H torsion

> <Gold.Protein.ActiveResidues>
 VAL166  LYS551  ARG553  GLY616  TRP617  ASP618  TYR619  PRO620  LYS621  CYS622 
 ASP623  PHE694  ASN695  SER759  ASP760  ASP761  ALA762  ILE779  LEU786  VAL792 
 PHE793  MET794  SER795  GLU796  ALA797  LYS798  CYS799  TRP800  GLU811  SER814 

> <Gold.Protein.RotatedAtoms>
  151.5671  135.1063  159.9986 H   0  0  0  0  0  0  0  0  0  0  0  0  # atno 6907 bound_to 6896
  152.4418  133.7459  159.6677 H   0  0  0  0  0  0  0  0  0  0  0  0  # atno 6908 bound_to 6896
  150.8326  133.7998  159.3116 H   0  0  0  0  0  0  0  0  0  0  0  0  # atno 6909 bound_to 6896
  144.8235  139.6644  143.6090 H   0  0  0  0  0  0  0  0  0  0  0  0  # atno 7974 bound_to 7965
  156.2315  140.2961  156.0200 H   0  0  0  0  0  0  0  0  0  0  0  0  # atno 8008 bound_to 7997
  155.2212  140.0415  157.2966 H   0  0  0  0  0  0  0  0  0  0  0  0  # atno 8009 bound_to 7997
  154.6004  140.2425  155.7808 H   0  0  0  0  0  0  0  0  0  0  0  0  # atno 8010 bound_to 7997
  139.6628  143.9883  152.2236 H   0  0  0  0  0  0  0  0  0  0  0  0  # atno 10167 bound_to 10162
  157.4991  131.1093  150.9451 H   0  0  0  0  0  0  0  0  0  0  0  0  # atno 10718 bound_to 10713
  154.3121  135.2757  155.2561 H   0  0  0  0  0  0  0  0  0  0  0  0  # atno 10763 bound_to 10752
  154.4951  135.5823  153.6492 H   0  0  0  0  0  0  0  0  0  0  0  0  # atno 10764 bound_to 10752
  152.9887  135.6144  154.3299 H   0  0  0  0  0  0  0  0  0  0  0  0  # atno 10765 bound_to 10752
  140.7885  134.2996  157.5021 H   0  0  0  0  0  0  0  0  0  0  0  0  # atno 11005 bound_to 11000
  146.2541  139.6263  142.9407 LP  0  0  0  0  0  0  0  0  0  0  0  0  # atno 17320 bound_to 7965
  145.5051  141.0437  143.2519 LP  0  0  0  0  0  0  0  0  0  0  0  0  # atno 17321 bound_to 7965
  139.9626  144.6547  150.8065 LP  0  0  0  0  0  0  0  0  0  0  0  0  # atno 17342 bound_to 10162
  140.7587  143.3113  151.2839 LP  0  0  0  0  0  0  0  0  0  0  0  0  # atno 17343 bound_to 10162
  157.0128  130.5643  149.5322 LP  0  0  0  0  0  0  0  0  0  0  0  0  # atno 17370 bound_to 10713
  156.0218  130.5313  150.8298 LP  0  0  0  0  0  0  0  0  0  0  0  0  # atno 17371 bound_to 10713
  139.8734  134.9361  156.3650 LP  0  0  0  0  0  0  0  0  0  0  0  0  # atno 17394 bound_to 11000
  140.9412  133.7513  156.0149 LP  0  0  0  0  0  0  0  0  0  0  0  0  # atno 17395 bound_to 11000

$$$$
