AV-unprocessed.smi:2061|AV-procd|sdf|8364|dock8
  -GOLD-   2272011 33D 1   1.00000     0.00000
 Structure written by MMmdl.
 45 46  0  0  0  0  0  0  0  0  1 V2000
  143.3240  133.0688  150.3361 C   0  0  0  0  0  0  0  0  0  0  0  0
  143.9545  134.2981  150.8959 C   0  0  0  0  0  0  0  0  0  0  0  0
  145.1590  134.9062  150.6792 C   0  0  0  0  0  0  0  0  0  0  0  0
  145.1094  136.0315  151.5445 C   0  0  0  0  0  0  0  0  0  0  0  0
  146.1968  136.9385  151.6228 N   0  0  0  0  0  0  0  0  0  0  0  0
  146.1634  138.2254  152.0089 C   0  0  0  0  0  0  0  0  0  0  0  0
  145.1496  138.8377  152.3466 O   0  0  0  0  0  0  0  0  0  0  0  0
  147.3864  138.7741  151.9771 N   0  0  0  0  0  0  0  0  0  0  0  0
  147.7080  140.1585  152.3192 C   0  0  0  0  0  0  0  0  0  0  0  0
  147.4787  140.4658  153.8225 C   0  0  2  0  0  0  0  0  0  0  0  0
  146.8898  141.8894  153.9450 C   0  0  0  0  0  0  0  0  0  0  0  0
  148.6702  140.2441  154.6717 N   0  0  0  0  0  0  0  0  0  0  0  0
  149.4817  141.4551  154.8282 C   0  0  0  0  0  0  0  0  0  0  0  0
  150.7341  141.2424  155.7012 C   0  0  1  0  0  0  0  0  0  0  0  0
  150.4143  141.1039  157.1997 C   0  0  0  0  0  0  0  0  0  0  0  0
  151.4945  140.1386  155.2143 O   0  0  0  0  0  0  0  0  0  0  0  0
  150.7607  138.9281  155.0568 C   0  0  2  0  0  0  0  0  0  0  0  0
  151.7034  137.8766  154.4618 C   0  0  0  0  0  0  0  0  0  0  0  0
  149.5360  139.1803  154.1588 C   0  0  0  0  0  0  0  0  0  0  0  0
  143.9764  136.1043  152.2266 N   0  0  0  0  0  0  0  0  0  0  0  0
  143.2307  134.9936  151.8145 O   0  0  0  0  0  0  0  0  0  0  0  0
  143.7734  132.8021  149.3794 H   0  0  0  0  0  0  0  0  0  0  0  0
  142.2557  133.2174  150.1768 H   0  0  0  0  0  0  0  0  0  0  0  0
  143.4511  132.2268  151.0165 H   0  0  0  0  0  0  0  0  0  0  0  0
  145.9468  134.5928  150.0103 H   0  0  0  0  0  0  0  0  0  0  0  0
  147.0981  136.5653  151.3643 H   0  0  0  0  0  0  0  0  0  0  0  0
  148.1573  138.1955  151.6774 H   0  0  0  0  0  0  0  0  0  0  0  0
  148.7358  140.3979  152.0414 H   0  0  0  0  0  0  0  0  0  0  0  0
  147.1031  140.8124  151.6922 H   0  0  0  0  0  0  0  0  0  0  0  0
  146.6972  139.7818  154.1574 H   0  0  0  0  0  0  0  0  0  0  0  0
  146.0988  142.0548  153.2131 H   0  0  0  0  0  0  0  0  0  0  0  0
  147.6515  142.6529  153.7833 H   0  0  0  0  0  0  0  0  0  0  0  0
  146.4397  142.0644  154.9216 H   0  0  0  0  0  0  0  0  0  0  0  0
  149.7924  141.8104  153.8444 H   0  0  0  0  0  0  0  0  0  0  0  0
  148.8989  142.2577  155.2769 H   0  0  0  0  0  0  0  0  0  0  0  0
  151.3702  142.1214  155.5926 H   0  0  0  0  0  0  0  0  0  0  0  0
  149.9426  142.0100  157.5803 H   0  0  0  0  0  0  0  0  0  0  0  0
  151.3238  140.9377  157.7772 H   0  0  0  0  0  0  0  0  0  0  0  0
  149.7346  140.2759  157.3999 H   0  0  0  0  0  0  0  0  0  0  0  0
  150.4290  138.5753  156.0336 H   0  0  0  0  0  0  0  0  0  0  0  0
  151.1961  136.9193  154.3393 H   0  0  0  0  0  0  0  0  0  0  0  0
  152.5655  137.7153  155.1095 H   0  0  0  0  0  0  0  0  0  0  0  0
  152.0745  138.1869  153.4845 H   0  0  0  0  0  0  0  0  0  0  0  0
  148.9872  138.2424  154.0886 H   0  0  0  0  0  0  0  0  0  0  0  0
  149.8659  139.4288  153.1488 H   0  0  0  0  0  0  0  0  0  0  0  0
  1  2  1  0  0  0  0
  1 22  1  0  0  0  0
  1 23  1  0  0  0  0
  1 24  1  0  0  0  0
  2 21  1  0  0  0  0
  2  3  2  0  0  0  0
  3  4  1  0  0  0  0
  3 25  1  0  0  0  0
  4  5  1  0  0  0  0
  4 20  2  0  0  0  0
  5  6  1  0  0  0  0
  5 26  1  0  0  0  0
  6  7  2  0  0  0  0
  6  8  1  0  0  0  0
  8  9  1  0  0  0  0
  8 27  1  0  0  0  0
  9 10  1  0  0  0  0
  9 28  1  0  0  0  0
  9 29  1  0  0  0  0
 10 11  1  0  0  0  0
 10 12  1  0  0  0  0
 10 30  1  0  0  0  0
 11 31  1  0  0  0  0
 11 32  1  0  0  0  0
 11 33  1  0  0  0  0
 12 19  1  0  0  0  0
 12 13  1  0  0  0  0
 13 14  1  0  0  0  0
 13 34  1  0  0  0  0
 13 35  1  0  0  0  0
 14 15  1  0  0  0  0
 14 16  1  0  0  0  0
 14 36  1  0  0  0  0
 15 37  1  0  0  0  0
 15 38  1  0  0  0  0
 15 39  1  0  0  0  0
 16 17  1  0  0  0  0
 17 18  1  0  0  0  0
 17 19  1  0  0  0  0
 17 40  1  0  0  0  0
 18 41  1  0  0  0  0
 18 42  1  0  0  0  0
 18 43  1  0  0  0  0
 19 44  1  0  0  0  0
 19 45  1  0  0  0  0
 20 21  1  0  0  0  0
M  END
> <s_m_source_file>
AV-unprocessed.smi

> <i_m_source_file_index>
2061

> <i_lp_mmshare_version>
43012

> <i_f3d_flags>
0

> <s_epik_input>
W0NIM11jMVtjSF1jKG5vMSlbTkhdQyg9TylbTkhdW0NIMl1bQ0BIXShbQ0gzXSlOMltDSDJdW0NAQEhdKFtDSDNdKU9bQ0BASF0oW0NIM10pW0NIMl0y

> <s_epik_cmdline>
J2VwaWtfcHl0aG9uJywgJy1waCcsICc3LjAnLCAnLXRuJywgJzgnLCAnLW1hJywgJzIwMCcsICctbWV0YWxfYmluZGluZycsICctaW1hZScsICc8aW5maWxlLm1hZT4nLCAnLW9tYWUnLCAnPG91dGZpbGUubWFlPic=

> <r_epik_Ionization_Penalty>
0.214073

> <r_epik_Ionization_Penalty_Charging>
0

> <r_epik_Ionization_Penalty_Neutral>
0.214073

> <r_epik_State_Penalty>
0.204211

> <r_epik_Charging_Adjusted_Penalty>
0.204211

> <i_epik_Tot_Q>
0

> <i_epik_Tot_abs_Q>
0

> <r_epik_Metal_State_Penalty>
0.217067

> <b_epik_Metal_Only>
0

> <s_lp_Force_Field>
OPLS_2005

> <r_lp_Energy>
31.479

> <b_lp_Chiralities_Consistent>
1

> <s_lp_Variant>
AV-unprocessed.smi:2061-5

> <Gold.Version>
5.8.1

> <Gold.Id.Protein>
6NUR|6NUR_protein|mol2

> <Gold.PLP.Fitness>
40.8841

> <Gold.PLP.PLP>
-35.4096

> <Gold.PLP.part.hbond>
-4.0000

> <Gold.PLP.part.metal>
0.0000

> <Gold.PLP.part.buried>
-2.3221

> <Gold.PLP.part.nonpolar>
-34.6849

> <Gold.PLP.part.repulsive>
5.0026

> <Gold.PLP.ligand.clash>
0.0000

> <Gold.PLP.ligand.torsion>
1.2974

> <Gold.PLP.Chemscore.Hbond>
2.6768

> <Gold.PLP.Chemscore.CHOScore>
0.0000

> <Gold.PLP.Chemscore.Metal>
0.0000

> <Gold.Chemscore.Hbonds>
donor molecule, donor type, donor heavy atom, donor atom, acceptor molecule, acceptor atom, score
      L1  H     5    26       P1  7948  0.99
      L1  H     8    27       P1  7948  0.76
      P1  H  7989  7998       L1    16  0.65

> <Gold.PLP.Chemscore.Internal.Correction>
0.0390

> <Gold.Rescore>
     Score         DG    S(hbond)    S(metal)    S(lipo)     H(rot)  DE(clash)    DE(int)     intcor
     12.66     -18.13       2.03        0.00      83.88       1.55       3.34       2.13       ----

> <Gold.Chemscore.Fitness>
12.6576

> <Gold.Chemscore.DG>
-18.1276

> <Gold.Chemscore.ZeroCoef>
-5.4800

> <Gold.Chemscore.Hbond>
2.0346

> <Gold.Chemscore.Metal>
0.0000

> <Gold.Chemscore.Lipo>
83.8754

> <Gold.Chemscore.Internal_Hbond>
0.0000

> <Gold.Chemscore.DEClash>
3.3410

> <Gold.Chemscore.DEInternal>
2.1291

> <Gold.Chemscore.Rot>
1.5474

> <Gold.Chemscore.Internal.Correction>
   9.000000E+99

> <Gold.Chemscore.Hbonds>
donor molecule, donor type, donor heavy atom, donor atom, acceptor molecule, acceptor atom, score
      L1  H     5    26       P1  7948  0.94
      L1  H     8    27       P1  7948  0.73
      P1  H  7989  7998       L1    16  0.03

> <Gold.Chemscore.Hbond.Weighted>
-6.7954

> <Gold.Chemscore.Metal.Weighted>
-0.0000

> <Gold.Chemscore.Lipo.Weighted>
-9.8134

> <Gold.Chemscore.Internal_Hbond.Weighted>
0.0000

> <Gold.Chemscore.DEClash.Weighted>
3.3410

> <Gold.Chemscore.DEInternal.Weighted>
2.1291

> <Gold.Chemscore.Rot.Weighted>
3.9612

> <Gold.Chemscore.Internal.Correction.Weighted>
   9.000000E+99

> <Gold.Protein.RotatedTorsions>
[ 6907 6896 6895 6894 ] final -166.09 input  -60.11 | X-H torsion
[ 7974 7965 7964 7962 ] final -151.46 input  175.53 | X-H torsion
[ 8008 7997 7996 7995 ] final  -27.45 input   59.86 | X-H torsion
[ 10167 10162 10161 10158 ] final  -64.64 input  -65.29 | X-H torsion
[ 10718 10713 10712 10709 ] final   44.07 input   66.30 | X-H torsion
[ 10763 10752 10751 10750 ] final -114.39 input  -60.55 | X-H torsion
[ 11005 11000 10999 10996 ] final  -31.15 input  -57.11 | X-H torsion

> <Gold.Protein.ActiveResidues>
 VAL166  LYS551  ARG553  GLY616  TRP617  ASP618  TYR619  PRO620  LYS621  CYS622 
 ASP623  PHE694  ASN695  SER759  ASP760  ASP761  ALA762  ILE779  LEU786  VAL792 
 PHE793  MET794  SER795  GLU796  ALA797  LYS798  CYS799  TRP800  GLU811  SER814 

> <Gold.Protein.RotatedAtoms>
  151.4381  133.3651  159.2777 H   0  0  0  0  0  0  0  0  0  0  0  0  # atno 6907 bound_to 6896
  150.9177  134.8596  159.7478 H   0  0  0  0  0  0  0  0  0  0  0  0  # atno 6908 bound_to 6896
  152.4965  134.4316  159.9566 H   0  0  0  0  0  0  0  0  0  0  0  0  # atno 6909 bound_to 6896
  144.7849  140.4795  143.5813 H   0  0  0  0  0  0  0  0  0  0  0  0  # atno 7974 bound_to 7965
  154.4377  140.1872  156.0933 H   0  0  0  0  0  0  0  0  0  0  0  0  # atno 8008 bound_to 7997
  156.0348  140.3326  155.7153 H   0  0  0  0  0  0  0  0  0  0  0  0  # atno 8009 bound_to 7997
  155.5786  140.0619  157.2780 H   0  0  0  0  0  0  0  0  0  0  0  0  # atno 8010 bound_to 7997
  140.5786  143.2324  151.6389 H   0  0  0  0  0  0  0  0  0  0  0  0  # atno 10167 bound_to 10162
  157.4228  130.7979  149.7531 H   0  0  0  0  0  0  0  0  0  0  0  0  # atno 10718 bound_to 10713
  154.8438  135.4419  154.1498 H   0  0  0  0  0  0  0  0  0  0  0  0  # atno 10763 bound_to 10752
  153.2662  135.6941  153.7533 H   0  0  0  0  0  0  0  0  0  0  0  0  # atno 10764 bound_to 10752
  153.6791  135.3406  155.3149 H   0  0  0  0  0  0  0  0  0  0  0  0  # atno 10765 bound_to 10752
  140.9444  133.7259  156.1124 H   0  0  0  0  0  0  0  0  0  0  0  0  # atno 11005 bound_to 11000
  145.5950  139.1499  143.3161 LP  0  0  0  0  0  0  0  0  0  0  0  0  # atno 17320 bound_to 7965
  146.2075  140.6074  142.9074 LP  0  0  0  0  0  0  0  0  0  0  0  0  # atno 17321 bound_to 7965
  139.5157  144.3370  152.0774 LP  0  0  0  0  0  0  0  0  0  0  0  0  # atno 17342 bound_to 10162
  140.2517  144.4161  150.6219 LP  0  0  0  0  0  0  0  0  0  0  0  0  # atno 17343 bound_to 10162
  155.9886  130.3958  150.3110 LP  0  0  0  0  0  0  0  0  0  0  0  0  # atno 17370 bound_to 10713
  157.1259  131.0259  151.2990 LP  0  0  0  0  0  0  0  0  0  0  0  0  # atno 17371 bound_to 10713
  140.7690  134.3854  157.5511 LP  0  0  0  0  0  0  0  0  0  0  0  0  # atno 17394 bound_to 11000
  139.8829  134.9010  156.2801 LP  0  0  0  0  0  0  0  0  0  0  0  0  # atno 17395 bound_to 11000

$$$$
