AV-unprocessed.smi:1200|AV-procd|sdf|5025|dock6
  -GOLD-   22720 4 43D 1   1.00000     0.00000
 Structure written by MMmdl.
 42 43  0  0  0  0  0  0  0  0  3 V2000
  155.3286  131.1338  156.0021 C   0  0  0  0  0  0  0  0  0  0  0  0
  154.8677  132.2410  156.8313 N   0  5  0  0  0  0  0  0  0  0  0  0
  153.8259  132.1443  157.7001 C   0  0  0  0  0  0  0  0  0  0  0  0
  153.4956  132.8666  158.6466 O   0  0  0  0  0  0  0  0  0  0  0  0
  152.9460  130.9315  157.3760 C   0  0  0  0  0  0  0  0  0  0  0  0
  152.1031  131.2185  156.1890 N   0  3  2  0  0  0  0  0  0  0  0  0
  151.1807  132.3601  156.4130 C   0  0  0  0  0  0  0  0  0  0  0  0
  150.4348  132.7316  155.1203 C   0  0  0  0  0  0  0  0  0  0  0  0
  149.6691  131.5256  154.5524 C   0  0  1  0  0  0  0  0  0  0  0  0
  149.0517  131.8845  153.2788 N   0  0  0  0  0  0  0  0  0  0  0  0
  147.7470  132.1332  153.0952 C   0  0  0  0  0  0  0  0  0  0  0  0
  146.9190  132.1032  154.0048 O   0  0  0  0  0  0  0  0  0  0  0  0
  147.4866  132.4212  151.8080 N   0  0  0  0  0  0  0  0  0  0  0  0
  146.2428  132.7176  151.1846 C   0  0  0  0  0  0  0  0  0  0  0  0
  145.0549  133.0681  151.8730 C   0  0  0  0  0  0  0  0  0  0  0  0
  143.8876  133.3252  151.1285 C   0  0  0  0  0  0  0  0  0  0  0  0
  143.9460  133.2180  149.7257 C   0  0  0  0  0  0  0  0  0  0  0  0
  145.0667  132.8764  149.0565 N   0  0  0  0  0  0  0  0  0  0  0  0
  146.1821  132.6320  149.7770 C   0  0  0  0  0  0  0  0  0  0  0  0
  150.6343  130.3397  154.3731 C   0  0  0  0  0  0  0  0  0  0  0  0
  151.3788  130.0226  155.6802 C   0  0  0  0  0  0  0  0  0  0  0  0
  156.1633  131.4249  155.3649 H   0  0  0  0  0  0  0  0  0  0  0  0
  154.5496  130.7574  155.3385 H   0  0  0  0  0  0  0  0  0  0  0  0
  155.6745  130.2870  156.5955 H   0  0  0  0  0  0  0  0  0  0  0  0
  153.5203  130.0146  157.2259 H   0  0  0  0  0  0  0  0  0  0  0  0
  152.3155  130.7589  158.2494 H   0  0  0  0  0  0  0  0  0  0  0  0
  150.4700  132.1062  157.2013 H   0  0  0  0  0  0  0  0  0  0  0  0
  151.7444  133.2268  156.7604 H   0  0  0  0  0  0  0  0  0  0  0  0
  149.7458  133.5541  155.3167 H   0  0  0  0  0  0  0  0  0  0  0  0
  151.1519  133.0977  154.3836 H   0  0  0  0  0  0  0  0  0  0  0  0
  148.8909  131.2480  155.2663 H   0  0  0  0  0  0  0  0  0  0  0  0
  149.6616  131.9370  152.4760 H   0  0  0  0  0  0  0  0  0  0  0  0
  148.2881  132.4560  151.1952 H   0  0  0  0  0  0  0  0  0  0  0  0
  145.0047  133.1368  152.9477 H   0  0  0  0  0  0  0  0  0  0  0  0
  142.9663  133.5953  151.6229 H   0  0  0  0  0  0  0  0  0  0  0  0
  143.0682  133.4075  149.1259 H   0  0  0  0  0  0  0  0  0  0  0  0
  147.0584  132.3589  149.2071 H   0  0  0  0  0  0  0  0  0  0  0  0
  150.0884  129.4559  154.0405 H   0  0  0  0  0  0  0  0  0  0  0  0
  151.3602  130.5664  153.5905 H   0  0  0  0  0  0  0  0  0  0  0  0
  152.0772  129.2053  155.4985 H   0  0  0  0  0  0  0  0  0  0  0  0
  150.6756  129.6721  156.4371 H   0  0  0  0  0  0  0  0  0  0  0  0
  152.7438  131.5068  155.4631 H   0  0  0  0  0  0  0  0  0  0  0  0
  1  2  1  0  0  0  0
  1 22  1  0  0  0  0
  1 23  1  0  0  0  0
  1 24  1  0  0  0  0
  2  3  1  0  0  0  0
  3  4  2  0  0  0  0
  3  5  1  0  0  0  0
  5  6  1  0  0  0  0
  5 25  1  0  0  0  0
  5 26  1  0  0  0  0
  6 21  1  0  0  0  0
  6  7  1  0  0  0  0
  6 42  1  0  0  0  0
  7  8  1  0  0  0  0
  7 27  1  0  0  0  0
  7 28  1  0  0  0  0
  8  9  1  0  0  0  0
  8 29  1  0  0  0  0
  8 30  1  0  0  0  0
  9 10  1  0  0  0  0
  9 20  1  0  0  0  0
  9 31  1  0  0  0  0
 10 11  1  0  0  0  0
 10 32  1  0  0  0  0
 11 12  2  0  0  0  0
 11 13  1  0  0  0  0
 13 14  1  0  0  0  0
 13 33  1  0  0  0  0
 14 19  1  0  0  0  0
 14 15  2  0  0  0  0
 15 16  1  0  0  0  0
 15 34  1  0  0  0  0
 16 17  2  0  0  0  0
 16 35  1  0  0  0  0
 17 18  1  0  0  0  0
 17 36  1  0  0  0  0
 18 19  2  0  0  0  0
 19 37  1  0  0  0  0
 20 21  1  0  0  0  0
 20 38  1  0  0  0  0
 20 39  1  0  0  0  0
 21 40  1  0  0  0  0
 21 41  1  0  0  0  0
M  CHG  1   2  -1
M  CHG  1   6   1
M  END
> <s_m_source_file>
AV-unprocessed.smi

> <i_m_source_file_index>
1200

> <i_lp_mmshare_version>
43012

> <i_f3d_flags>
0

> <s_epik_input>
W0NIM11bTkhdQyg9TylbQ0gyXU4xW0NIMl1bQ0gyXVtDSF0oW0NIMl1bQ0gyXTEpW05IXUMoPU8pW05IXWMyW2NIXVtjSF1bY0hdbltjSF0y

> <s_epik_cmdline>
J2VwaWtfcHl0aG9uJywgJy1waCcsICc3LjAnLCAnLXRuJywgJzgnLCAnLW1hJywgJzIwMCcsICctbWV0YWxfYmluZGluZycsICctaW1hZScsICc8aW5maWxlLm1hZT4nLCAnLW9tYWUnLCAnPG91dGZpbGUubWFlPic=

> <r_epik_Ionization_Penalty>
6.14345

> <r_epik_Ionization_Penalty_Charging>
6.13946

> <r_epik_Ionization_Penalty_Neutral>
0.00398477

> <r_epik_State_Penalty>
6.94483

> <r_epik_Charging_Adjusted_Penalty>
13.0843

> <i_epik_Tot_Q>
0

> <i_epik_Tot_abs_Q>
2

> <r_epik_Metal_State_Penalty>
2.87819

> <b_epik_Metal_Only>
1

> <s_lp_Force_Field>
OPLS_2005

> <r_lp_Energy>
13.1486

> <b_lp_Chiralities_Consistent>
1

> <s_lp_Variant>
AV-unprocessed.smi:1200-4

> <Gold.Version>
5.8.1

> <Gold.Id.Protein>
6NUR|6NUR_protein|mol2

> <Gold.PLP.Fitness>
45.3670

> <Gold.PLP.PLP>
-33.8066

> <Gold.PLP.part.hbond>
-3.4064

> <Gold.PLP.part.metal>
0.0000

> <Gold.PLP.part.buried>
-4.2709

> <Gold.PLP.part.nonpolar>
-25.5776

> <Gold.PLP.part.repulsive>
0.3333

> <Gold.PLP.ligand.clash>
0.0000

> <Gold.PLP.ligand.torsion>
0.5447

> <Gold.PLP.Chemscore.Hbond>
2.3220

> <Gold.PLP.Chemscore.CHOScore>
1.8820

> <Gold.PLP.Chemscore.Metal>
0.0000

> <Gold.Chemscore.Hbonds>
donor molecule, donor type, donor heavy atom, donor atom, acceptor molecule, acceptor atom, score
      L1  H    13    33       P1 10747  0.46
      P1  H  6896  6907       L1     4  1.00
      L1  C    17    36       P1 10186  1.00
      L1  C    19    37       P1 10747  0.63

> <Gold.PLP.Chemscore.Internal.Correction>
0.0379

> <Gold.Rescore>
     Score         DG    S(hbond)    S(metal)    S(lipo)     H(rot)  DE(clash)    DE(int)     intcor
     15.85     -17.13       2.01        0.00      77.99       1.63       0.02       1.25       ----

> <Gold.Chemscore.Fitness>
15.8545

> <Gold.Chemscore.DG>
-17.1287

> <Gold.Chemscore.ZeroCoef>
-5.4800

> <Gold.Chemscore.Hbond>
2.0067

> <Gold.Chemscore.Metal>
0.0000

> <Gold.Chemscore.Lipo>
77.9899

> <Gold.Chemscore.Internal_Hbond>
0.0000

> <Gold.Chemscore.DEClash>
0.0195

> <Gold.Chemscore.DEInternal>
1.2547

> <Gold.Chemscore.Rot>
1.6323

> <Gold.Chemscore.Internal.Correction>
   9.000000E+99

> <Gold.Chemscore.Hbonds>
donor molecule, donor type, donor heavy atom, donor atom, acceptor molecule, acceptor atom, score
      L1  H    13    33       P1 10747  0.45
      P1  H  6896  6907       L1     4  0.98

> <Gold.Chemscore.Hbond.Weighted>
-6.7024

> <Gold.Chemscore.Metal.Weighted>
-0.0000

> <Gold.Chemscore.Lipo.Weighted>
-9.1248

> <Gold.Chemscore.Internal_Hbond.Weighted>
0.0000

> <Gold.Chemscore.DEClash.Weighted>
0.0195

> <Gold.Chemscore.DEInternal.Weighted>
1.2547

> <Gold.Chemscore.Rot.Weighted>
4.1786

> <Gold.Chemscore.Internal.Correction.Weighted>
   9.000000E+99

> <Gold.Protein.RotatedTorsions>
[ 6907 6896 6895 6894 ] final  130.34 input  -60.11 | X-H torsion
[ 7974 7965 7964 7962 ] final -136.49 input  175.53 | X-H torsion
[ 8008 7997 7996 7995 ] final  135.68 input   59.86 | X-H torsion
[ 10167 10162 10161 10158 ] final   48.30 input  -65.29 | X-H torsion
[ 10718 10713 10712 10709 ] final  107.35 input   66.30 | X-H torsion
[ 10763 10752 10751 10750 ] final   23.51 input  -60.55 | X-H torsion
[ 11005 11000 10999 10996 ] final -155.38 input  -57.11 | X-H torsion

> <Gold.Protein.ActiveResidues>
 VAL166  LYS551  ARG553  GLY616  TRP617  ASP618  TYR619  PRO620  LYS621  CYS622 
 ASP623  PHE694  ASN695  SER759  ASP760  ASP761  ALA762  ILE779  LEU786  VAL792 
 PHE793  MET794  SER795  GLU796  ALA797  LYS798  CYS799  TRP800  GLU811  SER814 

> <Gold.Protein.RotatedAtoms>
  152.3535  133.6209  159.5962 H   0  0  0  0  0  0  0  0  0  0  0  0  # atno 6907 bound_to 6896
  150.7553  133.9536  159.3502 H   0  0  0  0  0  0  0  0  0  0  0  0  # atno 6908 bound_to 6896
  151.7384  135.0860  160.0363 H   0  0  0  0  0  0  0  0  0  0  0  0  # atno 6909 bound_to 6896
  144.8922  140.6658  143.5138 H   0  0  0  0  0  0  0  0  0  0  0  0  # atno 7974 bound_to 7965
  156.3003  140.2464  156.3621 H   0  0  0  0  0  0  0  0  0  0  0  0  # atno 8008 bound_to 7997
  154.8867  140.0410  157.1834 H   0  0  0  0  0  0  0  0  0  0  0  0  # atno 8009 bound_to 7997
  154.8640  140.2925  155.5526 H   0  0  0  0  0  0  0  0  0  0  0  0  # atno 8010 bound_to 7997
  140.2947  144.3005  150.6232 H   0  0  0  0  0  0  0  0  0  0  0  0  # atno 10167 bound_to 10162
  157.6632  131.0871  150.6143 H   0  0  0  0  0  0  0  0  0  0  0  0  # atno 10718 bound_to 10713
  153.0833  135.6625  154.0001 H   0  0  0  0  0  0  0  0  0  0  0  0  # atno 10763 bound_to 10752
  153.9617  135.2973  155.3434 H   0  0  0  0  0  0  0  0  0  0  0  0  # atno 10764 bound_to 10752
  154.7236  135.5154  153.8923 H   0  0  0  0  0  0  0  0  0  0  0  0  # atno 10765 bound_to 10752
  140.6871  134.4081  157.5222 H   0  0  0  0  0  0  0  0  0  0  0  0  # atno 11005 bound_to 11000
  145.3762  139.1647  143.4305 LP  0  0  0  0  0  0  0  0  0  0  0  0  # atno 17320 bound_to 7965
  146.3060  140.3839  142.8687 LP  0  0  0  0  0  0  0  0  0  0  0  0  # atno 17321 bound_to 7965
  140.5702  143.2181  151.7612 LP  0  0  0  0  0  0  0  0  0  0  0  0  # atno 17342 bound_to 10162
  139.4929  144.4227  151.9960 LP  0  0  0  0  0  0  0  0  0  0  0  0  # atno 17343 bound_to 10162
  156.6444  130.4467  149.5741 LP  0  0  0  0  0  0  0  0  0  0  0  0  # atno 17370 bound_to 10713
  156.2184  130.6722  151.1343 LP  0  0  0  0  0  0  0  0  0  0  0  0  # atno 17371 bound_to 10713
  139.8934  134.8731  156.2224 LP  0  0  0  0  0  0  0  0  0  0  0  0  # atno 17394 bound_to 11000
  141.0271  133.7009  156.1366 LP  0  0  0  0  0  0  0  0  0  0  0  0  # atno 17395 bound_to 11000

$$$$
