AV-unprocessed.smi:3135|AV-procd|sdf|11947|dock7
  -GOLD-   2272017343D 1   1.00000     0.00000
 Structure written by MMmdl.
 37 38  0  0  0  0  0  0  0  0  1 V2000
  146.6849  140.3317  153.1414 C   0  0  0  0  0  0  0  0  0  0  0  0
  148.0257  140.2457  153.8114 C   0  0  0  0  0  0  0  0  0  0  0  0
  148.6937  141.2571  154.5583 C   0  0  0  0  0  0  0  0  0  0  0  0
  149.8692  140.8637  155.0205 N   0  0  0  0  0  0  0  0  0  0  0  0
  149.9922  139.5892  154.5922 N   0  0  0  0  0  0  0  0  0  0  0  0
  151.1862  138.8282  154.9178 C   0  0  0  0  0  0  0  0  0  0  0  0
  152.0346  139.5449  155.9710 C   0  0  0  0  0  0  0  0  0  0  0  0
  153.2392  139.7151  155.7827 O   0  0  0  0  0  0  0  0  0  0  0  0
  151.3939  139.9614  157.0743 N   0  0  0  0  0  0  0  0  0  0  0  0
  152.0153  140.6670  158.1882 C   0  0  0  0  0  0  0  0  0  0  0  0
  151.7910  142.1879  158.0834 C   0  0  0  0  0  0  0  0  0  0  0  0
  151.9606  142.8565  159.3717 N   0  0  0  0  0  0  0  0  0  0  0  0
  153.2108  142.4591  160.0086 C   0  0  0  0  0  0  0  0  0  0  0  0
  152.0090  144.2924  159.1454 C   0  0  0  0  0  0  0  0  0  0  0  0
  151.6248  145.1963  160.2950 C   0  0  0  0  0  0  0  0  0  0  0  0
  150.6949  145.0399  159.1165 C   0  0  0  0  0  0  0  0  0  0  0  0
  148.8956  139.1930  153.8546 C   0  0  0  0  0  0  0  0  0  0  0  0
  145.9441  140.8070  153.7845 H   0  0  0  0  0  0  0  0  0  0  0  0
  146.2972  139.3468  152.8804 H   0  0  0  0  0  0  0  0  0  0  0  0
  146.7330  140.9133  152.2208 H   0  0  0  0  0  0  0  0  0  0  0  0
  148.3606  142.2611  154.7759 H   0  0  0  0  0  0  0  0  0  0  0  0
  150.8820  137.8414  155.2696 H   0  0  0  0  0  0  0  0  0  0  0  0
  151.7829  138.6774  154.0167 H   0  0  0  0  0  0  0  0  0  0  0  0
  150.4033  139.7790  157.1460 H   0  0  0  0  0  0  0  0  0  0  0  0
  151.6260  140.2859  159.1339 H   0  0  0  0  0  0  0  0  0  0  0  0
  153.0778  140.4274  158.1684 H   0  0  0  0  0  0  0  0  0  0  0  0
  152.4520  142.6290  157.3355 H   0  0  0  0  0  0  0  0  0  0  0  0
  150.7707  142.3600  157.7372 H   0  0  0  0  0  0  0  0  0  0  0  0
  153.3498  143.0027  160.9438 H   0  0  0  0  0  0  0  0  0  0  0  0
  154.0681  142.6667  159.3666 H   0  0  0  0  0  0  0  0  0  0  0  0
  153.2135  141.3972  160.2518 H   0  0  0  0  0  0  0  0  0  0  0  0
  152.7790  144.6869  158.4842 H   0  0  0  0  0  0  0  0  0  0  0  0
  151.3272  144.7313  161.2330 H   0  0  0  0  0  0  0  0  0  0  0  0
  152.1606  146.1383  160.3916 H   0  0  0  0  0  0  0  0  0  0  0  0
  150.6101  145.8776  158.4273 H   0  0  0  0  0  0  0  0  0  0  0  0
  149.7805  144.4697  159.2713 H   0  0  0  0  0  0  0  0  0  0  0  0
  148.8249  138.2027  153.4290 H   0  0  0  0  0  0  0  0  0  0  0  0
  1  2  1  0  0  0  0
  1 18  1  0  0  0  0
  1 19  1  0  0  0  0
  1 20  1  0  0  0  0
  2 17  2  0  0  0  0
  2  3  1  0  0  0  0
  3  4  2  0  0  0  0
  3 21  1  0  0  0  0
  4  5  1  0  0  0  0
  5  6  1  0  0  0  0
  5 17  1  0  0  0  0
  6  7  1  0  0  0  0
  6 22  1  0  0  0  0
  6 23  1  0  0  0  0
  7  8  2  0  0  0  0
  7  9  1  0  0  0  0
  9 10  1  0  0  0  0
  9 24  1  0  0  0  0
 10 11  1  0  0  0  0
 10 25  1  0  0  0  0
 10 26  1  0  0  0  0
 11 12  1  0  0  0  0
 11 27  1  0  0  0  0
 11 28  1  0  0  0  0
 12 13  1  0  0  0  0
 12 14  1  0  0  0  0
 13 29  1  0  0  0  0
 13 30  1  0  0  0  0
 13 31  1  0  0  0  0
 14 16  1  0  0  0  0
 14 15  1  0  0  0  0
 14 32  1  0  0  0  0
 15 16  1  0  0  0  0
 15 33  1  0  0  0  0
 15 34  1  0  0  0  0
 16 35  1  0  0  0  0
 16 36  1  0  0  0  0
 17 37  1  0  0  0  0
M  END
> <s_m_source_file>
AV-unprocessed.smi

> <i_m_source_file_index>
3135

> <i_lp_mmshare_version>
43012

> <i_f3d_flags>
0

> <s_epik_input>
W0NIM11jMVtjSF1ubihbY0hdMSlbQ0gyXUMoPU8pW05IXVtDSDJdW0NIMl1OKFtDSDNdKVtDSF0yW0NIMl1bQ0gyXTI=

> <s_epik_cmdline>
J2VwaWtfcHl0aG9uJywgJy1waCcsICc3LjAnLCAnLXRuJywgJzgnLCAnLW1hJywgJzIwMCcsICctbWV0YWxfYmluZGluZycsICctaW1hZScsICc8aW5maWxlLm1hZT4nLCAnLW9tYWUnLCAnPG91dGZpbGUubWFlPic=

> <r_lp_tautomer_probability>
1

> <r_epik_Ionization_Penalty>
0.809981

> <r_epik_Ionization_Penalty_Charging>
0

> <r_epik_Ionization_Penalty_Neutral>
0.809981

> <r_epik_State_Penalty>
0.842006

> <r_epik_Charging_Adjusted_Penalty>
0.842006

> <i_epik_Tot_Q>
0

> <i_epik_Tot_abs_Q>
0

> <r_epik_Metal_State_Penalty>
0.84199

> <b_epik_Metal_Only>
0

> <s_lp_Force_Field>
OPLS_2005

> <r_lp_Energy>
14.2809

> <b_lp_Chiralities_Consistent>
1

> <s_lp_Variant>
AV-unprocessed.smi:3135-3

> <Gold.Version>
5.8.1

> <Gold.Id.Protein>
6NUR|6NUR_protein|mol2

> <Gold.PLP.Fitness>
46.1225

> <Gold.PLP.PLP>
-38.3987

> <Gold.PLP.part.hbond>
-1.7997

> <Gold.PLP.part.metal>
0.0000

> <Gold.PLP.part.buried>
-0.7556

> <Gold.PLP.part.nonpolar>
-36.4599

> <Gold.PLP.part.repulsive>
0.1635

> <Gold.PLP.ligand.clash>
0.0000

> <Gold.PLP.ligand.torsion>
1.1003

> <Gold.PLP.Chemscore.Hbond>
1.0122

> <Gold.PLP.Chemscore.CHOScore>
1.8979

> <Gold.PLP.Chemscore.Metal>
0.0000

> <Gold.Chemscore.Hbonds>
donor molecule, donor type, donor heavy atom, donor atom, acceptor molecule, acceptor atom, score
      P1  H  7997  8010       L1     8  0.53
      L1  C     3    21       P1  8028  0.71
      L1  C    17    37       P1  7948  1.00

> <Gold.PLP.Chemscore.Internal.Correction>
1.1941

> <Gold.Rescore>
     Score         DG    S(hbond)    S(metal)    S(lipo)     H(rot)  DE(clash)    DE(int)     intcor
     14.46     -15.49       0.98        0.00      97.91       1.85       0.06       0.97       ----

> <Gold.Chemscore.Fitness>
14.4584

> <Gold.Chemscore.DG>
-15.4868

> <Gold.Chemscore.ZeroCoef>
-5.4800

> <Gold.Chemscore.Hbond>
0.9831

> <Gold.Chemscore.Metal>
0.0000

> <Gold.Chemscore.Lipo>
97.9130

> <Gold.Chemscore.Internal_Hbond>
0.0000

> <Gold.Chemscore.DEClash>
0.0583

> <Gold.Chemscore.DEInternal>
0.9700

> <Gold.Chemscore.Rot>
1.8487

> <Gold.Chemscore.Internal.Correction>
   9.000000E+99

> <Gold.Chemscore.Hbonds>
donor molecule, donor type, donor heavy atom, donor atom, acceptor molecule, acceptor atom, score
      P1  H  7997  8010       L1     8  0.54

> <Gold.Chemscore.Hbond.Weighted>
-3.2836

> <Gold.Chemscore.Metal.Weighted>
-0.0000

> <Gold.Chemscore.Lipo.Weighted>
-11.4558

> <Gold.Chemscore.Internal_Hbond.Weighted>
0.0000

> <Gold.Chemscore.DEClash.Weighted>
0.0583

> <Gold.Chemscore.DEInternal.Weighted>
0.9700

> <Gold.Chemscore.Rot.Weighted>
4.7326

> <Gold.Chemscore.Internal.Correction.Weighted>
   9.000000E+99

> <Gold.Protein.RotatedTorsions>
[ 6907 6896 6895 6894 ] final   -2.91 input  -60.11 | X-H torsion
[ 7974 7965 7964 7962 ] final  102.98 input  175.53 | X-H torsion
[ 8008 7997 7996 7995 ] final   65.39 input   59.86 | X-H torsion
[ 10167 10162 10161 10158 ] final -145.40 input  -65.29 | X-H torsion
[ 10718 10713 10712 10709 ] final -117.82 input   66.30 | X-H torsion
[ 10763 10752 10751 10750 ] final   76.73 input  -60.55 | X-H torsion
[ 11005 11000 10999 10996 ] final  150.12 input  -57.11 | X-H torsion

> <Gold.Protein.ActiveResidues>
 VAL166  LYS551  ARG553  GLY616  TRP617  ASP618  TYR619  PRO620  LYS621  CYS622 
 ASP623  PHE694  ASN695  SER759  ASP760  ASP761  ALA762  ILE779  LEU786  VAL792 
 PHE793  MET794  SER795  GLU796  ALA797  LYS798  CYS799  TRP800  GLU811  SER814 

> <Gold.Protein.RotatedAtoms>
  151.5223  135.1067  159.9881 H   0  0  0  0  0  0  0  0  0  0  0  0  # atno 6907 bound_to 6896
  152.4615  133.7828  159.6870 H   0  0  0  0  0  0  0  0  0  0  0  0  # atno 6908 bound_to 6896
  150.8579  133.7623  159.3027 H   0  0  0  0  0  0  0  0  0  0  0  0  # atno 6909 bound_to 6896
  145.3520  139.2437  143.3553 H   0  0  0  0  0  0  0  0  0  0  0  0  # atno 7974 bound_to 7965
  155.6610  140.3497  155.4783 H   0  0  0  0  0  0  0  0  0  0  0  0  # atno 8008 bound_to 7997
  155.9768  140.1166  157.0785 H   0  0  0  0  0  0  0  0  0  0  0  0  # atno 8009 bound_to 7997
  154.4181  140.1146  156.5368 H   0  0  0  0  0  0  0  0  0  0  0  0  # atno 8010 bound_to 7997
  139.7809  143.8103  152.2638 H   0  0  0  0  0  0  0  0  0  0  0  0  # atno 10167 bound_to 10162
  156.1061  130.6212  150.9213 H   0  0  0  0  0  0  0  0  0  0  0  0  # atno 10718 bound_to 10713
  153.0746  135.4940  154.8378 H   0  0  0  0  0  0  0  0  0  0  0  0  # atno 10763 bound_to 10752
  154.7070  135.3012  154.9257 H   0  0  0  0  0  0  0  0  0  0  0  0  # atno 10764 bound_to 10752
  153.9963  135.6772  153.4809 H   0  0  0  0  0  0  0  0  0  0  0  0  # atno 10765 bound_to 10752
  140.1104  134.8928  157.1927 H   0  0  0  0  0  0  0  0  0  0  0  0  # atno 11005 bound_to 11000
  146.2964  140.4137  142.8720 LP  0  0  0  0  0  0  0  0  0  0  0  0  # atno 17320 bound_to 7965
  144.8711  140.7273  143.6046 LP  0  0  0  0  0  0  0  0  0  0  0  0  # atno 17321 bound_to 7965
  139.8165  144.7314  150.9628 LP  0  0  0  0  0  0  0  0  0  0  0  0  # atno 17342 bound_to 10162
  140.7818  143.4200  151.0856 LP  0  0  0  0  0  0  0  0  0  0  0  0  # atno 17343 bound_to 10162
  157.6238  131.0927  150.8572 LP  0  0  0  0  0  0  0  0  0  0  0  0  # atno 17370 bound_to 10713
  156.8691  130.5139  149.5298 LP  0  0  0  0  0  0  0  0  0  0  0  0  # atno 17371 bound_to 10713
  140.3099  134.3035  155.7269 LP  0  0  0  0  0  0  0  0  0  0  0  0  # atno 17394 bound_to 11000
  141.2129  133.7644  156.9761 LP  0  0  0  0  0  0  0  0  0  0  0  0  # atno 17395 bound_to 11000

$$$$
