AV-unprocessed.smi:1494|AV-procd|sdf|6052|dock1
  -GOLD-   22720 6163D 1   1.00000     0.00000
 Structure written by MMmdl.
 30 31  0  0  0  0  0  0  0  0  1 V2000
  151.4103  141.3025  156.7073 O   0  0  0  0  0  0  0  0  0  0  0  0
  150.7627  142.3029  156.3998 C   0  0  0  0  0  0  0  0  0  0  0  0
  151.0472  143.5333  156.8486 N   0  0  0  0  0  0  0  0  0  0  0  0
  152.1362  143.8630  157.7604 C   0  0  0  0  0  0  0  0  0  0  0  0
  151.6655  143.8561  159.2122 C   0  0  0  0  0  0  0  0  0  0  0  0
  151.9173  145.0817  160.1042 C   0  0  0  0  0  0  0  0  0  0  0  0
  152.1149  144.1247  161.2825 C   0  0  0  0  0  0  0  0  0  0  0  0
  152.4358  143.0345  160.2564 C   0  0  0  0  0  0  0  0  0  0  0  0
  149.7015  142.3236  155.5752 N   0  0  0  0  0  0  0  0  0  0  0  0
  149.0963  141.2467  154.8717 C   0  0  0  0  0  0  0  0  0  0  0  0
  147.9203  141.3577  154.0900 C   0  0  0  0  0  0  0  0  0  0  0  0
  147.4300  140.2120  153.4342 C   0  0  0  0  0  0  0  0  0  0  0  0
  148.1345  139.0009  153.5767 C   0  0  0  0  0  0  0  0  0  0  0  0
  149.2638  138.8837  154.3064 N   0  0  0  0  0  0  0  0  0  0  0  0
  149.7280  139.9864  154.9320 C   0  0  0  0  0  0  0  0  0  0  0  0
  150.4641  144.2985  156.5423 H   0  0  0  0  0  0  0  0  0  0  0  0
  152.9666  143.1693  157.6212 H   0  0  0  0  0  0  0  0  0  0  0  0
  152.5147  144.8486  157.4883 H   0  0  0  0  0  0  0  0  0  0  0  0
  150.6085  143.5884  159.2762 H   0  0  0  0  0  0  0  0  0  0  0  0
  152.8299  145.6186  159.8397 H   0  0  0  0  0  0  0  0  0  0  0  0
  151.0668  145.7573  160.1997 H   0  0  0  0  0  0  0  0  0  0  0  0
  152.9380  144.3836  161.9494 H   0  0  0  0  0  0  0  0  0  0  0  0
  151.1912  143.9318  161.8306 H   0  0  0  0  0  0  0  0  0  0  0  0
  152.0054  142.0573  160.4772 H   0  0  0  0  0  0  0  0  0  0  0  0
  153.5031  142.9636  160.0388 H   0  0  0  0  0  0  0  0  0  0  0  0
  149.3156  143.2354  155.3779 H   0  0  0  0  0  0  0  0  0  0  0  0
  147.3928  142.2905  153.9685 H   0  0  0  0  0  0  0  0  0  0  0  0
  146.5347  140.2620  152.8324 H   0  0  0  0  0  0  0  0  0  0  0  0
  147.7846  138.1039  153.0875 H   0  0  0  0  0  0  0  0  0  0  0  0
  150.6345  139.8555  155.5053 H   0  0  0  0  0  0  0  0  0  0  0  0
  1  2  2  0  0  0  0
  2  3  1  0  0  0  0
  2  9  1  0  0  0  0
  3  4  1  0  0  0  0
  3 16  1  0  0  0  0
  4  5  1  0  0  0  0
  4 17  1  0  0  0  0
  4 18  1  0  0  0  0
  5  8  1  0  0  0  0
  5  6  1  0  0  0  0
  5 19  1  0  0  0  0
  6  7  1  0  0  0  0
  6 20  1  0  0  0  0
  6 21  1  0  0  0  0
  7  8  1  0  0  0  0
  7 22  1  0  0  0  0
  7 23  1  0  0  0  0
  8 24  1  0  0  0  0
  8 25  1  0  0  0  0
  9 10  1  0  0  0  0
  9 26  1  0  0  0  0
 10 15  1  0  0  0  0
 10 11  2  0  0  0  0
 11 12  1  0  0  0  0
 11 27  1  0  0  0  0
 12 13  2  0  0  0  0
 12 28  1  0  0  0  0
 13 14  1  0  0  0  0
 13 29  1  0  0  0  0
 14 15  2  0  0  0  0
 15 30  1  0  0  0  0
M  END
> <s_m_source_file>
AV-unprocessed.smi

> <i_m_source_file_index>
1494

> <i_lp_mmshare_version>
43012

> <i_f3d_flags>
0

> <s_epik_input>
W0NIMl0xW0NIMl1bQ0gyXVtDSF0xW0NIMl1bTkhdQyg9TylbTkhdYzJbY0hdW2NIXVtjSF1uW2NIXTI=

> <s_epik_cmdline>
J2VwaWtfcHl0aG9uJywgJy1waCcsICc3LjAnLCAnLXRuJywgJzgnLCAnLW1hJywgJzIwMCcsICctbWV0YWxfYmluZGluZycsICctaW1hZScsICc8aW5maWxlLm1hZT4nLCAnLW9tYWUnLCAnPG91dGZpbGUubWFlPic=

> <r_epik_Ionization_Penalty>
0.00485471

> <r_epik_Ionization_Penalty_Charging>
0

> <r_epik_Ionization_Penalty_Neutral>
0.00485471

> <r_epik_State_Penalty>
0.00349083

> <r_epik_Charging_Adjusted_Penalty>
0.00349083

> <i_epik_Tot_Q>
0

> <i_epik_Tot_abs_Q>
0

> <r_epik_Metal_State_Penalty>
-0

> <b_epik_Metal_Only>
0

> <s_lp_Force_Field>
OPLS_2005

> <r_lp_Energy>
15.2707

> <b_lp_Chiralities_Consistent>
1

> <s_lp_Variant>
AV-unprocessed.smi:1494-1

> <Gold.Version>
5.8.1

> <Gold.Id.Protein>
6NUR|6NUR_protein|mol2

> <Gold.PLP.Fitness>
42.8931

> <Gold.PLP.PLP>
-35.8701

> <Gold.PLP.part.hbond>
-1.9591

> <Gold.PLP.part.metal>
0.0000

> <Gold.PLP.part.buried>
-2.9203

> <Gold.PLP.part.nonpolar>
-31.3574

> <Gold.PLP.part.repulsive>
0.4105

> <Gold.PLP.ligand.clash>
0.0000

> <Gold.PLP.ligand.torsion>
0.9104

> <Gold.PLP.Chemscore.Hbond>
1.9280

> <Gold.PLP.Chemscore.CHOScore>
1.0000

> <Gold.PLP.Chemscore.Metal>
0.0000

> <Gold.Chemscore.Hbonds>
donor molecule, donor type, donor heavy atom, donor atom, acceptor molecule, acceptor atom, score
      L1  H     3    16       P1  8028  0.91
      L1  H     9    26       P1  8028  1.00
      L1  C    13    29       P1  7948  1.00

> <Gold.PLP.Chemscore.Internal.Correction>
0.0598

> <Gold.Rescore>
     Score         DG    S(hbond)    S(metal)    S(lipo)     H(rot)  DE(clash)    DE(int)     intcor
     17.49     -19.85       1.92        0.00      94.25       1.20       0.09       2.27       ----

> <Gold.Chemscore.Fitness>
17.4933

> <Gold.Chemscore.DG>
-19.8548

> <Gold.Chemscore.ZeroCoef>
-5.4800

> <Gold.Chemscore.Hbond>
1.9231

> <Gold.Chemscore.Metal>
0.0000

> <Gold.Chemscore.Lipo>
94.2512

> <Gold.Chemscore.Internal_Hbond>
0.0000

> <Gold.Chemscore.DEClash>
0.0925

> <Gold.Chemscore.DEInternal>
2.2690

> <Gold.Chemscore.Rot>
1.2015

> <Gold.Chemscore.Internal.Correction>
   9.000000E+99

> <Gold.Chemscore.Hbonds>
donor molecule, donor type, donor heavy atom, donor atom, acceptor molecule, acceptor atom, score
      L1  H     3    16       P1  8028  0.89
      L1  H     9    26       P1  8028  0.96

> <Gold.Chemscore.Hbond.Weighted>
-6.4232

> <Gold.Chemscore.Metal.Weighted>
-0.0000

> <Gold.Chemscore.Lipo.Weighted>
-11.0274

> <Gold.Chemscore.Internal_Hbond.Weighted>
0.0000

> <Gold.Chemscore.DEClash.Weighted>
0.0925

> <Gold.Chemscore.DEInternal.Weighted>
2.2690

> <Gold.Chemscore.Rot.Weighted>
3.0758

> <Gold.Chemscore.Internal.Correction.Weighted>
   9.000000E+99

> <Gold.Protein.RotatedTorsions>
[ 6907 6896 6895 6894 ] final   23.62 input  -60.11 | X-H torsion
[ 7974 7965 7964 7962 ] final   53.42 input  175.53 | X-H torsion
[ 8008 7997 7996 7995 ] final -166.64 input   59.86 | X-H torsion
[ 10167 10162 10161 10158 ] final -167.54 input  -65.29 | X-H torsion
[ 10718 10713 10712 10709 ] final -138.88 input   66.30 | X-H torsion
[ 10763 10752 10751 10750 ] final  100.65 input  -60.55 | X-H torsion
[ 11005 11000 10999 10996 ] final   84.31 input  -57.11 | X-H torsion

> <Gold.Protein.ActiveResidues>
 VAL166  LYS551  ARG553  GLY616  TRP617  ASP618  TYR619  PRO620  LYS621  CYS622 
 ASP623  PHE694  ASN695  SER759  ASP760  ASP761  ALA762  ILE779  LEU786  VAL792 
 PHE793  MET794  SER795  GLU796  ALA797  LYS798  CYS799  TRP800  GLU811  SER814 

> <Gold.Protein.RotatedAtoms>
  151.9451  135.0195  160.0538 H   0  0  0  0  0  0  0  0  0  0  0  0  # atno 6907 bound_to 6896
  152.2002  133.4831  159.5063 H   0  0  0  0  0  0  0  0  0  0  0  0  # atno 6908 bound_to 6896
  150.6953  134.1517  159.4186 H   0  0  0  0  0  0  0  0  0  0  0  0  # atno 6909 bound_to 6896
  145.9713  139.4152  143.0188 H   0  0  0  0  0  0  0  0  0  0  0  0  # atno 7974 bound_to 7965
  155.8666  140.0986  157.1578 H   0  0  0  0  0  0  0  0  0  0  0  0  # atno 8008 bound_to 7997
  154.3994  140.1355  156.4089 H   0  0  0  0  0  0  0  0  0  0  0  0  # atno 8009 bound_to 7997
  155.7797  140.3459  155.5293 H   0  0  0  0  0  0  0  0  0  0  0  0  # atno 8010 bound_to 7997
  139.6043  144.0946  152.1776 H   0  0  0  0  0  0  0  0  0  0  0  0  # atno 10167 bound_to 10162
  156.3044  130.7447  151.1507 H   0  0  0  0  0  0  0  0  0  0  0  0  # atno 10718 bound_to 10713
  153.3167  135.4071  155.1382 H   0  0  0  0  0  0  0  0  0  0  0  0  # atno 10763 bound_to 10752
  154.8590  135.3577  154.5651 H   0  0  0  0  0  0  0  0  0  0  0  0  # atno 10764 bound_to 10752
  153.6083  135.7068  153.5416 H   0  0  0  0  0  0  0  0  0  0  0  0  # atno 10765 bound_to 10752
  139.9004  134.8207  156.2428 H   0  0  0  0  0  0  0  0  0  0  0  0  # atno 11005 bound_to 11000
  145.7902  140.9818  143.1053 LP  0  0  0  0  0  0  0  0  0  0  0  0  # atno 17320 bound_to 7965
  144.6837  139.9673  143.7481 LP  0  0  0  0  0  0  0  0  0  0  0  0  # atno 17321 bound_to 7965
  140.0549  144.5903  150.7307 LP  0  0  0  0  0  0  0  0  0  0  0  0  # atno 17342 bound_to 10162
  140.7273  143.2650  151.4076 LP  0  0  0  0  0  0  0  0  0  0  0  0  # atno 17343 bound_to 10162
  157.7376  131.0550  150.5346 LP  0  0  0  0  0  0  0  0  0  0  0  0  # atno 17370 bound_to 10713
  156.5478  130.4224  149.6122 LP  0  0  0  0  0  0  0  0  0  0  0  0  # atno 17371 bound_to 10713
  141.0274  133.7007  156.1371 LP  0  0  0  0  0  0  0  0  0  0  0  0  # atno 17394 bound_to 11000
  140.7146  134.4424  157.5579 LP  0  0  0  0  0  0  0  0  0  0  0  0  # atno 17395 bound_to 11000

$$$$
