AV-unprocessed.smi:3265|AV-procd|sdf|12496|dock5
  -GOLD-   2272018393D 1   1.00000     0.00000
 Structure written by MMmdl.
 41 42  0  0  0  0  0  0  0  0  2 V2000
  144.3457  136.1788  151.6690 C   0  0  0  0  0  0  0  0  0  0  0  0
  145.6615  135.4070  151.8416 C   0  0  2  0  0  0  0  0  0  0  0  0
  145.6005  134.0322  151.1555 C   0  0  0  0  0  0  0  0  0  0  0  0
  146.9183  133.2765  151.3645 C   0  0  0  0  0  0  0  0  0  0  0  0
  147.2582  133.1674  152.8593 C   0  0  0  0  0  0  0  0  0  0  0  0
  147.3123  134.5080  153.4978 N   0  3  2  0  0  0  0  0  0  0  0  0
  147.7689  134.4356  154.9090 C   0  0  0  0  0  0  0  0  0  0  0  0
  149.2931  134.6169  155.0463 C   0  0  0  0  0  0  0  0  0  0  0  0
  149.7265  135.9152  154.5439 N   0  0  0  0  0  0  0  0  0  0  0  0
  150.6078  136.7214  155.1579 C   0  0  0  0  0  0  0  0  0  0  0  0
  151.1226  136.4542  156.2435 O   0  0  0  0  0  0  0  0  0  0  0  0
  150.9551  138.0334  154.4493 C   0  0  0  0  0  0  0  0  0  0  0  0
  150.7513  139.1824  155.3149 N   0  0  0  0  0  0  0  0  0  0  0  0
  150.8004  139.2373  156.6926 C   0  0  0  0  0  0  0  0  0  0  0  0
  150.5349  140.5258  157.0579 C   0  0  0  0  0  0  0  0  0  0  0  0
  150.3390  141.1955  155.8178 C   0  0  0  0  0  0  0  0  0  0  0  0
  150.4693  140.3895  154.7768 N   0  0  0  0  0  0  0  0  0  0  0  0
  146.0308  135.2455  153.3303 C   0  0  0  0  0  0  0  0  0  0  0  0
  143.5125  135.6529  152.1363 H   0  0  0  0  0  0  0  0  0  0  0  0
  144.1039  136.3131  150.6142 H   0  0  0  0  0  0  0  0  0  0  0  0
  144.4092  137.1696  152.1197 H   0  0  0  0  0  0  0  0  0  0  0  0
  146.4483  135.9905  151.3606 H   0  0  0  0  0  0  0  0  0  0  0  0
  144.7739  133.4481  151.5624 H   0  0  0  0  0  0  0  0  0  0  0  0
  145.4051  134.1487  150.0889 H   0  0  0  0  0  0  0  0  0  0  0  0
  146.8501  132.2812  150.9243 H   0  0  0  0  0  0  0  0  0  0  0  0
  147.7248  133.7916  150.8407 H   0  0  0  0  0  0  0  0  0  0  0  0
  146.5190  132.5484  153.3706 H   0  0  0  0  0  0  0  0  0  0  0  0
  148.2212  132.6666  152.9680 H   0  0  0  0  0  0  0  0  0  0  0  0
  147.2342  135.1724  155.5106 H   0  0  0  0  0  0  0  0  0  0  0  0
  147.5030  133.4584  155.3144 H   0  0  0  0  0  0  0  0  0  0  0  0
  149.6008  134.4996  156.0870 H   0  0  0  0  0  0  0  0  0  0  0  0
  149.8288  133.8581  154.4774 H   0  0  0  0  0  0  0  0  0  0  0  0
  149.3515  136.2120  153.6542 H   0  0  0  0  0  0  0  0  0  0  0  0
  151.9970  138.0114  154.1275 H   0  0  0  0  0  0  0  0  0  0  0  0
  150.3441  138.1512  153.5526 H   0  0  0  0  0  0  0  0  0  0  0  0
  151.0151  138.3644  157.2915 H   0  0  0  0  0  0  0  0  0  0  0  0
  150.4889  140.9293  158.0585 H   0  0  0  0  0  0  0  0  0  0  0  0
  150.1065  142.2360  155.6443 H   0  0  0  0  0  0  0  0  0  0  0  0
  146.1063  136.2341  153.7814 H   0  0  0  0  0  0  0  0  0  0  0  0
  145.2368  134.7175  153.8612 H   0  0  0  0  0  0  0  0  0  0  0  0
  148.0196  135.0269  152.9971 H   0  0  0  0  0  0  0  0  0  0  0  0
  1  2  1  0  0  0  0
  1 19  1  0  0  0  0
  1 20  1  0  0  0  0
  1 21  1  0  0  0  0
  2 18  1  0  0  0  0
  2  3  1  0  0  0  0
  2 22  1  0  0  0  0
  3  4  1  0  0  0  0
  3 23  1  0  0  0  0
  3 24  1  0  0  0  0
  4  5  1  0  0  0  0
  4 25  1  0  0  0  0
  4 26  1  0  0  0  0
  5  6  1  0  0  0  0
  5 27  1  0  0  0  0
  5 28  1  0  0  0  0
  6  7  1  0  0  0  0
  6 18  1  0  0  0  0
  6 41  1  0  0  0  0
  7  8  1  0  0  0  0
  7 29  1  0  0  0  0
  7 30  1  0  0  0  0
  8  9  1  0  0  0  0
  8 31  1  0  0  0  0
  8 32  1  0  0  0  0
  9 10  1  0  0  0  0
  9 33  1  0  0  0  0
 10 11  2  0  0  0  0
 10 12  1  0  0  0  0
 12 13  1  0  0  0  0
 12 34  1  0  0  0  0
 12 35  1  0  0  0  0
 13 17  1  0  0  0  0
 13 14  1  0  0  0  0
 14 15  2  0  0  0  0
 14 36  1  0  0  0  0
 15 16  1  0  0  0  0
 15 37  1  0  0  0  0
 16 17  2  0  0  0  0
 16 38  1  0  0  0  0
 18 39  1  0  0  0  0
 18 40  1  0  0  0  0
M  CHG  1   6   1
M  END
> <s_m_source_file>
AV-unprocessed.smi

> <i_m_source_file_index>
3265

> <i_lp_mmshare_version>
43012

> <i_f3d_flags>
0

> <s_epik_input>
W0NIM11bQ0BASF0xW0NIMl1bQ0gyXVtDSDJdTihbQ0gyXTEpW0NIMl1bQ0gyXVtOSF1DKD1PKVtDSDJdbjJbY0hdW2NIXVtjSF1uMg==

> <s_epik_cmdline>
J2VwaWtfcHl0aG9uJywgJy1waCcsICc3LjAnLCAnLXRuJywgJzgnLCAnLW1hJywgJzIwMCcsICctbWV0YWxfYmluZGluZycsICctaW1hZScsICc8aW5maWxlLm1hZT4nLCAnLW9tYWUnLCAnPG91dGZpbGUubWFlPic=

> <r_lp_tautomer_probability>
1

> <r_epik_Ionization_Penalty>
0.00231455

> <r_epik_Ionization_Penalty_Charging>
0.00230623

> <r_epik_Ionization_Penalty_Neutral>
8.31727e-06

> <r_epik_State_Penalty>
0.00159065

> <r_epik_Charging_Adjusted_Penalty>
0.00389688

> <i_epik_Tot_Q>
1

> <i_epik_Tot_abs_Q>
1

> <r_epik_Metal_State_Penalty>
-0

> <b_epik_Metal_Only>
0

> <s_lp_Force_Field>
OPLS_2005

> <r_lp_Energy>
16.3652

> <b_lp_Chiralities_Consistent>
1

> <s_lp_Variant>
AV-unprocessed.smi:3265-1

> <Gold.Version>
5.8.1

> <Gold.Id.Protein>
6NUR|6NUR_protein|mol2

> <Gold.PLP.Fitness>
47.0843

> <Gold.PLP.PLP>
-32.1253

> <Gold.PLP.part.hbond>
-5.0000

> <Gold.PLP.part.metal>
0.0000

> <Gold.PLP.part.buried>
-1.4576

> <Gold.PLP.part.nonpolar>
-24.8164

> <Gold.PLP.part.repulsive>
0.2114

> <Gold.PLP.ligand.clash>
0.0000

> <Gold.PLP.ligand.torsion>
0.9992

> <Gold.PLP.Chemscore.Hbond>
4.9760

> <Gold.PLP.Chemscore.CHOScore>
0.6629

> <Gold.PLP.Chemscore.Metal>
0.0000

> <Gold.Chemscore.Hbonds>
donor molecule, donor type, donor heavy atom, donor atom, acceptor molecule, acceptor atom, score
      L1  H     6    41       P1  7948  2.00
      L1  H     9    33       P1  7948  1.00
      P1  H  7989  7998       L1    17  1.00
      L1  C    16    38       P1  8028  0.41

> <Gold.PLP.Chemscore.Internal.Correction>
0.0408

> <Gold.Rescore>
     Score         DG    S(hbond)    S(metal)    S(lipo)     H(rot)  DE(clash)    DE(int)     intcor
     17.33     -18.89       3.45        0.00      56.34       1.84       0.90       0.65       ----

> <Gold.Chemscore.Fitness>
17.3297

> <Gold.Chemscore.DG>
-18.8859

> <Gold.Chemscore.ZeroCoef>
-5.4800

> <Gold.Chemscore.Hbond>
3.4492

> <Gold.Chemscore.Metal>
0.0000

> <Gold.Chemscore.Lipo>
56.3447

> <Gold.Chemscore.Internal_Hbond>
0.0000

> <Gold.Chemscore.DEClash>
0.9023

> <Gold.Chemscore.DEInternal>
0.6539

> <Gold.Chemscore.Rot>
1.8386

> <Gold.Chemscore.Internal.Correction>
   9.000000E+99

> <Gold.Chemscore.Hbonds>
donor molecule, donor type, donor heavy atom, donor atom, acceptor molecule, acceptor atom, score
      L1  H     6    41       P1  7948  0.97
      L1  H     9    33       P1  7948  0.78
      P1  H  7989  7998       L1    17  0.79

> <Gold.Chemscore.Hbond.Weighted>
-11.5204

> <Gold.Chemscore.Metal.Weighted>
-0.0000

> <Gold.Chemscore.Lipo.Weighted>
-6.5923

> <Gold.Chemscore.Internal_Hbond.Weighted>
0.0000

> <Gold.Chemscore.DEClash.Weighted>
0.9023

> <Gold.Chemscore.DEInternal.Weighted>
0.6539

> <Gold.Chemscore.Rot.Weighted>
4.7069

> <Gold.Chemscore.Internal.Correction.Weighted>
   9.000000E+99

> <Gold.Protein.RotatedTorsions>
[ 6907 6896 6895 6894 ] final  -19.27 input  -60.11 | X-H torsion
[ 7974 7965 7964 7962 ] final   95.99 input  175.53 | X-H torsion
[ 8008 7997 7996 7995 ] final  149.52 input   59.86 | X-H torsion
[ 10167 10162 10161 10158 ] final  -12.25 input  -65.29 | X-H torsion
[ 10718 10713 10712 10709 ] final  119.25 input   66.30 | X-H torsion
[ 10763 10752 10751 10750 ] final -158.23 input  -60.55 | X-H torsion
[ 11005 11000 10999 10996 ] final   63.43 input  -57.11 | X-H torsion

> <Gold.Protein.ActiveResidues>
 VAL166  LYS551  ARG553  GLY616  TRP617  ASP618  TYR619  PRO620  LYS621  CYS622 
 ASP623  PHE694  ASN695  SER759  ASP760  ASP761  ALA762  ILE779  LEU786  VAL792 
 PHE793  MET794  SER795  GLU796  ALA797  LYS798  CYS799  TRP800  GLU811  SER814 

> <Gold.Protein.RotatedAtoms>
  151.2656  135.0668  159.9114 H   0  0  0  0  0  0  0  0  0  0  0  0  # atno 6907 bound_to 6896
  152.5359  134.0184  159.7981 H   0  0  0  0  0  0  0  0  0  0  0  0  # atno 6908 bound_to 6896
  151.0414  133.5653  159.2682 H   0  0  0  0  0  0  0  0  0  0  0  0  # atno 6909 bound_to 6896
  145.4448  139.2298  143.3072 H   0  0  0  0  0  0  0  0  0  0  0  0  # atno 7974 bound_to 7965
  156.2751  140.2099  156.5871 H   0  0  0  0  0  0  0  0  0  0  0  0  # atno 8008 bound_to 7997
  154.7012  140.0521  157.0483 H   0  0  0  0  0  0  0  0  0  0  0  0  # atno 8009 bound_to 7997
  155.0733  140.3179  155.4627 H   0  0  0  0  0  0  0  0  0  0  0  0  # atno 8010 bound_to 7997
  140.7157  143.5552  150.9256 H   0  0  0  0  0  0  0  0  0  0  0  0  # atno 10167 bound_to 10162
  157.5974  131.1056  150.7870 H   0  0  0  0  0  0  0  0  0  0  0  0  # atno 10718 bound_to 10713
  154.7573  135.3108  154.8446 H   0  0  0  0  0  0  0  0  0  0  0  0  # atno 10763 bound_to 10752
  153.9216  135.6795  153.4752 H   0  0  0  0  0  0  0  0  0  0  0  0  # atno 10764 bound_to 10752
  153.1171  135.4839  154.9064 H   0  0  0  0  0  0  0  0  0  0  0  0  # atno 10765 bound_to 10752
  140.0025  134.6420  155.9907 H   0  0  0  0  0  0  0  0  0  0  0  0  # atno 11005 bound_to 11000
  146.2536  140.5201  142.8883 LP  0  0  0  0  0  0  0  0  0  0  0  0  # atno 17320 bound_to 7965
  144.8098  140.6366  143.6422 LP  0  0  0  0  0  0  0  0  0  0  0  0  # atno 17321 bound_to 7965
  139.9277  143.6530  152.3083 LP  0  0  0  0  0  0  0  0  0  0  0  0  # atno 17342 bound_to 10162
  139.6970  144.7640  151.1339 LP  0  0  0  0  0  0  0  0  0  0  0  0  # atno 17343 bound_to 10162
  156.8277  130.5005  149.5335 LP  0  0  0  0  0  0  0  0  0  0  0  0  # atno 17370 bound_to 10713
  156.1040  130.5990  150.9940 LP  0  0  0  0  0  0  0  0  0  0  0  0  # atno 17371 bound_to 10713
  141.1653  133.6537  156.4457 LP  0  0  0  0  0  0  0  0  0  0  0  0  # atno 17394 bound_to 11000
  140.4701  134.6761  157.5125 LP  0  0  0  0  0  0  0  0  0  0  0  0  # atno 17395 bound_to 11000

$$$$
