#       Name:                AV-unprocessed.smi:3327
#       Creating user name   scv26
#       Creation time:       Fri Mar 27 19:14:08 2020


#       File generated by GOLD software.
#

@<TRIPOS>MOLECULE
AV-unprocessed.smi:3327
    44    45     1
SMALL
NO_CHARGES


@<TRIPOS>ATOM
      1 ****        -3.6885   4.2535   1.2136 C.3            1 S1                 0.0000
      2 ****        -2.9874   2.8966   1.0602 C.3            1 S1                 0.0000
      3 ****        -3.9315   1.7268   1.4150 C.3            1 S1                 0.0000
      4 ****        -3.2776   0.3573   1.1503 C.3            1 S1                 0.0000
      5 ****        -2.6936   0.2962  -0.2716 C.3            1 S1                 0.0000
      6 ****        -1.7421   1.4033  -0.4367 N.am           1 S1                 0.0000
      7 ****        -0.3956   1.2774  -0.5323 C.2            1 S1                 0.0000
      8 ****         0.3487   2.2550  -0.6335 O.2            1 S1                 0.0000
      9 ****         0.2219  -0.1319  -0.5113 C.3            1 S1                 0.0000
     10 ****         1.6905  -0.1246  -0.5372 N.3            1 S1                 0.0000
     11 ****         2.2101  -1.4822  -0.4771 C.3            1 S1                 0.0000
     12 ****         3.7447  -1.4482  -0.5232 C.3            1 S1                 0.0000
     13 ****         4.3097  -2.7835  -0.4931 N.pl3          1 S1                 0.0000
     14 ****         4.7981  -3.5312  -1.5440 C.2            1 S1                 0.0000
     15 ****         5.2200  -4.7247  -1.0320 C.2            1 S1                 0.0000
     16 ****         4.9451  -4.6110   0.3597 C.2            1 S1                 0.0000
     17 ****         4.3997  -3.4483   0.6790 N.2            1 S1                 0.0000
     18 ****        -2.4145   2.7074  -0.3610 C.3            1 S1                 0.0000
     19 ****        -4.5341   4.3432   0.5310 H              1 S1                 0.0000
     20 ****        -3.0029   5.0751   1.0042 H              1 S1                 0.0000
     21 ****        -4.0639   4.3883   2.2283 H              1 S1                 0.0000
     22 ****        -2.1521   2.8782   1.7620 H              1 S1                 0.0000
     23 ****        -4.2431   1.7942   2.4577 H              1 S1                 0.0000
     24 ****        -4.8405   1.8038   0.8169 H              1 S1                 0.0000
     25 ****        -2.4845   0.1819   1.8786 H              1 S1                 0.0000
     26 ****        -4.0092  -0.4387   1.2902 H              1 S1                 0.0000
     27 ****        -2.2634  -0.6870  -0.4546 H              1 S1                 0.0000
     28 ****        -3.4933   0.4004  -1.0063 H              1 S1                 0.0000
     29 ****        -0.1135  -0.6465   0.3908 H              1 S1                 0.0000
     30 ****        -0.1476  -0.6886  -1.3738 H              1 S1                 0.0000
     31 ****         2.0400   0.3328  -1.3672 H              1 S1                 0.0000
     32 ****         1.8718  -1.9672   0.4399 H              1 S1                 0.0000
     33 ****         1.8260  -2.0627  -1.3175 H              1 S1                 0.0000
     34 ****         4.0877  -0.9496  -1.4310 H              1 S1                 0.0000
     35 ****         4.1437  -0.8815   0.3196 H              1 S1                 0.0000
     36 ****         4.8035  -3.1568  -2.5573 H              1 S1                 0.0000
     37 ****         5.6583  -5.5525  -1.5694 H              1 S1                 0.0000
     38 ****         5.1241  -5.3339   1.1420 H              1 S1                 0.0000
     39 ****        -3.2157   2.7432  -1.1008 H              1 S1                 0.0000
     40 ****        -1.7499   3.5365  -0.6079 H              1 S1                 0.0000
     41 ****        -0.0367   3.1776  -0.6471 LP             1 S1                 0.0000
     42 ****         1.3379   2.1253  -0.7021 LP             1 S1                 0.0000
     43 ****         2.0023   0.3853   0.2646 LP             1 S1                 0.0000
     44 ****         4.1175  -3.1328   1.5849 LP             1 S1                 0.0000
@<TRIPOS>BOND
    1    1    2 1     
    2    1   19 1     
    3    1   20 1     
    4    1   21 1     
    5    2   18 1     
    6    2    3 1     
    7    2   22 1     
    8    3    4 1     
    9    3   23 1     
   10    3   24 1     
   11    4    5 1     
   12    4   25 1     
   13    4   26 1     
   14    5    6 1     
   15    5   27 1     
   16    5   28 1     
   17    6    7 am    
   18    6   18 1     
   19    7    8 2     
   20    7    9 1     
   21    9   10 1     
   22    9   29 1     
   23    9   30 1     
   24   10   11 1     
   25   10   31 1     
   26   11   12 1     
   27   11   32 1     
   28   11   33 1     
   29   12   13 1     
   30   12   34 1     
   31   12   35 1     
   32   13   17 1     
   33   13   14 1     
   34   14   15 2     
   35   14   36 1     
   36   15   16 1     
   37   15   37 1     
   38   16   17 2     
   39   16   38 1     
   40   18   39 1     
   41   18   40 1     
   42    8   41 1     
   43    8   42 1     
   44   10   43 1     
   45   17   44 1     
@<TRIPOS>SUBSTRUCTURE
      1 S1             1
@<TRIPOS>SET
LONE_PAIRS      STATIC     ATOMS    <user>   **** ""
4 41 42 43 44
DONOR_HYDROGENS      STATIC     ATOMS    <user>   **** ""
1 31
ATOM$BLUE        STATIC     ATOMS    COLORGROUP SYSTEM
4 41 42 43 44
ATOM$RED        STATIC     ATOMS    COLORGROUP SYSTEM
1 31
