AV-unprocessed.smi:2044|AV-procd|sdf|8301|dock2
  -GOLD-   2272010563D 1   1.00000     0.00000
 Structure written by MMmdl.
 40 41  0  0  0  0  0  0  0  0  2 V2000
  152.1112  140.9132  157.9334 C   0  0  0  0  0  0  0  0  0  0  0  0
  151.6228  140.3940  156.6247 C   0  0  0  0  0  0  0  0  0  0  0  0
  150.4059  140.4335  156.0047 C   0  0  0  0  0  0  0  0  0  0  0  0
  150.6501  139.7495  154.7783 C   0  0  0  0  0  0  0  0  0  0  0  0
  149.7064  139.5104  153.7461 N   0  0  0  0  0  0  0  0  0  0  0  0
  148.4775  138.9766  153.8462 C   0  0  0  0  0  0  0  0  0  0  0  0
  147.9567  138.5694  154.8846 O   0  0  0  0  0  0  0  0  0  0  0  0
  147.8636  138.9419  152.6546 N   0  0  0  0  0  0  0  0  0  0  0  0
  146.5104  138.4415  152.4297 C   0  0  0  0  0  0  0  0  0  0  0  0
  146.1698  137.1963  153.2925 C   0  0  1  0  0  0  0  0  0  0  0  0
  144.8420  137.4254  154.0556 C   0  0  0  0  0  0  0  0  0  0  0  0
  146.1659  135.9587  152.4453 N   0  3  0  0  0  0  0  0  0  0  0  0
  146.1239  134.7115  153.2577 C   0  0  0  0  0  0  0  0  0  0  0  0
  146.2046  133.4631  152.3643 C   0  0  0  0  0  0  0  0  0  0  0  0
  145.1332  133.4790  151.4336 O   0  0  0  0  0  0  0  0  0  0  0  0
  145.2088  134.6063  150.5743 C   0  0  0  0  0  0  0  0  0  0  0  0
  145.1090  135.9026  151.3972 C   0  0  0  0  0  0  0  0  0  0  0  0
  151.8984  139.3340  154.6676 N   0  0  0  0  0  0  0  0  0  0  0  0
  152.5297  139.7429  155.8480 O   0  0  0  0  0  0  0  0  0  0  0  0
  151.2765  141.1694  158.5862 H   0  0  0  0  0  0  0  0  0  0  0  0
  152.7162  141.8087  157.7910 H   0  0  0  0  0  0  0  0  0  0  0  0
  152.7223  140.1683  158.4433 H   0  0  0  0  0  0  0  0  0  0  0  0
  149.5007  140.8847  156.3818 H   0  0  0  0  0  0  0  0  0  0  0  0
  149.9998  139.7935  152.8227 H   0  0  0  0  0  0  0  0  0  0  0  0
  148.3621  139.2925  151.8493 H   0  0  0  0  0  0  0  0  0  0  0  0
  145.8139  139.2487  152.6586 H   0  0  0  0  0  0  0  0  0  0  0  0
  146.4014  138.2449  151.3638 H   0  0  0  0  0  0  0  0  0  0  0  0
  146.9456  137.0677  154.0492 H   0  0  0  0  0  0  0  0  0  0  0  0
  144.8636  138.3462  154.6383 H   0  0  0  0  0  0  0  0  0  0  0  0
  144.6403  136.6309  154.7742 H   0  0  0  0  0  0  0  0  0  0  0  0
  143.9951  137.4925  153.3716 H   0  0  0  0  0  0  0  0  0  0  0  0
  146.9448  134.6761  153.9711 H   0  0  0  0  0  0  0  0  0  0  0  0
  145.2012  134.6865  153.8394 H   0  0  0  0  0  0  0  0  0  0  0  0
  147.1618  133.4154  151.8421 H   0  0  0  0  0  0  0  0  0  0  0  0
  146.1282  132.5615  152.9723 H   0  0  0  0  0  0  0  0  0  0  0  0
  146.1368  134.5800  150.0007 H   0  0  0  0  0  0  0  0  0  0  0  0
  144.3910  134.5559  149.8553 H   0  0  0  0  0  0  0  0  0  0  0  0
  144.1250  135.9755  151.8634 H   0  0  0  0  0  0  0  0  0  0  0  0
  145.2060  136.7361  150.7023 H   0  0  0  0  0  0  0  0  0  0  0  0
  147.0448  135.9553  151.9476 H   0  0  0  0  0  0  0  0  0  0  0  0
  1  2  1  0  0  0  0
  1 20  1  0  0  0  0
  1 21  1  0  0  0  0
  1 22  1  0  0  0  0
  2 19  1  0  0  0  0
  2  3  2  0  0  0  0
  3  4  1  0  0  0  0
  3 23  1  0  0  0  0
  4  5  1  0  0  0  0
  4 18  2  0  0  0  0
  5  6  1  0  0  0  0
  5 24  1  0  0  0  0
  6  7  2  0  0  0  0
  6  8  1  0  0  0  0
  8  9  1  0  0  0  0
  8 25  1  0  0  0  0
  9 10  1  0  0  0  0
  9 26  1  0  0  0  0
  9 27  1  0  0  0  0
 10 11  1  0  0  0  0
 10 12  1  0  0  0  0
 10 28  1  0  0  0  0
 11 29  1  0  0  0  0
 11 30  1  0  0  0  0
 11 31  1  0  0  0  0
 12 17  1  0  0  0  0
 12 13  1  0  0  0  0
 12 40  1  0  0  0  0
 13 14  1  0  0  0  0
 13 32  1  0  0  0  0
 13 33  1  0  0  0  0
 14 15  1  0  0  0  0
 14 34  1  0  0  0  0
 14 35  1  0  0  0  0
 15 16  1  0  0  0  0
 16 17  1  0  0  0  0
 16 36  1  0  0  0  0
 16 37  1  0  0  0  0
 17 38  1  0  0  0  0
 17 39  1  0  0  0  0
 18 19  1  0  0  0  0
M  CHG  1  12   1
M  END
> <s_m_source_file>
AV-unprocessed.smi

> <i_m_source_file_index>
2044

> <i_lp_mmshare_version>
43012

> <i_f3d_flags>
0

> <s_epik_input>
W0NIM11jMVtjSF1jKG5vMSlbTkhdQyg9TylbTkhdW0NIMl1bQ0BIXShbQ0gzXSlOMltDSDJdW0NIMl1PW0NIMl1bQ0gyXTI=

> <s_epik_cmdline>
J2VwaWtfcHl0aG9uJywgJy1waCcsICc3LjAnLCAnLXRuJywgJzgnLCAnLW1hJywgJzIwMCcsICctbWV0YWxfYmluZGluZycsICctaW1hZScsICc8aW5maWxlLm1hZT4nLCAnLW9tYWUnLCAnPG91dGZpbGUubWFlPic=

> <r_epik_Ionization_Penalty>
0.707076

> <r_epik_Ionization_Penalty_Charging>
0.707039

> <r_epik_Ionization_Penalty_Neutral>
3.67886e-05

> <r_epik_State_Penalty>
0.730276

> <r_epik_Charging_Adjusted_Penalty>
1.43732

> <i_epik_Tot_Q>
1

> <i_epik_Tot_abs_Q>
1

> <r_epik_Metal_State_Penalty>
0.743216

> <b_epik_Metal_Only>
0

> <s_lp_Force_Field>
OPLS_2005

> <r_lp_Energy>
19.4768

> <b_lp_Chiralities_Consistent>
1

> <s_lp_Variant>
AV-unprocessed.smi:2044-4

> <Gold.Version>
5.8.1

> <Gold.Id.Protein>
6NUR|6NUR_protein|mol2

> <Gold.PLP.Fitness>
41.7816

> <Gold.PLP.PLP>
-29.4560

> <Gold.PLP.part.hbond>
-5.9974

> <Gold.PLP.part.metal>
0.0000

> <Gold.PLP.part.buried>
-1.5335

> <Gold.PLP.part.nonpolar>
-21.5101

> <Gold.PLP.part.repulsive>
0.4722

> <Gold.PLP.ligand.clash>
0.0000

> <Gold.PLP.ligand.torsion>
1.3487

> <Gold.PLP.Chemscore.Hbond>
4.9920

> <Gold.PLP.Chemscore.CHOScore>
0.0000

> <Gold.PLP.Chemscore.Metal>
0.0000

> <Gold.Chemscore.Hbonds>
donor molecule, donor type, donor heavy atom, donor atom, acceptor molecule, acceptor atom, score
      L1  H     5    24       P1  7957  0.99
      L1  H     8    25       P1  7957  1.00
      L1  H    12    40       P1  7948  2.00
      P1  H  7997  8009       L1    19  1.00

> <Gold.PLP.Chemscore.Internal.Correction>
0.0469

> <Gold.Rescore>
     Score         DG    S(hbond)    S(metal)    S(lipo)     H(rot)  DE(clash)    DE(int)     intcor
     17.20     -20.16       3.94        0.00      48.58       1.62       0.19       2.78       ----

> <Gold.Chemscore.Fitness>
17.2006

> <Gold.Chemscore.DG>
-20.1642

> <Gold.Chemscore.ZeroCoef>
-5.4800

> <Gold.Chemscore.Hbond>
3.9373

> <Gold.Chemscore.Metal>
0.0000

> <Gold.Chemscore.Lipo>
48.5839

> <Gold.Chemscore.Internal_Hbond>
0.0000

> <Gold.Chemscore.DEClash>
0.1865

> <Gold.Chemscore.DEInternal>
2.7772

> <Gold.Chemscore.Rot>
1.6213

> <Gold.Chemscore.Internal.Correction>
   9.000000E+99

> <Gold.Chemscore.Hbonds>
donor molecule, donor type, donor heavy atom, donor atom, acceptor molecule, acceptor atom, score
      L1  H     5    24       P1  7957  0.94
      L1  H     8    25       P1  7957  0.95
      L1  H    12    40       P1  7948  0.97
      P1  H  7997  8009       L1    19  0.95

> <Gold.Chemscore.Hbond.Weighted>
-13.1506

> <Gold.Chemscore.Metal.Weighted>
-0.0000

> <Gold.Chemscore.Lipo.Weighted>
-5.6843

> <Gold.Chemscore.Internal_Hbond.Weighted>
0.0000

> <Gold.Chemscore.DEClash.Weighted>
0.1865

> <Gold.Chemscore.DEInternal.Weighted>
2.7772

> <Gold.Chemscore.Rot.Weighted>
4.1506

> <Gold.Chemscore.Internal.Correction.Weighted>
   9.000000E+99

> <Gold.Protein.RotatedTorsions>
[ 6907 6896 6895 6894 ] final -178.68 input  -60.11 | X-H torsion
[ 7974 7965 7964 7962 ] final  -20.72 input  175.53 | X-H torsion
[ 8008 7997 7996 7995 ] final -145.91 input   59.86 | X-H torsion
[ 10167 10162 10161 10158 ] final   57.85 input  -65.29 | X-H torsion
[ 10718 10713 10712 10709 ] final   89.53 input   66.30 | X-H torsion
[ 10763 10752 10751 10750 ] final -140.89 input  -60.55 | X-H torsion
[ 11005 11000 10999 10996 ] final  118.26 input  -57.11 | X-H torsion

> <Gold.Protein.ActiveResidues>
 VAL166  LYS551  ARG553  GLY616  TRP617  ASP618  TYR619  PRO620  LYS621  CYS622 
 ASP623  PHE694  ASN695  SER759  ASP760  ASP761  ALA762  ILE779  LEU786  VAL792 
 PHE793  MET794  SER795  GLU796  ALA797  LYS798  CYS799  TRP800  GLU811  SER814 

> <Gold.Protein.RotatedAtoms>
  151.6412  133.3326  159.3130 H   0  0  0  0  0  0  0  0  0  0  0  0  # atno 6907 bound_to 6896
  150.8007  134.7102  159.6609 H   0  0  0  0  0  0  0  0  0  0  0  0  # atno 6908 bound_to 6896
  152.4099  134.6147  160.0086 H   0  0  0  0  0  0  0  0  0  0  0  0  # atno 6909 bound_to 6896
  146.1772  140.4242  142.8509 H   0  0  0  0  0  0  0  0  0  0  0  0  # atno 7974 bound_to 7965
  155.5509  140.0616  157.2850 H   0  0  0  0  0  0  0  0  0  0  0  0  # atno 8008 bound_to 7997
  154.4421  140.1902  156.0730 H   0  0  0  0  0  0  0  0  0  0  0  0  # atno 8009 bound_to 7997
  156.0517  140.3283  155.7362 H   0  0  0  0  0  0  0  0  0  0  0  0  # atno 8010 bound_to 7997
  140.1935  144.4061  150.6560 H   0  0  0  0  0  0  0  0  0  0  0  0  # atno 10167 bound_to 10162
  157.6955  131.0337  150.3440 H   0  0  0  0  0  0  0  0  0  0  0  0  # atno 10718 bound_to 10713
  154.8564  135.3540  154.5780 H   0  0  0  0  0  0  0  0  0  0  0  0  # atno 10763 bound_to 10752
  153.6391  135.6999  153.5252 H   0  0  0  0  0  0  0  0  0  0  0  0  # atno 10764 bound_to 10752
  153.2986  135.4213  155.1191 H   0  0  0  0  0  0  0  0  0  0  0  0  # atno 10765 bound_to 10752
  139.9103  134.9618  156.7477 H   0  0  0  0  0  0  0  0  0  0  0  0  # atno 11005 bound_to 11000
  144.8256  140.6622  143.6324 LP  0  0  0  0  0  0  0  0  0  0  0  0  # atno 17320 bound_to 7965
  145.4177  139.1569  143.4091 LP  0  0  0  0  0  0  0  0  0  0  0  0  # atno 17321 bound_to 7965
  140.6439  143.2209  151.6229 LP  0  0  0  0  0  0  0  0  0  0  0  0  # atno 17342 bound_to 10162
  139.5246  144.3099  152.1002 LP  0  0  0  0  0  0  0  0  0  0  0  0  # atno 17343 bound_to 10162
  156.3897  130.3895  149.7039 LP  0  0  0  0  0  0  0  0  0  0  0  0  # atno 17370 bound_to 10713
  156.4393  130.7853  151.2874 LP  0  0  0  0  0  0  0  0  0  0  0  0  # atno 17371 bound_to 10713
  140.6799  133.9484  155.7904 LP  0  0  0  0  0  0  0  0  0  0  0  0  # atno 17394 bound_to 11000
  141.0518  134.0474  157.3774 LP  0  0  0  0  0  0  0  0  0  0  0  0  # atno 17395 bound_to 11000

$$$$
