AV-unprocessed.smi:1836|AV-procd|sdf|7480|dock10
  -GOLD-   22720 9173D 1   1.00000     0.00000
 Structure written by MMmdl.
 32 33  0  0  0  0  0  0  0  0  2 V2000
  151.8830  144.1957  157.6331 C   0  0  0  0  0  0  0  0  0  0  0  0
  151.6035  142.7214  157.3121 C   0  0  1  0  0  0  0  0  0  0  0  0
  151.1301  141.9598  158.5708 C   0  0  0  0  0  0  0  0  0  0  0  0
  152.2168  141.7198  159.5199 N   0  0  0  0  0  0  0  0  0  0  0  0
  152.2880  142.4615  160.7677 C   0  0  0  0  0  0  0  0  0  0  0  0
  153.6592  142.1073  161.3592 C   0  0  0  0  0  0  0  0  0  0  0  0
  154.1280  140.8615  160.6005 C   0  0  0  0  0  0  0  0  0  0  0  0
  153.1827  140.7984  159.4130 C   0  0  0  0  0  0  0  0  0  0  0  0
  153.3222  139.9930  158.4938 O   0  0  0  0  0  0  0  0  0  0  0  0
  150.5986  142.6627  156.2507 N   0  0  0  0  0  0  0  0  0  0  0  0
  150.2184  141.5674  155.5753 C   0  0  0  0  0  0  0  0  0  0  0  0
  150.7396  140.4771  155.8226 O   0  0  0  0  0  0  0  0  0  0  0  0
  149.2433  141.7987  154.6675 N   0  5  0  0  0  0  0  0  0  0  0  0
  148.5090  140.7758  154.2006 C   0  0  0  0  0  0  0  0  0  0  0  0
  148.8404  139.4933  154.4200 N   0  0  0  0  0  0  0  0  0  0  0  0
  147.9506  138.5942  153.8477 N   0  0  0  0  0  0  0  0  0  0  0  0
  146.9695  139.2253  153.2027 C   0  0  0  0  0  0  0  0  0  0  0  0
  147.0456  140.9745  153.2315 S   0  0  0  0  0  0  0  0  0  0  0  0
  152.6548  144.2916  158.3971 H   0  0  0  0  0  0  0  0  0  0  0  0
  150.9877  144.6997  157.9987 H   0  0  0  0  0  0  0  0  0  0  0  0
  152.2295  144.7312  156.7483 H   0  0  0  0  0  0  0  0  0  0  0  0
  152.5438  142.2882  156.9669 H   0  0  0  0  0  0  0  0  0  0  0  0
  150.3644  142.5428  159.0843 H   0  0  0  0  0  0  0  0  0  0  0  0
  150.6512  141.0199  158.2906 H   0  0  0  0  0  0  0  0  0  0  0  0
  152.1851  143.5345  160.6019 H   0  0  0  0  0  0  0  0  0  0  0  0
  151.4810  142.1370  161.4260 H   0  0  0  0  0  0  0  0  0  0  0  0
  154.3601  142.9261  161.1904 H   0  0  0  0  0  0  0  0  0  0  0  0
  153.6048  141.9371  162.4347 H   0  0  0  0  0  0  0  0  0  0  0  0
  155.1663  140.9415  160.2769 H   0  0  0  0  0  0  0  0  0  0  0  0
  154.0142  139.9600  161.2031 H   0  0  0  0  0  0  0  0  0  0  0  0
  150.1365  143.5289  156.0157 H   0  0  0  0  0  0  0  0  0  0  0  0
  146.1987  138.6576  152.7037 H   0  0  0  0  0  0  0  0  0  0  0  0
  1  2  1  0  0  0  0
  1 19  1  0  0  0  0
  1 20  1  0  0  0  0
  1 21  1  0  0  0  0
  2  3  1  0  0  0  0
  2 10  1  0  0  0  0
  2 22  1  0  0  0  0
  3  4  1  0  0  0  0
  3 23  1  0  0  0  0
  3 24  1  0  0  0  0
  4  8  1  0  0  0  0
  4  5  1  0  0  0  0
  5  6  1  0  0  0  0
  5 25  1  0  0  0  0
  5 26  1  0  0  0  0
  6  7  1  0  0  0  0
  6 27  1  0  0  0  0
  6 28  1  0  0  0  0
  7  8  1  0  0  0  0
  7 29  1  0  0  0  0
  7 30  1  0  0  0  0
  8  9  2  0  0  0  0
 10 11  1  0  0  0  0
 10 31  1  0  0  0  0
 11 12  2  0  0  0  0
 11 13  1  0  0  0  0
 13 14  1  0  0  0  0
 14 18  1  0  0  0  0
 14 15  2  0  0  0  0
 15 16  1  0  0  0  0
 16 17  2  0  0  0  0
 17 18  1  0  0  0  0
 17 32  1  0  0  0  0
M  CHG  1  13  -1
M  END
> <s_m_source_file>
AV-unprocessed.smi

> <i_m_source_file_index>
1836

> <i_lp_mmshare_version>
43012

> <i_f3d_flags>
0

> <s_epik_input>
Tz1DMVtDSDJdW0NIMl1bQ0gyXU4xW0NIMl1bQ0BASF0oW0NIM10pW05IXUMoPU8pW05IXWMybm5bY0hdczI=

> <s_epik_cmdline>
J2VwaWtfcHl0aG9uJywgJy1waCcsICc3LjAnLCAnLXRuJywgJzgnLCAnLW1hJywgJzIwMCcsICctbWV0YWxfYmluZGluZycsICctaW1hZScsICc8aW5maWxlLm1hZT4nLCAnLW9tYWUnLCAnPG91dGZpbGUubWFlPic=

> <r_lp_tautomer_probability>
1

> <r_epik_Ionization_Penalty>
3.44722

> <r_epik_Ionization_Penalty_Charging>
3.40341

> <r_epik_Ionization_Penalty_Neutral>
0.0438099

> <r_epik_State_Penalty>
3.40151

> <r_epik_Charging_Adjusted_Penalty>
6.80491

> <i_epik_Tot_Q>
-1

> <i_epik_Tot_abs_Q>
1

> <r_epik_Metal_State_Penalty>
0.49534

> <b_epik_Metal_Only>
1

> <s_lp_Force_Field>
OPLS_2005

> <r_lp_Energy>
17.1678

> <b_lp_Chiralities_Consistent>
1

> <s_lp_Variant>
AV-unprocessed.smi:1836-4

> <Gold.Version>
5.8.1

> <Gold.Id.Protein>
6NUR|6NUR_protein|mol2

> <Gold.PLP.Fitness>
41.7157

> <Gold.PLP.PLP>
-36.5480

> <Gold.PLP.part.hbond>
-2.8766

> <Gold.PLP.part.metal>
0.0000

> <Gold.PLP.part.buried>
-5.7497

> <Gold.PLP.part.nonpolar>
-28.6047

> <Gold.PLP.part.repulsive>
0.7839

> <Gold.PLP.ligand.clash>
0.0000

> <Gold.PLP.ligand.torsion>
0.4376

> <Gold.PLP.Chemscore.Hbond>
1.9920

> <Gold.PLP.Chemscore.CHOScore>
0.0000

> <Gold.PLP.Chemscore.Metal>
0.0000

> <Gold.Chemscore.Hbonds>
donor molecule, donor type, donor heavy atom, donor atom, acceptor molecule, acceptor atom, score
      L1  H    10    31       P1  8028  1.00
      P1  H  7997  8009       L1     9  1.00

> <Gold.PLP.Chemscore.Internal.Correction>
0.0670

> <Gold.Rescore>
     Score         DG    S(hbond)    S(metal)    S(lipo)     H(rot)  DE(clash)    DE(int)     intcor
     14.25     -16.41       1.94        0.00      75.93       1.73       0.04       2.12       ----

> <Gold.Chemscore.Fitness>
14.2498

> <Gold.Chemscore.DG>
-16.4074

> <Gold.Chemscore.ZeroCoef>
-5.4800

> <Gold.Chemscore.Hbond>
1.9382

> <Gold.Chemscore.Metal>
0.0000

> <Gold.Chemscore.Lipo>
75.9256

> <Gold.Chemscore.Internal_Hbond>
0.0000

> <Gold.Chemscore.DEClash>
0.0383

> <Gold.Chemscore.DEInternal>
2.1193

> <Gold.Chemscore.Rot>
1.7302

> <Gold.Chemscore.Internal.Correction>
   9.000000E+99

> <Gold.Chemscore.Hbonds>
donor molecule, donor type, donor heavy atom, donor atom, acceptor molecule, acceptor atom, score
      L1  H    10    31       P1  8028  1.00
      P1  H  7997  8009       L1     9  0.97

> <Gold.Chemscore.Hbond.Weighted>
-6.4735

> <Gold.Chemscore.Metal.Weighted>
-0.0000

> <Gold.Chemscore.Lipo.Weighted>
-8.8833

> <Gold.Chemscore.Internal_Hbond.Weighted>
0.0000

> <Gold.Chemscore.DEClash.Weighted>
0.0383

> <Gold.Chemscore.DEInternal.Weighted>
2.1193

> <Gold.Chemscore.Rot.Weighted>
4.4294

> <Gold.Chemscore.Internal.Correction.Weighted>
   9.000000E+99

> <Gold.Protein.RotatedTorsions>
[ 6907 6896 6895 6894 ] final  -87.46 input  -60.11 | X-H torsion
[ 7974 7965 7964 7962 ] final  161.11 input  175.53 | X-H torsion
[ 8008 7997 7996 7995 ] final  149.99 input   59.86 | X-H torsion
[ 10167 10162 10161 10158 ] final  110.85 input  -65.29 | X-H torsion
[ 10718 10713 10712 10709 ] final  171.73 input   66.30 | X-H torsion
[ 10763 10752 10751 10750 ] final -105.59 input  -60.55 | X-H torsion
[ 11005 11000 10999 10996 ] final   42.95 input  -57.11 | X-H torsion

> <Gold.Protein.ActiveResidues>
 VAL166  LYS551  ARG553  GLY616  TRP617  ASP618  TYR619  PRO620  LYS621  CYS622 
 ASP623  PHE694  ASN695  SER759  ASP760  ASP761  ALA762  ILE779  LEU786  VAL792 
 PHE793  MET794  SER795  GLU796  ALA797  LYS798  CYS799  TRP800  GLU811  SER814 

> <Gold.Protein.RotatedAtoms>
  150.6866  134.2893  159.4659 H   0  0  0  0  0  0  0  0  0  0  0  0  # atno 6907 bound_to 6896
  152.0799  134.9475  160.0583 H   0  0  0  0  0  0  0  0  0  0  0  0  # atno 6908 bound_to 6896
  152.0832  133.4128  159.4547 H   0  0  0  0  0  0  0  0  0  0  0  0  # atno 6909 bound_to 6896
  144.7702  139.7852  143.6300 H   0  0  0  0  0  0  0  0  0  0  0  0  # atno 7974 bound_to 7965
  156.2733  140.2087  156.5946 H   0  0  0  0  0  0  0  0  0  0  0  0  # atno 8008 bound_to 7997
  154.6955  140.0526  157.0429 H   0  0  0  0  0  0  0  0  0  0  0  0  # atno 8009 bound_to 7997
  155.0807  140.3186  155.4605 H   0  0  0  0  0  0  0  0  0  0  0  0  # atno 8010 bound_to 7997
  139.6657  144.7127  151.1782 H   0  0  0  0  0  0  0  0  0  0  0  0  # atno 10167 bound_to 10162
  156.9893  131.0143  151.2861 H   0  0  0  0  0  0  0  0  0  0  0  0  # atno 10718 bound_to 10713
  154.7956  135.4743  154.0154 H   0  0  0  0  0  0  0  0  0  0  0  0  # atno 10763 bound_to 10752
  153.1699  135.6823  153.8629 H   0  0  0  0  0  0  0  0  0  0  0  0  # atno 10764 bound_to 10752
  153.8215  135.3203  155.3388 H   0  0  0  0  0  0  0  0  0  0  0  0  # atno 10765 bound_to 10752
  140.1691  134.4245  155.8268 H   0  0  0  0  0  0  0  0  0  0  0  0  # atno 11005 bound_to 11000
  146.1843  139.5050  142.9846 LP  0  0  0  0  0  0  0  0  0  0  0  0  # atno 17320 bound_to 7965
  145.6347  141.0297  143.1844 LP  0  0  0  0  0  0  0  0  0  0  0  0  # atno 17321 bound_to 7965
  140.7598  143.5924  150.8783 LP  0  0  0  0  0  0  0  0  0  0  0  0  # atno 17342 bound_to 10162
  139.9585  143.6191  152.3009 LP  0  0  0  0  0  0  0  0  0  0  0  0  # atno 17343 bound_to 10162
  157.5470  130.8157  149.8098 LP  0  0  0  0  0  0  0  0  0  0  0  0  # atno 17370 bound_to 10713
  156.0213  130.3794  150.1953 LP  0  0  0  0  0  0  0  0  0  0  0  0  # atno 17371 bound_to 10713
  141.2216  133.6948  156.7731 LP  0  0  0  0  0  0  0  0  0  0  0  0  # atno 17394 bound_to 11000
  140.2399  134.8622  157.3562 LP  0  0  0  0  0  0  0  0  0  0  0  0  # atno 17395 bound_to 11000

$$$$
