#       Name:                AV-unprocessed.smi:2411
#       Creating user name   scv26
#       Creation time:       Fri Mar 27 13:16:20 2020


#       File generated by GOLD software.
#

@<TRIPOS>MOLECULE
AV-unprocessed.smi:2411
    46    48     1
SMALL
NO_CHARGES


@<TRIPOS>ATOM
      1 ****        -1.5561  -2.9278  -0.3242 C.3            1 S1                 0.0000
      2 ****        -2.4086  -2.4533  -1.4059 N.3            1 S1                 0.0000
      3 ****        -2.9484  -3.4773  -2.2919 C.3            1 S1                 0.0000
      4 ****        -3.2982  -1.4326  -1.0126 C.ar           1 S1                 0.0000
      5 ****        -4.6076  -1.7516  -0.8676 N.ar           1 S1                 0.0000
      6 ****        -5.4396  -0.7859  -0.4745 C.ar           1 S1                 0.0000
      7 ****        -5.1214   0.4810  -0.2099 N.ar           1 S1                 0.0000
      8 ****        -3.8238   0.8227  -0.3497 C.ar           1 S1                 0.0000
      9 ****        -2.8401  -0.1146  -0.7501 C.ar           1 S1                 0.0000
     10 ****        -1.4762   0.2311  -0.9554 N.am           1 S1                 0.0000
     11 ****        -0.7594   1.1600  -0.3034 C.2            1 S1                 0.0000
     12 ****        -1.1988   1.9120   0.5665 O.2            1 S1                 0.0000
     13 ****         0.5208   1.1463  -0.6990 N.am           1 S1                 0.0000
     14 ****         1.5871   1.9811  -0.1506 C.3            1 S1                 0.0000
     15 ****         2.4934   1.3601   0.9121 C.3            1 S1                 0.0000
     16 ****         3.5553   2.3229   1.4330 C.3            1 S1                 0.0000
     17 ****         4.8666   2.4682   0.6981 C.3            1 S1                 0.0000
     18 ****         4.8493   1.8996   2.0979 C.3            1 S1                 0.0000
     19 ****         1.9120   0.3899   1.9259 C.3            1 S1                 0.0000
     20 ****         2.7833  -0.1326   0.8150 C.3            1 S1                 0.0000
     21 ****        -0.9987  -2.1153   0.1411 H              1 S1                 0.0000
     22 ****        -0.8335  -3.6526  -0.7000 H              1 S1                 0.0000
     23 ****        -2.1549  -3.4147   0.4464 H              1 S1                 0.0000
     24 ****        -3.5283  -3.0283  -3.0991 H              1 S1                 0.0000
     25 ****        -3.5911  -4.1673  -1.7436 H              1 S1                 0.0000
     26 ****        -2.1386  -4.0518  -2.7419 H              1 S1                 0.0000
     27 ****        -6.4786  -1.0578  -0.3632 H              1 S1                 0.0000
     28 ****        -3.5907   1.8599  -0.1638 H              1 S1                 0.0000
     29 ****        -0.9636  -0.3759  -1.5785 H              1 S1                 0.0000
     30 ****         0.7864   0.4901  -1.4187 H              1 S1                 0.0000
     31 ****         2.2157   2.2819  -0.9889 H              1 S1                 0.0000
     32 ****         1.1699   2.9071   0.2487 H              1 S1                 0.0000
     33 ****         3.1423   3.2506   1.8248 H              1 S1                 0.0000
     34 ****         5.0681   1.7785  -0.1194 H              1 S1                 0.0000
     35 ****         5.2583   3.4748   0.5666 H              1 S1                 0.0000
     36 ****         5.2280   2.5339   2.8967 H              1 S1                 0.0000
     37 ****         5.0724   0.8425   2.2126 H              1 S1                 0.0000
     38 ****         2.3353   0.3925   2.9284 H              1 S1                 0.0000
     39 ****         0.8504   0.1587   1.8808 H              1 S1                 0.0000
     40 ****         2.2925  -0.7066   0.0320 H              1 S1                 0.0000
     41 ****         3.7691  -0.5013   1.0839 H              1 S1                 0.0000
     42 ****        -1.7791  -1.9929  -2.0318 LP             1 S1                 0.0000
     43 ****        -4.9381  -2.6778  -1.0488 LP             1 S1                 0.0000
     44 ****        -5.8107   1.1458   0.0782 LP             1 S1                 0.0000
     45 ****        -2.1602   1.8569   0.8361 LP             1 S1                 0.0000
     46 ****        -0.5943   2.5781   1.0036 LP             1 S1                 0.0000
@<TRIPOS>BOND
    1    1    2 1     
    2    1   21 1     
    3    1   22 1     
    4    1   23 1     
    5    2    3 1     
    6    2    4 1     
    7    3   24 1     
    8    3   25 1     
    9    3   26 1     
   10    4    9 ar    
   11    4    5 ar    
   12    5    6 ar    
   13    6    7 ar    
   14    6   27 1     
   15    7    8 ar    
   16    8    9 ar    
   17    8   28 1     
   18    9   10 1     
   19   10   11 am    
   20   10   29 1     
   21   11   12 2     
   22   11   13 am    
   23   13   14 1     
   24   13   30 1     
   25   14   15 1     
   26   14   31 1     
   27   14   32 1     
   28   15   20 1     
   29   15   16 1     
   30   15   19 1     
   31   16   18 1     
   32   16   17 1     
   33   16   33 1     
   34   17   18 1     
   35   17   34 1     
   36   17   35 1     
   37   18   36 1     
   38   18   37 1     
   39   19   20 1     
   40   19   38 1     
   41   19   39 1     
   42   20   40 1     
   43   20   41 1     
   44    2   42 1     
   45    5   43 1     
   46    7   44 1     
   47   12   45 1     
   48   12   46 1     
@<TRIPOS>SUBSTRUCTURE
      1 S1             1
@<TRIPOS>SET
LONE_PAIRS      STATIC     ATOMS    <user>   **** ""
5 42 43 44 45 46
DONOR_HYDROGENS      STATIC     ATOMS    <user>   **** ""
2 29 30
ATOM$BLUE        STATIC     ATOMS    COLORGROUP SYSTEM
5 42 43 44 45 46
ATOM$RED        STATIC     ATOMS    COLORGROUP SYSTEM
2 29 30
