#       Name:                AV-unprocessed.smi:2829
#       Creating user name   scv26
#       Creation time:       Fri Mar 27 15:34:46 2020


#       File generated by GOLD software.
#

@<TRIPOS>MOLECULE
AV-unprocessed.smi:2829
    56    59     1
SMALL
NO_CHARGES


@<TRIPOS>ATOM
      1 ****        -6.0984  -0.4263  -0.6933 C.3            1 S1                 0.0000
      2 ****        -5.3976   0.7961  -0.0582 C.3            1 S1                 0.0000
      3 ****        -5.9113   2.0550  -0.7878 C.3            1 S1                 0.0000
      4 ****        -5.8091   0.8476   1.4279 C.3            1 S1                 0.0000
      5 ****        -3.8643   0.7197  -0.1706 C.ar           1 S1                 0.0000
      6 ****        -3.1846  -0.3600  -0.7787 C.ar           1 S1                 0.0000
      7 ****        -1.7808  -0.3106  -0.8180 C.ar           1 S1                 0.0000
      8 ****        -1.1320   0.8064  -0.2549 C.ar           1 S1                 0.0000
      9 ****         0.2850   0.7881  -0.3270 N.am           1 S1                 0.0000
     10 ****         1.1535   1.7064   0.1398 C.2            1 S1                 0.0000
     11 ****         0.8344   2.7829   0.6407 O.2            1 S1                 0.0000
     12 ****         2.4444   1.3577   0.0048 N.am           1 S1                 0.0000
     13 ****         3.6241   2.1233   0.4058 C.3            1 S1                 0.0000
     14 ****         4.9260   1.4137   0.0282 C.3            1 S1                 0.0000
     15 ****         5.9946   0.7303   0.8015 C.3            1 S1                 0.0000
     16 ****         7.2096   1.3353   0.0528 C.3            1 S1                 0.0000
     17 ****         6.6709   2.3762  -0.7983 O.3            1 S1                 0.0000
     18 ****         5.5038   2.8108  -0.1270 C.3            1 S1                 0.0000
     19 ****         4.1079   3.1788  -0.6476 C.3            1 S1                 0.0000
     20 ****         3.6095   4.6286  -0.6251 C.3            1 S1                 0.0000
     21 ****         2.8569   4.3510  -1.9310 C.3            1 S1                 0.0000
     22 ****         3.7532   3.1267  -2.1454 C.3            1 S1                 0.0000
     23 ****        -1.8483   1.8075   0.3147 N.ar           1 S1                 0.0000
     24 ****        -3.1830   1.7658   0.3570 N.ar           1 S1                 0.0000
     25 ****        -7.1828  -0.3492  -0.6054 H              1 S1                 0.0000
     26 ****        -5.8057  -1.3574  -0.2064 H              1 S1                 0.0000
     27 ****        -5.8709  -0.5144  -1.7565 H              1 S1                 0.0000
     28 ****        -5.6280   2.0449  -1.8411 H              1 S1                 0.0000
     29 ****        -5.5106   2.9697  -0.3492 H              1 S1                 0.0000
     30 ****        -6.9983   2.1266  -0.7401 H              1 S1                 0.0000
     31 ****        -6.8931   0.8869   1.5392 H              1 S1                 0.0000
     32 ****        -5.4037   1.7265   1.9305 H              1 S1                 0.0000
     33 ****        -5.4549  -0.0314   1.9674 H              1 S1                 0.0000
     34 ****        -3.6972  -1.2072  -1.2069 H              1 S1                 0.0000
     35 ****        -1.2185  -1.1140  -1.2715 H              1 S1                 0.0000
     36 ****         0.6892  -0.0378  -0.7426 H              1 S1                 0.0000
     37 ****         2.6269   0.4717  -0.4439 H              1 S1                 0.0000
     38 ****         3.6123   2.4843   1.4378 H              1 S1                 0.0000
     39 ****         4.8020   0.9129  -0.9394 H              1 S1                 0.0000
     40 ****         5.9811   1.0124   1.8552 H              1 S1                 0.0000
     41 ****         5.9485  -0.3559   0.7199 H              1 S1                 0.0000
     42 ****         7.9304   1.7540   0.7560 H              1 S1                 0.0000
     43 ****         7.7235   0.5929  -0.5582 H              1 S1                 0.0000
     44 ****         5.7403   3.3006   0.8234 H              1 S1                 0.0000
     45 ****         2.9724   4.8827   0.2222 H              1 S1                 0.0000
     46 ****         4.4173   5.3507  -0.7521 H              1 S1                 0.0000
     47 ****         1.8114   4.0860  -1.7691 H              1 S1                 0.0000
     48 ****         2.9613   5.1279  -2.6887 H              1 S1                 0.0000
     49 ****         4.6100   3.3426  -2.7851 H              1 S1                 0.0000
     50 ****         3.2247   2.2316  -2.4739 H              1 S1                 0.0000
     51 ****        -0.1313   3.0288   0.7242 LP             1 S1                 0.0000
     52 ****         1.5405   3.4125   0.9646 LP             1 S1                 0.0000
     53 ****         6.4446   2.0126  -1.7020 LP             1 S1                 0.0000
     54 ****         7.3239   3.1273  -0.8952 LP             1 S1                 0.0000
     55 ****        -1.3687   2.5909   0.7101 LP             1 S1                 0.0000
     56 ****        -3.6864   2.5170   0.7839 LP             1 S1                 0.0000
@<TRIPOS>BOND
    1    1    2 1     
    2    1   25 1     
    3    1   26 1     
    4    1   27 1     
    5    2    3 1     
    6    2    4 1     
    7    2    5 1     
    8    3   28 1     
    9    3   29 1     
   10    3   30 1     
   11    4   31 1     
   12    4   32 1     
   13    4   33 1     
   14    5   24 ar    
   15    5    6 ar    
   16    6    7 ar    
   17    6   34 1     
   18    7    8 ar    
   19    7   35 1     
   20    8    9 1     
   21    8   23 ar    
   22    9   10 am    
   23    9   36 1     
   24   10   11 2     
   25   10   12 am    
   26   12   13 1     
   27   12   37 1     
   28   13   19 1     
   29   13   14 1     
   30   13   38 1     
   31   14   18 1     
   32   14   15 1     
   33   14   39 1     
   34   15   16 1     
   35   15   40 1     
   36   15   41 1     
   37   16   17 1     
   38   16   42 1     
   39   16   43 1     
   40   17   18 1     
   41   18   19 1     
   42   18   44 1     
   43   19   22 1     
   44   19   20 1     
   45   20   21 1     
   46   20   45 1     
   47   20   46 1     
   48   21   22 1     
   49   21   47 1     
   50   21   48 1     
   51   22   49 1     
   52   22   50 1     
   53   23   24 ar    
   54   11   51 1     
   55   11   52 1     
   56   17   53 1     
   57   17   54 1     
   58   23   55 1     
   59   24   56 1     
@<TRIPOS>SUBSTRUCTURE
      1 S1             1
@<TRIPOS>SET
LONE_PAIRS      STATIC     ATOMS    <user>   **** ""
6 51 52 53 54 55 56
DONOR_HYDROGENS      STATIC     ATOMS    <user>   **** ""
2 36 37
ATOM$BLUE        STATIC     ATOMS    COLORGROUP SYSTEM
6 51 52 53 54 55 56
ATOM$RED        STATIC     ATOMS    COLORGROUP SYSTEM
2 36 37
