AV-unprocessed.smi:1180|AV-procd|sdf|4960|dock6
  -GOLD-   22720 3553D 1   1.00000     0.00000
 Structure written by MMmdl.
 38 39  0  0  0  0  0  0  0  0  1 V2000
  153.4805  137.2107  161.3796 C   0  0  0  0  0  0  0  0  0  0  0  0
  152.8144  137.4200  160.0362 C   0  0  0  0  0  0  0  0  0  0  0  0
  151.5599  137.2046  159.8125 N   0  0  0  0  0  0  0  0  0  0  0  0
  151.0551  137.4363  158.5254 C   0  0  0  0  0  0  0  0  0  0  0  0
  149.5718  137.1653  158.3441 C   0  0  0  0  0  0  0  0  0  0  0  0
  151.8559  137.8776  157.5114 C   0  0  0  0  0  0  0  0  0  0  0  0
  151.3384  138.1453  156.0981 C   0  0  0  0  0  0  0  0  0  0  0  0
  151.1267  139.6138  155.7189 C   0  0  0  0  0  0  0  0  0  0  0  0
  150.9782  139.9456  154.5423 O   0  0  0  0  0  0  0  0  0  0  0  0
  151.1129  140.4868  156.7369 N   0  0  0  0  0  0  0  0  0  0  0  0
  150.9174  141.9262  156.6042 C   0  0  0  0  0  0  0  0  0  0  0  0
  151.2571  142.6805  157.9044 C   0  0  2  0  0  0  0  0  0  0  0  0
  151.6233  144.1449  157.6928 C   0  0  0  0  0  0  0  0  0  0  0  0
  152.7541  144.4044  158.6942 C   0  0  0  0  0  0  0  0  0  0  0  0
  152.8393  143.2271  159.4850 O   0  0  0  0  0  0  0  0  0  0  0  0
  152.4679  142.1362  158.6607 C   0  0  0  0  0  0  0  0  0  0  0  0
  153.2865  138.1220  157.7782 C   0  0  0  0  0  0  0  0  0  0  0  0
  154.0924  138.5273  156.9417 O   0  0  0  0  0  0  0  0  0  0  0  0
  153.6849  137.8725  159.0459 N   0  0  0  0  0  0  0  0  0  0  0  0
  154.6550  138.0260  159.2793 H   0  0  0  0  0  0  0  0  0  0  0  0
  153.0227  137.8569  162.1291 H   0  0  0  0  0  0  0  0  0  0  0  0
  154.5472  137.4355  161.3403 H   0  0  0  0  0  0  0  0  0  0  0  0
  153.3612  136.1755  161.7004 H   0  0  0  0  0  0  0  0  0  0  0  0
  149.4165  136.3418  157.6472 H   0  0  0  0  0  0  0  0  0  0  0  0
  149.0631  138.0488  157.9580 H   0  0  0  0  0  0  0  0  0  0  0  0
  149.0995  136.8964  159.2899 H   0  0  0  0  0  0  0  0  0  0  0  0
  152.0039  137.6886  155.3641 H   0  0  0  0  0  0  0  0  0  0  0  0
  150.3870  137.6297  155.9675 H   0  0  0  0  0  0  0  0  0  0  0  0
  151.2420  140.1277  157.6719 H   0  0  0  0  0  0  0  0  0  0  0  0
  151.5527  142.2777  155.7907 H   0  0  0  0  0  0  0  0  0  0  0  0
  149.8892  142.1351  156.3039 H   0  0  0  0  0  0  0  0  0  0  0  0
  150.3992  142.6469  158.5779 H   0  0  0  0  0  0  0  0  0  0  0  0
  151.9711  144.3358  156.6768 H   0  0  0  0  0  0  0  0  0  0  0  0
  150.7640  144.7909  157.8762 H   0  0  0  0  0  0  0  0  0  0  0  0
  153.7000  144.5545  158.1719 H   0  0  0  0  0  0  0  0  0  0  0  0
  152.5678  145.2792  159.3176 H   0  0  0  0  0  0  0  0  0  0  0  0
  152.2334  141.2502  159.2516 H   0  0  0  0  0  0  0  0  0  0  0  0
  153.2872  141.8935  157.9818 H   0  0  0  0  0  0  0  0  0  0  0  0
  1  2  1  0  0  0  0
  1 21  1  0  0  0  0
  1 22  1  0  0  0  0
  1 23  1  0  0  0  0
  2 19  1  0  0  0  0
  2  3  2  0  0  0  0
  3  4  1  0  0  0  0
  4  5  1  0  0  0  0
  4  6  2  0  0  0  0
  5 24  1  0  0  0  0
  5 25  1  0  0  0  0
  5 26  1  0  0  0  0
  6  7  1  0  0  0  0
  6 17  1  0  0  0  0
  7  8  1  0  0  0  0
  7 27  1  0  0  0  0
  7 28  1  0  0  0  0
  8  9  2  0  0  0  0
  8 10  1  0  0  0  0
 10 11  1  0  0  0  0
 10 29  1  0  0  0  0
 11 12  1  0  0  0  0
 11 30  1  0  0  0  0
 11 31  1  0  0  0  0
 12 16  1  0  0  0  0
 12 13  1  0  0  0  0
 12 32  1  0  0  0  0
 13 14  1  0  0  0  0
 13 33  1  0  0  0  0
 13 34  1  0  0  0  0
 14 15  1  0  0  0  0
 14 35  1  0  0  0  0
 14 36  1  0  0  0  0
 15 16  1  0  0  0  0
 16 37  1  0  0  0  0
 16 38  1  0  0  0  0
 17 18  2  0  0  0  0
 17 19  1  0  0  0  0
 19 20  1  0  0  0  0
M  END
> <s_m_source_file>
AV-unprocessed.smi

> <i_m_source_file_index>
1180

> <i_lp_mmshare_version>
43012

> <i_f3d_flags>
0

> <s_epik_input>
W0NIM11jMW5jKFtDSDNdKWMoYyg9TylbbkhdMSlbQ0gyXUMoPU8pW05IXVtDSDJdW0NAQEhdMltDSDJdW0NIMl1PW0NIMl0y

> <s_epik_cmdline>
J2VwaWtfcHl0aG9uJywgJy1waCcsICc3LjAnLCAnLXRuJywgJzgnLCAnLW1hJywgJzIwMCcsICctbWV0YWxfYmluZGluZycsICctaW1hZScsICc8aW5maWxlLm1hZT4nLCAnLW9tYWUnLCAnPG91dGZpbGUubWFlPic=

> <r_lp_tautomer_probability>
0.839158

> <r_epik_Ionization_Penalty>
0.000395459

> <r_epik_Ionization_Penalty_Charging>
0.000363703

> <r_epik_Ionization_Penalty_Neutral>
3.17556e-05

> <r_epik_State_Penalty>
0.0471244

> <r_epik_Charging_Adjusted_Penalty>
0.0474881

> <i_epik_Tot_Q>
0

> <i_epik_Tot_abs_Q>
0

> <r_epik_Metal_State_Penalty>
0.225307

> <b_epik_Metal_Only>
0

> <s_lp_Force_Field>
OPLS_2005

> <r_lp_Energy>
20.5307

> <b_lp_Chiralities_Consistent>
1

> <s_lp_Variant>
AV-unprocessed.smi:1180-1

> <Gold.Version>
5.8.1

> <Gold.Id.Protein>
6NUR|6NUR_protein|mol2

> <Gold.PLP.Fitness>
38.9571

> <Gold.PLP.PLP>
-32.4203

> <Gold.PLP.part.hbond>
-2.3368

> <Gold.PLP.part.metal>
0.0000

> <Gold.PLP.part.buried>
-6.5328

> <Gold.PLP.part.nonpolar>
-24.9522

> <Gold.PLP.part.repulsive>
0.2587

> <Gold.PLP.ligand.clash>
0.0000

> <Gold.PLP.ligand.torsion>
0.7058

> <Gold.PLP.Chemscore.Hbond>
2.6473

> <Gold.PLP.Chemscore.CHOScore>
0.0000

> <Gold.PLP.Chemscore.Metal>
0.0000

> <Gold.Chemscore.Hbonds>
donor molecule, donor type, donor heavy atom, donor atom, acceptor molecule, acceptor atom, score
      P1  H  6896  6907       L1     3  0.98
      P1  H  7989  7998       L1     9  1.00
      P1  H  7997  8010       L1    18  0.64

> <Gold.PLP.Chemscore.Internal.Correction>
0.0066

> <Gold.Rescore>
     Score         DG    S(hbond)    S(metal)    S(lipo)     H(rot)  DE(clash)    DE(int)     intcor
     15.74     -16.29       1.89        0.00      77.92       1.81       0.00       0.54       ----

> <Gold.Chemscore.Fitness>
15.7412

> <Gold.Chemscore.DG>
-16.2858

> <Gold.Chemscore.ZeroCoef>
-5.4800

> <Gold.Chemscore.Hbond>
1.8904

> <Gold.Chemscore.Metal>
0.0000

> <Gold.Chemscore.Lipo>
77.9192

> <Gold.Chemscore.Internal_Hbond>
0.0000

> <Gold.Chemscore.DEClash>
0.0015

> <Gold.Chemscore.DEInternal>
0.5431

> <Gold.Chemscore.Rot>
1.8065

> <Gold.Chemscore.Internal.Correction>
   9.000000E+99

> <Gold.Chemscore.Hbonds>
donor molecule, donor type, donor heavy atom, donor atom, acceptor molecule, acceptor atom, score
      P1  H  6896  6907       L1     3  0.11
      P1  H  7989  7998       L1     9  0.94
      P1  H  7997  8010       L1    18  0.60

> <Gold.Chemscore.Hbond.Weighted>
-6.3138

> <Gold.Chemscore.Metal.Weighted>
-0.0000

> <Gold.Chemscore.Lipo.Weighted>
-9.1165

> <Gold.Chemscore.Internal_Hbond.Weighted>
0.0000

> <Gold.Chemscore.DEClash.Weighted>
0.0015

> <Gold.Chemscore.DEInternal.Weighted>
0.5431

> <Gold.Chemscore.Rot.Weighted>
4.6246

> <Gold.Chemscore.Internal.Correction.Weighted>
   9.000000E+99

> <Gold.Protein.RotatedTorsions>
[ 6907 6896 6895 6894 ] final   -6.12 input  -60.11 | X-H torsion
[ 7974 7965 7964 7962 ] final   15.10 input  175.53 | X-H torsion
[ 8008 7997 7996 7995 ] final   47.02 input   59.86 | X-H torsion
[ 10167 10162 10161 10158 ] final  -95.92 input  -65.29 | X-H torsion
[ 10718 10713 10712 10709 ] final  -16.03 input   66.30 | X-H torsion
[ 10763 10752 10751 10750 ] final  -66.38 input  -60.55 | X-H torsion
[ 11005 11000 10999 10996 ] final -135.06 input  -57.11 | X-H torsion

> <Gold.Protein.ActiveResidues>
 VAL166  LYS551  ARG553  GLY616  TRP617  ASP618  TYR619  PRO620  LYS621  CYS622 
 ASP623  PHE694  ASN695  SER759  ASP760  ASP761  ALA762  ILE779  LEU786  VAL792 
 PHE793  MET794  SER795  GLU796  ALA797  LYS798  CYS799  TRP800  GLU811  SER814 

> <Gold.Protein.RotatedAtoms>
  151.4707  135.1045  159.9750 H   0  0  0  0  0  0  0  0  0  0  0  0  # atno 6907 bound_to 6896
  152.4817  133.8268  159.7093 H   0  0  0  0  0  0  0  0  0  0  0  0  # atno 6908 bound_to 6896
  150.8895  133.7202  159.2935 H   0  0  0  0  0  0  0  0  0  0  0  0  # atno 6909 bound_to 6896
  146.2287  139.8943  142.8549 H   0  0  0  0  0  0  0  0  0  0  0  0  # atno 7974 bound_to 7965
  155.3622  140.3419  155.4241 H   0  0  0  0  0  0  0  0  0  0  0  0  # atno 8008 bound_to 7997
  156.1708  140.1631  156.8486 H   0  0  0  0  0  0  0  0  0  0  0  0  # atno 8009 bound_to 7997
  154.5231  140.0762  156.8191 H   0  0  0  0  0  0  0  0  0  0  0  0  # atno 8010 bound_to 7997
  140.2992  143.3173  152.0266 H   0  0  0  0  0  0  0  0  0  0  0  0  # atno 10167 bound_to 10162
  156.5934  130.4805  149.6270 H   0  0  0  0  0  0  0  0  0  0  0  0  # atno 10718 bound_to 10713
  154.3590  135.6120  153.5681 H   0  0  0  0  0  0  0  0  0  0  0  0  # atno 10763 bound_to 10752
  152.9794  135.5810  154.4655 H   0  0  0  0  0  0  0  0  0  0  0  0  # atno 10764 bound_to 10752
  154.4389  135.2849  155.1839 H   0  0  0  0  0  0  0  0  0  0  0  0  # atno 10765 bound_to 10752
  140.8933  134.1783  157.4512 H   0  0  0  0  0  0  0  0  0  0  0  0  # atno 11005 bound_to 11000
  145.2386  141.0000  143.3949 LP  0  0  0  0  0  0  0  0  0  0  0  0  # atno 17320 bound_to 7965
  144.9471  139.4124  143.6421 LP  0  0  0  0  0  0  0  0  0  0  0  0  # atno 17321 bound_to 7965
  139.4919  144.6468  151.6761 LP  0  0  0  0  0  0  0  0  0  0  0  0  # atno 17342 bound_to 10162
  140.5666  144.0180  150.6195 LP  0  0  0  0  0  0  0  0  0  0  0  0  # atno 17343 bound_to 10162
  156.2531  130.6918  151.1663 LP  0  0  0  0  0  0  0  0  0  0  0  0  # atno 17370 bound_to 10713
  157.7298  131.0621  150.5757 LP  0  0  0  0  0  0  0  0  0  0  0  0  # atno 17371 bound_to 10713
  139.8732  134.9868  156.5339 LP  0  0  0  0  0  0  0  0  0  0  0  0  # atno 17394 bound_to 11000
  140.8320  133.8272  155.8993 LP  0  0  0  0  0  0  0  0  0  0  0  0  # atno 17395 bound_to 11000

$$$$
