AV-unprocessed.smi:1537|AV-procd|sdf|6190|dock4
  -GOLD-   22720 6353D 1   1.00000     0.00000
 Structure written by MMmdl.
 43 43  0  0  0  0  0  0  0  0  1 V2000
  153.7684  141.2778  160.8508 C   0  0  0  0  0  0  0  0  0  0  0  0
  154.0580  142.4574  159.9163 C   0  0  0  0  0  0  0  0  0  0  0  0
  152.8525  142.8909  159.1519 C   0  0  0  0  0  0  0  0  0  0  0  0
  152.1852  142.0936  158.3135 N   0  0  0  0  0  0  0  0  0  0  0  0
  151.1183  142.7441  157.6841 C   0  0  0  0  0  0  0  0  0  0  0  0
  150.2554  142.0036  156.6990 C   0  0  0  0  0  0  0  0  0  0  0  0
  148.8765  141.6622  157.2795 C   0  0  0  0  0  0  0  0  0  0  0  0
  148.7299  140.6264  157.9283 O   0  0  0  0  0  0  0  0  0  0  0  0
  147.8801  142.5388  157.0661 N   0  0  0  0  0  0  0  0  0  0  0  0
  146.5114  142.4068  157.5597 C   0  0  2  0  0  0  0  0  0  0  0  0
  145.6087  143.2977  156.6901 C   0  0  0  0  0  0  0  0  0  0  0  0
  146.4129  142.9079  159.0093 C   0  0  0  0  0  0  0  0  0  0  0  0
  146.0432  142.1492  159.9069 O   0  0  0  0  0  0  0  0  0  0  0  0
  146.7694  144.1891  159.2114 N   0  0  0  0  0  0  0  0  0  0  0  0
  146.7932  144.9420  160.4710 C   0  0  0  0  0  0  0  0  0  0  0  0
  146.4655  146.4050  160.1251 C   0  0  0  0  0  0  0  0  0  0  0  0
  148.1945  144.8828  161.1152 C   0  0  0  0  0  0  0  0  0  0  0  0
  145.7232  144.4058  161.4453 C   0  0  0  0  0  0  0  0  0  0  0  0
  150.9878  144.0575  158.0639 C   0  0  0  0  0  0  0  0  0  0  0  0
  152.2109  144.5284  159.2109 S   0  0  0  0  0  0  0  0  0  0  0  0
  154.6668  140.9814  161.3925 H   0  0  0  0  0  0  0  0  0  0  0  0
  153.4144  140.4110  160.2922 H   0  0  0  0  0  0  0  0  0  0  0  0
  153.0060  141.5371  161.5862 H   0  0  0  0  0  0  0  0  0  0  0  0
  154.4349  143.3045  160.4906 H   0  0  0  0  0  0  0  0  0  0  0  0
  154.8414  142.1868  159.2080 H   0  0  0  0  0  0  0  0  0  0  0  0
  150.1241  142.5957  155.7924 H   0  0  0  0  0  0  0  0  0  0  0  0
  150.7362  141.0746  156.3912 H   0  0  0  0  0  0  0  0  0  0  0  0
  148.0902  143.3681  156.5297 H   0  0  0  0  0  0  0  0  0  0  0  0
  146.1811  141.3683  157.4907 H   0  0  0  0  0  0  0  0  0  0  0  0
  144.5678  143.2423  157.0115 H   0  0  0  0  0  0  0  0  0  0  0  0
  145.6420  142.9824  155.6466 H   0  0  0  0  0  0  0  0  0  0  0  0
  145.9136  144.3448  156.7264 H   0  0  0  0  0  0  0  0  0  0  0  0
  147.0544  144.7073  158.3931 H   0  0  0  0  0  0  0  0  0  0  0  0
  146.4605  147.0323  161.0173 H   0  0  0  0  0  0  0  0  0  0  0  0
  145.4841  146.4940  159.6573 H   0  0  0  0  0  0  0  0  0  0  0  0
  147.1982  146.8247  159.4347 H   0  0  0  0  0  0  0  0  0  0  0  0
  148.9645  145.2248  160.4227 H   0  0  0  0  0  0  0  0  0  0  0  0
  148.4596  143.8738  161.4310 H   0  0  0  0  0  0  0  0  0  0  0  0
  148.2460  145.5171  162.0008 H   0  0  0  0  0  0  0  0  0  0  0  0
  145.6721  145.0179  162.3463 H   0  0  0  0  0  0  0  0  0  0  0  0
  145.9331  143.3852  161.7655 H   0  0  0  0  0  0  0  0  0  0  0  0
  144.7326  144.4112  160.9889 H   0  0  0  0  0  0  0  0  0  0  0  0
  150.2542  144.7769  157.7313 H   0  0  0  0  0  0  0  0  0  0  0  0
  1  2  1  0  0  0  0
  1 21  1  0  0  0  0
  1 22  1  0  0  0  0
  1 23  1  0  0  0  0
  2  3  1  0  0  0  0
  2 24  1  0  0  0  0
  2 25  1  0  0  0  0
  3 20  1  0  0  0  0
  3  4  2  0  0  0  0
  4  5  1  0  0  0  0
  5  6  1  0  0  0  0
  5 19  2  0  0  0  0
  6  7  1  0  0  0  0
  6 26  1  0  0  0  0
  6 27  1  0  0  0  0
  7  8  2  0  0  0  0
  7  9  1  0  0  0  0
  9 10  1  0  0  0  0
  9 28  1  0  0  0  0
 10 11  1  0  0  0  0
 10 12  1  0  0  0  0
 10 29  1  0  0  0  0
 11 30  1  0  0  0  0
 11 31  1  0  0  0  0
 11 32  1  0  0  0  0
 12 13  2  0  0  0  0
 12 14  1  0  0  0  0
 14 15  1  0  0  0  0
 14 33  1  0  0  0  0
 15 16  1  0  0  0  0
 15 17  1  0  0  0  0
 15 18  1  0  0  0  0
 16 34  1  0  0  0  0
 16 35  1  0  0  0  0
 16 36  1  0  0  0  0
 17 37  1  0  0  0  0
 17 38  1  0  0  0  0
 17 39  1  0  0  0  0
 18 40  1  0  0  0  0
 18 41  1  0  0  0  0
 18 42  1  0  0  0  0
 19 20  1  0  0  0  0
 19 43  1  0  0  0  0
M  END
> <s_m_source_file>
AV-unprocessed.smi

> <i_m_source_file_index>
1537

> <i_lp_mmshare_version>
43012

> <i_f3d_flags>
0

> <s_epik_input>
W0NIM11bQ0gyXWMxbmMoW2NIXXMxKVtDSDJdQyg9TylbTkhdW0NASF0oW0NIM10pQyg9TylbTkhdQyhbQ0gzXSkoW0NIM10pW0NIM10=

> <s_epik_cmdline>
J2VwaWtfcHl0aG9uJywgJy1waCcsICc3LjAnLCAnLXRuJywgJzgnLCAnLW1hJywgJzIwMCcsICctbWV0YWxfYmluZGluZycsICctaW1hZScsICc8aW5maWxlLm1hZT4nLCAnLW9tYWUnLCAnPG91dGZpbGUubWFlPic=

> <r_lp_tautomer_probability>
1

> <r_epik_Ionization_Penalty>
4.05444e-05

> <r_epik_Ionization_Penalty_Charging>
0

> <r_epik_Ionization_Penalty_Neutral>
4.05444e-05

> <r_epik_State_Penalty>
-0

> <r_epik_Charging_Adjusted_Penalty>
0

> <i_epik_Tot_Q>
0

> <i_epik_Tot_abs_Q>
0

> <r_epik_Metal_State_Penalty>
-0

> <b_epik_Metal_Only>
0

> <s_lp_Force_Field>
OPLS_2005

> <r_lp_Energy>
-1.93446

> <b_lp_Chiralities_Consistent>
1

> <s_lp_Variant>
AV-unprocessed.smi:1537-1

> <Gold.Version>
5.8.1

> <Gold.Id.Protein>
6NUR|6NUR_protein|mol2

> <Gold.PLP.Fitness>
50.1984

> <Gold.PLP.PLP>
-40.9442

> <Gold.PLP.part.hbond>
-3.2581

> <Gold.PLP.part.metal>
0.0000

> <Gold.PLP.part.buried>
-6.0872

> <Gold.PLP.part.nonpolar>
-31.6093

> <Gold.PLP.part.repulsive>
0.0897

> <Gold.PLP.ligand.clash>
0.0069

> <Gold.PLP.ligand.torsion>
1.4041

> <Gold.PLP.Chemscore.Hbond>
2.9500

> <Gold.PLP.Chemscore.CHOScore>
1.0324

> <Gold.PLP.Chemscore.Metal>
0.0000

> <Gold.Chemscore.Hbonds>
donor molecule, donor type, donor heavy atom, donor atom, acceptor molecule, acceptor atom, score
      L1  H     9    28       P1  8028  0.85
      L1  H    14    33       P1  8029  1.00
      P1  H  6934  6946       L1    13  1.00
      L1  C    19    43       P1  8028  0.78
      L1  C    19    43       P1  8029  0.22

> <Gold.PLP.Chemscore.Internal.Correction>
0.1219

> <Gold.Rescore>
     Score         DG    S(hbond)    S(metal)    S(lipo)     H(rot)  DE(clash)    DE(int)     intcor
     16.52     -19.53       2.18        0.00      98.98       1.88       0.02       2.99       ----

> <Gold.Chemscore.Fitness>
16.5220

> <Gold.Chemscore.DG>
-19.5340

> <Gold.Chemscore.ZeroCoef>
-5.4800

> <Gold.Chemscore.Hbond>
2.1790

> <Gold.Chemscore.Metal>
0.0000

> <Gold.Chemscore.Lipo>
98.9771

> <Gold.Chemscore.Internal_Hbond>
0.0000

> <Gold.Chemscore.DEClash>
0.0185

> <Gold.Chemscore.DEInternal>
2.9935

> <Gold.Chemscore.Rot>
1.8766

> <Gold.Chemscore.Internal.Correction>
   9.000000E+99

> <Gold.Chemscore.Hbonds>
donor molecule, donor type, donor heavy atom, donor atom, acceptor molecule, acceptor atom, score
      L1  H     9    28       P1  8028  0.15
      L1  H    14    33       P1  8029  0.96
      P1  H  6934  6946       L1    13  1.00

> <Gold.Chemscore.Hbond.Weighted>
-7.2778

> <Gold.Chemscore.Metal.Weighted>
-0.0000

> <Gold.Chemscore.Lipo.Weighted>
-11.5803

> <Gold.Chemscore.Internal_Hbond.Weighted>
0.0000

> <Gold.Chemscore.DEClash.Weighted>
0.0185

> <Gold.Chemscore.DEInternal.Weighted>
2.9935

> <Gold.Chemscore.Rot.Weighted>
4.8042

> <Gold.Chemscore.Internal.Correction.Weighted>
   9.000000E+99

> <Gold.Protein.RotatedTorsions>
[ 6907 6896 6895 6894 ] final  153.95 input  -60.11 | X-H torsion
[ 7974 7965 7964 7962 ] final  -99.48 input  175.53 | X-H torsion
[ 8008 7997 7996 7995 ] final  -18.11 input   59.86 | X-H torsion
[ 10167 10162 10161 10158 ] final  -69.79 input  -65.29 | X-H torsion
[ 10718 10713 10712 10709 ] final  -45.61 input   66.30 | X-H torsion
[ 10763 10752 10751 10750 ] final  162.13 input  -60.55 | X-H torsion
[ 11005 11000 10999 10996 ] final    8.71 input  -57.11 | X-H torsion

> <Gold.Protein.ActiveResidues>
 VAL166  LYS551  ARG553  GLY616  TRP617  ASP618  TYR619  PRO620  LYS621  CYS622 
 ASP623  PHE694  ASN695  SER759  ASP760  ASP761  ALA762  ILE779  LEU786  VAL792 
 PHE793  MET794  SER795  GLU796  ALA797  LYS798  CYS799  TRP800  GLU811  SER814 

> <Gold.Protein.RotatedAtoms>
  152.0654  133.4081  159.4435 H   0  0  0  0  0  0  0  0  0  0  0  0  # atno 6907 bound_to 6896
  150.6865  134.3153  159.4773 H   0  0  0  0  0  0  0  0  0  0  0  0  # atno 6908 bound_to 6896
  152.0979  134.9362  160.0621 H   0  0  0  0  0  0  0  0  0  0  0  0  # atno 6909 bound_to 6896
  145.3070  140.9391  143.2791 H   0  0  0  0  0  0  0  0  0  0  0  0  # atno 7974 bound_to 7965
  154.4930  140.2124  155.9508 H   0  0  0  0  0  0  0  0  0  0  0  0  # atno 8008 bound_to 7997
  156.1331  140.3193  155.8347 H   0  0  0  0  0  0  0  0  0  0  0  0  # atno 8009 bound_to 7997
  155.4260  140.0500  157.3013 H   0  0  0  0  0  0  0  0  0  0  0  0  # atno 8010 bound_to 7997
  140.5403  143.2315  151.7101 H   0  0  0  0  0  0  0  0  0  0  0  0  # atno 10167 bound_to 10162
  156.2266  130.4169  149.8926 H   0  0  0  0  0  0  0  0  0  0  0  0  # atno 10718 bound_to 10713
  154.2736  135.2765  155.2727 H   0  0  0  0  0  0  0  0  0  0  0  0  # atno 10763 bound_to 10752
  154.5280  135.5738  153.6738 H   0  0  0  0  0  0  0  0  0  0  0  0  # atno 10764 bound_to 10752
  152.9941  135.6220  154.2892 H   0  0  0  0  0  0  0  0  0  0  0  0  # atno 10765 bound_to 10752
  140.5339  134.0440  155.7882 H   0  0  0  0  0  0  0  0  0  0  0  0  # atno 11005 bound_to 11000
  144.9047  139.4605  143.6616 LP  0  0  0  0  0  0  0  0  0  0  0  0  # atno 17320 bound_to 7965
  146.3132  139.7821  142.9004 LP  0  0  0  0  0  0  0  0  0  0  0  0  # atno 17321 bound_to 7965
  139.4986  144.3979  152.0212 LP  0  0  0  0  0  0  0  0  0  0  0  0  # atno 17342 bound_to 10162
  140.3087  144.3562  150.6040 LP  0  0  0  0  0  0  0  0  0  0  0  0  # atno 17343 bound_to 10162
  156.6555  130.8761  151.3538 LP  0  0  0  0  0  0  0  0  0  0  0  0  # atno 17370 bound_to 10713
  157.7113  130.9444  150.1100 LP  0  0  0  0  0  0  0  0  0  0  0  0  # atno 17371 bound_to 10713
  141.1266  133.9373  157.2623 LP  0  0  0  0  0  0  0  0  0  0  0  0  # atno 17394 bound_to 11000
  139.9539  135.0169  156.9074 LP  0  0  0  0  0  0  0  0  0  0  0  0  # atno 17395 bound_to 11000

$$$$
