AV-unprocessed.smi:2006|AV-procd|sdf|8131|dock2
  -GOLD-   2272010363D 1   1.00000     0.00000
 Structure written by MMmdl.
 32 33  0  0  0  0  0  0  0  0  1 V2000
  153.8525  141.7375  161.5501 C   0  0  0  0  0  0  0  0  0  0  0  0
  152.7879  142.2208  160.5596 C   0  0  2  0  0  0  0  0  0  0  0  0
  152.6616  141.2843  159.3422 C   0  0  0  0  0  0  0  0  0  0  0  0
  151.7107  141.8329  158.3834 N   0  0  0  0  0  0  0  0  0  0  0  0
  151.4558  140.9726  157.3059 C   0  0  0  0  0  0  0  0  0  0  0  0
  150.2893  141.1673  156.5365 C   0  0  0  0  0  0  0  0  0  0  0  0
  150.0329  140.2935  155.4624 C   0  0  0  0  0  0  0  0  0  0  0  0
  150.9500  139.2573  155.1948 C   0  0  0  0  0  0  0  0  0  0  0  0
  150.7144  138.2849  154.0579 C   0  0  0  0  0  0  0  0  0  0  0  0
  149.4908  138.5686  153.3355 N   0  0  0  0  0  0  0  0  0  0  0  0
  152.0870  139.1438  156.0211 C   0  0  0  0  0  0  0  0  0  0  0  0
  152.3405  139.9783  157.0520 N   0  0  0  0  0  0  0  0  0  0  0  0
  152.0471  143.1932  157.9828 C   0  0  0  0  0  0  0  0  0  0  0  0
  152.1861  144.0856  159.2273 C   0  0  0  0  0  0  0  0  0  0  0  0
  153.1533  143.5243  160.1105 O   0  0  0  0  0  0  0  0  0  0  0  0
  153.6122  140.7449  161.9321 H   0  0  0  0  0  0  0  0  0  0  0  0
  153.9264  142.4132  162.4025 H   0  0  0  0  0  0  0  0  0  0  0  0
  154.8350  141.6862  161.0795 H   0  0  0  0  0  0  0  0  0  0  0  0
  151.8298  142.2784  161.0794 H   0  0  0  0  0  0  0  0  0  0  0  0
  153.6345  141.1610  158.8639 H   0  0  0  0  0  0  0  0  0  0  0  0
  152.3317  140.2951  159.6622 H   0  0  0  0  0  0  0  0  0  0  0  0
  149.6020  141.9690  156.7648 H   0  0  0  0  0  0  0  0  0  0  0  0
  149.1466  140.4166  154.8576 H   0  0  0  0  0  0  0  0  0  0  0  0
  151.5548  138.3230  153.3643 H   0  0  0  0  0  0  0  0  0  0  0  0
  150.6701  137.2675  154.4483 H   0  0  0  0  0  0  0  0  0  0  0  0
  149.6732  139.2671  152.6290 H   0  0  0  0  0  0  0  0  0  0  0  0
  149.1956  137.7407  152.8378 H   0  0  0  0  0  0  0  0  0  0  0  0
  152.8127  138.3616  155.8536 H   0  0  0  0  0  0  0  0  0  0  0  0
  152.9828  143.1947  157.4216 H   0  0  0  0  0  0  0  0  0  0  0  0
  151.2725  143.5868  157.3234 H   0  0  0  0  0  0  0  0  0  0  0  0
  152.5068  145.0866  158.9390 H   0  0  0  0  0  0  0  0  0  0  0  0
  151.2284  144.1921  159.7392 H   0  0  0  0  0  0  0  0  0  0  0  0
  1  2  1  0  0  0  0
  1 16  1  0  0  0  0
  1 17  1  0  0  0  0
  1 18  1  0  0  0  0
  2 15  1  0  0  0  0
  2  3  1  0  0  0  0
  2 19  1  0  0  0  0
  3  4  1  0  0  0  0
  3 20  1  0  0  0  0
  3 21  1  0  0  0  0
  4  5  1  0  0  0  0
  4 13  1  0  0  0  0
  5 12  1  0  0  0  0
  5  6  2  0  0  0  0
  6  7  1  0  0  0  0
  6 22  1  0  0  0  0
  7  8  2  0  0  0  0
  7 23  1  0  0  0  0
  8  9  1  0  0  0  0
  8 11  1  0  0  0  0
  9 10  1  0  0  0  0
  9 24  1  0  0  0  0
  9 25  1  0  0  0  0
 10 26  1  0  0  0  0
 10 27  1  0  0  0  0
 11 12  2  0  0  0  0
 11 28  1  0  0  0  0
 13 14  1  0  0  0  0
 13 29  1  0  0  0  0
 13 30  1  0  0  0  0
 14 15  1  0  0  0  0
 14 31  1  0  0  0  0
 14 32  1  0  0  0  0
M  END
> <s_m_source_file>
AV-unprocessed.smi

> <i_m_source_file_index>
2006

> <i_lp_mmshare_version>
43012

> <i_f3d_flags>
0

> <s_epik_input>
W0NIM11bQ0BASF0xW0NIMl1OKFtDSDJdW0NIMl1PMSljMltjSF1bY0hdYyhbY0hdbjIpW0NIMl1bTkgyXQ==

> <s_epik_cmdline>
J2VwaWtfcHl0aG9uJywgJy1waCcsICc3LjAnLCAnLXRuJywgJzgnLCAnLW1hJywgJzIwMCcsICctbWV0YWxfYmluZGluZycsICctaW1hZScsICc8aW5maWxlLm1hZT4nLCAnLW9tYWUnLCAnPG91dGZpbGUubWFlPic=

> <r_lp_tautomer_probability>
1

> <r_epik_Ionization_Penalty>
1.39389

> <r_epik_Ionization_Penalty_Charging>
0

> <r_epik_Ionization_Penalty_Neutral>
1.39389

> <r_epik_State_Penalty>
1.46818

> <r_epik_Charging_Adjusted_Penalty>
1.46818

> <i_epik_Tot_Q>
0

> <i_epik_Tot_abs_Q>
0

> <r_epik_Metal_State_Penalty>
1.46201

> <b_epik_Metal_Only>
0

> <s_lp_Force_Field>
OPLS_2005

> <r_lp_Energy>
16.9161

> <b_lp_Chiralities_Consistent>
1

> <s_lp_Variant>
AV-unprocessed.smi:2006-3

> <Gold.Version>
5.8.1

> <Gold.Id.Protein>
6NUR|6NUR_protein|mol2

> <Gold.PLP.Fitness>
41.9830

> <Gold.PLP.PLP>
-34.2068

> <Gold.PLP.part.hbond>
-2.8620

> <Gold.PLP.part.metal>
0.0000

> <Gold.PLP.part.buried>
-3.0439

> <Gold.PLP.part.nonpolar>
-27.2702

> <Gold.PLP.part.repulsive>
0.0034

> <Gold.PLP.ligand.clash>
0.0000

> <Gold.PLP.ligand.torsion>
0.3418

> <Gold.PLP.Chemscore.Hbond>
2.7867

> <Gold.PLP.Chemscore.CHOScore>
0.0000

> <Gold.PLP.Chemscore.Metal>
0.0000

> <Gold.Chemscore.Hbonds>
donor molecule, donor type, donor heavy atom, donor atom, acceptor molecule, acceptor atom, score
      L1  H    10    26       P1  7957  1.00
      L1  H    10    27       P1  7948  1.00
      P1  H  7997  8010       L1    12  0.65

> <Gold.PLP.Chemscore.Internal.Correction>
0.0998

> <Gold.Rescore>
     Score         DG    S(hbond)    S(metal)    S(lipo)     H(rot)  DE(clash)    DE(int)     intcor
     19.73     -20.20       2.25        0.00      89.45       1.28       0.10       0.37       ----

> <Gold.Chemscore.Fitness>
19.7328

> <Gold.Chemscore.DG>
-20.2031

> <Gold.Chemscore.ZeroCoef>
-5.4800

> <Gold.Chemscore.Hbond>
2.2528

> <Gold.Chemscore.Metal>
0.0000

> <Gold.Chemscore.Lipo>
89.4525

> <Gold.Chemscore.Internal_Hbond>
0.0000

> <Gold.Chemscore.DEClash>
0.0961

> <Gold.Chemscore.DEInternal>
0.3743

> <Gold.Chemscore.Rot>
1.2762

> <Gold.Chemscore.Internal.Correction>
   9.000000E+99

> <Gold.Chemscore.Hbonds>
donor molecule, donor type, donor heavy atom, donor atom, acceptor molecule, acceptor atom, score
      L1  H    10    26       P1  7957  0.97
      L1  H    10    27       P1  7948  0.98
      P1  H  7997  8010       L1    12  0.09

> <Gold.Chemscore.Hbond.Weighted>
-7.5243

> <Gold.Chemscore.Metal.Weighted>
-0.0000

> <Gold.Chemscore.Lipo.Weighted>
-10.4659

> <Gold.Chemscore.Internal_Hbond.Weighted>
0.0000

> <Gold.Chemscore.DEClash.Weighted>
0.0961

> <Gold.Chemscore.DEInternal.Weighted>
0.3743

> <Gold.Chemscore.Rot.Weighted>
3.2671

> <Gold.Chemscore.Internal.Correction.Weighted>
   9.000000E+99

> <Gold.Protein.RotatedTorsions>
[ 6907 6896 6895 6894 ] final  -54.35 input  -60.11 | X-H torsion
[ 7974 7965 7964 7962 ] final  144.12 input  175.53 | X-H torsion
[ 8008 7997 7996 7995 ] final   51.45 input   59.86 | X-H torsion
[ 10167 10162 10161 10158 ] final   62.62 input  -65.29 | X-H torsion
[ 10718 10713 10712 10709 ] final  159.66 input   66.30 | X-H torsion
[ 10763 10752 10751 10750 ] final  125.67 input  -60.55 | X-H torsion
[ 11005 11000 10999 10996 ] final   83.60 input  -57.11 | X-H torsion

> <Gold.Protein.ActiveResidues>
 VAL166  LYS551  ARG553  GLY616  TRP617  ASP618  TYR619  PRO620  LYS621  CYS622 
 ASP623  PHE694  ASN695  SER759  ASP760  ASP761  ALA762  ILE779  LEU786  VAL792 
 PHE793  MET794  SER795  GLU796  ALA797  LYS798  CYS799  TRP800  GLU811  SER814 

> <Gold.Protein.RotatedAtoms>
  150.8345  134.7613  159.6881 H   0  0  0  0  0  0  0  0  0  0  0  0  # atno 6907 bound_to 6896
  152.4444  134.5521  159.9879 H   0  0  0  0  0  0  0  0  0  0  0  0  # atno 6908 bound_to 6896
  151.5674  133.3357  159.3019 H   0  0  0  0  0  0  0  0  0  0  0  0  # atno 6909 bound_to 6896
  144.8862  139.5625  143.5819 H   0  0  0  0  0  0  0  0  0  0  0  0  # atno 7974 bound_to 7965
  155.4355  140.3452  155.4284 H   0  0  0  0  0  0  0  0  0  0  0  0  # atno 8008 bound_to 7997
  156.1310  140.1514  156.9095 H   0  0  0  0  0  0  0  0  0  0  0  0  # atno 8009 bound_to 7997
  154.4895  140.0845  156.7542 H   0  0  0  0  0  0  0  0  0  0  0  0  # atno 8010 bound_to 7997
  140.1420  144.4545  150.6806 H   0  0  0  0  0  0  0  0  0  0  0  0  # atno 10167 bound_to 10162
  157.1611  131.0587  151.2231 H   0  0  0  0  0  0  0  0  0  0  0  0  # atno 10718 bound_to 10713
  153.6810  135.3314  155.3178 H   0  0  0  0  0  0  0  0  0  0  0  0  # atno 10763 bound_to 10752
  154.8466  135.4409  154.1606 H   0  0  0  0  0  0  0  0  0  0  0  0  # atno 10764 bound_to 10752
  153.2622  135.6992  153.7643 H   0  0  0  0  0  0  0  0  0  0  0  0  # atno 10765 bound_to 10752
  139.9026  134.8157  156.2332 H   0  0  0  0  0  0  0  0  0  0  0  0  # atno 11005 bound_to 11000
  146.3026  139.7475  142.9080 LP  0  0  0  0  0  0  0  0  0  0  0  0  # atno 17320 bound_to 7965
  145.3864  141.0366  143.3148 LP  0  0  0  0  0  0  0  0  0  0  0  0  # atno 17321 bound_to 7965
  140.6755  143.2303  151.5519 LP  0  0  0  0  0  0  0  0  0  0  0  0  # atno 17342 bound_to 10162
  139.5467  144.2501  152.1456 LP  0  0  0  0  0  0  0  0  0  0  0  0  # atno 17343 bound_to 10162
  157.4131  130.7396  149.6854 LP  0  0  0  0  0  0  0  0  0  0  0  0  # atno 17370 bound_to 10713
  155.9753  130.4090  150.3855 LP  0  0  0  0  0  0  0  0  0  0  0  0  # atno 17371 bound_to 10713
  141.0332  133.6977  156.1467 LP  0  0  0  0  0  0  0  0  0  0  0  0  # atno 17394 bound_to 11000
  140.7065  134.4507  157.5584 LP  0  0  0  0  0  0  0  0  0  0  0  0  # atno 17395 bound_to 11000

$$$$
