#       Name:                AV-unprocessed.smi:123
#       Creating user name   scv26
#       Creation time:       Thu Mar 26 18:27:41 2020


#       File generated by GOLD software.
#

@<TRIPOS>MOLECULE
AV-unprocessed.smi:123
    53    55     1
SMALL
NO_CHARGES


@<TRIPOS>ATOM
      1 ****        -2.2268   3.4457  -0.6299 C.3            1 S1                 0.0000
      2 ****        -2.0536   2.0419  -1.2264 C.3            1 S1                 0.0000
      3 ****        -0.6383   1.7732  -1.4436 N.am           1 S1                 0.0000
      4 ****         0.0508   1.9441  -2.5842 C.2            1 S1                 0.0000
      5 ****        -0.4467   2.4218  -3.6029 O.2            1 S1                 0.0000
      6 ****         1.5271   1.5037  -2.6007 C.3            1 S1                 0.0000
      7 ****         2.0012   0.9067  -1.3295 N.am           1 S1                 0.0000
      8 ****         2.6268   1.7440  -0.3727 C.2            1 S1                 0.0000
      9 ****         2.8047   2.9428  -0.5915 O.2            1 S1                 0.0000
     10 ****         3.0213   1.0929   0.8715 C.2            1 S1                 0.0000
     11 ****         3.6428   1.8052   1.8267 F              1 S1                 0.0000
     12 ****         2.7655  -0.2145   1.0840 C.2            1 S1                 0.0000
     13 ****         2.1248  -1.0136   0.1531 N.am           1 S1                 0.0000
     14 ****         1.8158  -2.4737   0.4176 C.3            1 S1                 0.0000
     15 ****         0.2954  -2.6877   0.5732 C.3            1 S1                 0.0000
     16 ****         0.1824  -3.3770   1.9190 C.3            1 S1                 0.0000
     17 ****         1.4162  -2.8638   2.6454 C.3            1 S1                 0.0000
     18 ****         2.4031  -2.8738   1.6229 O.3            1 S1                 0.0000
     19 ****         1.7524  -0.4668  -1.0938 C.2            1 S1                 0.0000
     20 ****         1.2037  -1.1671  -1.9476 O.2            1 S1                 0.0000
     21 ****        -2.6401   0.9774  -0.3554 C.2            1 S1                 0.0000
     22 ****        -3.7619   0.2006  -0.4474 C.2            1 S1                 0.0000
     23 ****        -3.7724  -0.6295   0.7077 C.2            1 S1                 0.0000
     24 ****        -2.6598  -0.2927   1.4244 C.2            1 S1                 0.0000
     25 ****        -1.9597   0.6879   0.7924 O.3            1 S1                 0.0000
     26 ****        -3.2812   3.6784  -0.4791 H              1 S1                 0.0000
     27 ****        -1.8131   4.2084  -1.2906 H              1 S1                 0.0000
     28 ****        -1.7252   3.5329   0.3347 H              1 S1                 0.0000
     29 ****        -2.5754   2.0135  -2.1846 H              1 S1                 0.0000
     30 ****        -0.1395   1.3785  -0.6596 H              1 S1                 0.0000
     31 ****         1.6632   0.8009  -3.4242 H              1 S1                 0.0000
     32 ****         2.1340   2.3634  -2.8881 H              1 S1                 0.0000
     33 ****         3.0831  -0.6330   2.0268 H              1 S1                 0.0000
     34 ****         2.2639  -3.0209  -0.4137 H              1 S1                 0.0000
     35 ****        -0.2239  -1.7288   0.5928 H              1 S1                 0.0000
     36 ****        -0.1008  -3.2866  -0.2472 H              1 S1                 0.0000
     37 ****        -0.7472  -3.1466   2.4402 H              1 S1                 0.0000
     38 ****         0.2465  -4.4586   1.7930 H              1 S1                 0.0000
     39 ****         1.2582  -1.8479   3.0105 H              1 S1                 0.0000
     40 ****         1.7039  -3.4932   3.4875 H              1 S1                 0.0000
     41 ****        -4.4840   0.2243  -1.2502 H              1 S1                 0.0000
     42 ****        -4.5024  -1.3772   0.9804 H              1 S1                 0.0000
     43 ****        -2.2357  -0.6349   2.3570 H              1 S1                 0.0000
     44 ****        -1.4063   2.7031  -3.6061 LP             1 S1                 0.0000
     45 ****         0.1085   2.5288  -4.4277 LP             1 S1                 0.0000
     46 ****         2.5056   3.3427  -1.4578 LP             1 S1                 0.0000
     47 ****         3.2483   3.5163   0.0973 LP             1 S1                 0.0000
     48 ****         3.1403  -2.2420   1.8625 LP             1 S1                 0.0000
     49 ****         2.7744  -3.7971   1.5246 LP             1 S1                 0.0000
     50 ****         0.9278  -0.7662  -2.8211 LP             1 S1                 0.0000
     51 ****         1.0347  -2.1359  -1.7664 LP             1 S1                 0.0000
     52 ****        -1.9025   1.4998   1.3734 LP             1 S1                 0.0000
     53 ****        -1.0375   0.3678   0.5752 LP             1 S1                 0.0000
@<TRIPOS>BOND
    1    1    2 1     
    2    1   26 1     
    3    1   27 1     
    4    1   28 1     
    5    2    3 1     
    6    2   21 1     
    7    2   29 1     
    8    3    4 am    
    9    3   30 1     
   10    4    5 2     
   11    4    6 1     
   12    6    7 1     
   13    6   31 1     
   14    6   32 1     
   15    7   19 am    
   16    7    8 am    
   17    8    9 2     
   18    8   10 1     
   19   10   11 1     
   20   10   12 2     
   21   12   13 1     
   22   12   33 1     
   23   13   14 1     
   24   13   19 am    
   25   14   18 1     
   26   14   15 1     
   27   14   34 1     
   28   15   16 1     
   29   15   35 1     
   30   15   36 1     
   31   16   17 1     
   32   16   37 1     
   33   16   38 1     
   34   17   18 1     
   35   17   39 1     
   36   17   40 1     
   37   19   20 2     
   38   21   25 1     
   39   21   22 2     
   40   22   23 1     
   41   22   41 1     
   42   23   24 2     
   43   23   42 1     
   44   24   25 1     
   45   24   43 1     
   46    5   44 1     
   47    5   45 1     
   48    9   46 1     
   49    9   47 1     
   50   18   48 1     
   51   18   49 1     
   52   20   50 1     
   53   20   51 1     
   54   25   52 1     
   55   25   53 1     
@<TRIPOS>SUBSTRUCTURE
      1 S1             1
@<TRIPOS>SET
LONE_PAIRS      STATIC     ATOMS    <user>   **** ""
10 44 45 46 47 48 49 50 51 52 53
DONOR_HYDROGENS      STATIC     ATOMS    <user>   **** ""
1 30
ATOM$BLUE        STATIC     ATOMS    COLORGROUP SYSTEM
10 44 45 46 47 48 49 50 51 52 53
ATOM$RED        STATIC     ATOMS    COLORGROUP SYSTEM
1 30
