#       Name:                AV-unprocessed.smi:3074
#       Creating user name   scv26
#       Creation time:       Fri Mar 27 17:12:11 2020


#       File generated by GOLD software.
#

@<TRIPOS>MOLECULE
AV-unprocessed.smi:3074
    20    21     1
SMALL
NO_CHARGES


@<TRIPOS>ATOM
      1 ****        -2.7933   0.6769  -0.6631 C.2            1 S1                 0.0000
      2 ****        -1.5112   1.1366  -0.5051 C.2            1 S1                 0.0000
      3 ****        -0.7065   0.0296  -0.4078 N.pl3          1 S1                 0.0000
      4 ****         0.7237  -0.0002  -0.2942 C.3            1 S1                 0.0000
      5 ****         1.4291  -1.0243   0.5957 C.3            1 S1                 0.0000
      6 ****         2.4393  -0.0073   0.8627 N.4            1 S1                 1.0000
      7 ****         1.4701   1.0352   0.5472 C.3            1 S1                 0.0000
      8 ****        -1.4433  -1.0806  -0.5493 C.2            1 S1                 0.0000
      9 ****        -2.7147  -0.6895  -0.6847 N.pl3          1 S1                 1.0000
     10 ****        -3.7295   1.2055  -0.7707 H              1 S1                 0.0000
     11 ****        -1.1258   2.1448  -0.4527 H              1 S1                 0.0000
     12 ****         1.1168  -0.0298  -1.3131 H              1 S1                 0.0000
     13 ****         0.8659  -1.2882   1.4931 H              1 S1                 0.0000
     14 ****         1.8098  -1.9036   0.0753 H              1 S1                 0.0000
     15 ****         2.7664   0.0084   1.8185 H              1 S1                 0.0000
     16 ****         1.8866   1.8728  -0.0132 H              1 S1                 0.0000
     17 ****         0.9191   1.3636   1.4309 H              1 S1                 0.0000
     18 ****        -1.0861  -2.0953  -0.5504 H              1 S1                 0.0000
     19 ****         3.1850  -0.0381   0.1817 H              1 S1                 0.0000
     20 ****        -3.5021  -1.3156  -0.8011 H              1 S1                 0.0000
@<TRIPOS>BOND
    1    1    9 1     
    2    1    2 2     
    3    1   10 1     
    4    2    3 1     
    5    2   11 1     
    6    3    4 1     
    7    3    8 1     
    8    4    7 1     
    9    4    5 1     
   10    4   12 1     
   11    5    6 1     
   12    5   13 1     
   13    5   14 1     
   14    6    7 1     
   15    6   15 1     
   16    6   19 1     
   17    7   16 1     
   18    7   17 1     
   19    8    9 2     
   20    8   18 1     
   21    9   20 1     
@<TRIPOS>SUBSTRUCTURE
      1 S1             1
@<TRIPOS>SET
DONOR_HYDROGENS      STATIC     ATOMS    <user>   **** ""
3 15 19 20
ATOM$RED        STATIC     ATOMS    COLORGROUP SYSTEM
3 15 19 20
