#       Name:                AV-unprocessed.smi:2987
#       Creating user name   scv26
#       Creation time:       Fri Mar 27 16:31:01 2020


#       File generated by GOLD software.
#

@<TRIPOS>MOLECULE
AV-unprocessed.smi:2987
    28    29     1
SMALL
NO_CHARGES


@<TRIPOS>ATOM
      1 ****         0.1093   2.9287  -0.3607 C.3            1 S1                 0.0000
      2 ****        -0.4774   1.5529  -0.3506 C.2            1 S1                 0.0000
      3 ****        -1.7932   1.3384  -0.3641 N.2            1 S1                 0.0000
      4 ****        -1.8749  -0.0410  -0.3434 C.ar           1 S1                 0.0000
      5 ****        -3.0009  -0.8951  -0.3415 C.ar           1 S1                 0.0000
      6 ****        -2.8346  -2.2955  -0.3150 C.ar           1 S1                 0.0000
      7 ****        -1.5432  -2.8610  -0.2892 C.ar           1 S1                 0.0000
      8 ****        -0.4077  -2.0283  -0.2911 C.ar           1 S1                 0.0000
      9 ****        -0.5793  -0.6315  -0.3188 C.ar           1 S1                 0.0000
     10 ****         0.3021   0.4444  -0.3265 N.pl3          1 S1                 0.0000
     11 ****         1.7536   0.3689  -0.3034 C.3            1 S1                 0.0000
     12 ****         2.2904   0.3137   1.1333 C.3            1 S1                 0.0000
     13 ****         3.6979   0.2222   1.1131 O.3            1 S1                 0.0000
     14 ****        -0.6763   3.6803  -0.2759 H              1 S1                 0.0000
     15 ****         0.6498   3.0998  -1.2920 H              1 S1                 0.0000
     16 ****         0.7967   3.0553   0.4759 H              1 S1                 0.0000
     17 ****        -3.9942  -0.4719  -0.3596 H              1 S1                 0.0000
     18 ****        -3.7023  -2.9389  -0.3145 H              1 S1                 0.0000
     19 ****        -1.4249  -3.9344  -0.2682 H              1 S1                 0.0000
     20 ****         0.5827  -2.4580  -0.2713 H              1 S1                 0.0000
     21 ****         2.0613  -0.5197  -0.8562 H              1 S1                 0.0000
     22 ****         2.1689   1.2228  -0.8392 H              1 S1                 0.0000
     23 ****         1.9999   1.2045   1.6911 H              1 S1                 0.0000
     24 ****         1.8861  -0.5496   1.6628 H              1 S1                 0.0000
     25 ****         4.0097   0.1918   2.0049 H              1 S1                 0.0000
     26 ****        -2.5354   2.0083  -0.3842 LP             1 S1                 0.0000
     27 ****         4.0811   1.0208   0.6489 LP             1 S1                 0.0000
     28 ****         3.9749  -0.6086   0.6305 LP             1 S1                 0.0000
@<TRIPOS>BOND
    1    1    2 1     
    2    1   14 1     
    3    1   15 1     
    4    1   16 1     
    5    2   10 1     
    6    2    3 2     
    7    3    4 1     
    8    4    9 ar    
    9    4    5 ar    
   10    5    6 ar    
   11    5   17 1     
   12    6    7 ar    
   13    6   18 1     
   14    7    8 ar    
   15    7   19 1     
   16    8    9 ar    
   17    8   20 1     
   18    9   10 1     
   19   10   11 1     
   20   11   12 1     
   21   11   21 1     
   22   11   22 1     
   23   12   13 1     
   24   12   23 1     
   25   12   24 1     
   26   13   25 1     
   27    3   26 1     
   28   13   27 1     
   29   13   28 1     
@<TRIPOS>SUBSTRUCTURE
      1 S1             1
@<TRIPOS>SET
LONE_PAIRS      STATIC     ATOMS    <user>   **** ""
3 26 27 28
DONOR_HYDROGENS      STATIC     ATOMS    <user>   **** ""
1 25
ATOM$BLUE        STATIC     ATOMS    COLORGROUP SYSTEM
3 26 27 28
ATOM$RED        STATIC     ATOMS    COLORGROUP SYSTEM
1 25
