AV-unprocessed.smi:1007|AV-procd|sdf|4401|dock6
  -GOLD-   22720 2343D 1   1.00000     0.00000
 Structure written by MMmdl.
 56 58  0  0  0  0  0  0  0  0  2 V2000
  144.3326  135.6845  150.6700 C   0  0  0  0  0  0  0  0  0  0  0  0
  144.7615  136.2932  151.8782 O   0  0  0  0  0  0  0  0  0  0  0  0
  143.7445  137.0072  152.5693 C   0  0  0  0  0  0  0  0  0  0  0  0
  144.2027  137.4595  153.9697 C   0  0  0  0  0  0  0  0  0  0  0  0
  144.9360  138.7504  153.9435 N   0  3  0  0  0  0  0  0  0  0  0  0
  146.1204  138.7496  153.0432 C   0  0  0  0  0  0  0  0  0  0  0  0
  146.7889  140.1390  153.0427 C   0  0  0  0  0  0  0  0  0  0  0  0
  147.1979  140.5819  154.3756 N   0  0  0  0  0  0  0  0  0  0  0  0
  148.3273  139.8471  154.9611 C   0  0  0  0  0  0  0  0  0  0  0  0
  149.7326  140.3796  154.6033 C   0  0  1  0  0  0  0  0  0  0  0  0
  149.6713  140.9370  153.3049 O   0  0  0  0  0  0  0  0  0  0  0  0
  150.2268  141.4871  155.5600 C   0  0  0  0  0  0  0  0  0  0  0  0
  151.1402  140.9803  156.5683 N   0  0  0  0  0  0  0  0  0  0  0  0
  151.7849  139.7976  156.5653 C   0  0  0  0  0  0  0  0  0  0  0  0
  152.5834  139.5376  157.5965 N   0  0  0  0  0  0  0  0  0  0  0  0
  152.4444  140.6876  158.3546 C   0  0  0  0  0  0  0  0  0  0  0  0
  153.0338  141.0527  159.5846 C   0  0  0  0  0  0  0  0  0  0  0  0
  152.7428  142.2977  160.1866 C   0  0  0  0  0  0  0  0  0  0  0  0
  153.3981  142.6487  161.5108 C   0  0  0  0  0  0  0  0  0  0  0  0
  151.8485  143.2001  159.5565 C   0  0  0  0  0  0  0  0  0  0  0  0
  151.5179  144.5416  160.1864 C   0  0  0  0  0  0  0  0  0  0  0  0
  151.2520  142.8518  158.3266 C   0  0  0  0  0  0  0  0  0  0  0  0
  151.5494  141.6100  157.7382 C   0  0  0  0  0  0  0  0  0  0  0  0
  146.0181  140.5821  155.2405 C   0  0  0  0  0  0  0  0  0  0  0  0
  145.3105  139.2122  155.3058 C   0  0  0  0  0  0  0  0  0  0  0  0
  145.1541  135.1076  150.2454 H   0  0  0  0  0  0  0  0  0  0  0  0
  144.0313  136.4231  149.9276 H   0  0  0  0  0  0  0  0  0  0  0  0
  143.5004  135.0008  150.8433 H   0  0  0  0  0  0  0  0  0  0  0  0
  143.4194  137.8661  151.9800 H   0  0  0  0  0  0  0  0  0  0  0  0
  142.8724  136.3591  152.6486 H   0  0  0  0  0  0  0  0  0  0  0  0
  143.3309  137.5488  154.6178 H   0  0  0  0  0  0  0  0  0  0  0  0
  144.8323  136.6929  154.4239 H   0  0  0  0  0  0  0  0  0  0  0  0
  146.8260  137.9776  153.3530 H   0  0  0  0  0  0  0  0  0  0  0  0
  145.8188  138.5078  152.0248 H   0  0  0  0  0  0  0  0  0  0  0  0
  147.6344  140.1602  152.3578 H   0  0  0  0  0  0  0  0  0  0  0  0
  146.0810  140.8623  152.6357 H   0  0  0  0  0  0  0  0  0  0  0  0
  148.2175  139.9059  156.0454 H   0  0  0  0  0  0  0  0  0  0  0  0
  148.2680  138.7838  154.7302 H   0  0  0  0  0  0  0  0  0  0  0  0
  150.4446  139.5540  154.5684 H   0  0  0  0  0  0  0  0  0  0  0  0
  149.7006  140.2333  152.6742 H   0  0  0  0  0  0  0  0  0  0  0  0
  150.7282  142.2772  154.9989 H   0  0  0  0  0  0  0  0  0  0  0  0
  149.3979  141.9650  156.0788 H   0  0  0  0  0  0  0  0  0  0  0  0
  151.6586  139.0857  155.7626 H   0  0  0  0  0  0  0  0  0  0  0  0
  153.7140  140.3647  160.0646 H   0  0  0  0  0  0  0  0  0  0  0  0
  153.9837  143.5635  161.4172 H   0  0  0  0  0  0  0  0  0  0  0  0
  154.0676  141.8563  161.8466 H   0  0  0  0  0  0  0  0  0  0  0  0
  152.6424  142.7977  162.2824 H   0  0  0  0  0  0  0  0  0  0  0  0
  150.8050  145.1011  159.5798 H   0  0  0  0  0  0  0  0  0  0  0  0
  152.4183  145.1475  160.2894 H   0  0  0  0  0  0  0  0  0  0  0  0
  151.0786  144.4019  161.1744 H   0  0  0  0  0  0  0  0  0  0  0  0
  150.5683  143.5287  157.8365 H   0  0  0  0  0  0  0  0  0  0  0  0
  146.2936  140.9049  156.2452 H   0  0  0  0  0  0  0  0  0  0  0  0
  145.3100  141.3272  154.8751 H   0  0  0  0  0  0  0  0  0  0  0  0
  144.4125  139.3032  155.9179 H   0  0  0  0  0  0  0  0  0  0  0  0
  145.9442  138.4681  155.7899 H   0  0  0  0  0  0  0  0  0  0  0  0
  144.2926  139.4400  153.5812 H   0  0  0  0  0  0  0  0  0  0  0  0
  1  2  1  0  0  0  0
  1 26  1  0  0  0  0
  1 27  1  0  0  0  0
  1 28  1  0  0  0  0
  2  3  1  0  0  0  0
  3  4  1  0  0  0  0
  3 29  1  0  0  0  0
  3 30  1  0  0  0  0
  4  5  1  0  0  0  0
  4 31  1  0  0  0  0
  4 32  1  0  0  0  0
  5 25  1  0  0  0  0
  5  6  1  0  0  0  0
  5 56  1  0  0  0  0
  6  7  1  0  0  0  0
  6 33  1  0  0  0  0
  6 34  1  0  0  0  0
  7  8  1  0  0  0  0
  7 35  1  0  0  0  0
  7 36  1  0  0  0  0
  8  9  1  0  0  0  0
  8 24  1  0  0  0  0
  9 10  1  0  0  0  0
  9 37  1  0  0  0  0
  9 38  1  0  0  0  0
 10 11  1  0  0  0  0
 10 12  1  0  0  0  0
 10 39  1  0  0  0  0
 11 40  1  0  0  0  0
 12 13  1  0  0  0  0
 12 41  1  0  0  0  0
 12 42  1  0  0  0  0
 13 23  1  0  0  0  0
 13 14  1  0  0  0  0
 14 15  2  0  0  0  0
 14 43  1  0  0  0  0
 15 16  1  0  0  0  0
 16 23  2  0  0  0  0
 16 17  1  0  0  0  0
 17 18  2  0  0  0  0
 17 44  1  0  0  0  0
 18 19  1  0  0  0  0
 18 20  1  0  0  0  0
 19 45  1  0  0  0  0
 19 46  1  0  0  0  0
 19 47  1  0  0  0  0
 20 21  1  0  0  0  0
 20 22  2  0  0  0  0
 21 48  1  0  0  0  0
 21 49  1  0  0  0  0
 21 50  1  0  0  0  0
 22 23  1  0  0  0  0
 22 51  1  0  0  0  0
 24 25  1  0  0  0  0
 24 52  1  0  0  0  0
 24 53  1  0  0  0  0
 25 54  1  0  0  0  0
 25 55  1  0  0  0  0
M  CHG  1   5   1
M  END
> <s_m_source_file>
AV-unprocessed.smi

> <i_m_source_file_index>
1007

> <i_lp_mmshare_version>
43012

> <i_f3d_flags>
0

> <s_epik_input>
W0NIM11PW0NIMl1bQ0gyXU4xW0NIMl1bQ0gyXU4oW0NIMl1bQ0gyXTEpW0NIMl1bQ0BIXShbT0hdKVtDSDJdbihbY0hdbjIpYyhjMjMpW2NIXWMoW0NIM10pYyhbY0hdMylbQ0gzXQ==

> <s_epik_cmdline>
J2VwaWtfcHl0aG9uJywgJy1waCcsICc3LjAnLCAnLXRuJywgJzgnLCAnLW1hJywgJzIwMCcsICctbWV0YWxfYmluZGluZycsICctaW1hZScsICc8aW5maWxlLm1hZT4nLCAnLW9tYWUnLCAnPG91dGZpbGUubWFlPic=

> <r_epik_Ionization_Penalty>
0.186009

> <r_epik_Ionization_Penalty_Charging>
0.0613973

> <r_epik_Ionization_Penalty_Neutral>
0.124612

> <r_epik_State_Penalty>
1.21927

> <r_epik_Charging_Adjusted_Penalty>
1.28067

> <i_epik_Tot_Q>
1

> <i_epik_Tot_abs_Q>
1

> <r_epik_Metal_State_Penalty>
1.13901

> <b_epik_Metal_Only>
0

> <s_lp_Force_Field>
OPLS_2005

> <r_lp_Energy>
38.7105

> <b_lp_Chiralities_Consistent>
1

> <s_lp_Variant>
AV-unprocessed.smi:1007-4

> <Gold.Version>
5.8.1

> <Gold.Id.Protein>
6NUR|6NUR_protein|mol2

> <Gold.PLP.Fitness>
57.4451

> <Gold.PLP.PLP>
-45.7794

> <Gold.PLP.part.hbond>
-4.1067

> <Gold.PLP.part.metal>
0.0000

> <Gold.PLP.part.buried>
-3.7839

> <Gold.PLP.part.nonpolar>
-37.8575

> <Gold.PLP.part.repulsive>
0.2939

> <Gold.PLP.ligand.clash>
0.0000

> <Gold.PLP.ligand.torsion>
1.6086

> <Gold.PLP.Chemscore.Hbond>
4.8167

> <Gold.PLP.Chemscore.CHOScore>
0.0000

> <Gold.PLP.Chemscore.Metal>
0.0000

> <Gold.Chemscore.Hbonds>
donor molecule, donor type, donor heavy atom, donor atom, acceptor molecule, acceptor atom, score
      L1  H     5    56       P1 10175  2.00
      L1  H    11    40       P1  7957  0.76
      P1  H  7989  7998       L1    11  0.02
      P1  H  7997  8008       L1    15  0.65
      P1  H  8011  8017       L1    11  1.00

> <Gold.PLP.Chemscore.Internal.Correction>
0.4328

> <Gold.Rescore>
     Score         DG    S(hbond)    S(metal)    S(lipo)     H(rot)  DE(clash)    DE(int)     intcor
     17.95     -20.79       2.14        0.00     125.66       2.56       0.44       2.40       ----

> <Gold.Chemscore.Fitness>
17.9473

> <Gold.Chemscore.DG>
-20.7941

> <Gold.Chemscore.ZeroCoef>
-5.4800

> <Gold.Chemscore.Hbond>
2.1450

> <Gold.Chemscore.Metal>
0.0000

> <Gold.Chemscore.Lipo>
125.6583

> <Gold.Chemscore.Internal_Hbond>
0.0000

> <Gold.Chemscore.DEClash>
0.4422

> <Gold.Chemscore.DEInternal>
2.4045

> <Gold.Chemscore.Rot>
2.5594

> <Gold.Chemscore.Internal.Correction>
   9.000000E+99

> <Gold.Chemscore.Hbonds>
donor molecule, donor type, donor heavy atom, donor atom, acceptor molecule, acceptor atom, score
      L1  H     5    56       P1 10175  0.98
      L1  H    11    40       P1  7957  0.72
      P1  H  7997  8008       L1    15  0.02
      P1  H  8011  8017       L1    11  0.45

> <Gold.Chemscore.Hbond.Weighted>
-7.1642

> <Gold.Chemscore.Metal.Weighted>
-0.0000

> <Gold.Chemscore.Lipo.Weighted>
-14.7020

> <Gold.Chemscore.Internal_Hbond.Weighted>
0.0000

> <Gold.Chemscore.DEClash.Weighted>
0.4422

> <Gold.Chemscore.DEInternal.Weighted>
2.4045

> <Gold.Chemscore.Rot.Weighted>
6.5522

> <Gold.Chemscore.Internal.Correction.Weighted>
   9.000000E+99

> <Gold.Protein.RotatedTorsions>
[ 6907 6896 6895 6894 ] final -127.23 input  -60.11 | X-H torsion
[ 7974 7965 7964 7962 ] final  -63.83 input  175.53 | X-H torsion
[ 8008 7997 7996 7995 ] final  -69.00 input   59.86 | X-H torsion
[ 10167 10162 10161 10158 ] final   -3.57 input  -65.29 | X-H torsion
[ 10718 10713 10712 10709 ] final   51.36 input   66.30 | X-H torsion
[ 10763 10752 10751 10750 ] final   50.09 input  -60.55 | X-H torsion
[ 11005 11000 10999 10996 ] final -155.99 input  -57.11 | X-H torsion

> <Gold.Protein.ActiveResidues>
 VAL166  LYS551  ARG553  GLY616  TRP617  ASP618  TYR619  PRO620  LYS621  CYS622 
 ASP623  PHE694  ASN695  SER759  ASP760  ASP761  ALA762  ILE779  LEU786  VAL792 
 PHE793  MET794  SER795  GLU796  ALA797  LYS798  CYS799  TRP800  GLU811  SER814 

> <Gold.Protein.RotatedAtoms>
  150.9052  133.7068  159.2868 H   0  0  0  0  0  0  0  0  0  0  0  0  # atno 6907 bound_to 6896
  151.4573  135.1034  159.9724 H   0  0  0  0  0  0  0  0  0  0  0  0  # atno 6908 bound_to 6896
  152.4899  133.8423  159.7214 H   0  0  0  0  0  0  0  0  0  0  0  0  # atno 6909 bound_to 6896
  145.7742  140.8797  143.0364 H   0  0  0  0  0  0  0  0  0  0  0  0  # atno 7974 bound_to 7965
  154.4907  140.0862  156.7588 H   0  0  0  0  0  0  0  0  0  0  0  0  # atno 8008 bound_to 7997
  155.4237  140.3447  155.4255 H   0  0  0  0  0  0  0  0  0  0  0  0  # atno 8009 bound_to 7997
  156.1326  140.1505  156.9031 H   0  0  0  0  0  0  0  0  0  0  0  0  # atno 8010 bound_to 7997
  140.6895  143.6525  150.8338 H   0  0  0  0  0  0  0  0  0  0  0  0  # atno 10167 bound_to 10162
  157.4973  130.8415  149.8274 H   0  0  0  0  0  0  0  0  0  0  0  0  # atno 10718 bound_to 10713
  152.9785  135.5890  154.4196 H   0  0  0  0  0  0  0  0  0  0  0  0  # atno 10763 bound_to 10752
  154.3822  135.2767  155.2206 H   0  0  0  0  0  0  0  0  0  0  0  0  # atno 10764 bound_to 10752
  154.4115  135.6080  153.6010 H   0  0  0  0  0  0  0  0  0  0  0  0  # atno 10765 bound_to 10752
  140.6804  134.4150  157.5227 H   0  0  0  0  0  0  0  0  0  0  0  0  # atno 11005 bound_to 11000
  144.6807  139.9898  143.7484 LP  0  0  0  0  0  0  0  0  0  0  0  0  # atno 17320 bound_to 7965
  146.0139  139.3193  143.0853 LP  0  0  0  0  0  0  0  0  0  0  0  0  # atno 17321 bound_to 7965
  140.0236  143.5517  152.2790 LP  0  0  0  0  0  0  0  0  0  0  0  0  # atno 17342 bound_to 10162
  139.6284  144.7640  151.2589 LP  0  0  0  0  0  0  0  0  0  0  0  0  # atno 17343 bound_to 10162
  156.0208  130.3796  150.1968 LP  0  0  0  0  0  0  0  0  0  0  0  0  # atno 17370 bound_to 10713
  157.0158  130.9964  151.3353 LP  0  0  0  0  0  0  0  0  0  0  0  0  # atno 17371 bound_to 10713
  139.8953  134.8685  156.2136 LP  0  0  0  0  0  0  0  0  0  0  0  0  # atno 17394 bound_to 11000
  141.0322  133.6982  156.1449 LP  0  0  0  0  0  0  0  0  0  0  0  0  # atno 17395 bound_to 11000

$$$$
