#       Name:                AV-unprocessed.smi:1971
#       Creating user name   scv26
#       Creation time:       Fri Mar 27 10:14:11 2020


#       File generated by GOLD software.
#

@<TRIPOS>MOLECULE
AV-unprocessed.smi:1971
    48    49     1
SMALL
NO_CHARGES


@<TRIPOS>ATOM
      1 ****        -2.8420   0.5122  -4.8387 C.3            1 S1                 0.0000
      2 ****        -1.9865   0.9835  -3.6542 C.3            1 S1                 0.0000
      3 ****        -2.3784   0.3394  -2.3759 N.4            1 S1                 1.0000
      4 ****        -1.8969   1.0938  -1.1931 C.3            1 S1                 0.0000
      5 ****        -2.3690   0.4121   0.1078 C.3            1 S1                 0.0000
      6 ****        -1.8598  -0.9625   0.2151 N.3            1 S1                 0.0000
      7 ****        -0.3946  -1.0986   0.3824 C.3            1 S1                 0.0000
      8 ****        -0.0183  -2.5839   0.6020 C.3            1 S1                 0.0000
      9 ****         0.1338  -0.2287   1.5522 C.3            1 S1                 0.0000
     10 ****         1.5796  -0.3442   1.7026 N.am           1 S1                 0.0000
     11 ****         2.3269   0.3618   2.5609 C.2            1 S1                 0.0000
     12 ****         1.7912   1.1806   3.3114 O.2            1 S1                 0.0000
     13 ****         3.6469   0.0764   2.4940 N.pl3          1 S1                -1.0000
     14 ****         4.5145   0.7190   3.2928 C.2            1 S1                 0.0000
     15 ****         5.2761   1.7358   2.8728 N.2            1 S1                 0.0000
     16 ****         6.1094   2.2532   3.8662 C.2            1 S1                 0.0000
     17 ****         5.9861   1.6095   5.0688 C.2            1 S1                 0.0000
     18 ****         4.8134   0.3258   4.9886 S.3            1 S1                 0.0000
     19 ****        -2.4229  -1.6922  -0.9308 C.3            1 S1                 0.0000
     20 ****        -1.9773  -1.0877  -2.2808 C.3            1 S1                 0.0000
     21 ****        -2.5820   1.0650  -5.7417 H              1 S1                 0.0000
     22 ****        -3.9033   0.6743  -4.6479 H              1 S1                 0.0000
     23 ****        -2.6953  -0.5456  -5.0555 H              1 S1                 0.0000
     24 ****        -0.9274   0.8108  -3.8512 H              1 S1                 0.0000
     25 ****        -2.1110   2.0632  -3.5609 H              1 S1                 0.0000
     26 ****        -0.8105   1.1882  -1.2196 H              1 S1                 0.0000
     27 ****        -2.2975   2.1076  -1.2274 H              1 S1                 0.0000
     28 ****        -2.1025   1.0070   0.9792 H              1 S1                 0.0000
     29 ****        -3.4596   0.3814   0.1206 H              1 S1                 0.0000
     30 ****         0.1079  -0.7583  -0.5219 H              1 S1                 0.0000
     31 ****         1.0447  -2.7080   0.8069 H              1 S1                 0.0000
     32 ****        -0.2149  -3.1984  -0.2750 H              1 S1                 0.0000
     33 ****        -0.5628  -3.0102   1.4452 H              1 S1                 0.0000
     34 ****        -0.0689   0.8278   1.3805 H              1 S1                 0.0000
     35 ****        -0.3518  -0.5092   2.4883 H              1 S1                 0.0000
     36 ****         2.0538  -1.0074   1.1076 H              1 S1                 0.0000
     37 ****         6.7608   3.0811   3.6283 H              1 S1                 0.0000
     38 ****         6.5110   1.8088   5.9907 H              1 S1                 0.0000
     39 ****        -2.1784  -2.7517  -0.8876 H              1 S1                 0.0000
     40 ****        -3.5112  -1.6550  -0.8638 H              1 S1                 0.0000
     41 ****        -2.4465  -1.6539  -3.0845 H              1 S1                 0.0000
     42 ****        -0.9010  -1.1890  -2.4223 H              1 S1                 0.0000
     43 ****        -3.3870   0.3648  -2.3312 H              1 S1                 0.0000
     44 ****        -2.1631  -1.3675   1.0776 LP             1 S1                 0.0000
     45 ****         0.8010   1.3162   3.2782 LP             1 S1                 0.0000
     46 ****         2.3470   1.7090   3.9532 LP             1 S1                 0.0000
     47 ****         3.9772  -0.6133   1.8496 LP             1 S1                 0.0000
     48 ****         5.2509   2.0906   1.9382 LP             1 S1                 0.0000
@<TRIPOS>BOND
    1    1    2 1     
    2    1   21 1     
    3    1   22 1     
    4    1   23 1     
    5    2    3 1     
    6    2   24 1     
    7    2   25 1     
    8    3   20 1     
    9    3    4 1     
   10    3   43 1     
   11    4    5 1     
   12    4   26 1     
   13    4   27 1     
   14    5    6 1     
   15    5   28 1     
   16    5   29 1     
   17    6    7 1     
   18    6   19 1     
   19    7    8 1     
   20    7    9 1     
   21    7   30 1     
   22    8   31 1     
   23    8   32 1     
   24    8   33 1     
   25    9   10 1     
   26    9   34 1     
   27    9   35 1     
   28   10   11 am    
   29   10   36 1     
   30   11   12 2     
   31   11   13 1     
   32   13   14 1     
   33   14   18 1     
   34   14   15 2     
   35   15   16 1     
   36   16   17 2     
   37   16   37 1     
   38   17   18 1     
   39   17   38 1     
   40   19   20 1     
   41   19   39 1     
   42   19   40 1     
   43   20   41 1     
   44   20   42 1     
   45    6   44 1     
   46   12   45 1     
   47   12   46 1     
   48   13   47 1     
   49   15   48 1     
@<TRIPOS>SUBSTRUCTURE
      1 S1             1
@<TRIPOS>SET
LONE_PAIRS      STATIC     ATOMS    <user>   **** ""
5 44 45 46 47 48
DONOR_HYDROGENS      STATIC     ATOMS    <user>   **** ""
2 43 36
ATOM$BLUE        STATIC     ATOMS    COLORGROUP SYSTEM
5 44 45 46 47 48
ATOM$RED        STATIC     ATOMS    COLORGROUP SYSTEM
2 43 36
