AV-unprocessed.smi:1273|AV-procd|sdf|5339|dock3
  -GOLD-   22720 4473D 1   1.00000     0.00000
 Structure written by MMmdl.
 40 41  0  0  0  0  0  0  0  0  1 V2000
  154.8493  134.0373  162.0259 C   0  0  0  0  0  0  0  0  0  0  0  0
  155.2032  135.5003  162.3392 C   0  0  1  0  0  0  0  0  0  0  0  0
  154.5221  136.4710  161.3645 C   0  0  0  0  0  0  0  0  0  0  0  0
  153.8369  136.0333  160.4402 O   0  0  0  0  0  0  0  0  0  0  0  0
  154.7169  137.7802  161.6099 N   0  0  0  0  0  0  0  0  0  0  0  0
  154.2305  138.8924  160.8733 C   0  0  0  0  0  0  0  0  0  0  0  0
  154.1064  140.1289  161.5355 C   0  0  0  0  0  0  0  0  0  0  0  0
  153.6504  141.2508  160.8179 C   0  0  0  0  0  0  0  0  0  0  0  0
  153.3375  141.1114  159.4450 C   0  0  0  0  0  0  0  0  0  0  0  0
  152.8789  142.2220  158.7035 N   0  0  0  0  0  0  0  0  0  0  0  0
  153.0104  143.5199  159.3614 C   0  0  0  0  0  0  0  0  0  0  0  0
  152.7670  144.6587  158.3558 C   0  0  0  0  0  0  0  0  0  0  0  0
  151.5038  144.4837  157.7230 O   0  0  0  0  0  0  0  0  0  0  0  0
  151.4429  143.2630  156.9930 C   0  0  0  0  0  0  0  0  0  0  0  0
  151.6325  142.0767  157.9531 C   0  0  0  0  0  0  0  0  0  0  0  0
  153.4791  139.9253  158.8038 N   0  0  0  0  0  0  0  0  0  0  0  0
  153.9122  138.8509  159.4958 C   0  0  0  0  0  0  0  0  0  0  0  0
  154.7249  135.9051  164.0845 S   0  0  0  0  0  0  0  0  0  0  0  0
  153.9893  134.3297  164.6940 C   0  0  0  0  0  0  0  0  0  0  0  0
  155.9425  136.1715  164.8660 O   0  0  0  0  0  0  0  0  0  0  0  0
  153.6614  136.9204  164.0402 O   0  0  0  0  0  0  0  0  0  0  0  0
  155.0780  133.7861  160.9894 H   0  0  0  0  0  0  0  0  0  0  0  0
  153.7905  133.8362  162.1942 H   0  0  0  0  0  0  0  0  0  0  0  0
  155.4172  133.3568  162.6604 H   0  0  0  0  0  0  0  0  0  0  0  0
  156.2852  135.6173  162.2669 H   0  0  0  0  0  0  0  0  0  0  0  0
  155.2199  138.0059  162.4556 H   0  0  0  0  0  0  0  0  0  0  0  0
  154.3558  140.2208  162.5826 H   0  0  0  0  0  0  0  0  0  0  0  0
  153.5630  142.2019  161.3215 H   0  0  0  0  0  0  0  0  0  0  0  0
  152.2833  143.5776  160.1724 H   0  0  0  0  0  0  0  0  0  0  0  0
  153.9949  143.6481  159.8090 H   0  0  0  0  0  0  0  0  0  0  0  0
  152.7757  145.6202  158.8693 H   0  0  0  0  0  0  0  0  0  0  0  0
  153.5595  144.6912  157.6063 H   0  0  0  0  0  0  0  0  0  0  0  0
  150.4748  143.1931  156.4970 H   0  0  0  0  0  0  0  0  0  0  0  0
  152.2034  143.2557  156.2103 H   0  0  0  0  0  0  0  0  0  0  0  0
  151.6412  141.1479  157.3811 H   0  0  0  0  0  0  0  0  0  0  0  0
  150.7949  142.0237  158.6501 H   0  0  0  0  0  0  0  0  0  0  0  0
  154.0245  137.9509  158.9114 H   0  0  0  0  0  0  0  0  0  0  0  0
  153.5868  134.4864  165.6946 H   0  0  0  0  0  0  0  0  0  0  0  0
  154.7532  133.5539  164.7371 H   0  0  0  0  0  0  0  0  0  0  0  0
  153.1855  134.0177  164.0277 H   0  0  0  0  0  0  0  0  0  0  0  0
  1  2  1  0  0  0  0
  1 22  1  0  0  0  0
  1 23  1  0  0  0  0
  1 24  1  0  0  0  0
  2  3  1  0  0  0  0
  2 18  1  0  0  0  0
  2 25  1  0  0  0  0
  3  4  2  0  0  0  0
  3  5  1  0  0  0  0
  5  6  1  0  0  0  0
  5 26  1  0  0  0  0
  6 17  1  0  0  0  0
  6  7  2  0  0  0  0
  7  8  1  0  0  0  0
  7 27  1  0  0  0  0
  8  9  2  0  0  0  0
  8 28  1  0  0  0  0
  9 10  1  0  0  0  0
  9 16  1  0  0  0  0
 10 15  1  0  0  0  0
 10 11  1  0  0  0  0
 11 12  1  0  0  0  0
 11 29  1  0  0  0  0
 11 30  1  0  0  0  0
 12 13  1  0  0  0  0
 12 31  1  0  0  0  0
 12 32  1  0  0  0  0
 13 14  1  0  0  0  0
 14 15  1  0  0  0  0
 14 33  1  0  0  0  0
 14 34  1  0  0  0  0
 15 35  1  0  0  0  0
 15 36  1  0  0  0  0
 16 17  2  0  0  0  0
 17 37  1  0  0  0  0
 18 19  1  0  0  0  0
 18 20  2  0  0  0  0
 18 21  2  0  0  0  0
 19 38  1  0  0  0  0
 19 39  1  0  0  0  0
 19 40  1  0  0  0  0
M  END
> <s_m_source_file>
AV-unprocessed.smi

> <i_m_source_file_index>
1273

> <i_lp_mmshare_version>
43012

> <i_f3d_flags>
0

> <s_epik_input>
W0NIM11TKD1PKSg9TylbQ0BIXShbQ0gzXSlDKD1PKVtOSF1jMVtjSF1bY0hdYyhuW2NIXTEpTjJbQ0gyXVtDSDJdT1tDSDJdW0NIMl0y

> <s_epik_cmdline>
J2VwaWtfcHl0aG9uJywgJy1waCcsICc3LjAnLCAnLXRuJywgJzgnLCAnLW1hJywgJzIwMCcsICctbWV0YWxfYmluZGluZycsICctaW1hZScsICc8aW5maWxlLm1hZT4nLCAnLW9tYWUnLCAnPG91dGZpbGUubWFlPic=

> <r_lp_tautomer_probability>
1

> <r_epik_Ionization_Penalty>
0.000253983

> <r_epik_Ionization_Penalty_Charging>
0

> <r_epik_Ionization_Penalty_Neutral>
0.000253983

> <r_epik_State_Penalty>
-0

> <r_epik_Charging_Adjusted_Penalty>
0

> <i_epik_Tot_Q>
0

> <i_epik_Tot_abs_Q>
0

> <r_epik_Metal_State_Penalty>
-0

> <b_epik_Metal_Only>
0

> <s_lp_Force_Field>
OPLS_2005

> <r_lp_Energy>
19.0029

> <b_lp_Chiralities_Consistent>
1

> <s_lp_Variant>
AV-unprocessed.smi:1273-2

> <Gold.Version>
5.8.1

> <Gold.Id.Protein>
6NUR|6NUR_protein|mol2

> <Gold.PLP.Fitness>
41.3311

> <Gold.PLP.PLP>
-35.8459

> <Gold.PLP.part.hbond>
-2.0000

> <Gold.PLP.part.metal>
0.0000

> <Gold.PLP.part.buried>
-3.0400

> <Gold.PLP.part.nonpolar>
-29.5880

> <Gold.PLP.part.repulsive>
0.2856

> <Gold.PLP.ligand.clash>
0.0000

> <Gold.PLP.ligand.torsion>
0.4204

> <Gold.PLP.Chemscore.Hbond>
1.9425

> <Gold.PLP.Chemscore.CHOScore>
0.0000

> <Gold.PLP.Chemscore.Metal>
0.0000

> <Gold.Chemscore.Hbonds>
donor molecule, donor type, donor heavy atom, donor atom, acceptor molecule, acceptor atom, score
      P1  H  6896  6907       L1     4  1.00
      P1  H  7997  8008       L1    16  0.91

> <Gold.PLP.Chemscore.Internal.Correction>
0.4985

> <Gold.Rescore>
     Score         DG    S(hbond)    S(metal)    S(lipo)     H(rot)  DE(clash)    DE(int)     intcor
     14.28     -17.35       1.60        0.00      89.90       1.56       0.10       2.97       ----

> <Gold.Chemscore.Fitness>
14.2782

> <Gold.Chemscore.DG>
-17.3488

> <Gold.Chemscore.ZeroCoef>
-5.4800

> <Gold.Chemscore.Hbond>
1.6019

> <Gold.Chemscore.Metal>
0.0000

> <Gold.Chemscore.Lipo>
89.8982

> <Gold.Chemscore.Internal_Hbond>
0.0000

> <Gold.Chemscore.DEClash>
0.0959

> <Gold.Chemscore.DEInternal>
2.9747

> <Gold.Chemscore.Rot>
1.5624

> <Gold.Chemscore.Internal.Correction>
   9.000000E+99

> <Gold.Chemscore.Hbonds>
donor molecule, donor type, donor heavy atom, donor atom, acceptor molecule, acceptor atom, score
      P1  H  6896  6907       L1     4  0.98
      P1  H  7997  8008       L1    16  0.36

> <Gold.Chemscore.Hbond.Weighted>
-5.3503

> <Gold.Chemscore.Metal.Weighted>
-0.0000

> <Gold.Chemscore.Lipo.Weighted>
-10.5181

> <Gold.Chemscore.Internal_Hbond.Weighted>
0.0000

> <Gold.Chemscore.DEClash.Weighted>
0.0959

> <Gold.Chemscore.DEInternal.Weighted>
2.9747

> <Gold.Chemscore.Rot.Weighted>
3.9996

> <Gold.Chemscore.Internal.Correction.Weighted>
   9.000000E+99

> <Gold.Protein.RotatedTorsions>
[ 6907 6896 6895 6894 ] final   50.00 input  -60.11 | X-H torsion
[ 7974 7965 7964 7962 ] final   32.88 input  175.53 | X-H torsion
[ 8008 7997 7996 7995 ] final  -96.29 input   59.86 | X-H torsion
[ 10167 10162 10161 10158 ] final   58.48 input  -65.29 | X-H torsion
[ 10718 10713 10712 10709 ] final  108.40 input   66.30 | X-H torsion
[ 10763 10752 10751 10750 ] final -118.55 input  -60.55 | X-H torsion
[ 11005 11000 10999 10996 ] final  -91.18 input  -57.11 | X-H torsion

> <Gold.Protein.ActiveResidues>
 VAL166  LYS551  ARG553  GLY616  TRP617  ASP618  TYR619  PRO620  LYS621  CYS622 
 ASP623  PHE694  ASN695  SER759  ASP760  ASP761  ALA762  ILE779  LEU786  VAL792 
 PHE793  MET794  SER795  GLU796  ALA797  LYS798  CYS799  TRP800  GLU811  SER814 

> <Gold.Protein.RotatedAtoms>
  152.2970  134.7656  160.0365 H   0  0  0  0  0  0  0  0  0  0  0  0  # atno 6907 bound_to 6896
  151.8182  133.3386  159.3584 H   0  0  0  0  0  0  0  0  0  0  0  0  # atno 6908 bound_to 6896
  150.7256  134.5528  159.5847 H   0  0  0  0  0  0  0  0  0  0  0  0  # atno 6909 bound_to 6896
  146.1458  139.6469  142.9132 H   0  0  0  0  0  0  0  0  0  0  0  0  # atno 7974 bound_to 7965
  154.7725  140.0472  157.1063 H   0  0  0  0  0  0  0  0  0  0  0  0  # atno 8008 bound_to 7997
  154.9803  140.3100  155.4930 H   0  0  0  0  0  0  0  0  0  0  0  0  # atno 8009 bound_to 7997
  156.2923  140.2237  156.4901 H   0  0  0  0  0  0  0  0  0  0  0  0  # atno 8010 bound_to 7997
  140.1867  144.4127  150.6590 H   0  0  0  0  0  0  0  0  0  0  0  0  # atno 10167 bound_to 10162
  157.6587  131.0893  150.6300 H   0  0  0  0  0  0  0  0  0  0  0  0  # atno 10718 bound_to 10713
  154.8591  135.4270  154.2156 H   0  0  0  0  0  0  0  0  0  0  0  0  # atno 10763 bound_to 10752
  153.3172  135.6980  153.7068 H   0  0  0  0  0  0  0  0  0  0  0  0  # atno 10764 bound_to 10752
  153.6137  135.3514  155.2961 H   0  0  0  0  0  0  0  0  0  0  0  0  # atno 10765 bound_to 10752
  141.1550  133.7739  156.9843 H   0  0  0  0  0  0  0  0  0  0  0  0  # atno 11005 bound_to 11000
  145.4942  141.0438  143.2576 LP  0  0  0  0  0  0  0  0  0  0  0  0  # atno 17320 bound_to 7965
  144.7844  139.6457  143.7140 LP  0  0  0  0  0  0  0  0  0  0  0  0  # atno 17321 bound_to 7965
  140.6483  143.2218  151.6135 LP  0  0  0  0  0  0  0  0  0  0  0  0  # atno 17342 bound_to 10162
  139.5273  144.3021  152.1064 LP  0  0  0  0  0  0  0  0  0  0  0  0  # atno 17343 bound_to 10162
  156.6604  130.4510  149.5689 LP  0  0  0  0  0  0  0  0  0  0  0  0  # atno 17370 bound_to 10713
  156.2071  130.6656  151.1230 LP  0  0  0  0  0  0  0  0  0  0  0  0  # atno 17371 bound_to 10713
  140.1045  134.9515  157.1973 LP  0  0  0  0  0  0  0  0  0  0  0  0  # atno 17394 bound_to 11000
  140.3275  134.2847  155.7234 LP  0  0  0  0  0  0  0  0  0  0  0  0  # atno 17395 bound_to 11000

$$$$
