#       Name:                AV-unprocessed.smi:638
#       Creating user name   scv26
#       Creation time:       Fri Mar 27 00:07:03 2020


#       File generated by GOLD software.
#

@<TRIPOS>MOLECULE
AV-unprocessed.smi:638
    48    49     1
SMALL
NO_CHARGES


@<TRIPOS>ATOM
      1 ****        -2.9216  -0.2590  -2.4760 N.1            1 S1                 0.0000
      2 ****        -2.4056  -0.6702  -1.5253 C.1            1 S1                 0.0000
      3 ****        -1.7477  -1.1962  -0.3128 C.3            1 S1                 0.0000
      4 ****        -0.3254  -0.8345  -0.3150 N.am           1 S1                 0.0000
      5 ****         0.1995   0.3923  -0.4682 C.2            1 S1                 0.0000
      6 ****        -0.4805   1.4069  -0.6221 O.2            1 S1                 0.0000
      7 ****         1.7306   0.4785  -0.4098 C.3            1 S1                 0.0000
      8 ****         2.2697   1.6249  -1.1599 N.am           1 S1                 0.0000
      9 ****         2.5553   2.7937  -0.4269 C.2            1 S1                 0.0000
     10 ****         3.0407   3.9054  -1.0135 C.2            1 S1                 0.0000
     11 ****         3.3199   5.1000  -0.2472 N.pl3          1 S1                 1.0000
     12 ****         3.7581   6.0851  -0.8323 O.2            1 S1                 0.0000
     13 ****         3.1116   5.0937   0.9625 O.2            1 S1                -1.0000
     14 ****         3.2696   3.8673  -2.4450 C.2            1 S1                 0.0000
     15 ****         2.9949   2.7536  -3.1520 C.2            1 S1                 0.0000
     16 ****         2.4610   1.5470  -2.5123 C.2            1 S1                 0.0000
     17 ****         2.2015   0.5280  -3.1527 O.2            1 S1                 0.0000
     18 ****        -2.4788  -0.6225   0.9329 C.3            1 S1                 0.0000
     19 ****        -1.8144  -0.9135   2.2949 C.3            1 S1                 0.0000
     20 ****        -2.2000  -2.2497   2.9526 C.3            1 S1                 0.0000
     21 ****        -2.3190  -3.4709   2.0246 C.3            1 S1                 0.0000
     22 ****        -1.3333  -3.5106   0.8463 C.3            1 S1                 0.0000
     23 ****        -1.8458  -2.7359  -0.3833 C.3            1 S1                 0.0000
     24 ****         0.3221  -1.5989  -0.1901 H              1 S1                 0.0000
     25 ****         2.0262   0.5330   0.6387 H              1 S1                 0.0000
     26 ****         2.1656  -0.4522  -0.7793 H              1 S1                 0.0000
     27 ****         2.3432   2.7228   0.6303 H              1 S1                 0.0000
     28 ****         3.6616   4.7314  -2.9608 H              1 S1                 0.0000
     29 ****         3.1720   2.7473  -4.2176 H              1 S1                 0.0000
     30 ****        -2.5365   0.4609   0.8227 H              1 S1                 0.0000
     31 ****        -3.5168  -0.9573   0.9482 H              1 S1                 0.0000
     32 ****        -0.7298  -0.8481   2.2179 H              1 S1                 0.0000
     33 ****        -2.0884  -0.1179   2.9885 H              1 S1                 0.0000
     34 ****        -1.4662  -2.4647   3.7302 H              1 S1                 0.0000
     35 ****        -3.1491  -2.1290   3.4761 H              1 S1                 0.0000
     36 ****        -2.1818  -4.3664   2.6317 H              1 S1                 0.0000
     37 ****        -3.3390  -3.5402   1.6445 H              1 S1                 0.0000
     38 ****        -0.3395  -3.1799   1.1498 H              1 S1                 0.0000
     39 ****        -1.2174  -4.5530   0.5480 H              1 S1                 0.0000
     40 ****        -2.8787  -3.0258  -0.5818 H              1 S1                 0.0000
     41 ****        -1.2864  -3.0752  -1.2566 H              1 S1                 0.0000
     42 ****        -3.3675   0.0963  -3.2975 LP             1 S1                 0.0000
     43 ****        -1.4783   1.3425  -0.6377 LP             1 S1                 0.0000
     44 ****        -0.0351   2.2955  -0.7315 LP             1 S1                 0.0000
     45 ****         3.9152   6.0516  -1.8193 LP             1 S1                 0.0000
     46 ****         3.9581   6.9217  -0.3223 LP             1 S1                 0.0000
     47 ****         1.8384  -0.2778  -2.6847 LP             1 S1                 0.0000
     48 ****         2.3537   0.5061  -4.1408 LP             1 S1                 0.0000
@<TRIPOS>BOND
    1    1    2 3     
    2    2    3 1     
    3    3   23 1     
    4    3    4 1     
    5    3   18 1     
    6    4    5 am    
    7    4   24 1     
    8    5    6 2     
    9    5    7 1     
   10    7    8 1     
   11    7   25 1     
   12    7   26 1     
   13    8   16 am    
   14    8    9 1     
   15    9   10 2     
   16    9   27 1     
   17   10   11 1     
   18   10   14 1     
   19   11   12 2     
   20   11   13 1     
   21   14   15 2     
   22   14   28 1     
   23   15   16 1     
   24   15   29 1     
   25   16   17 2     
   26   18   19 1     
   27   18   30 1     
   28   18   31 1     
   29   19   20 1     
   30   19   32 1     
   31   19   33 1     
   32   20   21 1     
   33   20   34 1     
   34   20   35 1     
   35   21   22 1     
   36   21   36 1     
   37   21   37 1     
   38   22   23 1     
   39   22   38 1     
   40   22   39 1     
   41   23   40 1     
   42   23   41 1     
   43    1   42 1     
   44    6   43 1     
   45    6   44 1     
   46   12   45 1     
   47   12   46 1     
   48   17   47 1     
   49   17   48 1     
@<TRIPOS>SUBSTRUCTURE
      1 S1             1
@<TRIPOS>SET
LONE_PAIRS      STATIC     ATOMS    <user>   **** ""
8 42 43 44 45 46 13 47 48
DONOR_HYDROGENS      STATIC     ATOMS    <user>   **** ""
1 24
ATOM$BLUE        STATIC     ATOMS    COLORGROUP SYSTEM
8 42 43 44 45 46 13 47 48
ATOM$RED        STATIC     ATOMS    COLORGROUP SYSTEM
1 24
