AV-unprocessed.smi:3276|AV-procd|sdf|12534|dock10
  -GOLD-   2272018453D 1   1.00000     0.00000
 Structure written by MMmdl.
 39 40  0  0  0  0  0  0  0  0  1 V2000
  154.2211  137.4913  156.5612 C   0  0  0  0  0  0  0  0  0  0  0  0
  152.9395  137.9170  155.8774 C   0  0  0  0  0  0  0  0  0  0  0  0
  152.7163  139.2566  155.4944 C   0  0  0  0  0  0  0  0  0  0  0  0
  151.5731  139.6367  154.8842 N   0  0  0  0  0  0  0  0  0  0  0  0
  150.6512  138.6720  154.6596 C   0  0  0  0  0  0  0  0  0  0  0  0
  149.3712  139.1175  153.9751 C   0  0  0  0  0  0  0  0  0  0  0  0
  150.8684  137.3244  155.0447 C   0  0  0  0  0  0  0  0  0  0  0  0
  149.8904  136.3505  154.7940 N   0  0  0  0  0  0  0  0  0  0  0  0
  149.2106  135.6922  155.9005 C   0  0  0  0  0  0  0  0  0  0  0  0
  148.5113  136.7095  156.8075 C   0  0  0  0  0  0  0  0  0  0  0  0
  148.5676  136.2390  158.1435 O   0  0  0  0  0  0  0  0  0  0  0  0
  148.0422  137.1630  159.0820 C   0  0  0  0  0  0  0  0  0  0  0  0
  148.1961  136.5992  160.5015 C   0  0  2  0  0  0  0  0  0  0  0  0
  147.4706  135.2755  160.7579 C   0  0  0  0  0  0  0  0  0  0  0  0
  147.1990  135.3594  162.2428 C   0  0  0  0  0  0  0  0  0  0  0  0
  146.8760  136.8410  162.4095 C   0  0  0  0  0  0  0  0  0  0  0  0
  147.7071  137.5206  161.4737 O   0  0  0  0  0  0  0  0  0  0  0  0
  152.0205  136.9516  155.6546 N   0  0  0  0  0  0  0  0  0  0  0  0
  154.9358  138.3138  156.6045 H   0  0  0  0  0  0  0  0  0  0  0  0
  154.6849  136.6654  156.0208 H   0  0  0  0  0  0  0  0  0  0  0  0
  154.0146  137.1644  157.5808 H   0  0  0  0  0  0  0  0  0  0  0  0
  153.4528  140.0256  155.6761 H   0  0  0  0  0  0  0  0  0  0  0  0
  148.5066  138.8846  154.5971 H   0  0  0  0  0  0  0  0  0  0  0  0
  149.2561  138.6061  153.0190 H   0  0  0  0  0  0  0  0  0  0  0  0
  149.3716  140.1920  153.7863 H   0  0  0  0  0  0  0  0  0  0  0  0
  149.4493  136.3272  153.8859 H   0  0  0  0  0  0  0  0  0  0  0  0
  148.4727  134.9999  155.4936 H   0  0  0  0  0  0  0  0  0  0  0  0
  149.9227  135.1033  156.4801 H   0  0  0  0  0  0  0  0  0  0  0  0
  148.9828  137.6899  156.7200 H   0  0  0  0  0  0  0  0  0  0  0  0
  147.4695  136.8174  156.5030 H   0  0  0  0  0  0  0  0  0  0  0  0
  148.5754  138.1118  159.0066 H   0  0  0  0  0  0  0  0  0  0  0  0
  146.9907  137.3599  158.8677 H   0  0  0  0  0  0  0  0  0  0  0  0
  149.2571  136.4601  160.7146 H   0  0  0  0  0  0  0  0  0  0  0  0
  146.5247  135.2301  160.2165 H   0  0  0  0  0  0  0  0  0  0  0  0
  148.0638  134.4046  160.4781 H   0  0  0  0  0  0  0  0  0  0  0  0
  146.3895  134.7064  162.5697 H   0  0  0  0  0  0  0  0  0  0  0  0
  148.0974  135.1023  162.8053 H   0  0  0  0  0  0  0  0  0  0  0  0
  145.8338  137.0328  162.1510 H   0  0  0  0  0  0  0  0  0  0  0  0
  147.0442  137.1959  163.4263 H   0  0  0  0  0  0  0  0  0  0  0  0
  1  2  1  0  0  0  0
  1 19  1  0  0  0  0
  1 20  1  0  0  0  0
  1 21  1  0  0  0  0
  2 18  1  0  0  0  0
  2  3  2  0  0  0  0
  3  4  1  0  0  0  0
  3 22  1  0  0  0  0
  4  5  2  0  0  0  0
  5  6  1  0  0  0  0
  5  7  1  0  0  0  0
  6 23  1  0  0  0  0
  6 24  1  0  0  0  0
  6 25  1  0  0  0  0
  7  8  1  0  0  0  0
  7 18  2  0  0  0  0
  8  9  1  0  0  0  0
  8 26  1  0  0  0  0
  9 10  1  0  0  0  0
  9 27  1  0  0  0  0
  9 28  1  0  0  0  0
 10 11  1  0  0  0  0
 10 29  1  0  0  0  0
 10 30  1  0  0  0  0
 11 12  1  0  0  0  0
 12 13  1  0  0  0  0
 12 31  1  0  0  0  0
 12 32  1  0  0  0  0
 13 17  1  0  0  0  0
 13 14  1  0  0  0  0
 13 33  1  0  0  0  0
 14 15  1  0  0  0  0
 14 34  1  0  0  0  0
 14 35  1  0  0  0  0
 15 16  1  0  0  0  0
 15 36  1  0  0  0  0
 15 37  1  0  0  0  0
 16 17  1  0  0  0  0
 16 38  1  0  0  0  0
 16 39  1  0  0  0  0
M  END
> <s_m_source_file>
AV-unprocessed.smi

> <i_m_source_file_index>
3276

> <i_lp_mmshare_version>
43012

> <i_f3d_flags>
0

> <s_epik_input>
W0NIM11jMVtjSF1uYyhbQ0gzXSljKG4xKVtOSF1bQ0gyXVtDSDJdT1tDSDJdW0NAQEhdMltDSDJdW0NIMl1bQ0gyXU8y

> <s_epik_cmdline>
J2VwaWtfcHl0aG9uJywgJy1waCcsICc3LjAnLCAnLXRuJywgJzgnLCAnLW1hJywgJzIwMCcsICctbWV0YWxfYmluZGluZycsICctaW1hZScsICc8aW5maWxlLm1hZT4nLCAnLW9tYWUnLCAnPG91dGZpbGUubWFlPic=

> <r_lp_tautomer_probability>
1

> <r_epik_Ionization_Penalty>
0.000506

> <r_epik_Ionization_Penalty_Charging>
0

> <r_epik_Ionization_Penalty_Neutral>
0.000506

> <r_epik_State_Penalty>
-0

> <r_epik_Charging_Adjusted_Penalty>
0

> <i_epik_Tot_Q>
0

> <i_epik_Tot_abs_Q>
0

> <r_epik_Metal_State_Penalty>
-0

> <b_epik_Metal_Only>
0

> <s_lp_Force_Field>
OPLS_2005

> <r_lp_Energy>
26.3084

> <b_lp_Chiralities_Consistent>
1

> <s_lp_Variant>
AV-unprocessed.smi:3276-1

> <Gold.Version>
5.8.1

> <Gold.Id.Protein>
6NUR|6NUR_protein|mol2

> <Gold.PLP.Fitness>
42.8483

> <Gold.PLP.PLP>
-30.1693

> <Gold.PLP.part.hbond>
-5.0000

> <Gold.PLP.part.metal>
0.0000

> <Gold.PLP.part.buried>
0.1344

> <Gold.PLP.part.nonpolar>
-24.9592

> <Gold.PLP.part.repulsive>
0.1544

> <Gold.PLP.ligand.clash>
0.0000

> <Gold.PLP.ligand.torsion>
0.8596

> <Gold.PLP.Chemscore.Hbond>
4.7680

> <Gold.PLP.Chemscore.CHOScore>
0.0000

> <Gold.PLP.Chemscore.Metal>
0.0000

> <Gold.Chemscore.Hbonds>
donor molecule, donor type, donor heavy atom, donor atom, acceptor molecule, acceptor atom, score
      L1  H     8    26       P1  7948  0.93
      P1  H  6931  6943       L1    17  0.82
      P1  H  6934  6947       L1    17  0.70
      P1  H  7989  7998       L1     4  1.00
      P1  H 10752 10764       L1    18  0.94

> <Gold.PLP.Chemscore.Internal.Correction>
0.0942

> <Gold.Rescore>
     Score         DG    S(hbond)    S(metal)    S(lipo)     H(rot)  DE(clash)    DE(int)     intcor
     19.76     -21.11       3.49        0.00      70.76       1.68       0.46       0.90       ----

> <Gold.Chemscore.Fitness>
19.7560

> <Gold.Chemscore.DG>
-21.1111

> <Gold.Chemscore.ZeroCoef>
-5.4800

> <Gold.Chemscore.Hbond>
3.4903

> <Gold.Chemscore.Metal>
0.0000

> <Gold.Chemscore.Lipo>
70.7638

> <Gold.Chemscore.Internal_Hbond>
0.0000

> <Gold.Chemscore.DEClash>
0.4567

> <Gold.Chemscore.DEInternal>
0.8984

> <Gold.Chemscore.Rot>
1.6820

> <Gold.Chemscore.Internal.Correction>
   9.000000E+99

> <Gold.Chemscore.Hbonds>
donor molecule, donor type, donor heavy atom, donor atom, acceptor molecule, acceptor atom, score
      L1  H     8    26       P1  7948  0.69
      P1  H  6931  6943       L1    17  0.27
      P1  H  6934  6947       L1    17  0.63
      P1  H  7989  7998       L1     4  0.79
      P1  H 10752 10764       L1    18  0.38

> <Gold.Chemscore.Hbond.Weighted>
-11.6576

> <Gold.Chemscore.Metal.Weighted>
-0.0000

> <Gold.Chemscore.Lipo.Weighted>
-8.2794

> <Gold.Chemscore.Internal_Hbond.Weighted>
0.0000

> <Gold.Chemscore.DEClash.Weighted>
0.4567

> <Gold.Chemscore.DEInternal.Weighted>
0.8984

> <Gold.Chemscore.Rot.Weighted>
4.3058

> <Gold.Chemscore.Internal.Correction.Weighted>
   9.000000E+99

> <Gold.Protein.RotatedTorsions>
[ 6907 6896 6895 6894 ] final   -8.04 input  -60.11 | X-H torsion
[ 7974 7965 7964 7962 ] final   41.55 input  175.53 | X-H torsion
[ 8008 7997 7996 7995 ] final  -26.98 input   59.86 | X-H torsion
[ 10167 10162 10161 10158 ] final  -71.34 input  -65.29 | X-H torsion
[ 10718 10713 10712 10709 ] final  -86.26 input   66.30 | X-H torsion
[ 10763 10752 10751 10750 ] final  -56.14 input  -60.55 | X-H torsion
[ 11005 11000 10999 10996 ] final -140.62 input  -57.11 | X-H torsion

> <Gold.Protein.ActiveResidues>
 VAL166  LYS551  ARG553  GLY616  TRP617  ASP618  TYR619  PRO620  LYS621  CYS622 
 ASP623  PHE694  ASN695  SER759  ASP760  ASP761  ALA762  ILE779  LEU786  VAL792 
 PHE793  MET794  SER795  GLU796  ALA797  LYS798  CYS799  TRP800  GLU811  SER814 

> <Gold.Protein.RotatedAtoms>
  151.4400  135.1019  159.9667 H   0  0  0  0  0  0  0  0  0  0  0  0  # atno 6907 bound_to 6896
  152.4926  133.8537  159.7225 H   0  0  0  0  0  0  0  0  0  0  0  0  # atno 6908 bound_to 6896
  150.9094  133.6957  159.2886 H   0  0  0  0  0  0  0  0  0  0  0  0  # atno 6909 bound_to 6896
  146.0814  139.5403  142.9534 H   0  0  0  0  0  0  0  0  0  0  0  0  # atno 7974 bound_to 7965
  154.4399  140.1885  156.0860 H   0  0  0  0  0  0  0  0  0  0  0  0  # atno 8008 bound_to 7997
  156.0402  140.3320  155.7209 H   0  0  0  0  0  0  0  0  0  0  0  0  # atno 8009 bound_to 7997
  155.5710  140.0612  157.2797 H   0  0  0  0  0  0  0  0  0  0  0  0  # atno 8010 bound_to 7997
  140.5281  143.2324  151.7312 H   0  0  0  0  0  0  0  0  0  0  0  0  # atno 10167 bound_to 10162
  155.9991  130.4759  150.4688 H   0  0  0  0  0  0  0  0  0  0  0  0  # atno 10718 bound_to 10713
  154.2020  135.6409  153.5090 H   0  0  0  0  0  0  0  0  0  0  0  0  # atno 10763 bound_to 10752
  153.0010  135.5453  154.6306 H   0  0  0  0  0  0  0  0  0  0  0  0  # atno 10764 bound_to 10752
  154.5721  135.2917  155.0790 H   0  0  0  0  0  0  0  0  0  0  0  0  # atno 10765 bound_to 10752
  140.8405  134.2408  157.4812 H   0  0  0  0  0  0  0  0  0  0  0  0  # atno 11005 bound_to 11000
  145.6210  141.0322  143.1915 LP  0  0  0  0  0  0  0  0  0  0  0  0  # atno 17320 bound_to 7965
  144.7296  139.7767  143.7352 LP  0  0  0  0  0  0  0  0  0  0  0  0  # atno 17321 bound_to 7965
  139.4945  144.4156  152.0034 LP  0  0  0  0  0  0  0  0  0  0  0  0  # atno 17342 bound_to 10162
  140.3256  144.3376  150.5999 LP  0  0  0  0  0  0  0  0  0  0  0  0  # atno 17343 bound_to 10162
  157.2705  131.0586  151.2263 LP  0  0  0  0  0  0  0  0  0  0  0  0  # atno 17370 bound_to 10713
  157.3345  130.7002  149.6344 LP  0  0  0  0  0  0  0  0  0  0  0  0  # atno 17371 bound_to 10713
  139.8703  134.9633  156.4456 LP  0  0  0  0  0  0  0  0  0  0  0  0  # atno 17394 bound_to 11000
  140.8901  133.7855  155.9562 LP  0  0  0  0  0  0  0  0  0  0  0  0  # atno 17395 bound_to 11000

$$$$
