AV-unprocessed.smi:2106|AV-procd|sdf|8594|dock10
  -GOLD-   2272011333D 1   1.00000     0.00000
 Structure written by MMmdl.
 47 48  0  0  0  0  0  0  0  0  1 V2000
  153.9179  141.1332  160.9054 C   0  0  0  0  0  0  0  0  0  0  0  0
  153.0760  142.2239  160.3123 C   0  0  0  0  0  0  0  0  0  0  0  0
  152.6117  143.4164  160.9342 C   0  0  0  0  0  0  0  0  0  0  0  0
  151.8945  144.0489  159.9580 C   0  0  0  0  0  0  0  0  0  0  0  0
  151.1564  145.3467  159.9927 C   0  0  0  0  0  0  0  0  0  0  0  0
  151.9499  143.2439  158.8336 N   0  0  0  0  0  0  0  0  0  0  0  0
  151.3548  143.4550  157.5212 C   0  0  0  0  0  0  0  0  0  0  0  0
  150.6397  142.2077  156.9872 C   0  0  0  0  0  0  0  0  0  0  0  0
  150.8403  141.0988  157.4853 O   0  0  0  0  0  0  0  0  0  0  0  0
  149.8009  142.4082  155.9594 N   0  0  0  0  0  0  0  0  0  0  0  0
  149.0212  141.3680  155.2998 C   0  0  0  0  0  0  0  0  0  0  0  0
  148.0265  141.9701  154.2897 C   0  0  0  0  0  0  0  0  0  0  0  0
  146.7281  142.3433  154.8480 N   0  0  0  0  0  0  0  0  0  0  0  0
  145.8835  141.1849  155.1240 C   0  0  0  0  0  0  0  0  0  0  0  0
  144.5211  141.5918  155.7147 C   0  0  2  0  0  0  0  0  0  0  0  0
  143.5973  140.3858  155.9153 C   0  0  0  0  0  0  0  0  0  0  0  0
  143.8709  142.5047  154.8322 O   0  0  0  0  0  0  0  0  0  0  0  0
  144.6336  143.6608  154.4829 C   0  0  1  0  0  0  0  0  0  0  0  0
  144.7081  144.6685  155.6427 C   0  0  0  0  0  0  0  0  0  0  0  0
  146.0165  143.2422  153.9453 C   0  0  0  0  0  0  0  0  0  0  0  0
  152.6782  142.1277  159.0544 N   0  0  0  0  0  0  0  0  0  0  0  0
  154.2550  141.3962  161.9081 H   0  0  0  0  0  0  0  0  0  0  0  0
  154.8028  140.9439  160.2972 H   0  0  0  0  0  0  0  0  0  0  0  0
  153.3566  140.2016  160.9781 H   0  0  0  0  0  0  0  0  0  0  0  0
  152.7801  143.7557  161.9455 H   0  0  0  0  0  0  0  0  0  0  0  0
  151.2813  145.8402  160.9566 H   0  0  0  0  0  0  0  0  0  0  0  0
  150.0895  145.1905  159.8325 H   0  0  0  0  0  0  0  0  0  0  0  0
  151.5209  146.0242  159.2206 H   0  0  0  0  0  0  0  0  0  0  0  0
  150.6545  144.2885  157.5891 H   0  0  0  0  0  0  0  0  0  0  0  0
  152.1316  143.7498  156.8139 H   0  0  0  0  0  0  0  0  0  0  0  0
  149.6960  143.3490  155.6078 H   0  0  0  0  0  0  0  0  0  0  0  0
  149.6991  140.6598  154.8222 H   0  0  0  0  0  0  0  0  0  0  0  0
  148.4797  140.8139  156.0669 H   0  0  0  0  0  0  0  0  0  0  0  0
  148.4912  142.8594  153.8612 H   0  0  0  0  0  0  0  0  0  0  0  0
  147.8816  141.2798  153.4575 H   0  0  0  0  0  0  0  0  0  0  0  0
  145.7285  140.6147  154.2066 H   0  0  0  0  0  0  0  0  0  0  0  0
  146.3775  140.5159  155.8275 H   0  0  0  0  0  0  0  0  0  0  0  0
  144.6731  142.0707  156.6824 H   0  0  0  0  0  0  0  0  0  0  0  0
  144.0418  139.6603  156.5968 H   0  0  0  0  0  0  0  0  0  0  0  0
  143.3977  139.8794  154.9706 H   0  0  0  0  0  0  0  0  0  0  0  0
  142.6401  140.6939  156.3364 H   0  0  0  0  0  0  0  0  0  0  0  0
  144.0940  144.1500  153.6715 H   0  0  0  0  0  0  0  0  0  0  0  0
  145.1958  145.5900  155.3238 H   0  0  0  0  0  0  0  0  0  0  0  0
  145.2721  144.2786  156.4897 H   0  0  0  0  0  0  0  0  0  0  0  0
  143.7101  144.9282  155.9965 H   0  0  0  0  0  0  0  0  0  0  0  0
  146.6167  144.1327  153.7542 H   0  0  0  0  0  0  0  0  0  0  0  0
  145.8825  142.7515  152.9800 H   0  0  0  0  0  0  0  0  0  0  0  0
  1  2  1  0  0  0  0
  1 22  1  0  0  0  0
  1 23  1  0  0  0  0
  1 24  1  0  0  0  0
  2 21  2  0  0  0  0
  2  3  1  0  0  0  0
  3  4  2  0  0  0  0
  3 25  1  0  0  0  0
  4  5  1  0  0  0  0
  4  6  1  0  0  0  0
  5 26  1  0  0  0  0
  5 27  1  0  0  0  0
  5 28  1  0  0  0  0
  6  7  1  0  0  0  0
  6 21  1  0  0  0  0
  7  8  1  0  0  0  0
  7 29  1  0  0  0  0
  7 30  1  0  0  0  0
  8  9  2  0  0  0  0
  8 10  1  0  0  0  0
 10 11  1  0  0  0  0
 10 31  1  0  0  0  0
 11 12  1  0  0  0  0
 11 32  1  0  0  0  0
 11 33  1  0  0  0  0
 12 13  1  0  0  0  0
 12 34  1  0  0  0  0
 12 35  1  0  0  0  0
 13 20  1  0  0  0  0
 13 14  1  0  0  0  0
 14 15  1  0  0  0  0
 14 36  1  0  0  0  0
 14 37  1  0  0  0  0
 15 16  1  0  0  0  0
 15 17  1  0  0  0  0
 15 38  1  0  0  0  0
 16 39  1  0  0  0  0
 16 40  1  0  0  0  0
 16 41  1  0  0  0  0
 17 18  1  0  0  0  0
 18 19  1  0  0  0  0
 18 20  1  0  0  0  0
 18 42  1  0  0  0  0
 19 43  1  0  0  0  0
 19 44  1  0  0  0  0
 19 45  1  0  0  0  0
 20 46  1  0  0  0  0
 20 47  1  0  0  0  0
M  END
> <s_m_source_file>
AV-unprocessed.smi

> <i_m_source_file_index>
2106

> <i_lp_mmshare_version>
43012

> <i_f3d_flags>
0

> <s_epik_input>
W0NIM11jMVtjSF1jKFtDSDNdKW4objEpW0NIMl1DKD1PKVtOSF1bQ0gyXVtDSDJdTjJbQ0gyXVtDQEBIXShbQ0gzXSlPW0NAQEhdKFtDSDNdKVtDSDJdMg==

> <s_epik_cmdline>
J2VwaWtfcHl0aG9uJywgJy1waCcsICc3LjAnLCAnLXRuJywgJzgnLCAnLW1hJywgJzIwMCcsICctbWV0YWxfYmluZGluZycsICctaW1hZScsICc8aW5maWxlLm1hZT4nLCAnLW9tYWUnLCAnPG91dGZpbGUubWFlPic=

> <r_lp_tautomer_probability>
1

> <r_epik_Ionization_Penalty>
0.197284

> <r_epik_Ionization_Penalty_Charging>
0

> <r_epik_Ionization_Penalty_Neutral>
0.197284

> <r_epik_State_Penalty>
0.186684

> <r_epik_Charging_Adjusted_Penalty>
0.186684

> <i_epik_Tot_Q>
0

> <i_epik_Tot_abs_Q>
0

> <r_epik_Metal_State_Penalty>
0.186634

> <b_epik_Metal_Only>
0

> <s_lp_Force_Field>
OPLS_2005

> <r_lp_Energy>
21.9362

> <b_lp_Chiralities_Consistent>
1

> <s_lp_Variant>
AV-unprocessed.smi:2106-2

> <Gold.Version>
5.8.1

> <Gold.Id.Protein>
6NUR|6NUR_protein|mol2

> <Gold.PLP.Fitness>
45.0982

> <Gold.PLP.PLP>
-43.4235

> <Gold.PLP.part.hbond>
-0.9397

> <Gold.PLP.part.metal>
0.0000

> <Gold.PLP.part.buried>
-7.0239

> <Gold.PLP.part.nonpolar>
-36.5457

> <Gold.PLP.part.repulsive>
0.5356

> <Gold.PLP.ligand.clash>
0.0000

> <Gold.PLP.ligand.torsion>
0.6724

> <Gold.PLP.Chemscore.Hbond>
1.0000

> <Gold.PLP.Chemscore.CHOScore>
0.0000

> <Gold.PLP.Chemscore.Metal>
0.0000

> <Gold.Chemscore.Hbonds>
donor molecule, donor type, donor heavy atom, donor atom, acceptor molecule, acceptor atom, score
      L1  H    10    31       P1  8028  0.96

> <Gold.PLP.Chemscore.Internal.Correction>
0.0195

> <Gold.Rescore>
     Score         DG    S(hbond)    S(metal)    S(lipo)     H(rot)  DE(clash)    DE(int)     intcor
     13.73     -15.92       0.91        0.00      99.84       1.67       0.00       2.19       ----

> <Gold.Chemscore.Fitness>
13.7310

> <Gold.Chemscore.DG>
-15.9242

> <Gold.Chemscore.ZeroCoef>
-5.4800

> <Gold.Chemscore.Hbond>
0.9061

> <Gold.Chemscore.Metal>
0.0000

> <Gold.Chemscore.Lipo>
99.8444

> <Gold.Chemscore.Internal_Hbond>
0.0000

> <Gold.Chemscore.DEClash>
0.0021

> <Gold.Chemscore.DEInternal>
2.1911

> <Gold.Chemscore.Rot>
1.6657

> <Gold.Chemscore.Internal.Correction>
   9.000000E+99

> <Gold.Chemscore.Hbonds>
donor molecule, donor type, donor heavy atom, donor atom, acceptor molecule, acceptor atom, score
      L1  H    10    31       P1  8028  0.91

> <Gold.Chemscore.Hbond.Weighted>
-3.0265

> <Gold.Chemscore.Metal.Weighted>
-0.0000

> <Gold.Chemscore.Lipo.Weighted>
-11.6818

> <Gold.Chemscore.Internal_Hbond.Weighted>
0.0000

> <Gold.Chemscore.DEClash.Weighted>
0.0021

> <Gold.Chemscore.DEInternal.Weighted>
2.1911

> <Gold.Chemscore.Rot.Weighted>
4.2641

> <Gold.Chemscore.Internal.Correction.Weighted>
   9.000000E+99

> <Gold.Protein.RotatedTorsions>
[ 6907 6896 6895 6894 ] final  -22.67 input  -60.11 | X-H torsion
[ 7974 7965 7964 7962 ] final -126.31 input  175.53 | X-H torsion
[ 8008 7997 7996 7995 ] final  117.02 input   59.86 | X-H torsion
[ 10167 10162 10161 10158 ] final   52.85 input  -65.29 | X-H torsion
[ 10718 10713 10712 10709 ] final  148.53 input   66.30 | X-H torsion
[ 10763 10752 10751 10750 ] final -168.76 input  -60.55 | X-H torsion
[ 11005 11000 10999 10996 ] final   69.45 input  -57.11 | X-H torsion

> <Gold.Protein.ActiveResidues>
 VAL166  LYS551  ARG553  GLY616  TRP617  ASP618  TYR619  PRO620  LYS621  CYS622 
 ASP623  PHE694  ASN695  SER759  ASP760  ASP761  ALA762  ILE779  LEU786  VAL792 
 PHE793  MET794  SER795  GLU796  ALA797  LYS798  CYS799  TRP800  GLU811  SER814 

> <Gold.Protein.RotatedAtoms>
  151.2151  135.0497  159.8926 H   0  0  0  0  0  0  0  0  0  0  0  0  # atno 6907 bound_to 6896
  152.5421  134.0702  159.8200 H   0  0  0  0  0  0  0  0  0  0  0  0  # atno 6908 bound_to 6896
  151.0860  133.5305  159.2649 H   0  0  0  0  0  0  0  0  0  0  0  0  # atno 6909 bound_to 6896
  144.9886  140.7710  143.4568 H   0  0  0  0  0  0  0  0  0  0  0  0  # atno 7974 bound_to 7965
  156.2471  140.2905  156.0613 H   0  0  0  0  0  0  0  0  0  0  0  0  # atno 8008 bound_to 7997
  155.1772  140.0403  157.2892 H   0  0  0  0  0  0  0  0  0  0  0  0  # atno 8009 bound_to 7997
  154.6284  140.2493  155.7470 H   0  0  0  0  0  0  0  0  0  0  0  0  # atno 8010 bound_to 7997
  140.2470  144.3521  150.6361 H   0  0  0  0  0  0  0  0  0  0  0  0  # atno 10167 bound_to 10162
  157.3074  131.0882  151.1343 H   0  0  0  0  0  0  0  0  0  0  0  0  # atno 10718 bound_to 10713
  154.6595  135.2923  154.9885 H   0  0  0  0  0  0  0  0  0  0  0  0  # atno 10763 bound_to 10752
  154.0950  135.6585  153.4862 H   0  0  0  0  0  0  0  0  0  0  0  0  # atno 10764 bound_to 10752
  153.0421  135.5229  154.7539 H   0  0  0  0  0  0  0  0  0  0  0  0  # atno 10765 bound_to 10752
  139.9653  134.6991  156.0559 H   0  0  0  0  0  0  0  0  0  0  0  0  # atno 11005 bound_to 11000
  145.2318  139.2111  143.5038 LP  0  0  0  0  0  0  0  0  0  0  0  0  # atno 17320 bound_to 7965
  146.3426  140.2197  142.8591 LP  0  0  0  0  0  0  0  0  0  0  0  0  # atno 17321 bound_to 7965
  140.6070  143.2168  151.6962 LP  0  0  0  0  0  0  0  0  0  0  0  0  # atno 17342 bound_to 10162
  139.5058  144.3703  152.0477 LP  0  0  0  0  0  0  0  0  0  0  0  0  # atno 17343 bound_to 10162
  157.2678  130.6690  149.6005 LP  0  0  0  0  0  0  0  0  0  0  0  0  # atno 17370 bound_to 10713
  155.9675  130.4488  150.5635 LP  0  0  0  0  0  0  0  0  0  0  0  0  # atno 17371 bound_to 10713
  141.1332  133.6581  156.3522 LP  0  0  0  0  0  0  0  0  0  0  0  0  # atno 17394 bound_to 11000
  140.5410  134.6120  157.5380 LP  0  0  0  0  0  0  0  0  0  0  0  0  # atno 17395 bound_to 11000

$$$$
