AV-unprocessed.smi:1501|AV-procd|sdf|6064|dock1
  -GOLD-   22720 6183D 1   1.00000     0.00000
 Structure written by MMmdl.
 49 50  0  0  0  0  0  0  0  0  1 V2000
  151.4067  138.2749  155.2173 C   0  0  0  0  0  0  0  0  0  0  0  0
  150.7312  139.6272  155.3610 C   0  0  0  0  0  0  0  0  0  0  0  0
  151.2465  140.4591  156.3627 N   0  0  0  0  0  0  0  0  0  0  0  0
  150.7408  141.6361  156.5613 C   0  0  0  0  0  0  0  0  0  0  0  0
  151.1603  142.5533  157.5290 N   0  0  0  0  0  0  0  0  0  0  0  0
  151.0181  143.9882  157.2801 C   0  0  0  0  0  0  0  0  0  0  0  0
  152.0068  144.8078  158.1259 C   0  0  0  0  0  0  0  0  0  0  0  0
  151.8377  144.4910  159.5006 O   0  0  0  0  0  0  0  0  0  0  0  0
  152.1096  143.1191  159.7512 C   0  0  0  0  0  0  0  0  0  0  0  0
  151.1244  142.2414  158.9609 C   0  0  0  0  0  0  0  0  0  0  0  0
  149.6674  142.0781  155.7792 N   0  0  0  0  0  0  0  0  0  0  0  0
  149.1036  141.3553  154.7864 C   0  0  0  0  0  0  0  0  0  0  0  0
  148.1689  141.8165  154.1333 O   0  0  0  0  0  0  0  0  0  0  0  0
  149.6951  140.0249  154.5713 C   0  0  0  0  0  0  0  0  0  0  0  0
  149.0952  139.1466  153.4768 C   0  0  0  0  0  0  0  0  0  0  0  0
  147.5614  139.0623  153.5809 C   0  0  0  0  0  0  0  0  0  0  0  0
  146.9462  138.1843  152.4888 C   0  0  0  0  0  0  0  0  0  0  0  0
  147.1004  138.4687  151.3009 O   0  0  0  0  0  0  0  0  0  0  0  0
  146.2567  137.1122  152.9040 N   0  0  0  0  0  0  0  0  0  0  0  0
  145.6122  136.1507  152.0185 C   0  0  0  0  0  0  0  0  0  0  0  0
  144.3659  135.5213  152.6709 C   0  0  0  0  0  0  0  0  0  0  0  0
  143.8252  134.3228  151.8713 C   0  0  0  0  0  0  0  0  0  0  0  0
  143.2682  136.5760  152.8743 C   0  0  0  0  0  0  0  0  0  0  0  0
  149.2859  142.9949  155.9601 H   0  0  0  0  0  0  0  0  0  0  0  0
  151.7195  138.1077  154.1863 H   0  0  0  0  0  0  0  0  0  0  0  0
  150.7244  137.4760  155.5079 H   0  0  0  0  0  0  0  0  0  0  0  0
  152.2928  138.2057  155.8493 H   0  0  0  0  0  0  0  0  0  0  0  0
  151.1844  144.2141  156.2260 H   0  0  0  0  0  0  0  0  0  0  0  0
  149.9944  144.2860  157.5111 H   0  0  0  0  0  0  0  0  0  0  0  0
  153.0357  144.6139  157.8180 H   0  0  0  0  0  0  0  0  0  0  0  0
  151.8282  145.8736  157.9831 H   0  0  0  0  0  0  0  0  0  0  0  0
  153.1407  142.8842  159.4825 H   0  0  0  0  0  0  0  0  0  0  0  0
  152.0080  142.9275  160.8194 H   0  0  0  0  0  0  0  0  0  0  0  0
  150.1094  142.4051  159.3254 H   0  0  0  0  0  0  0  0  0  0  0  0
  151.3610  141.1955  159.1556 H   0  0  0  0  0  0  0  0  0  0  0  0
  149.3770  139.5290  152.4959 H   0  0  0  0  0  0  0  0  0  0  0  0
  149.5374  138.1503  153.5299 H   0  0  0  0  0  0  0  0  0  0  0  0
  147.2742  138.6512  154.5492 H   0  0  0  0  0  0  0  0  0  0  0  0
  147.1334  140.0647  153.5302 H   0  0  0  0  0  0  0  0  0  0  0  0
  146.1783  136.9479  153.8970 H   0  0  0  0  0  0  0  0  0  0  0  0
  145.3296  136.6551  151.0927 H   0  0  0  0  0  0  0  0  0  0  0  0
  146.3303  135.3739  151.7510 H   0  0  0  0  0  0  0  0  0  0  0  0
  144.6531  135.1571  153.6583 H   0  0  0  0  0  0  0  0  0  0  0  0
  143.5453  134.6167  150.8592 H   0  0  0  0  0  0  0  0  0  0  0  0
  142.9414  133.9002  152.3499 H   0  0  0  0  0  0  0  0  0  0  0  0
  144.5627  133.5237  151.7944 H   0  0  0  0  0  0  0  0  0  0  0  0
  142.9273  136.9821  151.9212 H   0  0  0  0  0  0  0  0  0  0  0  0
  143.6287  137.4078  153.4803 H   0  0  0  0  0  0  0  0  0  0  0  0
  142.4030  136.1503  153.3834 H   0  0  0  0  0  0  0  0  0  0  0  0
  1  2  1  0  0  0  0
  1 25  1  0  0  0  0
  1 26  1  0  0  0  0
  1 27  1  0  0  0  0
  2 14  2  0  0  0  0
  2  3  1  0  0  0  0
  3  4  2  0  0  0  0
  4  5  1  0  0  0  0
  4 11  1  0  0  0  0
  5 10  1  0  0  0  0
  5  6  1  0  0  0  0
  6  7  1  0  0  0  0
  6 28  1  0  0  0  0
  6 29  1  0  0  0  0
  7  8  1  0  0  0  0
  7 30  1  0  0  0  0
  7 31  1  0  0  0  0
  8  9  1  0  0  0  0
  9 10  1  0  0  0  0
  9 32  1  0  0  0  0
  9 33  1  0  0  0  0
 10 34  1  0  0  0  0
 10 35  1  0  0  0  0
 11 24  1  0  0  0  0
 11 12  1  0  0  0  0
 12 13  2  0  0  0  0
 12 14  1  0  0  0  0
 14 15  1  0  0  0  0
 15 16  1  0  0  0  0
 15 36  1  0  0  0  0
 15 37  1  0  0  0  0
 16 17  1  0  0  0  0
 16 38  1  0  0  0  0
 16 39  1  0  0  0  0
 17 18  2  0  0  0  0
 17 19  1  0  0  0  0
 19 20  1  0  0  0  0
 19 40  1  0  0  0  0
 20 21  1  0  0  0  0
 20 41  1  0  0  0  0
 20 42  1  0  0  0  0
 21 22  1  0  0  0  0
 21 23  1  0  0  0  0
 21 43  1  0  0  0  0
 22 44  1  0  0  0  0
 22 45  1  0  0  0  0
 22 46  1  0  0  0  0
 23 47  1  0  0  0  0
 23 48  1  0  0  0  0
 23 49  1  0  0  0  0
M  END
> <s_m_source_file>
AV-unprocessed.smi

> <i_m_source_file_index>
1501

> <i_lp_mmshare_version>
43012

> <i_f3d_flags>
0

> <s_epik_input>
W0NIMl0xW0NIMl1PW0NIMl1bQ0gyXU4xYyhuYzJbQ0gzXSlbbkhdYyg9TyljMltDSDJdW0NIMl1DKD1PKVtOSF1bQ0gyXVtDSF0oW0NIM10pW0NIM10=

> <s_epik_cmdline>
J2VwaWtfcHl0aG9uJywgJy1waCcsICc3LjAnLCAnLXRuJywgJzgnLCAnLW1hJywgJzIwMCcsICctbWV0YWxfYmluZGluZycsICctaW1hZScsICc8aW5maWxlLm1hZT4nLCAnLW9tYWUnLCAnPG91dGZpbGUubWFlPic=

> <r_lp_tautomer_probability>
0.878553

> <r_epik_Ionization_Penalty>
0.00122307

> <r_epik_Ionization_Penalty_Charging>
0.0011975

> <r_epik_Ionization_Penalty_Neutral>
2.55789e-05

> <r_epik_State_Penalty>
0.0424099

> <r_epik_Charging_Adjusted_Penalty>
0.0436074

> <i_epik_Tot_Q>
0

> <i_epik_Tot_abs_Q>
0

> <r_epik_Metal_State_Penalty>
1.02628

> <b_epik_Metal_Only>
0

> <s_lp_Force_Field>
OPLS_2005

> <r_lp_Energy>
24.4519

> <b_lp_Chiralities_Consistent>
1

> <s_lp_Variant>
AV-unprocessed.smi:1501-1

> <Gold.Version>
5.8.1

> <Gold.Id.Protein>
6NUR|6NUR_protein|mol2

> <Gold.PLP.Fitness>
48.6684

> <Gold.PLP.PLP>
-44.6355

> <Gold.PLP.part.hbond>
-3.3174

> <Gold.PLP.part.metal>
0.0000

> <Gold.PLP.part.buried>
0.8891

> <Gold.PLP.part.nonpolar>
-43.8394

> <Gold.PLP.part.repulsive>
2.0140

> <Gold.PLP.ligand.clash>
0.0000

> <Gold.PLP.ligand.torsion>
1.0826

> <Gold.PLP.Chemscore.Hbond>
1.9879

> <Gold.PLP.Chemscore.CHOScore>
0.0000

> <Gold.PLP.Chemscore.Metal>
0.0000

> <Gold.Chemscore.Hbonds>
donor molecule, donor type, donor heavy atom, donor atom, acceptor molecule, acceptor atom, score
      L1  H    11    24       P1  8028  1.00
      P1  H  7954  7966       L1    18  1.00

> <Gold.PLP.Chemscore.Internal.Correction>
0.2342

> <Gold.Rescore>
     Score         DG    S(hbond)    S(metal)    S(lipo)     H(rot)  DE(clash)    DE(int)     intcor
     14.41     -18.18       1.72        0.00      99.59       1.83       3.30       0.48       ----

> <Gold.Chemscore.Fitness>
14.4075

> <Gold.Chemscore.DG>
-18.1836

> <Gold.Chemscore.ZeroCoef>
-5.4800

> <Gold.Chemscore.Hbond>
1.7203

> <Gold.Chemscore.Metal>
0.0000

> <Gold.Chemscore.Lipo>
99.5875

> <Gold.Chemscore.Internal_Hbond>
0.0000

> <Gold.Chemscore.DEClash>
3.3006

> <Gold.Chemscore.DEInternal>
0.4755

> <Gold.Chemscore.Rot>
1.8335

> <Gold.Chemscore.Internal.Correction>
   9.000000E+99

> <Gold.Chemscore.Hbonds>
donor molecule, donor type, donor heavy atom, donor atom, acceptor molecule, acceptor atom, score
      L1  H    11    24       P1  8028  0.99
      P1  H  7954  7966       L1    18  0.99

> <Gold.Chemscore.Hbond.Weighted>
-5.7457

> <Gold.Chemscore.Metal.Weighted>
-0.0000

> <Gold.Chemscore.Lipo.Weighted>
-11.6517

> <Gold.Chemscore.Internal_Hbond.Weighted>
0.0000

> <Gold.Chemscore.DEClash.Weighted>
3.3006

> <Gold.Chemscore.DEInternal.Weighted>
0.4755

> <Gold.Chemscore.Rot.Weighted>
4.6938

> <Gold.Chemscore.Internal.Correction.Weighted>
   9.000000E+99

> <Gold.Protein.RotatedTorsions>
[ 6907 6896 6895 6894 ] final -162.15 input  -60.11 | X-H torsion
[ 7974 7965 7964 7962 ] final -125.96 input  175.53 | X-H torsion
[ 8008 7997 7996 7995 ] final  127.30 input   59.86 | X-H torsion
[ 10167 10162 10161 10158 ] final -146.37 input  -65.29 | X-H torsion
[ 10718 10713 10712 10709 ] final  139.87 input   66.30 | X-H torsion
[ 10763 10752 10751 10750 ] final -137.95 input  -60.55 | X-H torsion
[ 11005 11000 10999 10996 ] final  -87.23 input  -57.11 | X-H torsion

> <Gold.Protein.ActiveResidues>
 VAL166  LYS551  ARG553  GLY616  TRP617  ASP618  TYR619  PRO620  LYS621  CYS622 
 ASP623  PHE694  ASN695  SER759  ASP760  ASP761  ALA762  ILE779  LEU786  VAL792 
 PHE793  MET794  SER795  GLU796  ALA797  LYS798  CYS799  TRP800  GLU811  SER814 

> <Gold.Protein.RotatedAtoms>
  151.3758  133.3838  159.2704 H   0  0  0  0  0  0  0  0  0  0  0  0  # atno 6907 bound_to 6896
  150.9616  134.9004  159.7744 H   0  0  0  0  0  0  0  0  0  0  0  0  # atno 6908 bound_to 6896
  152.5151  134.3717  159.9372 H   0  0  0  0  0  0  0  0  0  0  0  0  # atno 6909 bound_to 6896
  144.9922  140.7743  143.4547 H   0  0  0  0  0  0  0  0  0  0  0  0  # atno 7974 bound_to 7965
  156.2887  140.2672  156.2250 H   0  0  0  0  0  0  0  0  0  0  0  0  # atno 8008 bound_to 7997
  155.0130  140.0387  157.2425 H   0  0  0  0  0  0  0  0  0  0  0  0  # atno 8009 bound_to 7997
  154.7502  140.2741  155.6304 H   0  0  0  0  0  0  0  0  0  0  0  0  # atno 8010 bound_to 7997
  139.7720  143.8225  152.2626 H   0  0  0  0  0  0  0  0  0  0  0  0  # atno 10167 bound_to 10162
  157.4095  131.1026  151.0468 H   0  0  0  0  0  0  0  0  0  0  0  0  # atno 10718 bound_to 10713
  154.8649  135.3627  154.5305 H   0  0  0  0  0  0  0  0  0  0  0  0  # atno 10763 bound_to 10752
  153.5931  135.7015  153.5420 H   0  0  0  0  0  0  0  0  0  0  0  0  # atno 10764 bound_to 10752
  153.3356  135.4112  155.1492 H   0  0  0  0  0  0  0  0  0  0  0  0  # atno 10765 bound_to 10752
  141.1619  133.7499  156.9277 H   0  0  0  0  0  0  0  0  0  0  0  0  # atno 11005 bound_to 11000
  145.2269  139.2133  143.5063 LP  0  0  0  0  0  0  0  0  0  0  0  0  # atno 17320 bound_to 7965
  146.3434  140.2138  142.8590 LP  0  0  0  0  0  0  0  0  0  0  0  0  # atno 17321 bound_to 7965
  139.8262  144.7274  150.9509 LP  0  0  0  0  0  0  0  0  0  0  0  0  # atno 17342 bound_to 10162
  140.7814  143.4113  151.0989 LP  0  0  0  0  0  0  0  0  0  0  0  0  # atno 17343 bound_to 10162
  157.1438  130.6154  149.5562 LP  0  0  0  0  0  0  0  0  0  0  0  0  # atno 17370 bound_to 10713
  155.9846  130.4872  150.6993 LP  0  0  0  0  0  0  0  0  0  0  0  0  # atno 17371 bound_to 10713
  140.1408  134.9295  157.2464 LP  0  0  0  0  0  0  0  0  0  0  0  0  # atno 17394 bound_to 11000
  140.2839  134.3318  155.7335 LP  0  0  0  0  0  0  0  0  0  0  0  0  # atno 17395 bound_to 11000

$$$$
