AV-unprocessed.smi:115|AV-procd|sdf|1123|dock4
  -GOLD-   2262018243D 1   1.00000     0.00000
 Structure written by MMmdl.
 55 57  0  0  0  0  0  0  0  0  1 V2000
  144.1642  146.2503  156.5713 C   0  0  0  0  0  0  0  0  0  0  0  0
  144.8684  145.1336  157.0923 O   0  0  0  0  0  0  0  0  0  0  0  0
  144.0914  143.9472  157.1932 C   0  0  0  0  0  0  0  0  0  0  0  0
  143.8227  143.3075  155.8132 C   0  0  2  0  0  0  0  0  0  0  0  0
  142.7859  142.1682  155.8471 C   0  0  0  0  0  0  0  0  0  0  0  0
  145.0760  142.9476  155.1289 N   0  0  0  0  0  0  0  0  0  0  0  0
  145.5196  143.5607  153.9576 C   0  0  0  0  0  0  0  0  0  0  0  0
  144.7746  144.6580  153.2644 C   0  0  0  0  0  0  0  0  0  0  0  0
  146.6974  142.9788  153.5982 C   0  0  0  0  0  0  0  0  0  0  0  0
  147.0288  141.9922  154.5640 C   0  0  0  0  0  0  0  0  0  0  0  0
  148.2043  141.0830  154.5681 C   0  0  0  0  0  0  0  0  0  0  0  0
  148.1161  139.8616  154.4349 O   0  0  0  0  0  0  0  0  0  0  0  0
  149.5757  141.7644  154.7351 C   0  0  0  0  0  0  0  0  0  0  0  0
  150.4087  141.1287  155.7495 N   0  0  0  0  0  0  0  0  0  0  0  0
  151.0830  139.9341  155.3952 C   0  0  0  0  0  0  0  0  0  0  0  0
  150.9984  139.4426  154.2683 O   0  0  0  0  0  0  0  0  0  0  0  0
  151.8756  139.3473  156.4690 C   0  0  0  0  0  0  0  0  0  0  0  0
  152.5077  138.1788  156.2659 F   0  0  0  0  0  0  0  0  0  0  0  0
  151.9725  139.9493  157.6740 C   0  0  0  0  0  0  0  0  0  0  0  0
  151.3636  141.1581  157.9721 N   0  0  0  0  0  0  0  0  0  0  0  0
  151.4236  141.7572  159.3626 C   0  0  2  0  0  0  0  0  0  0  0  0
  151.9305  143.2096  159.4025 C   0  0  0  0  0  0  0  0  0  0  0  0
  153.3379  143.0477  159.9432 C   0  0  0  0  0  0  0  0  0  0  0  0
  153.1855  141.8227  160.8362 C   0  0  0  0  0  0  0  0  0  0  0  0
  152.2987  140.9742  160.1184 O   0  0  0  0  0  0  0  0  0  0  0  0
  150.5117  141.7565  157.0150 C   0  0  0  0  0  0  0  0  0  0  0  0
  149.8951  142.7927  157.2741 O   0  0  0  0  0  0  0  0  0  0  0  0
  146.0420  142.0088  155.5252 C   0  0  0  0  0  0  0  0  0  0  0  0
  145.9249  141.2097  156.7939 C   0  0  0  0  0  0  0  0  0  0  0  0
  144.8439  147.0982  156.4878 H   0  0  0  0  0  0  0  0  0  0  0  0
  143.3391  146.5523  157.2155 H   0  0  0  0  0  0  0  0  0  0  0  0
  143.7717  146.0403  155.5758 H   0  0  0  0  0  0  0  0  0  0  0  0
  144.5771  143.2356  157.8631 H   0  0  0  0  0  0  0  0  0  0  0  0
  143.1553  144.2191  157.6760 H   0  0  0  0  0  0  0  0  0  0  0  0
  143.3437  144.0656  155.1996 H   0  0  0  0  0  0  0  0  0  0  0  0
  141.7996  142.5619  156.0942 H   0  0  0  0  0  0  0  0  0  0  0  0
  143.0079  141.4066  156.5913 H   0  0  0  0  0  0  0  0  0  0  0  0
  142.7050  141.6803  154.8753 H   0  0  0  0  0  0  0  0  0  0  0  0
  145.3602  145.0618  152.4381 H   0  0  0  0  0  0  0  0  0  0  0  0
  144.5591  145.4803  153.9474 H   0  0  0  0  0  0  0  0  0  0  0  0
  143.8326  144.2927  152.8544 H   0  0  0  0  0  0  0  0  0  0  0  0
  147.2646  143.2385  152.7164 H   0  0  0  0  0  0  0  0  0  0  0  0
  150.1276  141.7688  153.7941 H   0  0  0  0  0  0  0  0  0  0  0  0
  149.4593  142.8152  155.0049 H   0  0  0  0  0  0  0  0  0  0  0  0
  152.5541  139.4442  158.4281 H   0  0  0  0  0  0  0  0  0  0  0  0
  150.4099  141.7034  159.7621 H   0  0  0  0  0  0  0  0  0  0  0  0
  151.8608  143.7221  158.4433 H   0  0  0  0  0  0  0  0  0  0  0  0
  151.3215  143.7601  160.1208 H   0  0  0  0  0  0  0  0  0  0  0  0
  154.0413  142.8388  159.1370 H   0  0  0  0  0  0  0  0  0  0  0  0
  153.6908  143.9264  160.4834 H   0  0  0  0  0  0  0  0  0  0  0  0
  154.1351  141.3287  161.0421 H   0  0  0  0  0  0  0  0  0  0  0  0
  152.7272  142.0958  161.7878 H   0  0  0  0  0  0  0  0  0  0  0  0
  146.9025  140.9553  157.1998 H   0  0  0  0  0  0  0  0  0  0  0  0
  145.3819  140.2811  156.6185 H   0  0  0  0  0  0  0  0  0  0  0  0
  145.4244  141.7580  157.5864 H   0  0  0  0  0  0  0  0  0  0  0  0
  1  2  1  0  0  0  0
  1 30  1  0  0  0  0
  1 31  1  0  0  0  0
  1 32  1  0  0  0  0
  2  3  1  0  0  0  0
  3  4  1  0  0  0  0
  3 33  1  0  0  0  0
  3 34  1  0  0  0  0
  4  5  1  0  0  0  0
  4  6  1  0  0  0  0
  4 35  1  0  0  0  0
  5 36  1  0  0  0  0
  5 37  1  0  0  0  0
  5 38  1  0  0  0  0
  6 28  1  0  0  0  0
  6  7  1  0  0  0  0
  7  8  1  0  0  0  0
  7  9  2  0  0  0  0
  8 39  1  0  0  0  0
  8 40  1  0  0  0  0
  8 41  1  0  0  0  0
  9 10  1  0  0  0  0
  9 42  1  0  0  0  0
 10 11  1  0  0  0  0
 10 28  2  0  0  0  0
 11 12  2  0  0  0  0
 11 13  1  0  0  0  0
 13 14  1  0  0  0  0
 13 43  1  0  0  0  0
 13 44  1  0  0  0  0
 14 26  1  0  0  0  0
 14 15  1  0  0  0  0
 15 16  2  0  0  0  0
 15 17  1  0  0  0  0
 17 18  1  0  0  0  0
 17 19  2  0  0  0  0
 19 20  1  0  0  0  0
 19 45  1  0  0  0  0
 20 21  1  0  0  0  0
 20 26  1  0  0  0  0
 21 25  1  0  0  0  0
 21 22  1  0  0  0  0
 21 46  1  0  0  0  0
 22 23  1  0  0  0  0
 22 47  1  0  0  0  0
 22 48  1  0  0  0  0
 23 24  1  0  0  0  0
 23 49  1  0  0  0  0
 23 50  1  0  0  0  0
 24 25  1  0  0  0  0
 24 51  1  0  0  0  0
 24 52  1  0  0  0  0
 26 27  2  0  0  0  0
 28 29  1  0  0  0  0
 29 53  1  0  0  0  0
 29 54  1  0  0  0  0
 29 55  1  0  0  0  0
M  END
> <s_m_source_file>
AV-unprocessed.smi

> <i_m_source_file_index>
115

> <i_lp_mmshare_version>
43012

> <i_f3d_flags>
0

> <s_epik_input>
W0NIM11PW0NIMl1bQ0BIXShbQ0gzXSluMWMoW0NIM10pW2NIXWMoYzFbQ0gzXSlDKD1PKVtDSDJdbjJjKD1PKWMoRilbY0hdbihjMj1PKVtDQEBIXTNbQ0gyXVtDSDJdW0NIMl1PMw==

> <s_epik_cmdline>
J2VwaWtfcHl0aG9uJywgJy1waCcsICc3LjAnLCAnLXRuJywgJzgnLCAnLW1hJywgJzIwMCcsICctbWV0YWxfYmluZGluZycsICctaW1hZScsICc8aW5maWxlLm1hZT4nLCAnLW9tYWUnLCAnPG91dGZpbGUubWFlPic=

> <r_lp_tautomer_probability>
1

> <r_epik_Ionization_Penalty>
5.02611e-09

> <r_epik_Ionization_Penalty_Charging>
5.01743e-09

> <r_epik_Ionization_Penalty_Neutral>
8.68114e-12

> <r_epik_State_Penalty>
-0

> <r_epik_Charging_Adjusted_Penalty>
5.01743e-09

> <i_epik_Tot_Q>
0

> <i_epik_Tot_abs_Q>
0

> <r_epik_Metal_State_Penalty>
-0

> <b_epik_Metal_Only>
0

> <s_epik_Chemistry_Notes>
This compound contains an acetal/aminal-like group ( X-CH(R)-Y where X, Y are N, S, or O) that may be acid/base labile, releasing an aldehyde.

> <s_lp_Force_Field>
OPLS_2005

> <r_lp_Energy>
47.9533

> <b_lp_Chiralities_Consistent>
1

> <s_lp_Variant>
AV-unprocessed.smi:115-1

> <Gold.Version>
5.8.1

> <Gold.Id.Protein>
6NUR|6NUR_protein|mol2

> <Gold.PLP.Fitness>
48.1372

> <Gold.PLP.PLP>
-49.8737

> <Gold.PLP.part.hbond>
-1.0000

> <Gold.PLP.part.metal>
0.0000

> <Gold.PLP.part.buried>
-4.0573

> <Gold.PLP.part.nonpolar>
-46.3835

> <Gold.PLP.part.repulsive>
3.3293

> <Gold.PLP.ligand.clash>
0.0000

> <Gold.PLP.ligand.torsion>
1.7953

> <Gold.PLP.Chemscore.Hbond>
0.4500

> <Gold.PLP.Chemscore.CHOScore>
0.0000

> <Gold.PLP.Chemscore.Metal>
0.0000

> <Gold.Chemscore.Hbonds>
donor molecule, donor type, donor heavy atom, donor atom, acceptor molecule, acceptor atom, score
      P1  H  7989  7998       L1    16  0.70

> <Gold.PLP.Chemscore.Internal.Correction>
0.5040

> <Gold.Rescore>
     Score         DG    S(hbond)    S(metal)    S(lipo)     H(rot)  DE(clash)    DE(int)     intcor
      6.86     -13.01       0.81        0.00      89.10       2.19       3.39       2.76       ----

> <Gold.Chemscore.Fitness>
6.8640

> <Gold.Chemscore.DG>
-13.0093

> <Gold.Chemscore.ZeroCoef>
-5.4800

> <Gold.Chemscore.Hbond>
0.8144

> <Gold.Chemscore.Metal>
0.0000

> <Gold.Chemscore.Lipo>
89.1048

> <Gold.Chemscore.Internal_Hbond>
0.0000

> <Gold.Chemscore.DEClash>
3.3892

> <Gold.Chemscore.DEInternal>
2.7562

> <Gold.Chemscore.Rot>
2.1938

> <Gold.Chemscore.Internal.Correction>
   9.000000E+99

> <Gold.Chemscore.Hbonds>
donor molecule, donor type, donor heavy atom, donor atom, acceptor molecule, acceptor atom, score
      P1  H  7989  7998       L1    16  0.07

> <Gold.Chemscore.Hbond.Weighted>
-2.7201

> <Gold.Chemscore.Metal.Weighted>
-0.0000

> <Gold.Chemscore.Lipo.Weighted>
-10.4253

> <Gold.Chemscore.Internal_Hbond.Weighted>
0.0000

> <Gold.Chemscore.DEClash.Weighted>
3.3892

> <Gold.Chemscore.DEInternal.Weighted>
2.7562

> <Gold.Chemscore.Rot.Weighted>
5.6160

> <Gold.Chemscore.Internal.Correction.Weighted>
   9.000000E+99

> <Gold.Protein.RotatedTorsions>
[ 6907 6896 6895 6894 ] final  150.67 input  -60.11 | X-H torsion
[ 7974 7965 7964 7962 ] final  -28.14 input  175.53 | X-H torsion
[ 8008 7997 7996 7995 ] final    5.76 input   59.86 | X-H torsion
[ 10167 10162 10161 10158 ] final  -40.65 input  -65.29 | X-H torsion
[ 10718 10713 10712 10709 ] final -141.20 input   66.30 | X-H torsion
[ 10763 10752 10751 10750 ] final  119.45 input  -60.55 | X-H torsion
[ 11005 11000 10999 10996 ] final  177.10 input  -57.11 | X-H torsion

> <Gold.Protein.ActiveResidues>
 VAL166  LYS551  ARG553  GLY616  TRP617  ASP618  TYR619  PRO620  LYS621  CYS622 
 ASP623  PHE694  ASN695  SER759  ASP760  ASP761  ALA762  ILE779  LEU786  VAL792 
 PHE793  MET794  SER795  GLU796  ALA797  LYS798  CYS799  TRP800  GLU811  SER814 

> <Gold.Protein.RotatedAtoms>
  152.1112  133.4302  159.4631 H   0  0  0  0  0  0  0  0  0  0  0  0  # atno 6907 bound_to 6896
  150.6867  134.2645  159.4572 H   0  0  0  0  0  0  0  0  0  0  0  0  # atno 6908 bound_to 6896
  152.0514  134.9650  160.0625 H   0  0  0  0  0  0  0  0  0  0  0  0  # atno 6909 bound_to 6896
  146.1309  140.5243  142.8694 H   0  0  0  0  0  0  0  0  0  0  0  0  # atno 7974 bound_to 7965
  154.7324  140.2733  155.6444 H   0  0  0  0  0  0  0  0  0  0  0  0  # atno 8008 bound_to 7997
  156.2853  140.2713  156.1953 H   0  0  0  0  0  0  0  0  0  0  0  0  # atno 8009 bound_to 7997
  155.0364  140.0371  157.2483 H   0  0  0  0  0  0  0  0  0  0  0  0  # atno 8010 bound_to 7997
  140.7028  143.3141  151.2954 H   0  0  0  0  0  0  0  0  0  0  0  0  # atno 10167 bound_to 10162
  156.3313  130.7587  151.1706 H   0  0  0  0  0  0  0  0  0  0  0  0  # atno 10718 bound_to 10713
  153.5832  135.3480  155.2883 H   0  0  0  0  0  0  0  0  0  0  0  0  # atno 10763 bound_to 10752
  154.8664  135.4187  154.2597 H   0  0  0  0  0  0  0  0  0  0  0  0  # atno 10764 bound_to 10752
  153.3388  135.7048  153.6955 H   0  0  0  0  0  0  0  0  0  0  0  0  # atno 10765 bound_to 10752
  140.3804  134.6952  157.4447 H   0  0  0  0  0  0  0  0  0  0  0  0  # atno 11005 bound_to 11000
  144.7690  140.5594  143.6683 LP  0  0  0  0  0  0  0  0  0  0  0  0  # atno 17320 bound_to 7965
  145.5262  139.1476  143.3525 LP  0  0  0  0  0  0  0  0  0  0  0  0  # atno 17321 bound_to 7965
  139.6574  144.0252  152.2669 LP  0  0  0  0  0  0  0  0  0  0  0  0  # atno 17342 bound_to 10162
  139.9808  144.6430  150.7903 LP  0  0  0  0  0  0  0  0  0  0  0  0  # atno 17343 bound_to 10162
  157.7431  131.0480  150.4975 LP  0  0  0  0  0  0  0  0  0  0  0  0  # atno 17370 bound_to 10713
  156.5141  130.4146  149.6285 LP  0  0  0  0  0  0  0  0  0  0  0  0  # atno 17371 bound_to 10713
  140.0483  134.6167  155.8893 LP  0  0  0  0  0  0  0  0  0  0  0  0  # atno 17394 bound_to 11000
  141.1925  133.6575  156.5507 LP  0  0  0  0  0  0  0  0  0  0  0  0  # atno 17395 bound_to 11000

$$$$
