AV-unprocessed.smi:197|AV-procd|sdf|1551|dock8
  -GOLD-   2262019423D 1   1.00000     0.00000
 Structure written by MMmdl.
 54 57  0  0  0  0  0  0  0  0  1 V2000
  152.5933  142.9209  162.6254 C   0  0  0  0  0  0  0  0  0  0  0  0
  152.5546  142.4851  161.2751 O   0  0  0  0  0  0  0  0  0  0  0  0
  153.4460  141.4186  160.9800 C   0  0  0  0  0  0  0  0  0  0  0  0
  153.1970  140.8376  159.5757 C   0  0  0  0  0  0  0  0  0  0  0  0
  154.0863  139.6148  159.2405 C   0  0  1  0  0  0  0  0  0  0  0  0
  154.9831  139.1780  160.4198 C   0  0  0  0  0  0  0  0  0  0  0  0
  154.1871  138.6265  161.4643 O   0  0  0  0  0  0  0  0  0  0  0  0
  153.4961  137.4549  161.0443 C   0  0  0  0  0  0  0  0  0  0  0  0
  152.5509  137.7969  159.8817 C   0  0  0  0  0  0  0  0  0  0  0  0
  153.2921  138.4596  158.8092 N   0  0  0  0  0  0  0  0  0  0  0  0
  152.7083  138.5443  157.5840 C   0  0  0  0  0  0  0  0  0  0  0  0
  153.4848  138.7201  156.4808 N   0  0  0  0  0  0  0  0  0  0  0  0
  152.9334  138.7806  155.2657 C   0  0  0  0  0  0  0  0  0  0  0  0
  151.6461  138.6907  154.9292 N   0  0  0  0  0  0  0  0  0  0  0  0
  150.8583  138.5233  156.0294 C   0  0  0  0  0  0  0  0  0  0  0  0
  151.3015  138.4449  157.3808 C   0  0  0  0  0  0  0  0  0  0  0  0
  150.2070  138.2941  158.2248 N   0  0  0  0  0  0  0  0  0  0  0  0
  149.1808  138.2679  157.4195 C   0  0  0  0  0  0  0  0  0  0  0  0
  149.4818  138.3906  156.0823 N   0  0  0  0  0  0  0  0  0  0  0  0
  148.5380  138.3891  154.9751 C   0  0  0  0  0  0  0  0  0  0  0  0
  148.4932  139.7343  154.2036 C   0  0  2  0  0  0  0  0  0  0  0  0
  149.7660  139.9368  153.6114 O   0  0  0  0  0  0  0  0  0  0  0  0
  148.1925  140.9397  155.0882 C   0  0  0  0  0  0  0  0  0  0  0  0
  147.5488  141.9197  154.1194 C   0  0  0  0  0  0  0  0  0  0  0  0
  146.7381  141.0763  153.3204 O   0  0  0  0  0  0  0  0  0  0  0  0
  147.4278  139.8519  153.0772 C   0  0  2  0  0  0  0  0  0  0  0  0
  146.3702  138.7388  153.0097 C   0  0  0  0  0  0  0  0  0  0  0  0
  151.8412  143.6949  162.7764 H   0  0  0  0  0  0  0  0  0  0  0  0
  153.5605  143.3469  162.8907 H   0  0  0  0  0  0  0  0  0  0  0  0
  152.3712  142.1025  163.3113 H   0  0  0  0  0  0  0  0  0  0  0  0
  154.4830  141.7376  161.0965 H   0  0  0  0  0  0  0  0  0  0  0  0
  153.2733  140.6497  161.7320 H   0  0  0  0  0  0  0  0  0  0  0  0
  152.1430  140.5785  159.4720 H   0  0  0  0  0  0  0  0  0  0  0  0
  153.3863  141.6187  158.8408 H   0  0  0  0  0  0  0  0  0  0  0  0
  154.7525  139.9097  158.4323 H   0  0  0  0  0  0  0  0  0  0  0  0
  155.7120  138.4370  160.0869 H   0  0  0  0  0  0  0  0  0  0  0  0
  155.5597  140.0138  160.8130 H   0  0  0  0  0  0  0  0  0  0  0  0
  154.2116  136.6861  160.7480 H   0  0  0  0  0  0  0  0  0  0  0  0
  152.9288  137.0547  161.8845 H   0  0  0  0  0  0  0  0  0  0  0  0
  152.0888  136.8805  159.5118 H   0  0  0  0  0  0  0  0  0  0  0  0
  151.7472  138.4470  160.2295 H   0  0  0  0  0  0  0  0  0  0  0  0
  153.6229  138.9184  154.4459 H   0  0  0  0  0  0  0  0  0  0  0  0
  148.1688  138.1525  157.7800 H   0  0  0  0  0  0  0  0  0  0  0  0
  148.8064  137.5736  154.3023 H   0  0  0  0  0  0  0  0  0  0  0  0
  147.5552  138.1453  155.3791 H   0  0  0  0  0  0  0  0  0  0  0  0
  149.6982  139.7508  152.6873 H   0  0  0  0  0  0  0  0  0  0  0  0
  147.4605  140.6714  155.8506 H   0  0  0  0  0  0  0  0  0  0  0  0
  149.0681  141.3464  155.5960 H   0  0  0  0  0  0  0  0  0  0  0  0
  146.9591  142.6864  154.6218 H   0  0  0  0  0  0  0  0  0  0  0  0
  148.2986  142.4096  153.4965 H   0  0  0  0  0  0  0  0  0  0  0  0
  147.9105  139.9269  152.1008 H   0  0  0  0  0  0  0  0  0  0  0  0
  146.8242  137.7673  152.8136 H   0  0  0  0  0  0  0  0  0  0  0  0
  145.6596  138.9333  152.2060 H   0  0  0  0  0  0  0  0  0  0  0  0
  145.8014  138.6703  153.9374 H   0  0  0  0  0  0  0  0  0  0  0  0
  1  2  1  0  0  0  0
  1 28  1  0  0  0  0
  1 29  1  0  0  0  0
  1 30  1  0  0  0  0
  2  3  1  0  0  0  0
  3  4  1  0  0  0  0
  3 31  1  0  0  0  0
  3 32  1  0  0  0  0
  4  5  1  0  0  0  0
  4 33  1  0  0  0  0
  4 34  1  0  0  0  0
  5 10  1  0  0  0  0
  5  6  1  0  0  0  0
  5 35  1  0  0  0  0
  6  7  1  0  0  0  0
  6 36  1  0  0  0  0
  6 37  1  0  0  0  0
  7  8  1  0  0  0  0
  8  9  1  0  0  0  0
  8 38  1  0  0  0  0
  8 39  1  0  0  0  0
  9 10  1  0  0  0  0
  9 40  1  0  0  0  0
  9 41  1  0  0  0  0
 10 11  1  0  0  0  0
 11 16  1  0  0  0  0
 11 12  2  0  0  0  0
 12 13  1  0  0  0  0
 13 14  2  0  0  0  0
 13 42  1  0  0  0  0
 14 15  1  0  0  0  0
 15 19  1  0  0  0  0
 15 16  2  0  0  0  0
 16 17  1  0  0  0  0
 17 18  2  0  0  0  0
 18 19  1  0  0  0  0
 18 43  1  0  0  0  0
 19 20  1  0  0  0  0
 20 21  1  0  0  0  0
 20 44  1  0  0  0  0
 20 45  1  0  0  0  0
 21 26  1  0  0  0  0
 21 22  1  0  0  0  0
 21 23  1  0  0  0  0
 22 46  1  0  0  0  0
 23 24  1  0  0  0  0
 23 47  1  0  0  0  0
 23 48  1  0  0  0  0
 24 25  1  0  0  0  0
 24 49  1  0  0  0  0
 24 50  1  0  0  0  0
 25 26  1  0  0  0  0
 26 27  1  0  0  0  0
 26 51  1  0  0  0  0
 27 52  1  0  0  0  0
 27 53  1  0  0  0  0
 27 54  1  0  0  0  0
M  END
> <s_m_source_file>
AV-unprocessed.smi

> <i_m_source_file_index>
197

> <i_lp_mmshare_version>
43012

> <i_f3d_flags>
0

> <s_epik_input>
W0NIM11PW0NIMl1bQ0gyXVtDQEBIXTFbQ0gyXU9bQ0gyXVtDSDJdTjFjKG5bY0hdbjIpYyhjMjMpbltjSF1uM1tDSDJdW0NAQF00KFtPSF0pW0NIMl1bQ0gyXU9bQ0BIXTRbQ0gzXQ==

> <s_epik_cmdline>
J2VwaWtfcHl0aG9uJywgJy1waCcsICc3LjAnLCAnLXRuJywgJzgnLCAnLW1hJywgJzIwMCcsICctbWV0YWxfYmluZGluZycsICctaW1hZScsICc8aW5maWxlLm1hZT4nLCAnLW9tYWUnLCAnPG91dGZpbGUubWFlPic=

> <r_lp_tautomer_probability>
1

> <r_epik_Ionization_Penalty>
0.000106218

> <r_epik_Ionization_Penalty_Charging>
0

> <r_epik_Ionization_Penalty_Neutral>
0.000106218

> <r_epik_State_Penalty>
-0

> <r_epik_Charging_Adjusted_Penalty>
0

> <i_epik_Tot_Q>
0

> <i_epik_Tot_abs_Q>
0

> <r_epik_Metal_State_Penalty>
-0

> <b_epik_Metal_Only>
0

> <s_lp_Force_Field>
OPLS_2005

> <r_lp_Energy>
41.9523

> <b_lp_Chiralities_Consistent>
1

> <s_lp_Variant>
AV-unprocessed.smi:197-8

> <Gold.Version>
5.8.1

> <Gold.Id.Protein>
6NUR|6NUR_protein|mol2

> <Gold.PLP.Fitness>
42.9229

> <Gold.PLP.PLP>
-37.1482

> <Gold.PLP.part.hbond>
-2.6395

> <Gold.PLP.part.metal>
0.0000

> <Gold.PLP.part.buried>
-2.3447

> <Gold.PLP.part.nonpolar>
-32.1947

> <Gold.PLP.part.repulsive>
0.3024

> <Gold.PLP.ligand.clash>
0.0000

> <Gold.PLP.ligand.torsion>
1.1072

> <Gold.PLP.Chemscore.Hbond>
2.4866

> <Gold.PLP.Chemscore.CHOScore>
0.0000

> <Gold.PLP.Chemscore.Metal>
0.0000

> <Gold.Chemscore.Hbonds>
donor molecule, donor type, donor heavy atom, donor atom, acceptor molecule, acceptor atom, score
      L1  H    22    46       P1  7957  1.00
      P1  H  7989  7998       L1    22  0.45
      P1  H  7997  8009       L1    12  0.93

> <Gold.PLP.Chemscore.Internal.Correction>
0.5293

> <Gold.Rescore>
     Score         DG    S(hbond)    S(metal)    S(lipo)     H(rot)  DE(clash)    DE(int)     intcor
      9.31     -13.06       1.28        0.00      90.45       2.84       0.14       3.61       ----

> <Gold.Chemscore.Fitness>
9.3129

> <Gold.Chemscore.DG>
-13.0634

> <Gold.Chemscore.ZeroCoef>
-5.4800

> <Gold.Chemscore.Hbond>
1.2757

> <Gold.Chemscore.Metal>
0.0000

> <Gold.Chemscore.Lipo>
90.4459

> <Gold.Chemscore.Internal_Hbond>
0.0000

> <Gold.Chemscore.DEClash>
0.1365

> <Gold.Chemscore.DEInternal>
3.6139

> <Gold.Chemscore.Rot>
2.8358

> <Gold.Chemscore.Internal.Correction>
   9.000000E+99

> <Gold.Chemscore.Hbonds>
donor molecule, donor type, donor heavy atom, donor atom, acceptor molecule, acceptor atom, score
      L1  H    22    46       P1  7957  0.94
      P1  H  7989  7998       L1    22  0.04
      P1  H  7997  8009       L1    12  0.24

> <Gold.Chemscore.Hbond.Weighted>
-4.2607

> <Gold.Chemscore.Metal.Weighted>
-0.0000

> <Gold.Chemscore.Lipo.Weighted>
-10.5822

> <Gold.Chemscore.Internal_Hbond.Weighted>
0.0000

> <Gold.Chemscore.DEClash.Weighted>
0.1365

> <Gold.Chemscore.DEInternal.Weighted>
3.6139

> <Gold.Chemscore.Rot.Weighted>
7.2596

> <Gold.Chemscore.Internal.Correction.Weighted>
   9.000000E+99

> <Gold.Protein.RotatedTorsions>
[ 6907 6896 6895 6894 ] final  116.06 input  -60.11 | X-H torsion
[ 7974 7965 7964 7962 ] final -106.99 input  175.53 | X-H torsion
[ 8008 7997 7996 7995 ] final -170.83 input   59.86 | X-H torsion
[ 10167 10162 10161 10158 ] final  177.00 input  -65.29 | X-H torsion
[ 10718 10713 10712 10709 ] final -170.81 input   66.30 | X-H torsion
[ 10763 10752 10751 10750 ] final   37.27 input  -60.55 | X-H torsion
[ 11005 11000 10999 10996 ] final  -66.99 input  -57.11 | X-H torsion

> <Gold.Protein.ActiveResidues>
 VAL166  LYS551  ARG553  GLY616  TRP617  ASP618  TYR619  PRO620  LYS621  CYS622 
 ASP623  PHE694  ASN695  SER759  ASP760  ASP761  ALA762  ILE779  LEU786  VAL792 
 PHE793  MET794  SER795  GLU796  ALA797  LYS798  CYS799  TRP800  GLU811  SER814 

> <Gold.Protein.RotatedAtoms>
  152.4702  133.8013  159.6953 H   0  0  0  0  0  0  0  0  0  0  0  0  # atno 6907 bound_to 6896
  150.8687  133.7527  159.2974 H   0  0  0  0  0  0  0  0  0  0  0  0  # atno 6908 bound_to 6896
  151.5069  135.1067  159.9895 H   0  0  0  0  0  0  0  0  0  0  0  0  # atno 6909 bound_to 6896
  145.2109  140.9096  143.3315 H   0  0  0  0  0  0  0  0  0  0  0  0  # atno 7974 bound_to 7965
  155.9235  140.1078  157.1188 H   0  0  0  0  0  0  0  0  0  0  0  0  # atno 8008 bound_to 7997
  154.4058  140.1251  156.4776 H   0  0  0  0  0  0  0  0  0  0  0  0  # atno 8009 bound_to 7997
  155.7166  140.3470  155.5000 H   0  0  0  0  0  0  0  0  0  0  0  0  # atno 8010 bound_to 7997
  139.5236  144.2849  152.0514 H   0  0  0  0  0  0  0  0  0  0  0  0  # atno 10167 bound_to 10162
  156.7317  130.9309  151.3105 H   0  0  0  0  0  0  0  0  0  0  0  0  # atno 10718 bound_to 10713
  153.0044  135.6282  154.2118 H   0  0  0  0  0  0  0  0  0  0  0  0  # atno 10763 bound_to 10752
  154.1862  135.2811  155.3038 H   0  0  0  0  0  0  0  0  0  0  0  0  # atno 10764 bound_to 10752
  154.5796  135.5651  153.7232 H   0  0  0  0  0  0  0  0  0  0  0  0  # atno 10765 bound_to 10752
  141.1496  133.6710  156.6223 H   0  0  0  0  0  0  0  0  0  0  0  0  # atno 11005 bound_to 11000
  144.9856  139.3739  143.6240 LP  0  0  0  0  0  0  0  0  0  0  0  0  # atno 17320 bound_to 7965
  146.3397  139.9017  142.8793 LP  0  0  0  0  0  0  0  0  0  0  0  0  # atno 17321 bound_to 7965
  140.2302  144.4376  150.6303 LP  0  0  0  0  0  0  0  0  0  0  0  0  # atno 17342 bound_to 10162
  140.6360  143.2195  151.6394 LP  0  0  0  0  0  0  0  0  0  0  0  0  # atno 17343 bound_to 10162
  157.6856  130.9182  150.0378 LP  0  0  0  0  0  0  0  0  0  0  0  0  # atno 17370 bound_to 10713
  156.1525  130.3642  149.9418 LP  0  0  0  0  0  0  0  0  0  0  0  0  # atno 17371 bound_to 10713
  140.3530  134.7752  157.4481 LP  0  0  0  0  0  0  0  0  0  0  0  0  # atno 17394 bound_to 11000
  140.0845  134.5685  155.8506 LP  0  0  0  0  0  0  0  0  0  0  0  0  # atno 17395 bound_to 11000

$$$$
