AV-unprocessed.smi:1538|AV-procd|sdf|6195|dock7
  -GOLD-   22720 6363D 1   1.00000     0.00000
 Structure written by MMmdl.
 36 37  0  0  0  0  0  0  0  0  1 V2000
  153.2360  142.9180  163.4079 C   0  0  0  0  0  0  0  0  0  0  0  0
  152.9028  142.9790  161.9836 N   0  0  0  0  0  0  0  0  0  0  0  0
  152.1952  144.1967  161.5630 C   0  0  0  0  0  0  0  0  0  0  0  0
  151.4915  144.0597  160.2068 C   0  0  0  0  0  0  0  0  0  0  0  0
  152.4495  143.4467  159.1774 C   0  0  2  0  0  0  0  0  0  0  0  0
  151.7840  143.3610  157.7969 C   0  0  0  0  0  0  0  0  0  0  0  0
  151.7493  144.3471  157.0600 O   0  0  0  0  0  0  0  0  0  0  0  0
  151.2574  142.1737  157.4596 N   0  0  0  0  0  0  0  0  0  0  0  0
  150.5753  141.8873  156.2033 C   0  0  0  0  0  0  0  0  0  0  0  0
  149.2983  141.0617  156.4299 C   0  0  0  0  0  0  0  0  0  0  0  0
  148.3856  141.1793  155.3115 N   0  0  0  0  0  0  0  0  0  0  0  0
  147.0867  141.6693  155.3390 C   0  0  0  0  0  0  0  0  0  0  0  0
  146.6107  141.5926  154.0495 C   0  0  0  0  0  0  0  0  0  0  0  0
  147.5942  141.0627  153.2174 N   0  0  0  0  0  0  0  0  0  0  0  0
  148.6159  140.8432  154.0350 C   0  0  0  0  0  0  0  0  0  0  0  0
  152.9044  142.0540  159.6585 C   0  0  0  0  0  0  0  0  0  0  0  0
  153.3017  141.9936  161.1432 C   0  0  0  0  0  0  0  0  0  0  0  0
  153.9525  141.0214  161.5276 O   0  0  0  0  0  0  0  0  0  0  0  0
  154.3100  142.7896  163.5515 H   0  0  0  0  0  0  0  0  0  0  0  0
  152.7249  142.0794  163.8827 H   0  0  0  0  0  0  0  0  0  0  0  0
  152.9463  143.8259  163.9382 H   0  0  0  0  0  0  0  0  0  0  0  0
  151.4592  144.4820  162.3160 H   0  0  0  0  0  0  0  0  0  0  0  0
  152.9231  145.0075  161.5153 H   0  0  0  0  0  0  0  0  0  0  0  0
  150.6073  143.4301  160.3210 H   0  0  0  0  0  0  0  0  0  0  0  0
  151.1373  145.0367  159.8748 H   0  0  0  0  0  0  0  0  0  0  0  0
  153.3283  144.0902  159.0996 H   0  0  0  0  0  0  0  0  0  0  0  0
  151.3315  141.4154  158.1224 H   0  0  0  0  0  0  0  0  0  0  0  0
  150.3439  142.8182  155.6826 H   0  0  0  0  0  0  0  0  0  0  0  0
  151.2652  141.3370  155.5626 H   0  0  0  0  0  0  0  0  0  0  0  0
  149.5438  140.0081  156.5707 H   0  0  0  0  0  0  0  0  0  0  0  0
  148.7794  141.3901  157.3313 H   0  0  0  0  0  0  0  0  0  0  0  0
  146.6222  142.0230  156.2479 H   0  0  0  0  0  0  0  0  0  0  0  0
  145.6442  141.8762  153.6597 H   0  0  0  0  0  0  0  0  0  0  0  0
  149.5544  140.4285  153.6969 H   0  0  0  0  0  0  0  0  0  0  0  0
  152.1084  141.3219  159.5147 H   0  0  0  0  0  0  0  0  0  0  0  0
  153.7474  141.7138  159.0555 H   0  0  0  0  0  0  0  0  0  0  0  0
  1  2  1  0  0  0  0
  1 19  1  0  0  0  0
  1 20  1  0  0  0  0
  1 21  1  0  0  0  0
  2 17  1  0  0  0  0
  2  3  1  0  0  0  0
  3  4  1  0  0  0  0
  3 22  1  0  0  0  0
  3 23  1  0  0  0  0
  4  5  1  0  0  0  0
  4 24  1  0  0  0  0
  4 25  1  0  0  0  0
  5  6  1  0  0  0  0
  5 16  1  0  0  0  0
  5 26  1  0  0  0  0
  6  7  2  0  0  0  0
  6  8  1  0  0  0  0
  8  9  1  0  0  0  0
  8 27  1  0  0  0  0
  9 10  1  0  0  0  0
  9 28  1  0  0  0  0
  9 29  1  0  0  0  0
 10 11  1  0  0  0  0
 10 30  1  0  0  0  0
 10 31  1  0  0  0  0
 11 15  1  0  0  0  0
 11 12  1  0  0  0  0
 12 13  2  0  0  0  0
 12 32  1  0  0  0  0
 13 14  1  0  0  0  0
 13 33  1  0  0  0  0
 14 15  2  0  0  0  0
 15 34  1  0  0  0  0
 16 17  1  0  0  0  0
 16 35  1  0  0  0  0
 16 36  1  0  0  0  0
 17 18  2  0  0  0  0
M  END
> <s_m_source_file>
AV-unprocessed.smi

> <i_m_source_file_index>
1538

> <i_lp_mmshare_version>
43012

> <i_f3d_flags>
0

> <s_epik_input>
W0NIM11OMVtDSDJdW0NIMl1bQ0BIXShbQ0gyXUMxPU8pQyg9TylbTkhdW0NIMl1bQ0gyXW4yW2NIXVtjSF1uW2NIXTI=

> <s_epik_cmdline>
J2VwaWtfcHl0aG9uJywgJy1waCcsICc3LjAnLCAnLXRuJywgJzgnLCAnLW1hJywgJzIwMCcsICctbWV0YWxfYmluZGluZycsICctaW1hZScsICc8aW5maWxlLm1hZT4nLCAnLW9tYWUnLCAnPG91dGZpbGUubWFlPic=

> <r_lp_tautomer_probability>
1

> <r_epik_Ionization_Penalty>
0.590576

> <r_epik_Ionization_Penalty_Charging>
0.590576

> <r_epik_Ionization_Penalty_Neutral>
2.97775e-08

> <r_epik_State_Penalty>
0.604111

> <r_epik_Charging_Adjusted_Penalty>
1.19469

> <i_epik_Tot_Q>
0

> <i_epik_Tot_abs_Q>
0

> <r_epik_Metal_State_Penalty>
0.298544

> <b_epik_Metal_Only>
0

> <s_lp_Force_Field>
OPLS_2005

> <r_lp_Energy>
14.6501

> <b_lp_Chiralities_Consistent>
1

> <s_lp_Variant>
AV-unprocessed.smi:1538-4

> <Gold.Version>
5.8.1

> <Gold.Id.Protein>
6NUR|6NUR_protein|mol2

> <Gold.PLP.Fitness>
44.8887

> <Gold.PLP.PLP>
-41.8176

> <Gold.PLP.part.hbond>
0.0000

> <Gold.PLP.part.metal>
0.0000

> <Gold.PLP.part.buried>
-5.5331

> <Gold.PLP.part.nonpolar>
-37.2451

> <Gold.PLP.part.repulsive>
1.0784

> <Gold.PLP.ligand.clash>
0.0026

> <Gold.PLP.ligand.torsion>
0.8579

> <Gold.PLP.Chemscore.Hbond>
0.0000

> <Gold.PLP.Chemscore.CHOScore>
1.5935

> <Gold.PLP.Chemscore.Metal>
0.0000

> <Gold.Chemscore.Hbonds>
donor molecule, donor type, donor heavy atom, donor atom, acceptor molecule, acceptor atom, score
      L1  C    13    33       P1 10175  0.42
      L1  C    15    34       P1  7957  0.60

> <Gold.PLP.Chemscore.Internal.Correction>
0.0089

> <Gold.Rescore>
     Score         DG    S(hbond)    S(metal)    S(lipo)     H(rot)  DE(clash)    DE(int)     intcor
      9.41      -9.93       0.00        0.00      81.32       1.98       0.11       0.41       ----

> <Gold.Chemscore.Fitness>
9.4090

> <Gold.Chemscore.DG>
-9.9298

> <Gold.Chemscore.ZeroCoef>
-5.4800

> <Gold.Chemscore.Hbond>
0.0000

> <Gold.Chemscore.Metal>
0.0000

> <Gold.Chemscore.Lipo>
81.3171

> <Gold.Chemscore.Internal_Hbond>
0.0000

> <Gold.Chemscore.DEClash>
0.1107

> <Gold.Chemscore.DEInternal>
0.4101

> <Gold.Chemscore.Rot>
1.9782

> <Gold.Chemscore.Internal.Correction>
   9.000000E+99

> <Gold.Chemscore.Hbond.Weighted>
-0.0000

> <Gold.Chemscore.Metal.Weighted>
-0.0000

> <Gold.Chemscore.Lipo.Weighted>
-9.5141

> <Gold.Chemscore.Internal_Hbond.Weighted>
0.0000

> <Gold.Chemscore.DEClash.Weighted>
0.1107

> <Gold.Chemscore.DEInternal.Weighted>
0.4101

> <Gold.Chemscore.Rot.Weighted>
5.0643

> <Gold.Chemscore.Internal.Correction.Weighted>
   9.000000E+99

> <Gold.Protein.RotatedTorsions>
[ 6907 6896 6895 6894 ] final    9.75 input  -60.11 | X-H torsion
[ 7974 7965 7964 7962 ] final  -98.98 input  175.53 | X-H torsion
[ 8008 7997 7996 7995 ] final -165.51 input   59.86 | X-H torsion
[ 10167 10162 10161 10158 ] final   62.86 input  -65.29 | X-H torsion
[ 10718 10713 10712 10709 ] final  156.44 input   66.30 | X-H torsion
[ 10763 10752 10751 10750 ] final   96.86 input  -60.55 | X-H torsion
[ 11005 11000 10999 10996 ] final -128.59 input  -57.11 | X-H torsion

> <Gold.Protein.ActiveResidues>
 VAL166  LYS551  ARG553  GLY616  TRP617  ASP618  TYR619  PRO620  LYS621  CYS622 
 ASP623  PHE694  ASN695  SER759  ASP760  ASP761  ALA762  ILE779  LEU786  VAL792 
 PHE793  MET794  SER795  GLU796  ALA797  LYS798  CYS799  TRP800  GLU811  SER814 

> <Gold.Protein.RotatedAtoms>
  151.7272  135.0882  160.0293 H   0  0  0  0  0  0  0  0  0  0  0  0  # atno 6907 bound_to 6896
  152.3564  133.6238  159.5991 H   0  0  0  0  0  0  0  0  0  0  0  0  # atno 6908 bound_to 6896
  150.7574  133.9409  159.3497 H   0  0  0  0  0  0  0  0  0  0  0  0  # atno 6909 bound_to 6896
  145.3135  140.9405  143.2756 H   0  0  0  0  0  0  0  0  0  0  0  0  # atno 7974 bound_to 7965
  155.8508  140.0963  157.1676 H   0  0  0  0  0  0  0  0  0  0  0  0  # atno 8008 bound_to 7997
  154.3985  140.1383  156.3904 H   0  0  0  0  0  0  0  0  0  0  0  0  # atno 8009 bound_to 7997
  155.7963  140.3454  155.5380 H   0  0  0  0  0  0  0  0  0  0  0  0  # atno 8010 bound_to 7997
  140.1393  144.4568  150.6820 H   0  0  0  0  0  0  0  0  0  0  0  0  # atno 10167 bound_to 10162
  157.2050  131.0685  151.2003 H   0  0  0  0  0  0  0  0  0  0  0  0  # atno 10718 bound_to 10713
  153.2699  135.4204  155.0978 H   0  0  0  0  0  0  0  0  0  0  0  0  # atno 10763 bound_to 10752
  154.8452  135.3469  154.6258 H   0  0  0  0  0  0  0  0  0  0  0  0  # atno 10764 bound_to 10752
  153.6678  135.7045  153.5214 H   0  0  0  0  0  0  0  0  0  0  0  0  # atno 10765 bound_to 10752
  140.9504  134.1074  157.4068 H   0  0  0  0  0  0  0  0  0  0  0  0  # atno 11005 bound_to 11000
  144.8997  139.4666  143.6638 LP  0  0  0  0  0  0  0  0  0  0  0  0  # atno 17320 bound_to 7965
  146.3109  139.7743  142.9020 LP  0  0  0  0  0  0  0  0  0  0  0  0  # atno 17321 bound_to 7965
  140.6770  143.2309  151.5482 LP  0  0  0  0  0  0  0  0  0  0  0  0  # atno 17342 bound_to 10162
  139.5480  144.2470  152.1478 LP  0  0  0  0  0  0  0  0  0  0  0  0  # atno 17343 bound_to 10162
  157.3729  130.7191  149.6577 LP  0  0  0  0  0  0  0  0  0  0  0  0  # atno 17370 bound_to 10713
  155.9696  130.4194  150.4372 LP  0  0  0  0  0  0  0  0  0  0  0  0  # atno 17371 bound_to 10713
  139.8846  135.0064  156.6377 LP  0  0  0  0  0  0  0  0  0  0  0  0  # atno 17394 bound_to 11000
  140.7611  133.8817  155.8419 LP  0  0  0  0  0  0  0  0  0  0  0  0  # atno 17395 bound_to 11000

$$$$
