AV-unprocessed.smi:1495|AV-procd|sdf|6054|dock2
  -GOLD-   22720 6173D 1   1.00000     0.00000
 Structure written by MMmdl.
 40 41  0  0  0  0  0  0  0  0  1 V2000
  146.5283  138.6876  151.9187 C   0  0  0  0  0  0  0  0  0  0  0  0
  146.6622  138.4169  153.4221 C   0  0  0  0  0  0  0  0  0  0  0  0
  147.2080  139.6228  154.2023 C   0  0  1  0  0  0  0  0  0  0  0  0
  148.6516  139.9691  153.7906 C   0  0  0  0  0  0  0  0  0  0  0  0
  149.0837  141.1478  154.5549 N   0  0  0  0  0  0  0  0  0  0  0  0
  150.1419  141.2184  155.3979 C   0  0  0  0  0  0  0  0  0  0  0  0
  151.1097  140.4598  155.3334 O   0  0  0  0  0  0  0  0  0  0  0  0
  150.0791  142.2353  156.2722 N   0  0  0  0  0  0  0  0  0  0  0  0
  151.0328  142.5168  157.3404 C   0  0  0  0  0  0  0  0  0  0  0  0
  151.0669  141.3764  158.3736 C   0  0  0  0  0  0  0  0  0  0  0  0
  152.0217  141.6357  159.5037 C   0  0  0  0  0  0  0  0  0  0  0  0
  152.0400  142.7306  160.3319 C   0  0  0  0  0  0  0  0  0  0  0  0
  153.3444  142.6528  161.4834 S   0  0  0  0  0  0  0  0  0  0  0  0
  153.8192  141.1051  160.7939 C   0  0  0  0  0  0  0  0  0  0  0  0
  154.9808  140.3108  161.2840 C   0  0  0  0  0  0  0  0  0  0  0  0
  153.0394  140.7178  159.7816 N   0  0  0  0  0  0  0  0  0  0  0  0
  148.2283  142.2969  154.2530 C   0  0  0  0  0  0  0  0  0  0  0  0
  146.7815  141.9315  154.6317 C   0  0  0  0  0  0  0  0  0  0  0  0
  146.3789  140.7541  153.9352 O   0  0  0  0  0  0  0  0  0  0  0  0
  146.1288  137.8150  151.4020 H   0  0  0  0  0  0  0  0  0  0  0  0
  147.4936  138.9253  151.4709 H   0  0  0  0  0  0  0  0  0  0  0  0
  145.8550  139.5238  151.7286 H   0  0  0  0  0  0  0  0  0  0  0  0
  145.6816  138.1462  153.8155 H   0  0  0  0  0  0  0  0  0  0  0  0
  147.3064  137.5516  153.5822 H   0  0  0  0  0  0  0  0  0  0  0  0
  147.1796  139.3977  155.2702 H   0  0  0  0  0  0  0  0  0  0  0  0
  149.2972  139.1002  153.9201 H   0  0  0  0  0  0  0  0  0  0  0  0
  148.6917  140.2044  152.7258 H   0  0  0  0  0  0  0  0  0  0  0  0
  149.2682  142.8355  156.2282 H   0  0  0  0  0  0  0  0  0  0  0  0
  152.0350  142.7054  156.9533 H   0  0  0  0  0  0  0  0  0  0  0  0
  150.7145  143.4393  157.8266 H   0  0  0  0  0  0  0  0  0  0  0  0
  150.0615  141.2282  158.7698 H   0  0  0  0  0  0  0  0  0  0  0  0
  151.3257  140.4439  157.8709 H   0  0  0  0  0  0  0  0  0  0  0  0
  151.3741  143.5810  160.3259 H   0  0  0  0  0  0  0  0  0  0  0  0
  154.7250  139.2515  161.3233 H   0  0  0  0  0  0  0  0  0  0  0  0
  155.2678  140.6371  162.2838 H   0  0  0  0  0  0  0  0  0  0  0  0
  155.8313  140.4428  160.6147 H   0  0  0  0  0  0  0  0  0  0  0  0
  148.5257  143.1980  154.7912 H   0  0  0  0  0  0  0  0  0  0  0  0
  148.2967  142.5347  153.1906 H   0  0  0  0  0  0  0  0  0  0  0  0
  146.6901  141.7749  155.7077 H   0  0  0  0  0  0  0  0  0  0  0  0
  146.1054  142.7451  154.3688 H   0  0  0  0  0  0  0  0  0  0  0  0
  1  2  1  0  0  0  0
  1 20  1  0  0  0  0
  1 21  1  0  0  0  0
  1 22  1  0  0  0  0
  2  3  1  0  0  0  0
  2 23  1  0  0  0  0
  2 24  1  0  0  0  0
  3 19  1  0  0  0  0
  3  4  1  0  0  0  0
  3 25  1  0  0  0  0
  4  5  1  0  0  0  0
  4 26  1  0  0  0  0
  4 27  1  0  0  0  0
  5  6  1  0  0  0  0
  5 17  1  0  0  0  0
  6  7  2  0  0  0  0
  6  8  1  0  0  0  0
  8  9  1  0  0  0  0
  8 28  1  0  0  0  0
  9 10  1  0  0  0  0
  9 29  1  0  0  0  0
  9 30  1  0  0  0  0
 10 11  1  0  0  0  0
 10 31  1  0  0  0  0
 10 32  1  0  0  0  0
 11 16  1  0  0  0  0
 11 12  2  0  0  0  0
 12 13  1  0  0  0  0
 12 33  1  0  0  0  0
 13 14  1  0  0  0  0
 14 15  1  0  0  0  0
 14 16  2  0  0  0  0
 15 34  1  0  0  0  0
 15 35  1  0  0  0  0
 15 36  1  0  0  0  0
 17 18  1  0  0  0  0
 17 37  1  0  0  0  0
 17 38  1  0  0  0  0
 18 19  1  0  0  0  0
 18 39  1  0  0  0  0
 18 40  1  0  0  0  0
M  END
> <s_m_source_file>
AV-unprocessed.smi

> <i_m_source_file_index>
1495

> <i_lp_mmshare_version>
43012

> <i_f3d_flags>
0

> <s_epik_input>
W0NIM11bQ0gyXVtDQEBIXTFbQ0gyXU4oW0NIMl1bQ0gyXU8xKUMoPU8pW05IXVtDSDJdW0NIMl1jMltjSF1zYyhuMilbQ0gzXQ==

> <s_epik_cmdline>
J2VwaWtfcHl0aG9uJywgJy1waCcsICc3LjAnLCAnLXRuJywgJzgnLCAnLW1hJywgJzIwMCcsICctbWV0YWxfYmluZGluZycsICctaW1hZScsICc8aW5maWxlLm1hZT4nLCAnLW9tYWUnLCAnPG91dGZpbGUubWFlPic=

> <r_epik_Ionization_Penalty>
0.00206013

> <r_epik_Ionization_Penalty_Charging>
0

> <r_epik_Ionization_Penalty_Neutral>
0.00206013

> <r_epik_State_Penalty>
0.00138662

> <r_epik_Charging_Adjusted_Penalty>
0.00138662

> <i_epik_Tot_Q>
0

> <i_epik_Tot_abs_Q>
0

> <r_epik_Metal_State_Penalty>
-0

> <b_epik_Metal_Only>
0

> <s_lp_Force_Field>
OPLS_2005

> <r_lp_Energy>
24.1464

> <b_lp_Chiralities_Consistent>
1

> <s_lp_Variant>
AV-unprocessed.smi:1495-2

> <Gold.Version>
5.8.1

> <Gold.Id.Protein>
6NUR|6NUR_protein|mol2

> <Gold.PLP.Fitness>
40.7121

> <Gold.PLP.PLP>
-36.7287

> <Gold.PLP.part.hbond>
-2.0000

> <Gold.PLP.part.metal>
0.0000

> <Gold.PLP.part.buried>
1.3743

> <Gold.PLP.part.nonpolar>
-36.2507

> <Gold.PLP.part.repulsive>
0.6072

> <Gold.PLP.ligand.clash>
0.3691

> <Gold.PLP.ligand.torsion>
0.2620

> <Gold.PLP.Chemscore.Hbond>
1.6144

> <Gold.PLP.Chemscore.CHOScore>
0.0000

> <Gold.PLP.Chemscore.Metal>
0.0000

> <Gold.Chemscore.Hbonds>
donor molecule, donor type, donor heavy atom, donor atom, acceptor molecule, acceptor atom, score
      L1  H     8    28       P1  8028  0.74
      P1  H  7989  7998       L1     7  0.82

> <Gold.PLP.Chemscore.Internal.Correction>
0.0332

> <Gold.Rescore>
     Score         DG    S(hbond)    S(metal)    S(lipo)     H(rot)  DE(clash)    DE(int)     intcor
     15.16     -17.11       1.11        0.00      98.94       1.42       1.71       0.25       ----

> <Gold.Chemscore.Fitness>
15.1580

> <Gold.Chemscore.DG>
-17.1110

> <Gold.Chemscore.ZeroCoef>
-5.4800

> <Gold.Chemscore.Hbond>
1.1060

> <Gold.Chemscore.Metal>
0.0000

> <Gold.Chemscore.Lipo>
98.9369

> <Gold.Chemscore.Internal_Hbond>
0.0000

> <Gold.Chemscore.DEClash>
1.7077

> <Gold.Chemscore.DEInternal>
0.2453

> <Gold.Chemscore.Rot>
1.4214

> <Gold.Chemscore.Internal.Correction>
   9.000000E+99

> <Gold.Chemscore.Hbonds>
donor molecule, donor type, donor heavy atom, donor atom, acceptor molecule, acceptor atom, score
      L1  H     8    28       P1  8028  0.71
      P1  H  7989  7998       L1     7  0.13

> <Gold.Chemscore.Hbond.Weighted>
-3.6942

> <Gold.Chemscore.Metal.Weighted>
-0.0000

> <Gold.Chemscore.Lipo.Weighted>
-11.5756

> <Gold.Chemscore.Internal_Hbond.Weighted>
0.0000

> <Gold.Chemscore.DEClash.Weighted>
1.7077

> <Gold.Chemscore.DEInternal.Weighted>
0.2453

> <Gold.Chemscore.Rot.Weighted>
3.6388

> <Gold.Chemscore.Internal.Correction.Weighted>
   9.000000E+99

> <Gold.Protein.RotatedTorsions>
[ 6907 6896 6895 6894 ] final   57.05 input  -60.11 | X-H torsion
[ 7974 7965 7964 7962 ] final   81.68 input  175.53 | X-H torsion
[ 8008 7997 7996 7995 ] final -172.66 input   59.86 | X-H torsion
[ 10167 10162 10161 10158 ] final -161.51 input  -65.29 | X-H torsion
[ 10718 10713 10712 10709 ] final   52.98 input   66.30 | X-H torsion
[ 10763 10752 10751 10750 ] final -161.62 input  -60.55 | X-H torsion
[ 11005 11000 10999 10996 ] final  161.64 input  -57.11 | X-H torsion

> <Gold.Protein.ActiveResidues>
 VAL166  LYS551  ARG553  GLY616  TRP617  ASP618  TYR619  PRO620  LYS621  CYS622 
 ASP623  PHE694  ASN695  SER759  ASP760  ASP761  ALA762  ILE779  LEU786  VAL792 
 PHE793  MET794  SER795  GLU796  ALA797  LYS798  CYS799  TRP800  GLU811  SER814 

> <Gold.Protein.RotatedAtoms>
  152.3694  134.6756  160.0180 H   0  0  0  0  0  0  0  0  0  0  0  0  # atno 6907 bound_to 6896
  151.7053  133.3306  159.3285 H   0  0  0  0  0  0  0  0  0  0  0  0  # atno 6908 bound_to 6896
  150.7662  134.6514  159.6335 H   0  0  0  0  0  0  0  0  0  0  0  0  # atno 6909 bound_to 6896
  145.6350  139.2413  143.2063 H   0  0  0  0  0  0  0  0  0  0  0  0  # atno 7974 bound_to 7965
  155.9475  140.1120  157.1005 H   0  0  0  0  0  0  0  0  0  0  0  0  # atno 8008 bound_to 7997
  154.4102  140.1207  156.5074 H   0  0  0  0  0  0  0  0  0  0  0  0  # atno 8009 bound_to 7997
  155.6885  140.3473  155.4886 H   0  0  0  0  0  0  0  0  0  0  0  0  # atno 8010 bound_to 7997
  139.6460  144.0172  152.2127 H   0  0  0  0  0  0  0  0  0  0  0  0  # atno 10167 bound_to 10162
  157.5125  130.8510  149.8453 H   0  0  0  0  0  0  0  0  0  0  0  0  # atno 10718 bound_to 10713
  154.7287  135.3041  154.8928 H   0  0  0  0  0  0  0  0  0  0  0  0  # atno 10763 bound_to 10752
  153.9777  135.6734  153.4753 H   0  0  0  0  0  0  0  0  0  0  0  0  # atno 10764 bound_to 10752
  153.0898  135.4965  154.8588 H   0  0  0  0  0  0  0  0  0  0  0  0  # atno 10765 bound_to 10752
  140.2178  134.8219  157.3188 H   0  0  0  0  0  0  0  0  0  0  0  0  # atno 11005 bound_to 11000
  146.1326  140.7165  142.9405 LP  0  0  0  0  0  0  0  0  0  0  0  0  # atno 17320 bound_to 7965
  144.7179  140.4272  143.7030 LP  0  0  0  0  0  0  0  0  0  0  0  0  # atno 17321 bound_to 7965
  139.9874  144.6386  150.7845 LP  0  0  0  0  0  0  0  0  0  0  0  0  # atno 17342 bound_to 10162
  140.7514  143.2973  151.3172 LP  0  0  0  0  0  0  0  0  0  0  0  0  # atno 17343 bound_to 10162
  156.0298  130.3768  150.1719 LP  0  0  0  0  0  0  0  0  0  0  0  0  # atno 17370 bound_to 10713
  156.9908  130.9893  151.3415 LP  0  0  0  0  0  0  0  0  0  0  0  0  # atno 17371 bound_to 10713
  140.1882  134.4405  155.7731 LP  0  0  0  0  0  0  0  0  0  0  0  0  # atno 17394 bound_to 11000
  141.2224  133.7015  156.7983 LP  0  0  0  0  0  0  0  0  0  0  0  0  # atno 17395 bound_to 11000

$$$$
