AV-unprocessed.smi:1524|AV-procd|sdf|6140|dock10
  -GOLD-   22720 6283D 1   1.00000     0.00000
 Structure written by MMmdl.
 34 35  0  0  0  0  0  0  0  0  2 V2000
  149.1094  136.6104  156.4608 O   0  0  0  0  0  0  0  0  0  0  0  0
  149.3252  136.4913  155.2566 C   0  0  0  0  0  0  0  0  0  0  0  0
  149.7536  135.3666  154.6478 N   0  0  0  0  0  0  0  0  0  0  0  0
  150.1095  134.1252  155.2008 C   0  0  0  0  0  0  0  0  0  0  0  0
  149.7760  132.9140  154.6748 C   0  0  0  0  0  0  0  0  0  0  0  0
  150.1612  131.6585  155.3077 C   0  0  0  0  0  0  0  0  0  0  0  0
  149.8197  130.2841  154.7618 C   0  0  0  0  0  0  0  0  0  0  0  0
  149.0852  129.6082  155.6445 F   0  0  0  0  0  0  0  0  0  0  0  0
  149.1129  130.3965  153.6377 F   0  0  0  0  0  0  0  0  0  0  0  0
  150.9184  129.5763  154.4991 F   0  0  0  0  0  0  0  0  0  0  0  0
  150.8688  131.8540  156.4769 C   0  0  0  0  0  0  0  0  0  0  0  0
  151.2307  133.0133  157.0687 N   0  5  0  0  0  0  0  0  0  0  0  0
  150.8711  134.1819  156.4660 C   0  0  0  0  0  0  0  0  0  0  0  0
  151.1658  135.2746  156.9521 O   0  0  0  0  0  0  0  0  0  0  0  0
  149.1151  137.5204  154.4151 N   0  0  0  0  0  0  0  0  0  0  0  0
  148.6536  138.8749  154.7299 C   0  0  0  0  0  0  0  0  0  0  0  0
  147.6555  139.3789  153.6713 C   0  0  0  0  0  0  0  0  0  0  0  0
  147.3117  140.8587  153.9058 C   0  0  0  0  0  0  0  0  0  0  0  0
  148.5005  141.6420  153.9138 O   0  0  0  0  0  0  0  0  0  0  0  0
  149.3911  141.2832  154.9646 C   0  0  0  0  0  0  0  0  0  0  0  0
  149.8564  139.8291  154.7850 C   0  0  0  0  0  0  0  0  0  0  0  0
  149.8096  135.4002  153.6403 H   0  0  0  0  0  0  0  0  0  0  0  0
  149.1915  132.8467  153.7725 H   0  0  0  0  0  0  0  0  0  0  0  0
  151.1914  130.9381  157.0168 H   0  0  0  0  0  0  0  0  0  0  0  0
  149.2661  137.3300  153.4351 H   0  0  0  0  0  0  0  0  0  0  0  0
  148.1751  138.8846  155.7110 H   0  0  0  0  0  0  0  0  0  0  0  0
  148.0846  139.2653  152.6748 H   0  0  0  0  0  0  0  0  0  0  0  0
  146.7430  138.7819  153.6874 H   0  0  0  0  0  0  0  0  0  0  0  0
  146.6576  141.2205  153.1123 H   0  0  0  0  0  0  0  0  0  0  0  0
  146.7723  140.9877  154.8454 H   0  0  0  0  0  0  0  0  0  0  0  0
  150.2487  141.9558  154.9439 H   0  0  0  0  0  0  0  0  0  0  0  0
  148.9041  141.4194  155.9315 H   0  0  0  0  0  0  0  0  0  0  0  0
  150.5255  139.5482  155.5993 H   0  0  0  0  0  0  0  0  0  0  0  0
  150.4361  139.7513  153.8638 H   0  0  0  0  0  0  0  0  0  0  0  0
  1  2  2  0  0  0  0
  2  3  1  0  0  0  0
  2 15  1  0  0  0  0
  3  4  1  0  0  0  0
  3 22  1  0  0  0  0
  4 13  1  0  0  0  0
  4  5  2  0  0  0  0
  5  6  1  0  0  0  0
  5 23  1  0  0  0  0
  6  7  1  0  0  0  0
  6 11  2  0  0  0  0
  7  8  1  0  0  0  0
  7  9  1  0  0  0  0
  7 10  1  0  0  0  0
 11 12  1  0  0  0  0
 11 24  1  0  0  0  0
 12 13  1  0  0  0  0
 13 14  2  0  0  0  0
 15 16  1  0  0  0  0
 15 25  1  0  0  0  0
 16 21  1  0  0  0  0
 16 17  1  0  0  0  0
 16 26  1  0  0  0  0
 17 18  1  0  0  0  0
 17 27  1  0  0  0  0
 17 28  1  0  0  0  0
 18 19  1  0  0  0  0
 18 29  1  0  0  0  0
 18 30  1  0  0  0  0
 19 20  1  0  0  0  0
 20 21  1  0  0  0  0
 20 31  1  0  0  0  0
 20 32  1  0  0  0  0
 21 33  1  0  0  0  0
 21 34  1  0  0  0  0
M  CHG  1  12  -1
M  END
> <s_m_source_file>
AV-unprocessed.smi

> <i_m_source_file_index>
1524

> <i_lp_mmshare_version>
43012

> <i_f3d_flags>
0

> <s_epik_input>
W0NIMl0xW0NIMl1PW0NIMl1bQ0gyXVtDSF0xW05IXUMoPU8pW05IXWMyW2NIXWMoQyhGKShGKUYpW2NIXVtuSF1jMj1P

> <s_epik_cmdline>
J2VwaWtfcHl0aG9uJywgJy1waCcsICc3LjAnLCAnLXRuJywgJzgnLCAnLW1hJywgJzIwMCcsICctbWV0YWxfYmluZGluZycsICctaW1hZScsICc8aW5maWxlLm1hZT4nLCAnLW9tYWUnLCAnPG91dGZpbGUubWFlPic=

> <r_lp_tautomer_probability>
1

> <r_epik_Ionization_Penalty>
3.17101

> <r_epik_Ionization_Penalty_Charging>
0.175581

> <r_epik_Ionization_Penalty_Neutral>
2.99543

> <r_epik_State_Penalty>
2.99161

> <r_epik_Charging_Adjusted_Penalty>
3.16719

> <i_epik_Tot_Q>
-1

> <i_epik_Tot_abs_Q>
1

> <r_epik_Metal_State_Penalty>
0.453119

> <b_epik_Metal_Only>
1

> <s_lp_Force_Field>
OPLS_2005

> <r_lp_Energy>
32.5819

> <b_lp_Chiralities_Consistent>
1

> <s_lp_Variant>
AV-unprocessed.smi:1524-2

> <Gold.Version>
5.8.1

> <Gold.Id.Protein>
6NUR|6NUR_protein|mol2

> <Gold.PLP.Fitness>
43.1127

> <Gold.PLP.PLP>
-31.9988

> <Gold.PLP.part.hbond>
-4.4914

> <Gold.PLP.part.metal>
0.0000

> <Gold.PLP.part.buried>
-3.4879

> <Gold.PLP.part.nonpolar>
-25.8009

> <Gold.PLP.part.repulsive>
0.2452

> <Gold.PLP.ligand.clash>
0.0000

> <Gold.PLP.ligand.torsion>
0.6037

> <Gold.PLP.Chemscore.Hbond>
4.1059

> <Gold.PLP.Chemscore.CHOScore>
0.0000

> <Gold.PLP.Chemscore.Metal>
0.0000

> <Gold.Chemscore.Hbonds>
donor molecule, donor type, donor heavy atom, donor atom, acceptor molecule, acceptor atom, score
      L1  H     3    22       P1  7948  0.43
      L1  H    15    25       P1  7948  1.00
      P1  H  6896  6909       L1    12  1.12
      P1  H  8011  8017       L1    19  0.38

> <Gold.PLP.Chemscore.Internal.Correction>
0.0036

> <Gold.Rescore>
     Score         DG    S(hbond)    S(metal)    S(lipo)     H(rot)  DE(clash)    DE(int)     intcor
     12.02     -16.92       2.38        0.00      51.80       1.00       0.09       4.81       ----

> <Gold.Chemscore.Fitness>
12.0166

> <Gold.Chemscore.DG>
-16.9163

> <Gold.Chemscore.ZeroCoef>
-5.4800

> <Gold.Chemscore.Hbond>
2.3761

> <Gold.Chemscore.Metal>
0.0000

> <Gold.Chemscore.Lipo>
51.7971

> <Gold.Chemscore.Internal_Hbond>
0.0000

> <Gold.Chemscore.DEClash>
0.0901

> <Gold.Chemscore.DEInternal>
4.8096

> <Gold.Chemscore.Rot>
1.0000

> <Gold.Chemscore.Internal.Correction>
   9.000000E+99

> <Gold.Chemscore.Hbonds>
donor molecule, donor type, donor heavy atom, donor atom, acceptor molecule, acceptor atom, score
      L1  H     3    22       P1  7948  0.02
      L1  H    15    25       P1  7948  0.94
      P1  H  6896  6909       L1    12  0.25
      P1  H  8011  8017       L1    19  0.19

> <Gold.Chemscore.Hbond.Weighted>
-7.9361

> <Gold.Chemscore.Metal.Weighted>
-0.0000

> <Gold.Chemscore.Lipo.Weighted>
-6.0603

> <Gold.Chemscore.Internal_Hbond.Weighted>
0.0000

> <Gold.Chemscore.DEClash.Weighted>
0.0901

> <Gold.Chemscore.DEInternal.Weighted>
4.8096

> <Gold.Chemscore.Rot.Weighted>
2.5600

> <Gold.Chemscore.Internal.Correction.Weighted>
   9.000000E+99

> <Gold.Protein.RotatedTorsions>
[ 6907 6896 6895 6894 ] final  -28.51 input  -60.11 | X-H torsion
[ 7974 7965 7964 7962 ] final   42.84 input  175.53 | X-H torsion
[ 8008 7997 7996 7995 ] final  -92.59 input   59.86 | X-H torsion
[ 10167 10162 10161 10158 ] final  -77.11 input  -65.29 | X-H torsion
[ 10718 10713 10712 10709 ] final  -97.31 input   66.30 | X-H torsion
[ 10763 10752 10751 10750 ] final  -43.38 input  -60.55 | X-H torsion
[ 11005 11000 10999 10996 ] final   78.20 input  -57.11 | X-H torsion

> <Gold.Protein.ActiveResidues>
 VAL166  LYS551  ARG553  GLY616  TRP617  ASP618  TYR619  PRO620  LYS621  CYS622 
 ASP623  PHE694  ASN695  SER759  ASP760  ASP761  ALA762  ILE779  LEU786  VAL792 
 PHE793  MET794  SER795  GLU796  ALA797  LYS798  CYS799  TRP800  GLU811  SER814 

> <Gold.Protein.RotatedAtoms>
  151.1320  135.0135  159.8586 H   0  0  0  0  0  0  0  0  0  0  0  0  # atno 6907 bound_to 6896
  152.5451  134.1599  159.8563 H   0  0  0  0  0  0  0  0  0  0  0  0  # atno 6908 bound_to 6896
  151.1667  133.4765  159.2627 H   0  0  0  0  0  0  0  0  0  0  0  0  # atno 6909 bound_to 6896
  146.0706  139.5254  142.9600 H   0  0  0  0  0  0  0  0  0  0  0  0  # atno 7974 bound_to 7965
  154.7250  140.0507  157.0674 H   0  0  0  0  0  0  0  0  0  0  0  0  # atno 8008 bound_to 7997
  155.0377  140.3165  155.4716 H   0  0  0  0  0  0  0  0  0  0  0  0  # atno 8009 bound_to 7997
  156.2826  140.2138  156.5500 H   0  0  0  0  0  0  0  0  0  0  0  0  # atno 8010 bound_to 7997
  140.4798  143.2405  151.8075 H   0  0  0  0  0  0  0  0  0  0  0  0  # atno 10167 bound_to 10162
  156.0081  130.5189  150.6355 H   0  0  0  0  0  0  0  0  0  0  0  0  # atno 10718 bound_to 10713
  153.9946  135.6701  153.4756 H   0  0  0  0  0  0  0  0  0  0  0  0  # atno 10763 bound_to 10752
  153.0690  135.4985  154.8259 H   0  0  0  0  0  0  0  0  0  0  0  0  # atno 10764 bound_to 10752
  154.7089  135.3093  154.9190 H   0  0  0  0  0  0  0  0  0  0  0  0  # atno 10765 bound_to 10752
  139.9223  134.7744  156.1619 H   0  0  0  0  0  0  0  0  0  0  0  0  # atno 11005 bound_to 11000
  145.6398  141.0286  143.1818 LP  0  0  0  0  0  0  0  0  0  0  0  0  # atno 17320 bound_to 7965
  144.7229  139.7970  143.7375 LP  0  0  0  0  0  0  0  0  0  0  0  0  # atno 17321 bound_to 7965
  139.4831  144.4787  151.9334 LP  0  0  0  0  0  0  0  0  0  0  0  0  # atno 17342 bound_to 10162
  140.3872  144.2661  150.5903 LP  0  0  0  0  0  0  0  0  0  0  0  0  # atno 17343 bound_to 10162
  157.4145  131.0828  151.1189 LP  0  0  0  0  0  0  0  0  0  0  0  0  # atno 17370 bound_to 10713
  157.1810  130.6309  149.5672 LP  0  0  0  0  0  0  0  0  0  0  0  0  # atno 17371 bound_to 10713
  141.0753  133.6778  156.2223 LP  0  0  0  0  0  0  0  0  0  0  0  0  # atno 17394 bound_to 11000
  140.6439  134.5137  157.5572 LP  0  0  0  0  0  0  0  0  0  0  0  0  # atno 17395 bound_to 11000

$$$$
