AV-unprocessed.smi:3349|AV-procd|sdf|12938|dock7
  -GOLD-   2272019373D 1   1.00000     0.00000
 Structure written by MMmdl.
 41 42  0  0  0  0  0  0  0  0  2 V2000
  146.9099  140.0240  152.1403 C   0  0  0  0  0  0  0  0  0  0  0  0
  147.0675  140.2721  153.6613 C   0  0  1  0  0  0  0  0  0  0  0  0
  148.5008  140.7704  153.9890 C   0  0  0  0  0  0  0  0  0  0  0  0
  148.7929  140.7663  155.4206 N   0  0  0  0  0  0  0  0  0  0  0  0
  150.0163  140.6945  155.9700 C   0  0  0  0  0  0  0  0  0  0  0  0
  151.0491  140.6075  155.3051 O   0  0  0  0  0  0  0  0  0  0  0  0
  150.0712  140.7206  157.5058 C   0  0  1  0  0  0  0  0  0  0  0  0
  150.4791  139.3651  158.1113 C   0  0  0  0  0  0  0  0  0  0  0  0
  150.9536  141.7823  157.9698 N   0  0  0  0  0  0  0  0  0  0  0  0
  150.9544  143.0957  157.7230 C   0  0  0  0  0  0  0  0  0  0  0  0
  151.9424  143.7527  158.3139 N   0  0  0  0  0  0  0  0  0  0  0  0
  152.5637  142.7118  158.9433 C   0  0  0  0  0  0  0  0  0  0  0  0
  152.0150  141.5100  158.7659 N   0  0  0  0  0  0  0  0  0  0  0  0
  146.0444  141.2228  154.2123 N   0  3  0  0  0  0  0  0  0  0  0  0
  145.8199  141.1380  155.6830 C   0  0  0  0  0  0  0  0  0  0  0  0
  144.7409  142.1337  156.1433 C   0  0  0  0  0  0  0  0  0  0  0  0
  145.1034  143.4515  155.7613 O   0  0  0  0  0  0  0  0  0  0  0  0
  145.2037  143.5719  154.3508 C   0  0  0  0  0  0  0  0  0  0  0  0
  146.3105  142.6387  153.8339 C   0  0  0  0  0  0  0  0  0  0  0  0
  147.6682  139.3416  151.7584 H   0  0  0  0  0  0  0  0  0  0  0  0
  146.9918  140.9529  151.5747 H   0  0  0  0  0  0  0  0  0  0  0  0
  145.9570  139.5551  151.8955 H   0  0  0  0  0  0  0  0  0  0  0  0
  146.9185  139.3084  154.1515 H   0  0  0  0  0  0  0  0  0  0  0  0
  149.2343  140.1810  153.4362 H   0  0  0  0  0  0  0  0  0  0  0  0
  148.6448  141.8000  153.6681 H   0  0  0  0  0  0  0  0  0  0  0  0
  148.0022  140.8366  156.0455 H   0  0  0  0  0  0  0  0  0  0  0  0
  149.0622  140.9441  157.8582 H   0  0  0  0  0  0  0  0  0  0  0  0
  149.8219  138.5645  157.7695 H   0  0  0  0  0  0  0  0  0  0  0  0
  150.4197  139.3936  159.1996 H   0  0  0  0  0  0  0  0  0  0  0  0
  151.5019  139.0945  157.8454 H   0  0  0  0  0  0  0  0  0  0  0  0
  150.2176  143.5802  157.0989 H   0  0  0  0  0  0  0  0  0  0  0  0
  153.4482  142.8432  159.5493 H   0  0  0  0  0  0  0  0  0  0  0  0
  145.4815  140.1429  155.9694 H   0  0  0  0  0  0  0  0  0  0  0  0
  146.7567  141.3315  156.2081 H   0  0  0  0  0  0  0  0  0  0  0  0
  143.7671  141.8742  155.7246 H   0  0  0  0  0  0  0  0  0  0  0  0
  144.6382  142.0984  157.2281 H   0  0  0  0  0  0  0  0  0  0  0  0
  144.2459  143.3426  153.8806 H   0  0  0  0  0  0  0  0  0  0  0  0
  145.4399  144.6069  154.1028 H   0  0  0  0  0  0  0  0  0  0  0  0
  147.2738  142.9497  154.2413 H   0  0  0  0  0  0  0  0  0  0  0  0
  146.3720  142.7562  152.7541 H   0  0  0  0  0  0  0  0  0  0  0  0
  145.1647  140.9663  153.7866 H   0  0  0  0  0  0  0  0  0  0  0  0
  1  2  1  0  0  0  0
  1 20  1  0  0  0  0
  1 21  1  0  0  0  0
  1 22  1  0  0  0  0
  2  3  1  0  0  0  0
  2 14  1  0  0  0  0
  2 23  1  0  0  0  0
  3  4  1  0  0  0  0
  3 24  1  0  0  0  0
  3 25  1  0  0  0  0
  4  5  1  0  0  0  0
  4 26  1  0  0  0  0
  5  6  2  0  0  0  0
  5  7  1  0  0  0  0
  7  8  1  0  0  0  0
  7  9  1  0  0  0  0
  7 27  1  0  0  0  0
  8 28  1  0  0  0  0
  8 29  1  0  0  0  0
  8 30  1  0  0  0  0
  9 13  1  0  0  0  0
  9 10  1  0  0  0  0
 10 11  2  0  0  0  0
 10 31  1  0  0  0  0
 11 12  1  0  0  0  0
 12 13  2  0  0  0  0
 12 32  1  0  0  0  0
 14 19  1  0  0  0  0
 14 15  1  0  0  0  0
 14 41  1  0  0  0  0
 15 16  1  0  0  0  0
 15 33  1  0  0  0  0
 15 34  1  0  0  0  0
 16 17  1  0  0  0  0
 16 35  1  0  0  0  0
 16 36  1  0  0  0  0
 17 18  1  0  0  0  0
 18 19  1  0  0  0  0
 18 37  1  0  0  0  0
 18 38  1  0  0  0  0
 19 39  1  0  0  0  0
 19 40  1  0  0  0  0
M  CHG  1  14   1
M  END
> <s_m_source_file>
AV-unprocessed.smi

> <i_m_source_file_index>
3349

> <i_lp_mmshare_version>
43012

> <i_f3d_flags>
0

> <s_epik_input>
W0NIMl0xW0NIMl1PW0NIMl1bQ0gyXU4xW0NASF0oW0NIM10pW0NIMl1bTkhdQyg9TylbQ0BIXShbQ0gzXSluMltjSF1uW2NIXW4y

> <s_epik_cmdline>
J2VwaWtfcHl0aG9uJywgJy1waCcsICc3LjAnLCAnLXRuJywgJzgnLCAnLW1hJywgJzIwMCcsICctbWV0YWxfYmluZGluZycsICctaW1hZScsICc8aW5maWxlLm1hZT4nLCAnLW9tYWUnLCAnPG91dGZpbGUubWFlPic=

> <r_lp_tautomer_probability>
1

> <r_epik_Ionization_Penalty>
0.71326

> <r_epik_Ionization_Penalty_Charging>
0.713252

> <r_epik_Ionization_Penalty_Neutral>
8.10337e-06

> <r_epik_State_Penalty>
0.737017

> <r_epik_Charging_Adjusted_Penalty>
1.45027

> <i_epik_Tot_Q>
1

> <i_epik_Tot_abs_Q>
1

> <r_epik_Metal_State_Penalty>
0.73702

> <b_epik_Metal_Only>
0

> <s_lp_Force_Field>
OPLS_2005

> <r_lp_Energy>
26.9228

> <b_lp_Chiralities_Consistent>
1

> <s_lp_Variant>
AV-unprocessed.smi:3349-8

> <Gold.Version>
5.8.1

> <Gold.Id.Protein>
6NUR|6NUR_protein|mol2

> <Gold.PLP.Fitness>
40.7234

> <Gold.PLP.PLP>
-29.9240

> <Gold.PLP.part.hbond>
-2.0000

> <Gold.PLP.part.metal>
0.0000

> <Gold.PLP.part.buried>
-3.1955

> <Gold.PLP.part.nonpolar>
-25.9816

> <Gold.PLP.part.repulsive>
0.3251

> <Gold.PLP.ligand.clash>
0.0000

> <Gold.PLP.ligand.torsion>
0.6003

> <Gold.PLP.Chemscore.Hbond>
2.9600

> <Gold.PLP.Chemscore.CHOScore>
1.0000

> <Gold.PLP.Chemscore.Metal>
0.0000

> <Gold.Chemscore.Hbonds>
donor molecule, donor type, donor heavy atom, donor atom, acceptor molecule, acceptor atom, score
      L1  H    14    41       P1 10175  2.00
      P1  H  7989  7998       L1     6  0.90
      L1  C    10    31       P1  8028  1.00

> <Gold.PLP.Chemscore.Internal.Correction>
0.1199

> <Gold.Rescore>
     Score         DG    S(hbond)    S(metal)    S(lipo)     H(rot)  DE(clash)    DE(int)     intcor
      8.55     -10.38       1.84        0.00      46.85       2.63       0.28       1.55       ----

> <Gold.Chemscore.Fitness>
8.5478

> <Gold.Chemscore.DG>
-10.3799

> <Gold.Chemscore.ZeroCoef>
-5.4800

> <Gold.Chemscore.Hbond>
1.8440

> <Gold.Chemscore.Metal>
0.0000

> <Gold.Chemscore.Lipo>
46.8488

> <Gold.Chemscore.Internal_Hbond>
0.0000

> <Gold.Chemscore.DEClash>
0.2815

> <Gold.Chemscore.DEInternal>
1.5505

> <Gold.Chemscore.Rot>
2.6329

> <Gold.Chemscore.Internal.Correction>
   9.000000E+99

> <Gold.Chemscore.Hbonds>
donor molecule, donor type, donor heavy atom, donor atom, acceptor molecule, acceptor atom, score
      L1  H    14    41       P1 10175  0.77
      P1  H  7989  7998       L1     6  0.88

> <Gold.Chemscore.Hbond.Weighted>
-6.1589

> <Gold.Chemscore.Metal.Weighted>
-0.0000

> <Gold.Chemscore.Lipo.Weighted>
-5.4813

> <Gold.Chemscore.Internal_Hbond.Weighted>
0.0000

> <Gold.Chemscore.DEClash.Weighted>
0.2815

> <Gold.Chemscore.DEInternal.Weighted>
1.5505

> <Gold.Chemscore.Rot.Weighted>
6.7403

> <Gold.Chemscore.Internal.Correction.Weighted>
   9.000000E+99

> <Gold.Protein.RotatedTorsions>
[ 6907 6896 6895 6894 ] final   72.82 input  -60.11 | X-H torsion
[ 7974 7965 7964 7962 ] final -147.84 input  175.53 | X-H torsion
[ 8008 7997 7996 7995 ] final  168.03 input   59.86 | X-H torsion
[ 10167 10162 10161 10158 ] final  108.91 input  -65.29 | X-H torsion
[ 10718 10713 10712 10709 ] final   10.84 input   66.30 | X-H torsion
[ 10763 10752 10751 10750 ] final  -46.55 input  -60.55 | X-H torsion
[ 11005 11000 10999 10996 ] final  119.30 input  -57.11 | X-H torsion

> <Gold.Protein.ActiveResidues>
 VAL166  LYS551  ARG553  GLY616  TRP617  ASP618  TYR619  PRO620  LYS621  CYS622 
 ASP623  PHE694  ASN695  SER759  ASP760  ASP761  ALA762  ILE779  LEU786  VAL792 
 PHE793  MET794  SER795  GLU796  ALA797  LYS798  CYS799  TRP800  GLU811  SER814 

> <Gold.Protein.RotatedAtoms>
  152.4889  134.4514  159.9575 H   0  0  0  0  0  0  0  0  0  0  0  0  # atno 6907 bound_to 6896
  151.4504  133.3613  159.2802 H   0  0  0  0  0  0  0  0  0  0  0  0  # atno 6908 bound_to 6896
  150.9025  134.8462  159.7430 H   0  0  0  0  0  0  0  0  0  0  0  0  # atno 6909 bound_to 6896
  144.8067  140.5275  143.5670 H   0  0  0  0  0  0  0  0  0  0  0  0  # atno 7974 bound_to 7965
  156.1582  140.1601  156.8656 H   0  0  0  0  0  0  0  0  0  0  0  0  # atno 8008 bound_to 7997
  154.5135  140.0795  156.8073 H   0  0  0  0  0  0  0  0  0  0  0  0  # atno 8009 bound_to 7997
  155.3760  140.3402  155.4247 H   0  0  0  0  0  0  0  0  0  0  0  0  # atno 8010 bound_to 7997
  139.6808  144.7118  151.1519 H   0  0  0  0  0  0  0  0  0  0  0  0  # atno 10167 bound_to 10162
  156.9869  130.6027  149.5682 H   0  0  0  0  0  0  0  0  0  0  0  0  # atno 10718 bound_to 10713
  154.0468  135.6636  153.4796 H   0  0  0  0  0  0  0  0  0  0  0  0  # atno 10763 bound_to 10752
  153.0480  135.5102  154.7790 H   0  0  0  0  0  0  0  0  0  0  0  0  # atno 10764 bound_to 10752
  154.6783  135.3041  154.9614 H   0  0  0  0  0  0  0  0  0  0  0  0  # atno 10765 bound_to 10752
  139.9141  134.9627  156.7634 H   0  0  0  0  0  0  0  0  0  0  0  0  # atno 11005 bound_to 11000
  145.5420  139.1475  143.3441 LP  0  0  0  0  0  0  0  0  0  0  0  0  # atno 17320 bound_to 7965
  146.2360  140.5560  142.8954 LP  0  0  0  0  0  0  0  0  0  0  0  0  # atno 17321 bound_to 7965
  140.7651  143.5702  150.9004 LP  0  0  0  0  0  0  0  0  0  0  0  0  # atno 17342 bound_to 10162
  139.9374  143.6422  152.3062 LP  0  0  0  0  0  0  0  0  0  0  0  0  # atno 17343 bound_to 10162
  156.0222  130.5317  150.8308 LP  0  0  0  0  0  0  0  0  0  0  0  0  # atno 17370 bound_to 10713
  157.5487  131.0943  150.9726 LP  0  0  0  0  0  0  0  0  0  0  0  0  # atno 17371 bound_to 10713
  140.6679  133.9586  155.7840 LP  0  0  0  0  0  0  0  0  0  0  0  0  # atno 17394 bound_to 11000
  141.0598  134.0363  157.3673 LP  0  0  0  0  0  0  0  0  0  0  0  0  # atno 17395 bound_to 11000

$$$$
