AV-unprocessed.smi:1901|AV-procd|sdf|7717|dock10
  -GOLD-   22720 9453D 1   1.00000     0.00000
 Structure written by MMmdl.
 28 29  0  0  0  0  0  0  0  0  1 V2000
  151.0352  140.7304  156.2276 O   0  0  0  0  0  0  0  0  0  0  0  0
  150.4711  141.8219  156.1459 C   0  0  0  0  0  0  0  0  0  0  0  0
  150.9100  142.9304  156.7596 N   0  0  0  0  0  0  0  0  0  0  0  0
  152.1006  143.0194  157.5997 C   0  0  0  0  0  0  0  0  0  0  0  0
  151.7438  143.2538  159.0795 C   0  0  1  0  0  0  0  0  0  0  0  0
  152.7809  142.7260  160.0492 C   0  0  0  0  0  0  0  0  0  0  0  0
  152.4256  143.4714  161.3322 C   0  0  0  0  0  0  0  0  0  0  0  0
  151.8774  144.7199  160.9194 O   0  0  0  0  0  0  0  0  0  0  0  0
  151.6705  144.7201  159.5102 C   0  0  0  0  0  0  0  0  0  0  0  0
  149.3522  142.0677  155.4420 N   0  0  0  0  0  0  0  0  0  0  0  0
  148.6016  141.1660  154.6431 C   0  0  0  0  0  0  0  0  0  0  0  0
  148.9629  139.9030  154.3871 N   0  0  0  0  0  0  0  0  0  0  0  0
  148.0360  139.2470  153.5731 C   0  0  0  0  0  0  0  0  0  0  0  0
  146.9677  140.0313  153.2149 C   0  0  0  0  0  0  0  0  0  0  0  0
  147.0839  141.6344  153.8904 S   0  0  0  0  0  0  0  0  0  0  0  0
  150.3806  143.7811  156.6359 H   0  0  0  0  0  0  0  0  0  0  0  0
  152.6415  142.0779  157.5021 H   0  0  0  0  0  0  0  0  0  0  0  0
  152.7761  143.7964  157.2373 H   0  0  0  0  0  0  0  0  0  0  0  0
  150.7891  142.7743  159.3030 H   0  0  0  0  0  0  0  0  0  0  0  0
  152.7478  141.6423  160.1658 H   0  0  0  0  0  0  0  0  0  0  0  0
  153.7840  143.0039  159.7221 H   0  0  0  0  0  0  0  0  0  0  0  0
  151.6628  142.9268  161.8901 H   0  0  0  0  0  0  0  0  0  0  0  0
  153.2881  143.6093  161.9845 H   0  0  0  0  0  0  0  0  0  0  0  0
  152.4707  145.2991  159.0470 H   0  0  0  0  0  0  0  0  0  0  0  0
  150.7209  145.1874  159.2488 H   0  0  0  0  0  0  0  0  0  0  0  0
  148.9994  143.0126  155.4755 H   0  0  0  0  0  0  0  0  0  0  0  0
  148.2156  138.2188  153.2959 H   0  0  0  0  0  0  0  0  0  0  0  0
  146.1231  139.7638  152.5978 H   0  0  0  0  0  0  0  0  0  0  0  0
  1  2  2  0  0  0  0
  2  3  1  0  0  0  0
  2 10  1  0  0  0  0
  3  4  1  0  0  0  0
  3 16  1  0  0  0  0
  4  5  1  0  0  0  0
  4 17  1  0  0  0  0
  4 18  1  0  0  0  0
  5  9  1  0  0  0  0
  5  6  1  0  0  0  0
  5 19  1  0  0  0  0
  6  7  1  0  0  0  0
  6 20  1  0  0  0  0
  6 21  1  0  0  0  0
  7  8  1  0  0  0  0
  7 22  1  0  0  0  0
  7 23  1  0  0  0  0
  8  9  1  0  0  0  0
  9 24  1  0  0  0  0
  9 25  1  0  0  0  0
 10 11  1  0  0  0  0
 10 26  1  0  0  0  0
 11 15  1  0  0  0  0
 11 12  2  0  0  0  0
 12 13  1  0  0  0  0
 13 14  2  0  0  0  0
 13 27  1  0  0  0  0
 14 15  1  0  0  0  0
 14 28  1  0  0  0  0
M  END
> <s_m_source_file>
AV-unprocessed.smi

> <i_m_source_file_index>
1901

> <i_lp_mmshare_version>
43012

> <i_f3d_flags>
0

> <s_epik_input>
czFbY0hdW2NIXW5jMVtOSF1DKD1PKVtOSF1bQ0gyXVtDQEBIXTJbQ0gyXVtDSDJdT1tDSDJdMg==

> <s_epik_cmdline>
J2VwaWtfcHl0aG9uJywgJy1waCcsICc3LjAnLCAnLXRuJywgJzgnLCAnLW1hJywgJzIwMCcsICctbWV0YWxfYmluZGluZycsICctaW1hZScsICc8aW5maWxlLm1hZT4nLCAnLW9tYWUnLCAnPG91dGZpbGUubWFlPic=

> <r_lp_tautomer_probability>
0.999

> <r_epik_Ionization_Penalty>
0.000365592

> <r_epik_Ionization_Penalty_Charging>
0

> <r_epik_Ionization_Penalty_Neutral>
0.000365592

> <r_epik_State_Penalty>
0.000177984

> <r_epik_Charging_Adjusted_Penalty>
0.000177984

> <i_epik_Tot_Q>
0

> <i_epik_Tot_abs_Q>
0

> <r_epik_Metal_State_Penalty>
0.00682492

> <b_epik_Metal_Only>
0

> <s_lp_Force_Field>
OPLS_2005

> <r_lp_Energy>
17.1136

> <b_lp_Chiralities_Consistent>
1

> <s_lp_Variant>
AV-unprocessed.smi:1901-2

> <Gold.Version>
5.8.1

> <Gold.Id.Protein>
6NUR|6NUR_protein|mol2

> <Gold.PLP.Fitness>
42.2861

> <Gold.PLP.PLP>
-31.3444

> <Gold.PLP.part.hbond>
-2.0000

> <Gold.PLP.part.metal>
0.0000

> <Gold.PLP.part.buried>
-5.5649

> <Gold.PLP.part.nonpolar>
-25.3263

> <Gold.PLP.part.repulsive>
0.5377

> <Gold.PLP.ligand.clash>
0.0000

> <Gold.PLP.ligand.torsion>
0.4059

> <Gold.PLP.Chemscore.Hbond>
1.9600

> <Gold.PLP.Chemscore.CHOScore>
1.9556

> <Gold.PLP.Chemscore.Metal>
0.0000

> <Gold.Chemscore.Hbonds>
donor molecule, donor type, donor heavy atom, donor atom, acceptor molecule, acceptor atom, score
      L1  H     3    16       P1  8028  0.96
      L1  H    10    26       P1  8028  1.00
      L1  C    13    27       P1  7948  0.97
      L1  C    14    28       P1 10175  0.98

> <Gold.PLP.Chemscore.Internal.Correction>
0.0067

> <Gold.Rescore>
     Score         DG    S(hbond)    S(metal)    S(lipo)     H(rot)  DE(clash)    DE(int)     intcor
     15.39     -18.03       1.97        0.00      79.71       1.32       1.25       1.39       ----

> <Gold.Chemscore.Fitness>
15.3947

> <Gold.Chemscore.DG>
-18.0330

> <Gold.Chemscore.ZeroCoef>
-5.4800

> <Gold.Chemscore.Hbond>
1.9750

> <Gold.Chemscore.Metal>
0.0000

> <Gold.Chemscore.Lipo>
79.7137

> <Gold.Chemscore.Internal_Hbond>
0.0000

> <Gold.Chemscore.DEClash>
1.2474

> <Gold.Chemscore.DEInternal>
1.3909

> <Gold.Chemscore.Rot>
1.3163

> <Gold.Chemscore.Internal.Correction>
   9.000000E+99

> <Gold.Chemscore.Hbonds>
donor molecule, donor type, donor heavy atom, donor atom, acceptor molecule, acceptor atom, score
      L1  H     3    16       P1  8028  0.89
      L1  H    10    26       P1  8028  1.00

> <Gold.Chemscore.Hbond.Weighted>
-6.5964

> <Gold.Chemscore.Metal.Weighted>
-0.0000

> <Gold.Chemscore.Lipo.Weighted>
-9.3265

> <Gold.Chemscore.Internal_Hbond.Weighted>
0.0000

> <Gold.Chemscore.DEClash.Weighted>
1.2474

> <Gold.Chemscore.DEInternal.Weighted>
1.3909

> <Gold.Chemscore.Rot.Weighted>
3.3698

> <Gold.Chemscore.Internal.Correction.Weighted>
   9.000000E+99

> <Gold.Protein.RotatedTorsions>
[ 6907 6896 6895 6894 ] final   46.82 input  -60.11 | X-H torsion
[ 7974 7965 7964 7962 ] final -108.52 input  175.53 | X-H torsion
[ 8008 7997 7996 7995 ] final  105.06 input   59.86 | X-H torsion
[ 10167 10162 10161 10158 ] final    3.90 input  -65.29 | X-H torsion
[ 10718 10713 10712 10709 ] final   20.98 input   66.30 | X-H torsion
[ 10763 10752 10751 10750 ] final -160.92 input  -60.55 | X-H torsion
[ 11005 11000 10999 10996 ] final   50.84 input  -57.11 | X-H torsion

> <Gold.Protein.ActiveResidues>
 VAL166  LYS551  ARG553  GLY616  TRP617  ASP618  TYR619  PRO620  LYS621  CYS622 
 ASP623  PHE694  ASN695  SER759  ASP760  ASP761  ALA762  ILE779  LEU786  VAL792 
 PHE793  MET794  SER795  GLU796  ALA797  LYS798  CYS799  TRP800  GLU811  SER814 

> <Gold.Protein.RotatedAtoms>
  152.2609  134.8035  160.0430 H   0  0  0  0  0  0  0  0  0  0  0  0  # atno 6907 bound_to 6896
  151.8682  133.3465  159.3734 H   0  0  0  0  0  0  0  0  0  0  0  0  # atno 6908 bound_to 6896
  150.7116  134.5066  159.5631 H   0  0  0  0  0  0  0  0  0  0  0  0  # atno 6909 bound_to 6896
  145.1918  140.9018  143.3420 H   0  0  0  0  0  0  0  0  0  0  0  0  # atno 7974 bound_to 7965
  156.1626  140.3137  155.8834 H   0  0  0  0  0  0  0  0  0  0  0  0  # atno 8008 bound_to 7997
  155.3750  140.0484  157.3062 H   0  0  0  0  0  0  0  0  0  0  0  0  # atno 8009 bound_to 7997
  154.5161  140.2182  155.9073 H   0  0  0  0  0  0  0  0  0  0  0  0  # atno 8010 bound_to 7997
  140.6562  143.7420  150.7658 H   0  0  0  0  0  0  0  0  0  0  0  0  # atno 10167 bound_to 10162
  157.1321  130.6595  149.5955 H   0  0  0  0  0  0  0  0  0  0  0  0  # atno 10718 bound_to 10713
  154.7348  135.3055  154.8829 H   0  0  0  0  0  0  0  0  0  0  0  0  # atno 10763 bound_to 10752
  153.9661  135.6747  153.4750 H   0  0  0  0  0  0  0  0  0  0  0  0  # atno 10764 bound_to 10752
  153.0952  135.4939  154.8688 H   0  0  0  0  0  0  0  0  0  0  0  0  # atno 10765 bound_to 10752
  140.0983  134.5116  155.8786 H   0  0  0  0  0  0  0  0  0  0  0  0  # atno 11005 bound_to 11000
  145.0033  139.3577  143.6156 LP  0  0  0  0  0  0  0  0  0  0  0  0  # atno 17320 bound_to 7965
  146.3434  139.9266  142.8759 LP  0  0  0  0  0  0  0  0  0  0  0  0  # atno 17321 bound_to 7965
  140.1080  143.4725  152.2386 LP  0  0  0  0  0  0  0  0  0  0  0  0  # atno 17342 bound_to 10162
  139.5786  144.7499  151.3700 LP  0  0  0  0  0  0  0  0  0  0  0  0  # atno 17343 bound_to 10162
  155.9806  130.4807  150.6780 LP  0  0  0  0  0  0  0  0  0  0  0  0  # atno 17370 bound_to 10713
  157.4383  131.0858  151.0969 LP  0  0  0  0  0  0  0  0  0  0  0  0  # atno 17371 bound_to 10713
  141.2098  133.6688  156.6467 LP  0  0  0  0  0  0  0  0  0  0  0  0  # atno 17394 bound_to 11000
  140.3255  134.7972  157.4286 LP  0  0  0  0  0  0  0  0  0  0  0  0  # atno 17395 bound_to 11000

$$$$
