AV-unprocessed.smi:1843|AV-procd|sdf|7507|dock9
  -GOLD-   22720 9213D 1   1.00000     0.00000
 Structure written by MMmdl.
 36 38  0  0  0  0  0  0  0  0  2 V2000
  150.9518  139.6333  154.7155 O   0  0  0  0  0  0  0  0  0  0  0  0
  150.0816  140.1632  155.4103 C   0  0  0  0  0  0  0  0  0  0  0  0
  150.2751  141.1204  156.3457 N   0  5  0  0  0  0  0  0  0  0  0  0
  151.2797  141.0023  157.2296 C   0  0  0  0  0  0  0  0  0  0  0  0
  152.0801  139.9279  157.2706 N   0  0  0  0  0  0  0  0  0  0  0  0
  153.0550  140.0129  158.2543 N   0  0  0  0  0  0  0  0  0  0  0  0
  152.9805  141.1560  158.9399 C   0  0  0  0  0  0  0  0  0  0  0  0
  153.9177  141.4842  160.0535 C   0  0  0  0  0  0  0  0  0  0  0  0
  154.0608  140.5609  161.2416 C   0  0  0  0  0  0  0  0  0  0  0  0
  153.4108  141.9099  161.4142 C   0  0  0  0  0  0  0  0  0  0  0  0
  151.6963  142.2346  158.4195 S   0  0  0  0  0  0  0  0  0  0  0  0
  148.8003  139.7919  155.2790 N   0  0  0  0  0  0  0  0  0  0  0  0
  148.2856  138.7754  154.3629 C   0  0  1  0  0  0  0  0  0  0  0  0
  147.8651  137.5335  155.1817 C   0  0  0  0  0  0  0  0  0  0  0  0
  147.1488  136.4812  154.3236 C   0  0  0  0  0  0  0  0  0  0  0  0
  145.9338  137.0897  153.6119 C   0  0  0  0  0  0  0  0  0  0  0  0
  146.3579  138.2849  152.7486 C   0  0  0  0  0  0  0  0  0  0  0  0
  147.0875  139.3590  153.5780 C   0  0  2  0  0  0  0  0  0  0  0  0
  147.5482  140.3474  152.6781 O   0  0  0  0  0  0  0  0  0  0  0  0
  154.8145  141.9674  159.6710 H   0  0  0  0  0  0  0  0  0  0  0  0
  153.4164  139.6848  161.2814 H   0  0  0  0  0  0  0  0  0  0  0  0
  155.0584  140.4257  161.6541 H   0  0  0  0  0  0  0  0  0  0  0  0
  153.9747  142.6761  161.9419 H   0  0  0  0  0  0  0  0  0  0  0  0
  152.3358  141.9249  161.5818 H   0  0  0  0  0  0  0  0  0  0  0  0
  148.1253  140.2518  155.8720 H   0  0  0  0  0  0  0  0  0  0  0  0
  149.0619  138.4833  153.6525 H   0  0  0  0  0  0  0  0  0  0  0  0
  148.7386  137.0829  155.6546 H   0  0  0  0  0  0  0  0  0  0  0  0
  147.2023  137.8377  155.9930 H   0  0  0  0  0  0  0  0  0  0  0  0
  147.8429  136.0744  153.5869 H   0  0  0  0  0  0  0  0  0  0  0  0
  146.8342  135.6451  154.9484 H   0  0  0  0  0  0  0  0  0  0  0  0
  145.4491  136.3356  152.9915 H   0  0  0  0  0  0  0  0  0  0  0  0
  145.1951  137.4092  154.3480 H   0  0  0  0  0  0  0  0  0  0  0  0
  147.0100  137.9310  151.9482 H   0  0  0  0  0  0  0  0  0  0  0  0
  145.4823  138.7177  152.2631 H   0  0  0  0  0  0  0  0  0  0  0  0
  146.3798  139.8184  154.2700 H   0  0  0  0  0  0  0  0  0  0  0  0
  148.3739  140.0597  152.3185 H   0  0  0  0  0  0  0  0  0  0  0  0
  1  2  2  0  0  0  0
  2  3  1  0  0  0  0
  2 12  1  0  0  0  0
  3  4  1  0  0  0  0
  4 11  1  0  0  0  0
  4  5  2  0  0  0  0
  5  6  1  0  0  0  0
  6  7  2  0  0  0  0
  7  8  1  0  0  0  0
  7 11  1  0  0  0  0
  8 10  1  0  0  0  0
  8  9  1  0  0  0  0
  8 20  1  0  0  0  0
  9 10  1  0  0  0  0
  9 21  1  0  0  0  0
  9 22  1  0  0  0  0
 10 23  1  0  0  0  0
 10 24  1  0  0  0  0
 12 13  1  0  0  0  0
 12 25  1  0  0  0  0
 13 18  1  0  0  0  0
 13 14  1  0  0  0  0
 13 26  1  0  0  0  0
 14 15  1  0  0  0  0
 14 27  1  0  0  0  0
 14 28  1  0  0  0  0
 15 16  1  0  0  0  0
 15 29  1  0  0  0  0
 15 30  1  0  0  0  0
 16 17  1  0  0  0  0
 16 31  1  0  0  0  0
 16 32  1  0  0  0  0
 17 18  1  0  0  0  0
 17 33  1  0  0  0  0
 17 34  1  0  0  0  0
 18 19  1  0  0  0  0
 18 35  1  0  0  0  0
 19 36  1  0  0  0  0
M  CHG  1   3  -1
M  END
> <s_m_source_file>
AV-unprocessed.smi

> <i_m_source_file_index>
1843

> <i_lp_mmshare_version>
43012

> <i_f3d_flags>
0

> <s_epik_input>
W09IXVtDQEBIXTFbQ0gyXVtDSDJdW0NIMl1bQ0gyXVtDQEhdMVtOSF1DKD1PKVtOSF1jMm5uYyhzMilbQ0hdM1tDSDJdW0NIMl0z

> <s_epik_cmdline>
J2VwaWtfcHl0aG9uJywgJy1waCcsICc3LjAnLCAnLXRuJywgJzgnLCAnLW1hJywgJzIwMCcsICctbWV0YWxfYmluZGluZycsICctaW1hZScsICc8aW5maWxlLm1hZT4nLCAnLW9tYWUnLCAnPG91dGZpbGUubWFlPic=

> <r_lp_tautomer_probability>
1

> <r_epik_Ionization_Penalty>
4.7996

> <r_epik_Ionization_Penalty_Charging>
4.64516

> <r_epik_Ionization_Penalty_Neutral>
0.154442

> <r_epik_State_Penalty>
4.64493

> <r_epik_Charging_Adjusted_Penalty>
9.29009

> <i_epik_Tot_Q>
-1

> <i_epik_Tot_abs_Q>
1

> <r_epik_Metal_State_Penalty>
0.896144

> <b_epik_Metal_Only>
1

> <s_lp_Force_Field>
OPLS_2005

> <r_lp_Energy>
6.73246

> <b_lp_Chiralities_Consistent>
1

> <s_lp_Variant>
AV-unprocessed.smi:1843-8

> <Gold.Version>
5.8.1

> <Gold.Id.Protein>
6NUR|6NUR_protein|mol2

> <Gold.PLP.Fitness>
36.6848

> <Gold.PLP.PLP>
-28.8055

> <Gold.PLP.part.hbond>
-2.5801

> <Gold.PLP.part.metal>
0.0000

> <Gold.PLP.part.buried>
-4.1417

> <Gold.PLP.part.nonpolar>
-21.8996

> <Gold.PLP.part.repulsive>
0.1780

> <Gold.PLP.ligand.clash>
0.0000

> <Gold.PLP.ligand.torsion>
0.5675

> <Gold.PLP.Chemscore.Hbond>
2.9600

> <Gold.PLP.Chemscore.CHOScore>
0.0000

> <Gold.PLP.Chemscore.Metal>
0.0000

> <Gold.Chemscore.Hbonds>
donor molecule, donor type, donor heavy atom, donor atom, acceptor molecule, acceptor atom, score
      L1  H    19    36       P1  7957  1.00
      P1  H  7989  7998       L1     1  1.00
      P1  H  7997  8008       L1     6  0.98

> <Gold.PLP.Chemscore.Internal.Correction>
0.1342

> <Gold.Rescore>
     Score         DG    S(hbond)    S(metal)    S(lipo)     H(rot)  DE(clash)    DE(int)     intcor
     14.58     -18.00       2.49        0.00      73.39       1.72       1.47       1.95       ----

> <Gold.Chemscore.Fitness>
14.5756

> <Gold.Chemscore.DG>
-17.9995

> <Gold.Chemscore.ZeroCoef>
-5.4800

> <Gold.Chemscore.Hbond>
2.4927

> <Gold.Chemscore.Metal>
0.0000

> <Gold.Chemscore.Lipo>
73.3913

> <Gold.Chemscore.Internal_Hbond>
0.0000

> <Gold.Chemscore.DEClash>
1.4731

> <Gold.Chemscore.DEInternal>
1.9508

> <Gold.Chemscore.Rot>
1.7160

> <Gold.Chemscore.Internal.Correction>
   9.000000E+99

> <Gold.Chemscore.Hbonds>
donor molecule, donor type, donor heavy atom, donor atom, acceptor molecule, acceptor atom, score
      L1  H    19    36       P1  7957  0.97
      P1  H  7989  7998       L1     1  0.74
      P1  H  7997  8008       L1     6  0.19

> <Gold.Chemscore.Hbond.Weighted>
-8.3256

> <Gold.Chemscore.Metal.Weighted>
-0.0000

> <Gold.Chemscore.Lipo.Weighted>
-8.5868

> <Gold.Chemscore.Internal_Hbond.Weighted>
0.0000

> <Gold.Chemscore.DEClash.Weighted>
1.4731

> <Gold.Chemscore.DEInternal.Weighted>
1.9508

> <Gold.Chemscore.Rot.Weighted>
4.3930

> <Gold.Chemscore.Internal.Correction.Weighted>
   9.000000E+99

> <Gold.Protein.RotatedTorsions>
[ 6907 6896 6895 6894 ] final   35.08 input  -60.11 | X-H torsion
[ 7974 7965 7964 7962 ] final  -20.95 input  175.53 | X-H torsion
[ 8008 7997 7996 7995 ] final  -95.27 input   59.86 | X-H torsion
[ 10167 10162 10161 10158 ] final  167.03 input  -65.29 | X-H torsion
[ 10718 10713 10712 10709 ] final  135.47 input   66.30 | X-H torsion
[ 10763 10752 10751 10750 ] final -100.30 input  -60.55 | X-H torsion
[ 11005 11000 10999 10996 ] final  -72.66 input  -57.11 | X-H torsion

> <Gold.Protein.ActiveResidues>
 VAL166  LYS551  ARG553  GLY616  TRP617  ASP618  TYR619  PRO620  LYS621  CYS622 
 ASP623  PHE694  ASN695  SER759  ASP760  ASP761  ALA762  ILE779  LEU786  VAL792 
 PHE793  MET794  SER795  GLU796  ALA797  LYS798  CYS799  TRP800  GLU811  SER814 

> <Gold.Protein.RotatedAtoms>
  152.1113  134.9272  160.0566 H   0  0  0  0  0  0  0  0  0  0  0  0  # atno 6907 bound_to 6896
  152.0449  133.3988  159.4360 H   0  0  0  0  0  0  0  0  0  0  0  0  # atno 6908 bound_to 6896
  150.6843  134.3294  159.4864 H   0  0  0  0  0  0  0  0  0  0  0  0  # atno 6909 bound_to 6896
  146.1760  140.4273  142.8513 H   0  0  0  0  0  0  0  0  0  0  0  0  # atno 7974 bound_to 7965
  154.7591  140.0481  157.0958 H   0  0  0  0  0  0  0  0  0  0  0  0  # atno 8008 bound_to 7997
  154.9960  140.3119  155.4867 H   0  0  0  0  0  0  0  0  0  0  0  0  # atno 8009 bound_to 7997
  156.2900  140.2210  156.5067 H   0  0  0  0  0  0  0  0  0  0  0  0  # atno 8010 bound_to 7997
  139.4937  144.3964  151.9459 H   0  0  0  0  0  0  0  0  0  0  0  0  # atno 10167 bound_to 10162
  157.4567  131.1070  150.9969 H   0  0  0  0  0  0  0  0  0  0  0  0  # atno 10718 bound_to 10713
  154.7568  135.4940  153.9389 H   0  0  0  0  0  0  0  0  0  0  0  0  # atno 10763 bound_to 10752
  153.1205  135.6730  153.9352 H   0  0  0  0  0  0  0  0  0  0  0  0  # atno 10764 bound_to 10752
  153.9085  135.3101  155.3427 H   0  0  0  0  0  0  0  0  0  0  0  0  # atno 10765 bound_to 10752
  141.1612  133.6853  156.7092 H   0  0  0  0  0  0  0  0  0  0  0  0  # atno 11005 bound_to 11000
  144.8237  140.6593  143.6336 LP  0  0  0  0  0  0  0  0  0  0  0  0  # atno 17320 bound_to 7965
  145.4210  139.1564  143.4074 LP  0  0  0  0  0  0  0  0  0  0  0  0  # atno 17321 bound_to 7965
  140.3403  144.3211  150.5968 LP  0  0  0  0  0  0  0  0  0  0  0  0  # atno 17342 bound_to 10162
  140.5572  143.2197  151.7828 LP  0  0  0  0  0  0  0  0  0  0  0  0  # atno 17343 bound_to 10162
  157.0780  130.5891  149.5415 LP  0  0  0  0  0  0  0  0  0  0  0  0  # atno 17370 bound_to 10713
  156.0010  130.5089  150.7664 LP  0  0  0  0  0  0  0  0  0  0  0  0  # atno 17371 bound_to 10713
  140.2900  134.8248  157.4008 LP  0  0  0  0  0  0  0  0  0  0  0  0  # atno 17394 bound_to 11000
  140.1355  134.5039  155.8071 LP  0  0  0  0  0  0  0  0  0  0  0  0  # atno 17395 bound_to 11000

$$$$
