AV-unprocessed.smi:2655|AV-procd|sdf|10299|dock1
  -GOLD-   2272014313D 1   1.00000     0.00000
 Structure written by MMmdl.
 34 35  0  0  0  0  0  0  0  0  1 V2000
  147.7636  139.5319  153.2803 C   0  0  0  0  0  0  0  0  0  0  0  0
  149.1987  139.3101  153.7071 C   0  0  0  0  0  0  0  0  0  0  0  0
  149.9284  138.2543  153.2436 N   0  0  0  0  0  0  0  0  0  0  0  0
  151.1715  138.2944  153.8225 N   0  0  0  0  0  0  0  0  0  0  0  0
  151.2596  139.3591  154.6369 C   0  0  0  0  0  0  0  0  0  0  0  0
  152.2436  139.6822  155.2990 O   0  0  0  0  0  0  0  0  0  0  0  0
  149.9579  140.0125  154.5580 C   0  0  0  0  0  0  0  0  0  0  0  0
  149.5909  141.2718  155.3192 C   0  0  0  0  0  0  0  0  0  0  0  0
  148.1684  141.2011  155.8971 C   0  0  0  0  0  0  0  0  0  0  0  0
  147.8976  142.3201  156.7913 N   0  0  0  0  0  0  0  0  0  0  0  0
  147.2155  142.2355  157.9426 C   0  0  0  0  0  0  0  0  0  0  0  0
  146.7366  141.1851  158.3705 O   0  0  0  0  0  0  0  0  0  0  0  0
  147.1318  143.4328  158.5469 N   0  0  0  0  0  0  0  0  0  0  0  0
  146.5116  143.7565  159.7814 C   0  0  0  0  0  0  0  0  0  0  0  0
  145.3719  143.1149  160.3480 C   0  0  0  0  0  0  0  0  0  0  0  0
  145.1883  143.7945  161.5190 C   0  0  0  0  0  0  0  0  0  0  0  0
  144.1891  143.6696  162.6175 C   0  0  0  0  0  0  0  0  0  0  0  0
  146.1299  144.7663  161.6557 O   0  0  0  0  0  0  0  0  0  0  0  0
  146.9723  144.7354  160.5382 N   0  0  0  0  0  0  0  0  0  0  0  0
  147.1102  139.5454  154.1531 H   0  0  0  0  0  0  0  0  0  0  0  0
  147.4256  138.7411  152.6099 H   0  0  0  0  0  0  0  0  0  0  0  0
  147.6668  140.4869  152.7635 H   0  0  0  0  0  0  0  0  0  0  0  0
  151.8567  137.5877  153.5972 H   0  0  0  0  0  0  0  0  0  0  0  0
  149.6785  142.1243  154.6447 H   0  0  0  0  0  0  0  0  0  0  0  0
  150.3187  141.4330  156.1155 H   0  0  0  0  0  0  0  0  0  0  0  0
  147.4307  141.1775  155.0927 H   0  0  0  0  0  0  0  0  0  0  0  0
  148.0398  140.2775  156.4622 H   0  0  0  0  0  0  0  0  0  0  0  0
  148.2571  143.2217  156.5133 H   0  0  0  0  0  0  0  0  0  0  0  0
  147.5745  144.2056  158.0721 H   0  0  0  0  0  0  0  0  0  0  0  0
  144.7777  142.2948  159.9743 H   0  0  0  0  0  0  0  0  0  0  0  0
  143.6338  142.7353  162.5344 H   0  0  0  0  0  0  0  0  0  0  0  0
  143.4749  144.4922  162.5843 H   0  0  0  0  0  0  0  0  0  0  0  0
  144.6792  143.6856  163.5912 H   0  0  0  0  0  0  0  0  0  0  0  0
  149.6193  137.4910  152.6587 H   0  0  0  0  0  0  0  0  0  0  0  0
  1 20  1  0  0  0  0
  1 21  1  0  0  0  0
  1 22  1  0  0  0  0
  1  2  1  0  0  0  0
  2  7  2  0  0  0  0
  2  3  1  0  0  0  0
  3  4  1  0  0  0  0
  3 34  1  0  0  0  0
  4 23  1  0  0  0  0
  4  5  1  0  0  0  0
  5  7  1  0  0  0  0
  5  6  2  0  0  0  0
  7  8  1  0  0  0  0
  8  9  1  0  0  0  0
  8 24  1  0  0  0  0
  8 25  1  0  0  0  0
  9 10  1  0  0  0  0
  9 26  1  0  0  0  0
  9 27  1  0  0  0  0
 10 11  1  0  0  0  0
 10 28  1  0  0  0  0
 11 12  2  0  0  0  0
 11 13  1  0  0  0  0
 13 14  1  0  0  0  0
 13 29  1  0  0  0  0
 14 19  2  0  0  0  0
 14 15  1  0  0  0  0
 15 16  2  0  0  0  0
 15 30  1  0  0  0  0
 16 17  1  0  0  0  0
 16 18  1  0  0  0  0
 17 31  1  0  0  0  0
 17 32  1  0  0  0  0
 17 33  1  0  0  0  0
 18 19  1  0  0  0  0
M  END
> <s_m_source_file>
AV-unprocessed.smi

> <i_m_source_file_index>
2655

> <i_lp_mmshare_version>
43012

> <i_f3d_flags>
0

> <s_epik_input>
W0NIM11DMT1OW05IXUMoPU8pW0NASF0xW0NIMl1bQ0gyXVtOSF1DKD1PKVtOSF1jMltjSF1jKFtDSDNdKW9uMg==

> <s_epik_cmdline>
J2VwaWtfcHl0aG9uJywgJy1waCcsICc3LjAnLCAnLXRuJywgJzgnLCAnLW1hJywgJzIwMCcsICctbWV0YWxfYmluZGluZycsICctaW1hZScsICc8aW5maWxlLm1hZT4nLCAnLW9tYWUnLCAnPG91dGZpbGUubWFlPic=

> <r_lp_tautomer_probability>
0.00220696

> <r_epik_Ionization_Penalty>
0.0273702

> <r_epik_Ionization_Penalty_Charging>
8.84748e-06

> <r_epik_Ionization_Penalty_Neutral>
0.0273613

> <r_epik_State_Penalty>
0.626781

> <r_epik_Charging_Adjusted_Penalty>
0.626789

> <i_epik_Tot_Q>
0

> <i_epik_Tot_abs_Q>
0

> <r_epik_Metal_State_Penalty>
2.03048

> <b_epik_Metal_Only>
0

> <s_lp_Force_Field>
OPLS_2005

> <r_lp_Energy>
17.132

> <b_lp_Chiralities_Consistent>
1

> <s_lp_Variant>
AV-unprocessed.smi:2655-2

> <Gold.Version>
5.8.1

> <Gold.Id.Protein>
6NUR|6NUR_protein|mol2

> <Gold.PLP.Fitness>
43.1989

> <Gold.PLP.PLP>
-31.4241

> <Gold.PLP.part.hbond>
-6.4913

> <Gold.PLP.part.metal>
0.0000

> <Gold.PLP.part.buried>
-3.0035

> <Gold.PLP.part.nonpolar>
-22.4851

> <Gold.PLP.part.repulsive>
0.7665

> <Gold.PLP.ligand.clash>
0.0000

> <Gold.PLP.ligand.torsion>
0.6074

> <Gold.PLP.Chemscore.Hbond>
4.3221

> <Gold.PLP.Chemscore.CHOScore>
0.0000

> <Gold.PLP.Chemscore.Metal>
0.0000

> <Gold.Chemscore.Hbonds>
donor molecule, donor type, donor heavy atom, donor atom, acceptor molecule, acceptor atom, score
      L1  H     3    34       P1  7948  1.00
      L1  H    10    28       P1  8028  1.00
      L1  H    13    29       P1  8029  1.00
      P1  H  6934  6946       L1    12  0.09
      P1  H  7997  8010       L1     6  0.28

> <Gold.PLP.Chemscore.Internal.Correction>
0.0231

> <Gold.Rescore>
     Score         DG    S(hbond)    S(metal)    S(lipo)     H(rot)  DE(clash)    DE(int)     intcor
     13.03     -14.95       2.54        0.00      49.82       1.89       1.22       0.70       ----

> <Gold.Chemscore.Fitness>
13.0282

> <Gold.Chemscore.DG>
-14.9517

> <Gold.Chemscore.ZeroCoef>
-5.4800

> <Gold.Chemscore.Hbond>
2.5416

> <Gold.Chemscore.Metal>
0.0000

> <Gold.Chemscore.Lipo>
49.8177

> <Gold.Chemscore.Internal_Hbond>
0.0000

> <Gold.Chemscore.DEClash>
1.2233

> <Gold.Chemscore.DEInternal>
0.7003

> <Gold.Chemscore.Rot>
1.8929

> <Gold.Chemscore.Internal.Correction>
   9.000000E+99

> <Gold.Chemscore.Hbonds>
donor molecule, donor type, donor heavy atom, donor atom, acceptor molecule, acceptor atom, score
      L1  H     3    34       P1  7948  0.49
      L1  H    10    28       P1  8028  0.40
      L1  H    13    29       P1  8029  0.30
      P1  H  6934  6946       L1    12  0.08
      P1  H  7997  8010       L1     6  0.29

> <Gold.Chemscore.Hbond.Weighted>
-8.4888

> <Gold.Chemscore.Metal.Weighted>
-0.0000

> <Gold.Chemscore.Lipo.Weighted>
-5.8287

> <Gold.Chemscore.Internal_Hbond.Weighted>
0.0000

> <Gold.Chemscore.DEClash.Weighted>
1.2233

> <Gold.Chemscore.DEInternal.Weighted>
0.7003

> <Gold.Chemscore.Rot.Weighted>
4.8457

> <Gold.Chemscore.Internal.Correction.Weighted>
   9.000000E+99

> <Gold.Protein.RotatedTorsions>
[ 6907 6896 6895 6894 ] final -141.50 input  -60.11 | X-H torsion
[ 7974 7965 7964 7962 ] final -101.81 input  175.53 | X-H torsion
[ 8008 7997 7996 7995 ] final   92.12 input   59.86 | X-H torsion
[ 10167 10162 10161 10158 ] final -116.92 input  -65.29 | X-H torsion
[ 10718 10713 10712 10709 ] final   19.64 input   66.30 | X-H torsion
[ 10763 10752 10751 10750 ] final -165.24 input  -60.55 | X-H torsion
[ 11005 11000 10999 10996 ] final   97.39 input  -57.11 | X-H torsion

> <Gold.Protein.ActiveResidues>
 VAL166  LYS551  ARG553  GLY616  TRP617  ASP618  TYR619  PRO620  LYS621  CYS622 
 ASP623  PHE694  ASN695  SER759  ASP760  ASP761  ALA762  ILE779  LEU786  VAL792 
 PHE793  MET794  SER795  GLU796  ALA797  LYS798  CYS799  TRP800  GLU811  SER814 

> <Gold.Protein.RotatedAtoms>
  151.0746  133.5439  159.2624 H   0  0  0  0  0  0  0  0  0  0  0  0  # atno 6907 bound_to 6896
  151.2365  135.0573  159.9018 H   0  0  0  0  0  0  0  0  0  0  0  0  # atno 6908 bound_to 6896
  152.5416  134.0527  159.8171 H   0  0  0  0  0  0  0  0  0  0  0  0  # atno 6909 bound_to 6896
  145.2768  140.9315  143.2955 H   0  0  0  0  0  0  0  0  0  0  0  0  # atno 7974 bound_to 7965
  156.0317  140.3329  155.7146 H   0  0  0  0  0  0  0  0  0  0  0  0  # atno 8008 bound_to 7997
  155.5875  140.0643  157.2785 H   0  0  0  0  0  0  0  0  0  0  0  0  # atno 8009 bound_to 7997
  154.4356  140.1833  156.1029 H   0  0  0  0  0  0  0  0  0  0  0  0  # atno 8010 bound_to 7997
  140.0740  143.4850  152.1964 H   0  0  0  0  0  0  0  0  0  0  0  0  # atno 10167 bound_to 10162
  157.1133  130.6518  149.5903 H   0  0  0  0  0  0  0  0  0  0  0  0  # atno 10718 bound_to 10713
  154.6951  135.2977  154.9423 H   0  0  0  0  0  0  0  0  0  0  0  0  # atno 10763 bound_to 10752
  154.0373  135.6662  153.4790 H   0  0  0  0  0  0  0  0  0  0  0  0  # atno 10764 bound_to 10752
  153.0640  135.5099  154.8064 H   0  0  0  0  0  0  0  0  0  0  0  0  # atno 10765 bound_to 10752
  139.8776  134.8998  156.4299 H   0  0  0  0  0  0  0  0  0  0  0  0  # atno 11005 bound_to 11000
  144.9287  139.4324  143.6505 LP  0  0  0  0  0  0  0  0  0  0  0  0  # atno 17320 bound_to 7965
  146.3229  139.8187  142.8931 LP  0  0  0  0  0  0  0  0  0  0  0  0  # atno 17321 bound_to 7965
  139.5819  144.7514  151.3618 LP  0  0  0  0  0  0  0  0  0  0  0  0  # atno 17342 bound_to 10162
  140.7111  143.7387  150.7569 LP  0  0  0  0  0  0  0  0  0  0  0  0  # atno 17343 bound_to 10162
  155.9845  130.4870  150.6987 LP  0  0  0  0  0  0  0  0  0  0  0  0  # atno 17370 bound_to 10713
  157.4540  131.0876  151.0816 LP  0  0  0  0  0  0  0  0  0  0  0  0  # atno 17371 bound_to 10713
  140.9074  133.7736  155.9751 LP  0  0  0  0  0  0  0  0  0  0  0  0  # atno 17394 bound_to 11000
  140.8584  134.2870  157.5245 LP  0  0  0  0  0  0  0  0  0  0  0  0  # atno 17395 bound_to 11000

$$$$
