AV-unprocessed.smi:1695|AV-procd|sdf|6796|dock5
  -GOLD-   22720 7563D 1   1.00000     0.00000
 Structure written by MMmdl.
 52 54  0  0  0  0  0  0  0  0  3 V2000
  151.7720  143.4833  160.5026 C   0  0  0  0  0  0  0  0  0  0  0  0
  151.6812  142.5849  159.2805 C   0  0  0  0  0  0  0  0  0  0  0  0
  150.8238  142.9672  158.2246 C   0  0  0  0  0  0  0  0  0  0  0  0
  150.7621  142.1249  157.1208 C   0  0  0  0  0  0  0  0  0  0  0  0
  150.0303  142.2248  155.9360 N   0  3  0  0  0  0  0  0  0  0  0  0
  150.3025  141.1530  155.1421 C   0  0  0  0  0  0  0  0  0  0  0  0
  151.1884  140.3614  155.8073 N   0  0  0  0  0  0  0  0  0  0  0  0
  151.8150  139.0945  155.3950 C   0  0  0  0  0  0  0  0  0  0  0  0
  150.8983  138.1684  154.5632 C   0  0  1  0  0  0  0  0  0  0  0  0
  151.6811  137.1580  153.9577 O   0  0  0  0  0  0  0  0  0  0  0  0
  149.7842  137.4991  155.3985 C   0  0  0  0  0  0  0  0  0  0  0  0
  149.0742  136.4250  154.6567 N   0  3  1  0  0  0  0  0  0  0  0  0
  149.6843  135.0881  154.8755 C   0  0  0  0  0  0  0  0  0  0  0  0
  149.0247  134.0237  153.9823 C   0  0  0  0  0  0  0  0  0  0  0  0
  147.5032  133.9625  154.2166 C   0  0  2  0  0  0  0  0  0  0  0  0
  146.8386  132.9460  153.2786 C   0  0  0  0  0  0  0  0  0  0  0  0
  145.5116  132.8190  153.3577 N   0  0  0  0  0  0  0  0  0  0  0  0
  147.5135  132.2836  152.4928 O   0  0  0  0  0  0  0  0  0  0  0  0
  146.9074  135.3692  154.0181 C   0  0  0  0  0  0  0  0  0  0  0  0
  147.6099  136.4005  154.9157 C   0  0  0  0  0  0  0  0  0  0  0  0
  151.5131  140.9357  157.0432 C   0  0  0  0  0  0  0  0  0  0  0  0
  152.3654  140.5467  158.0744 C   0  0  0  0  0  0  0  0  0  0  0  0
  152.4428  141.3901  159.2058 C   0  0  0  0  0  0  0  0  0  0  0  0
  153.3634  140.9901  160.3462 C   0  0  0  0  0  0  0  0  0  0  0  0
  151.1457  144.3694  160.3944 H   0  0  0  0  0  0  0  0  0  0  0  0
  152.7980  143.8185  160.6566 H   0  0  0  0  0  0  0  0  0  0  0  0
  151.4431  142.9500  161.3946 H   0  0  0  0  0  0  0  0  0  0  0  0
  150.2430  143.8768  158.2735 H   0  0  0  0  0  0  0  0  0  0  0  0
  149.8893  140.9658  154.1614 H   0  0  0  0  0  0  0  0  0  0  0  0
  152.6950  139.3558  154.8058 H   0  0  0  0  0  0  0  0  0  0  0  0
  152.1928  138.5807  156.2799 H   0  0  0  0  0  0  0  0  0  0  0  0
  150.4673  138.7713  153.7650 H   0  0  0  0  0  0  0  0  0  0  0  0
  151.3967  137.0420  153.0639 H   0  0  0  0  0  0  0  0  0  0  0  0
  150.2285  137.0864  156.3057 H   0  0  0  0  0  0  0  0  0  0  0  0
  149.0569  138.2419  155.7302 H   0  0  0  0  0  0  0  0  0  0  0  0
  150.7509  135.1273  154.6502 H   0  0  0  0  0  0  0  0  0  0  0  0
  149.5916  134.8107  155.9267 H   0  0  0  0  0  0  0  0  0  0  0  0
  149.2388  134.2515  152.9366 H   0  0  0  0  0  0  0  0  0  0  0  0
  149.4742  133.0500  154.1829 H   0  0  0  0  0  0  0  0  0  0  0  0
  147.3250  133.6538  155.2484 H   0  0  0  0  0  0  0  0  0  0  0  0
  145.0271  132.1628  152.7625 H   0  0  0  0  0  0  0  0  0  0  0  0
  144.9945  133.3825  154.0175 H   0  0  0  0  0  0  0  0  0  0  0  0
  147.0005  135.6784  152.9754 H   0  0  0  0  0  0  0  0  0  0  0  0
  145.8397  135.3585  154.2421 H   0  0  0  0  0  0  0  0  0  0  0  0
  147.4286  136.1661  155.9660 H   0  0  0  0  0  0  0  0  0  0  0  0
  147.1721  137.3813  154.7338 H   0  0  0  0  0  0  0  0  0  0  0  0
  152.9441  139.6367  158.0204 H   0  0  0  0  0  0  0  0  0  0  0  0
  153.8565  140.0382  160.1467 H   0  0  0  0  0  0  0  0  0  0  0  0
  152.8016  140.8853  161.2747 H   0  0  0  0  0  0  0  0  0  0  0  0
  154.1389  141.7423  160.4931 H   0  0  0  0  0  0  0  0  0  0  0  0
  149.1976  136.6275  153.6750 H   0  0  0  0  0  0  0  0  0  0  0  0
  149.3975  142.9731  155.6827 H   0  0  0  0  0  0  0  0  0  0  0  0
  1  2  1  0  0  0  0
  1 25  1  0  0  0  0
  1 26  1  0  0  0  0
  1 27  1  0  0  0  0
  2 23  1  0  0  0  0
  2  3  2  0  0  0  0
  3  4  1  0  0  0  0
  3 28  1  0  0  0  0
  4 21  2  0  0  0  0
  4  5  1  0  0  0  0
  5  6  2  0  0  0  0
  5 52  1  0  0  0  0
  6  7  1  0  0  0  0
  6 29  1  0  0  0  0
  7  8  1  0  0  0  0
  7 21  1  0  0  0  0
  8  9  1  0  0  0  0
  8 30  1  0  0  0  0
  8 31  1  0  0  0  0
  9 10  1  0  0  0  0
  9 11  1  0  0  0  0
  9 32  1  0  0  0  0
 10 33  1  0  0  0  0
 11 12  1  0  0  0  0
 11 34  1  0  0  0  0
 11 35  1  0  0  0  0
 12 20  1  0  0  0  0
 12 13  1  0  0  0  0
 12 51  1  0  0  0  0
 13 14  1  0  0  0  0
 13 36  1  0  0  0  0
 13 37  1  0  0  0  0
 14 15  1  0  0  0  0
 14 38  1  0  0  0  0
 14 39  1  0  0  0  0
 15 16  1  0  0  0  0
 15 19  1  0  0  0  0
 15 40  1  0  0  0  0
 16 17  1  0  0  0  0
 16 18  2  0  0  0  0
 17 41  1  0  0  0  0
 17 42  1  0  0  0  0
 19 20  1  0  0  0  0
 19 43  1  0  0  0  0
 19 44  1  0  0  0  0
 20 45  1  0  0  0  0
 20 46  1  0  0  0  0
 21 22  1  0  0  0  0
 22 23  2  0  0  0  0
 22 47  1  0  0  0  0
 23 24  1  0  0  0  0
 24 48  1  0  0  0  0
 24 49  1  0  0  0  0
 24 50  1  0  0  0  0
M  CHG  1   5   1
M  CHG  1  12   1
M  END
> <s_m_source_file>
AV-unprocessed.smi

> <i_m_source_file_index>
1695

> <i_lp_mmshare_version>
43012

> <i_f3d_flags>
0

> <s_epik_input>
W0NIM11jKFtjSF0xKWMoW0NIM10pW2NIXWMoYzEyKW4oW2NIXW4yKVtDSDJdW0NASF0oW09IXSlbQ0gyXU4zW0NIMl1bQ0gyXVtDSF0oQyg9TylbTkgyXSlbQ0gyXVtDSDJdMw==

> <s_epik_cmdline>
J2VwaWtfcHl0aG9uJywgJy1waCcsICc3LjAnLCAnLXRuJywgJzgnLCAnLW1hJywgJzIwMCcsICctbWV0YWxfYmluZGluZycsICctaW1hZScsICc8aW5maWxlLm1hZT4nLCAnLW9tYWUnLCAnPG91dGZpbGUubWFlPic=

> <r_epik_Ionization_Penalty>
1.20173

> <r_epik_Ionization_Penalty_Charging>
1.20172

> <r_epik_Ionization_Penalty_Neutral>
1.7852e-06

> <r_epik_State_Penalty>
1.28089

> <r_epik_Charging_Adjusted_Penalty>
2.48261

> <i_epik_Tot_Q>
2

> <i_epik_Tot_abs_Q>
2

> <r_epik_Metal_State_Penalty>
1.35652

> <b_epik_Metal_Only>
0

> <s_lp_Force_Field>
OPLS_2005

> <r_lp_Energy>
30.0744

> <b_lp_Chiralities_Consistent>
1

> <s_lp_Variant>
AV-unprocessed.smi:1695-8

> <Gold.Version>
5.8.1

> <Gold.Id.Protein>
6NUR|6NUR_protein|mol2

> <Gold.PLP.Fitness>
59.4786

> <Gold.PLP.PLP>
-43.4607

> <Gold.PLP.part.hbond>
-4.4143

> <Gold.PLP.part.metal>
0.0000

> <Gold.PLP.part.buried>
-4.6858

> <Gold.PLP.part.nonpolar>
-34.3524

> <Gold.PLP.part.repulsive>
0.2424

> <Gold.PLP.ligand.clash>
0.0000

> <Gold.PLP.ligand.torsion>
0.9916

> <Gold.PLP.Chemscore.Hbond>
5.9840

> <Gold.PLP.Chemscore.CHOScore>
0.0000

> <Gold.PLP.Chemscore.Metal>
0.0000

> <Gold.Chemscore.Hbonds>
donor molecule, donor type, donor heavy atom, donor atom, acceptor molecule, acceptor atom, score
      L1  H     5    52       P1  8028  2.00
      L1  H    10    33       P1  7949  1.00
      L1  H    12    51       P1  7948  2.00
      P1  H 10752 10765       L1    10  1.00

> <Gold.PLP.Chemscore.Internal.Correction>
0.0490

> <Gold.Rescore>
     Score         DG    S(hbond)    S(metal)    S(lipo)     H(rot)  DE(clash)    DE(int)     intcor
     19.72     -21.35       3.43        0.00     101.51       2.91       0.56       1.06       ----

> <Gold.Chemscore.Fitness>
19.7216

> <Gold.Chemscore.DG>
-21.3474

> <Gold.Chemscore.ZeroCoef>
-5.4800

> <Gold.Chemscore.Hbond>
3.4274

> <Gold.Chemscore.Metal>
0.0000

> <Gold.Chemscore.Lipo>
101.5070

> <Gold.Chemscore.Internal_Hbond>
0.0000

> <Gold.Chemscore.DEClash>
0.5611

> <Gold.Chemscore.DEInternal>
1.0647

> <Gold.Chemscore.Rot>
2.9127

> <Gold.Chemscore.Internal.Correction>
   9.000000E+99

> <Gold.Chemscore.Hbonds>
donor molecule, donor type, donor heavy atom, donor atom, acceptor molecule, acceptor atom, score
      L1  H     5    52       P1  8028  0.97
      L1  H    10    33       P1  7949  0.79
      L1  H    12    51       P1  7948  0.95
      P1  H 10752 10765       L1    10  0.29

> <Gold.Chemscore.Hbond.Weighted>
-11.4475

> <Gold.Chemscore.Metal.Weighted>
-0.0000

> <Gold.Chemscore.Lipo.Weighted>
-11.8763

> <Gold.Chemscore.Internal_Hbond.Weighted>
0.0000

> <Gold.Chemscore.DEClash.Weighted>
0.5611

> <Gold.Chemscore.DEInternal.Weighted>
1.0647

> <Gold.Chemscore.Rot.Weighted>
7.4565

> <Gold.Chemscore.Internal.Correction.Weighted>
   9.000000E+99

> <Gold.Protein.RotatedTorsions>
[ 6907 6896 6895 6894 ] final   79.81 input  -60.11 | X-H torsion
[ 7974 7965 7964 7962 ] final -150.54 input  175.53 | X-H torsion
[ 8008 7997 7996 7995 ] final  145.51 input   59.86 | X-H torsion
[ 10167 10162 10161 10158 ] final  -52.73 input  -65.29 | X-H torsion
[ 10718 10713 10712 10709 ] final -111.40 input   66.30 | X-H torsion
[ 10763 10752 10751 10750 ] final  151.87 input  -60.55 | X-H torsion
[ 11005 11000 10999 10996 ] final  177.37 input  -57.11 | X-H torsion

> <Gold.Protein.ActiveResidues>
 VAL166  LYS551  ARG553  GLY616  TRP617  ASP618  TYR619  PRO620  LYS621  CYS622 
 ASP623  PHE694  ASN695  SER759  ASP760  ASP761  ALA762  ILE779  LEU786  VAL792 
 PHE793  MET794  SER795  GLU796  ALA797  LYS798  CYS799  TRP800  GLU811  SER814 

> <Gold.Protein.RotatedAtoms>
  152.5212  134.3454  159.9231 H   0  0  0  0  0  0  0  0  0  0  0  0  # atno 6907 bound_to 6896
  151.3404  133.3958  159.2678 H   0  0  0  0  0  0  0  0  0  0  0  0  # atno 6908 bound_to 6896
  150.9808  134.9181  159.7901 H   0  0  0  0  0  0  0  0  0  0  0  0  # atno 6909 bound_to 6896
  144.7901  140.4918  143.5778 H   0  0  0  0  0  0  0  0  0  0  0  0  # atno 7974 bound_to 7965
  156.2881  140.2207  156.5227 H   0  0  0  0  0  0  0  0  0  0  0  0  # atno 8008 bound_to 7997
  154.7515  140.0480  157.0919 H   0  0  0  0  0  0  0  0  0  0  0  0  # atno 8009 bound_to 7997
  155.0104  140.3112  155.4835 H   0  0  0  0  0  0  0  0  0  0  0  0  # atno 8010 bound_to 7997
  140.6522  143.2574  151.4690 H   0  0  0  0  0  0  0  0  0  0  0  0  # atno 10167 bound_to 10162
  156.0645  130.5865  150.8369 H   0  0  0  0  0  0  0  0  0  0  0  0  # atno 10718 bound_to 10713
  154.1109  135.2839  155.3231 H   0  0  0  0  0  0  0  0  0  0  0  0  # atno 10763 bound_to 10752
  154.6490  135.5375  153.7883 H   0  0  0  0  0  0  0  0  0  0  0  0  # atno 10764 bound_to 10752
  153.0346  135.6505  154.1268 H   0  0  0  0  0  0  0  0  0  0  0  0  # atno 10765 bound_to 10752
  140.3833  134.6927  157.4464 H   0  0  0  0  0  0  0  0  0  0  0  0  # atno 11005 bound_to 11000
  145.5816  139.1489  143.3232 LP  0  0  0  0  0  0  0  0  0  0  0  0  # atno 17320 bound_to 7965
  146.2150  140.5945  142.9042 LP  0  0  0  0  0  0  0  0  0  0  0  0  # atno 17321 bound_to 7965
  139.5739  144.1864  152.1875 LP  0  0  0  0  0  0  0  0  0  0  0  0  # atno 17342 bound_to 10162
  140.1169  144.5408  150.6888 LP  0  0  0  0  0  0  0  0  0  0  0  0  # atno 17343 bound_to 10162
  157.5677  131.0946  150.9464 LP  0  0  0  0  0  0  0  0  0  0  0  0  # atno 17370 bound_to 10713
  156.9688  130.5483  149.5289 LP  0  0  0  0  0  0  0  0  0  0  0  0  # atno 17371 bound_to 10713
  140.0462  134.6196  155.8919 LP  0  0  0  0  0  0  0  0  0  0  0  0  # atno 17394 bound_to 11000
  141.1916  133.6572  156.5463 LP  0  0  0  0  0  0  0  0  0  0  0  0  # atno 17395 bound_to 11000

$$$$
