#       Name:                AV-unprocessed.smi:3230
#       Creating user name   scv26
#       Creation time:       Fri Mar 27 18:18:04 2020


#       File generated by GOLD software.
#

@<TRIPOS>MOLECULE
AV-unprocessed.smi:3230
    47    47     1
SMALL
NO_CHARGES


@<TRIPOS>ATOM
      1 ****        -4.7781  -0.0486  -1.3183 C.3            1 S1                 0.0000
      2 ****        -3.3706   0.3280  -1.8052 C.3            1 S1                 0.0000
      3 ****        -2.5266   1.1244  -0.7762 C.3            1 S1                 0.0000
      4 ****        -3.0940   2.5497  -0.5541 C.3            1 S1                 0.0000
      5 ****        -2.4989   3.2953   0.6500 C.3            1 S1                 0.0000
      6 ****        -1.0139   1.1423  -1.1360 C.3            1 S1                 0.0000
      7 ****        -0.8404   1.7265  -2.4130 O.3            1 S1                 0.0000
      8 ****        -0.3670  -0.2618  -1.1428 C.3            1 S1                 0.0000
      9 ****         1.0751  -0.2054  -0.9258 N.am           1 S1                 0.0000
     10 ****         1.6722  -0.0244   0.2627 C.2            1 S1                 0.0000
     11 ****         1.0524   0.1330   1.3149 O.2            1 S1                 0.0000
     12 ****         3.2015  -0.0199   0.2678 C.3            1 S1                 0.0000
     13 ****         3.7205  -1.3334   0.7862 C.2            1 S1                 0.0000
     14 ****         3.9808  -1.7098   2.1333 C.2            1 S1                 0.0000
     15 ****         4.4295  -2.9953   2.0291 C.2            1 S1                 0.0000
     16 ****         4.8756  -4.0006   3.0348 C.3            1 S1                 0.0000
     17 ****         4.4501  -3.3809   0.7273 O.3            1 S1                 0.0000
     18 ****         3.9997  -2.3142  -0.0584 N.2            1 S1                 0.0000
     19 ****        -5.2742  -0.6914  -2.0457 H              1 S1                 0.0000
     20 ****        -5.4124   0.8259  -1.1782 H              1 S1                 0.0000
     21 ****        -4.7368  -0.5919  -0.3739 H              1 S1                 0.0000
     22 ****        -2.8647  -0.6032  -2.0567 H              1 S1                 0.0000
     23 ****        -3.4470   0.8859  -2.7392 H              1 S1                 0.0000
     24 ****        -2.6134   0.6003   0.1768 H              1 S1                 0.0000
     25 ****        -2.9688   3.1511  -1.4550 H              1 S1                 0.0000
     26 ****        -4.1684   2.4925  -0.3872 H              1 S1                 0.0000
     27 ****        -3.0325   4.2302   0.8215 H              1 S1                 0.0000
     28 ****        -1.4502   3.5487   0.4983 H              1 S1                 0.0000
     29 ****        -2.5758   2.7002   1.5603 H              1 S1                 0.0000
     30 ****        -0.4886   1.7619  -0.4109 H              1 S1                 0.0000
     31 ****        -1.1892   2.6045  -2.3893 H              1 S1                 0.0000
     32 ****        -0.8057  -0.8821  -0.3594 H              1 S1                 0.0000
     33 ****        -0.5593  -0.7811  -2.0821 H              1 S1                 0.0000
     34 ****         1.6615  -0.3228  -1.7396 H              1 S1                 0.0000
     35 ****         3.5815   0.1810  -0.7352 H              1 S1                 0.0000
     36 ****         3.5488   0.7992   0.8983 H              1 S1                 0.0000
     37 ****         3.8528  -1.1279   3.0340 H              1 S1                 0.0000
     38 ****         5.0060  -3.5398   4.0140 H              1 S1                 0.0000
     39 ****         5.8264  -4.4465   2.7423 H              1 S1                 0.0000
     40 ****         4.1412  -4.8003   3.1320 H              1 S1                 0.0000
     41 ****        -1.3281   1.1878  -3.1000 LP             1 S1                 0.0000
     42 ****         0.1327   1.7558  -2.6417 LP             1 S1                 0.0000
     43 ****         0.0524   0.1300   1.3114 LP             1 S1                 0.0000
     44 ****         1.5490   0.2639   2.1729 LP             1 S1                 0.0000
     45 ****         3.8502  -4.1707   0.5998 LP             1 S1                 0.0000
     46 ****         5.3830  -3.6247   0.4623 LP             1 S1                 0.0000
     47 ****         3.9076  -2.2963  -1.0540 LP             1 S1                 0.0000
@<TRIPOS>BOND
    1    1    2 1     
    2    1   19 1     
    3    1   20 1     
    4    1   21 1     
    5    2    3 1     
    6    2   22 1     
    7    2   23 1     
    8    3    4 1     
    9    3    6 1     
   10    3   24 1     
   11    4    5 1     
   12    4   25 1     
   13    4   26 1     
   14    5   27 1     
   15    5   28 1     
   16    5   29 1     
   17    6    7 1     
   18    6    8 1     
   19    6   30 1     
   20    7   31 1     
   21    8    9 1     
   22    8   32 1     
   23    8   33 1     
   24    9   10 am    
   25    9   34 1     
   26   10   11 2     
   27   10   12 1     
   28   12   13 1     
   29   12   35 1     
   30   12   36 1     
   31   13   18 2     
   32   13   14 1     
   33   14   15 2     
   34   14   37 1     
   35   15   16 1     
   36   15   17 1     
   37   16   38 1     
   38   16   39 1     
   39   16   40 1     
   40   17   18 1     
   41    7   41 1     
   42    7   42 1     
   43   11   43 1     
   44   11   44 1     
   45   17   45 1     
   46   17   46 1     
   47   18   47 1     
@<TRIPOS>SUBSTRUCTURE
      1 S1             1
@<TRIPOS>SET
LONE_PAIRS      STATIC     ATOMS    <user>   **** ""
7 41 42 43 44 45 46 47
DONOR_HYDROGENS      STATIC     ATOMS    <user>   **** ""
2 31 34
ATOM$BLUE        STATIC     ATOMS    COLORGROUP SYSTEM
7 41 42 43 44 45 46 47
ATOM$RED        STATIC     ATOMS    COLORGROUP SYSTEM
2 31 34
