#       Name:                AV-unprocessed.smi:66
#       Creating user name   scv26
#       Creation time:       Thu Mar 26 16:51:47 2020


#       File generated by GOLD software.
#

@<TRIPOS>MOLECULE
AV-unprocessed.smi:66
    37    39     1
SMALL
NO_CHARGES


@<TRIPOS>ATOM
      1 ****        -2.5814  -0.3649   1.8255 O.co2          1 S1                 0.0000
      2 ****        -1.3490  -0.1920   1.9470 C.2            1 S1                 0.0000
      3 ****        -0.6284  -0.7178   2.8244 O.co2          1 S1                -1.0000
      4 ****        -0.6823   0.7482   0.9289 C.3            1 S1                 0.0000
      5 ****        -0.2055   2.0555   1.5868 C.3            1 S1                 0.0000
      6 ****         1.2692   1.7911   1.8897 C.3            1 S1                 0.0000
      7 ****         2.0239   2.9802   1.9939 O.3            1 S1                 0.0000
      8 ****         1.7060   0.9238   0.7086 C.3            1 S1                 0.0000
      9 ****         0.5220   0.1516   0.3494 N.pl3          1 S1                 0.0000
     10 ****         0.5099  -0.6464  -0.8165 C.ar           1 S1                 0.0000
     11 ****         1.6859  -0.8703  -1.4519 N.ar           1 S1                 0.0000
     12 ****         1.6821  -1.6216  -2.5602 C.ar           1 S1                 0.0000
     13 ****         0.6501  -2.2194  -3.1736 N.ar           1 S1                 0.0000
     14 ****        -0.5224  -2.0175  -2.5587 C.ar           1 S1                 0.0000
     15 ****        -1.7499  -2.5213  -2.9672 N.2            1 S1                 0.0000
     16 ****        -2.5673  -2.0459  -2.0299 C.2            1 S1                 0.0000
     17 ****        -2.0025  -1.2926  -1.0732 N.pl3          1 S1                 0.0000
     18 ****        -0.6498  -1.2355  -1.3702 C.ar           1 S1                 0.0000
     19 ****        -2.4867  -0.8783  -0.2876 H              1 S1                 0.0000
     20 ****        -1.4004   0.9919   0.1454 H              1 S1                 0.0000
     21 ****        -0.3002   2.8715   0.8687 H              1 S1                 0.0000
     22 ****        -0.7730   2.3357   2.4757 H              1 S1                 0.0000
     23 ****         1.3587   1.2248   2.8177 H              1 S1                 0.0000
     24 ****         2.9250   2.7475   2.1558 H              1 S1                 0.0000
     25 ****         2.0009   1.5439  -0.1399 H              1 S1                 0.0000
     26 ****         2.5452   0.2796   0.9737 H              1 S1                 0.0000
     27 ****         2.6456  -1.7649  -3.0264 H              1 S1                 0.0000
     28 ****        -3.6264  -2.2581  -2.0357 H              1 S1                 0.0000
     29 ****        -3.0672  -0.9646   2.4613 LP             1 S1                 0.0000
     30 ****        -3.0811   0.0966   1.0925 LP             1 S1                 0.0000
     31 ****        -1.0331  -1.3321   3.5017 LP             1 S1                 0.0000
     32 ****         0.3523  -0.5236   2.8483 LP             1 S1                 0.0000
     33 ****         1.6772   3.5353   2.7500 LP             1 S1                 0.0000
     34 ****         1.9568   3.4988   1.1415 LP             1 S1                 0.0000
     35 ****         2.5382  -0.4827  -1.1005 LP             1 S1                 0.0000
     36 ****         0.7466  -2.7623  -4.0078 LP             1 S1                 0.0000
     37 ****        -1.9643  -3.0926  -3.7594 LP             1 S1                 0.0000
@<TRIPOS>BOND
    1    1    2 ar    
    2    2    3 ar    
    3    2    4 1     
    4    4    9 1     
    5    4    5 1     
    6    4   20 1     
    7    5    6 1     
    8    5   21 1     
    9    5   22 1     
   10    6    7 1     
   11    6    8 1     
   12    6   23 1     
   13    7   24 1     
   14    8    9 1     
   15    8   25 1     
   16    8   26 1     
   17    9   10 1     
   18   10   18 ar    
   19   10   11 ar    
   20   11   12 ar    
   21   12   13 ar    
   22   12   27 1     
   23   13   14 ar    
   24   14   18 ar    
   25   14   15 1     
   26   15   16 2     
   27   16   17 1     
   28   16   28 1     
   29   17   19 1     
   30   17   18 1     
   31    1   29 1     
   32    1   30 1     
   33    3   31 1     
   34    3   32 1     
   35    7   33 1     
   36    7   34 1     
   37   11   35 1     
   38   13   36 1     
   39   15   37 1     
@<TRIPOS>SUBSTRUCTURE
      1 S1             1
@<TRIPOS>SET
LONE_PAIRS      STATIC     ATOMS    <user>   **** ""
9 29 30 31 32 33 34 35 36 37
DONOR_HYDROGENS      STATIC     ATOMS    <user>   **** ""
2 24 19
ATOM$BLUE        STATIC     ATOMS    COLORGROUP SYSTEM
9 29 30 31 32 33 34 35 36 37
ATOM$RED        STATIC     ATOMS    COLORGROUP SYSTEM
2 24 19
