AV-unprocessed.smi:2061|AV-procd|sdf|8377|dock1
  -GOLD-   2272011 53D 1   1.00000     0.00000
 Structure written by MMmdl.
 44 45  0  0  0  0  0  0  0  0  2 V2000
  143.9862  142.8588  162.8999 C   0  0  0  0  0  0  0  0  0  0  0  0
  144.7929  142.5326  161.6898 C   0  0  0  0  0  0  0  0  0  0  0  0
  145.1529  143.2601  160.5912 C   0  0  0  0  0  0  0  0  0  0  0  0
  145.9230  142.3389  159.8295 C   0  0  0  0  0  0  0  0  0  0  0  0
  146.4898  142.5793  158.6372 N   0  5  0  0  0  0  0  0  0  0  0  0
  147.4267  141.7373  158.1437 C   0  0  0  0  0  0  0  0  0  0  0  0
  147.5851  140.5555  158.4580 O   0  0  0  0  0  0  0  0  0  0  0  0
  148.2351  142.3079  157.2380 N   0  0  0  0  0  0  0  0  0  0  0  0
  149.3478  141.6710  156.5355 C   0  0  0  0  0  0  0  0  0  0  0  0
  150.3400  140.9560  157.4964 C   0  0  1  0  0  0  0  0  0  0  0  0
  150.9429  139.7241  156.7734 C   0  0  0  0  0  0  0  0  0  0  0  0
  151.3776  141.8605  158.0487 N   0  0  0  0  0  0  0  0  0  0  0  0
  152.2481  141.1909  159.0197 C   0  0  0  0  0  0  0  0  0  0  0  0
  153.3393  142.1164  159.5877 C   0  0  2  0  0  0  0  0  0  0  0  0
  154.1799  141.4202  160.6634 C   0  0  0  0  0  0  0  0  0  0  0  0
  152.7345  143.2623  160.1765 O   0  0  0  0  0  0  0  0  0  0  0  0
  151.8656  143.9876  159.3100 C   0  0  1  0  0  0  0  0  0  0  0  0
  152.6455  144.7948  158.2578 C   0  0  0  0  0  0  0  0  0  0  0  0
  150.8082  143.0474  158.6976 C   0  0  0  0  0  0  0  0  0  0  0  0
  146.0103  141.1531  160.4081 N   0  0  0  0  0  0  0  0  0  0  0  0
  145.2922  141.2704  161.6043 O   0  0  0  0  0  0  0  0  0  0  0  0
  142.9307  142.9522  162.6445 H   0  0  0  0  0  0  0  0  0  0  0  0
  144.3129  143.8013  163.3391 H   0  0  0  0  0  0  0  0  0  0  0  0
  144.0837  142.0819  163.6586 H   0  0  0  0  0  0  0  0  0  0  0  0
  144.9075  144.2873  160.3676 H   0  0  0  0  0  0  0  0  0  0  0  0
  148.0608  143.2776  157.0188 H   0  0  0  0  0  0  0  0  0  0  0  0
  149.0003  140.9759  155.7694 H   0  0  0  0  0  0  0  0  0  0  0  0
  149.8300  142.4904  156.0068 H   0  0  0  0  0  0  0  0  0  0  0  0
  149.7506  140.5745  158.3316 H   0  0  0  0  0  0  0  0  0  0  0  0
  150.1779  139.0789  156.3441 H   0  0  0  0  0  0  0  0  0  0  0  0
  151.5034  139.0774  157.4461 H   0  0  0  0  0  0  0  0  0  0  0  0
  151.6059  140.0286  155.9631 H   0  0  0  0  0  0  0  0  0  0  0  0
  151.6467  140.7874  159.8360 H   0  0  0  0  0  0  0  0  0  0  0  0
  152.7610  140.3493  158.5587 H   0  0  0  0  0  0  0  0  0  0  0  0
  154.0062  142.4290  158.7837 H   0  0  0  0  0  0  0  0  0  0  0  0
  154.6837  140.5413  160.2602 H   0  0  0  0  0  0  0  0  0  0  0  0
  153.5607  141.0968  161.5004 H   0  0  0  0  0  0  0  0  0  0  0  0
  154.9452  142.0911  161.0547 H   0  0  0  0  0  0  0  0  0  0  0  0
  151.3440  144.7099  159.9386 H   0  0  0  0  0  0  0  0  0  0  0  0
  151.9738  145.4351  157.6859 H   0  0  0  0  0  0  0  0  0  0  0  0
  153.1624  144.1510  157.5465 H   0  0  0  0  0  0  0  0  0  0  0  0
  153.3890  145.4360  158.7318 H   0  0  0  0  0  0  0  0  0  0  0  0
  150.2297  143.6389  157.9910 H   0  0  0  0  0  0  0  0  0  0  0  0
  150.1179  142.7332  159.4819 H   0  0  0  0  0  0  0  0  0  0  0  0
  1  2  1  0  0  0  0
  1 22  1  0  0  0  0
  1 23  1  0  0  0  0
  1 24  1  0  0  0  0
  2 21  1  0  0  0  0
  2  3  2  0  0  0  0
  3  4  1  0  0  0  0
  3 25  1  0  0  0  0
  4  5  1  0  0  0  0
  4 20  2  0  0  0  0
  5  6  1  0  0  0  0
  6  7  2  0  0  0  0
  6  8  1  0  0  0  0
  8  9  1  0  0  0  0
  8 26  1  0  0  0  0
  9 10  1  0  0  0  0
  9 27  1  0  0  0  0
  9 28  1  0  0  0  0
 10 11  1  0  0  0  0
 10 12  1  0  0  0  0
 10 29  1  0  0  0  0
 11 30  1  0  0  0  0
 11 31  1  0  0  0  0
 11 32  1  0  0  0  0
 12 19  1  0  0  0  0
 12 13  1  0  0  0  0
 13 14  1  0  0  0  0
 13 33  1  0  0  0  0
 13 34  1  0  0  0  0
 14 15  1  0  0  0  0
 14 16  1  0  0  0  0
 14 35  1  0  0  0  0
 15 36  1  0  0  0  0
 15 37  1  0  0  0  0
 15 38  1  0  0  0  0
 16 17  1  0  0  0  0
 17 18  1  0  0  0  0
 17 19  1  0  0  0  0
 17 39  1  0  0  0  0
 18 40  1  0  0  0  0
 18 41  1  0  0  0  0
 18 42  1  0  0  0  0
 19 43  1  0  0  0  0
 19 44  1  0  0  0  0
 20 21  1  0  0  0  0
M  CHG  1   5  -1
M  END
> <s_m_source_file>
AV-unprocessed.smi

> <i_m_source_file_index>
2061

> <i_lp_mmshare_version>
43012

> <i_f3d_flags>
0

> <s_epik_input>
W0NIM11jMVtjSF1jKG5vMSlbTkhdQyg9TylbTkhdW0NIMl1bQ0BIXShbQ0gzXSlOMltDSDJdW0NAQEhdKFtDSDNdKU9bQ0BASF0oW0NIM10pW0NIMl0y

> <s_epik_cmdline>
J2VwaWtfcHl0aG9uJywgJy1waCcsICc3LjAnLCAnLXRuJywgJzgnLCAnLW1hJywgJzIwMCcsICctbWV0YWxfYmluZGluZycsICctaW1hZScsICc8aW5maWxlLm1hZT4nLCAnLW9tYWUnLCAnPG91dGZpbGUubWFlPic=

> <r_epik_Ionization_Penalty>
6.88367

> <r_epik_Ionization_Penalty_Charging>
6.57198

> <r_epik_Ionization_Penalty_Neutral>
0.311681

> <r_epik_State_Penalty>
6.77619

> <r_epik_Charging_Adjusted_Penalty>
13.3482

> <i_epik_Tot_Q>
-1

> <i_epik_Tot_abs_Q>
1

> <r_epik_Metal_State_Penalty>
2.70524

> <b_epik_Metal_Only>
1

> <s_lp_Force_Field>
OPLS_2005

> <r_lp_Energy>
24.2039

> <b_lp_Chiralities_Consistent>
1

> <s_lp_Variant>
AV-unprocessed.smi:2061-18

> <Gold.Version>
5.8.1

> <Gold.Id.Protein>
6NUR|6NUR_protein|mol2

> <Gold.PLP.Fitness>
44.1639

> <Gold.PLP.PLP>
-39.1175

> <Gold.PLP.part.hbond>
-3.7409

> <Gold.PLP.part.metal>
0.0000

> <Gold.PLP.part.buried>
-6.9561

> <Gold.PLP.part.nonpolar>
-28.5802

> <Gold.PLP.part.repulsive>
0.1807

> <Gold.PLP.ligand.clash>
0.0000

> <Gold.PLP.ligand.torsion>
0.5620

> <Gold.PLP.Chemscore.Hbond>
2.0000

> <Gold.PLP.Chemscore.CHOScore>
0.0000

> <Gold.PLP.Chemscore.Metal>
0.0000

> <Gold.Chemscore.Hbonds>
donor molecule, donor type, donor heavy atom, donor atom, acceptor molecule, acceptor atom, score
      L1  H     8    26       P1  8028  0.37

> <Gold.PLP.Chemscore.Internal.Correction>
0.1704

> <Gold.Rescore>
     Score         DG    S(hbond)    S(metal)    S(lipo)     H(rot)  DE(clash)    DE(int)     intcor
     14.75     -17.11       1.46        0.00      91.06       1.52       0.14       2.21       ----

> <Gold.Chemscore.Fitness>
14.7506

> <Gold.Chemscore.DG>
-17.1072

> <Gold.Chemscore.ZeroCoef>
-5.4800

> <Gold.Chemscore.Hbond>
1.4556

> <Gold.Chemscore.Metal>
0.0000

> <Gold.Chemscore.Lipo>
91.0599

> <Gold.Chemscore.Internal_Hbond>
0.0000

> <Gold.Chemscore.DEClash>
0.1417

> <Gold.Chemscore.DEInternal>
2.2149

> <Gold.Chemscore.Rot>
1.5190

> <Gold.Chemscore.Internal.Correction>
   9.000000E+99

> <Gold.Chemscore.Hbonds>
donor molecule, donor type, donor heavy atom, donor atom, acceptor molecule, acceptor atom, score
      L1  H     8    26       P1  8028  0.03

> <Gold.Chemscore.Hbond.Weighted>
-4.8618

> <Gold.Chemscore.Metal.Weighted>
-0.0000

> <Gold.Chemscore.Lipo.Weighted>
-10.6540

> <Gold.Chemscore.Internal_Hbond.Weighted>
0.0000

> <Gold.Chemscore.DEClash.Weighted>
0.1417

> <Gold.Chemscore.DEInternal.Weighted>
2.2149

> <Gold.Chemscore.Rot.Weighted>
3.8886

> <Gold.Chemscore.Internal.Correction.Weighted>
   9.000000E+99

> <Gold.Protein.RotatedTorsions>
[ 6907 6896 6895 6894 ] final  126.91 input  -60.11 | X-H torsion
[ 7974 7965 7964 7962 ] final   20.88 input  175.53 | X-H torsion
[ 8008 7997 7996 7995 ] final   85.36 input   59.86 | X-H torsion
[ 10167 10162 10161 10158 ] final  -91.50 input  -65.29 | X-H torsion
[ 10718 10713 10712 10709 ] final  -41.91 input   66.30 | X-H torsion
[ 10763 10752 10751 10750 ] final   63.09 input  -60.55 | X-H torsion
[ 11005 11000 10999 10996 ] final   43.13 input  -57.11 | X-H torsion

> <Gold.Protein.ActiveResidues>
 VAL166  LYS551  ARG553  GLY616  TRP617  ASP618  TYR619  PRO620  LYS621  CYS622 
 ASP623  PHE694  ASN695  SER759  ASP760  ASP761  ALA762  ILE779  LEU786  VAL792 
 PHE793  MET794  SER795  GLU796  ALA797  LYS798  CYS799  TRP800  GLU811  SER814 

> <Gold.Protein.RotatedAtoms>
  152.3861  133.6613  159.6199 H   0  0  0  0  0  0  0  0  0  0  0  0  # atno 6907 bound_to 6896
  150.7780  133.9033  159.3356 H   0  0  0  0  0  0  0  0  0  0  0  0  # atno 6908 bound_to 6896
  151.6829  135.0960  160.0270 H   0  0  0  0  0  0  0  0  0  0  0  0  # atno 6909 bound_to 6896
  146.2094  139.8107  142.8701 H   0  0  0  0  0  0  0  0  0  0  0  0  # atno 7974 bound_to 7965
  155.9490  140.3402  155.6391 H   0  0  0  0  0  0  0  0  0  0  0  0  # atno 8008 bound_to 7997
  155.6944  140.0753  157.2453 H   0  0  0  0  0  0  0  0  0  0  0  0  # atno 8009 bound_to 7997
  154.4118  140.1651  156.2109 H   0  0  0  0  0  0  0  0  0  0  0  0  # atno 8010 bound_to 7997
  140.3442  143.2925  151.9800 H   0  0  0  0  0  0  0  0  0  0  0  0  # atno 10167 bound_to 10162
  156.2652  130.4201  149.8498 H   0  0  0  0  0  0  0  0  0  0  0  0  # atno 10718 bound_to 10713
  153.0005  135.5441  154.6296 H   0  0  0  0  0  0  0  0  0  0  0  0  # atno 10763 bound_to 10752
  154.5577  135.2831  155.0951 H   0  0  0  0  0  0  0  0  0  0  0  0  # atno 10764 bound_to 10752
  154.2166  135.6458  153.5184 H   0  0  0  0  0  0  0  0  0  0  0  0  # atno 10765 bound_to 10752
  140.1674  134.4265  155.8278 H   0  0  0  0  0  0  0  0  0  0  0  0  # atno 11005 bound_to 11000
  145.3199  141.0241  143.3506 LP  0  0  0  0  0  0  0  0  0  0  0  0  # atno 17320 bound_to 7965
  144.8874  139.4821  143.6694 LP  0  0  0  0  0  0  0  0  0  0  0  0  # atno 17321 bound_to 7965
  139.4836  144.6131  151.7397 LP  0  0  0  0  0  0  0  0  0  0  0  0  # atno 17342 bound_to 10162
  140.5280  144.0775  150.6044 LP  0  0  0  0  0  0  0  0  0  0  0  0  # atno 17343 bound_to 10162
  156.5999  130.8542  151.3429 LP  0  0  0  0  0  0  0  0  0  0  0  0  # atno 17370 bound_to 10713
  157.7265  130.9630  150.1658 LP  0  0  0  0  0  0  0  0  0  0  0  0  # atno 17371 bound_to 10713
  141.2215  133.6940  156.7703 LP  0  0  0  0  0  0  0  0  0  0  0  0  # atno 17394 bound_to 11000
  140.2417  134.8608  157.3580 LP  0  0  0  0  0  0  0  0  0  0  0  0  # atno 17395 bound_to 11000

$$$$
