AV-unprocessed.smi:2173|AV-procd|sdf|8838|dock3
  -GOLD-   2272012 33D 1   1.00000     0.00000
 Structure written by MMmdl.
 35 36  0  0  0  0  0  0  0  0  1 V2000
  153.7239  140.3573  158.8917 O   0  0  0  0  0  0  0  0  0  0  0  0
  152.7770  141.1076  158.6523 C   0  0  0  0  0  0  0  0  0  0  0  0
  151.7106  140.7406  157.9235 N   0  0  0  0  0  0  0  0  0  0  0  0
  151.5333  139.4463  157.2698 C   0  0  0  0  0  0  0  0  0  0  0  0
  151.6209  139.5391  155.7327 C   0  0  0  0  0  0  0  0  0  0  0  0
  150.3214  139.9567  155.0639 C   0  0  0  0  0  0  0  0  0  0  0  0
  149.4890  138.9942  154.4543 C   0  0  0  0  0  0  0  0  0  0  0  0
  148.3168  139.4330  153.8089 C   0  0  0  0  0  0  0  0  0  0  0  0
  148.0229  140.8102  153.7985 C   0  0  0  0  0  0  0  0  0  0  0  0
  148.9181  141.6910  154.4371 C   0  0  0  0  0  0  0  0  0  0  0  0
  150.0438  141.2807  155.0596 N   0  0  0  0  0  0  0  0  0  0  0  0
  152.7835  142.5507  159.1714 C   0  0  2  0  0  0  0  0  0  0  0  0
  152.4520  142.5927  160.6805 C   0  0  0  0  0  0  0  0  0  0  0  0
  152.2043  144.0073  161.1734 C   0  0  0  0  0  0  0  0  0  0  0  0
  151.9646  145.0442  160.3524 C   0  0  0  0  0  0  0  0  0  0  0  0
  151.9080  144.9174  158.8400 C   0  0  0  0  0  0  0  0  0  0  0  0
  151.8117  143.4499  158.3809 C   0  0  0  0  0  0  0  0  0  0  0  0
  150.9832  141.4257  157.7783 H   0  0  0  0  0  0  0  0  0  0  0  0
  152.2625  138.7248  157.6419 H   0  0  0  0  0  0  0  0  0  0  0  0
  150.5548  139.0586  157.5531 H   0  0  0  0  0  0  0  0  0  0  0  0
  152.4009  140.2487  155.4549 H   0  0  0  0  0  0  0  0  0  0  0  0
  151.9350  138.5762  155.3268 H   0  0  0  0  0  0  0  0  0  0  0  0
  149.7485  137.9459  154.4697 H   0  0  0  0  0  0  0  0  0  0  0  0
  147.6574  138.7266  153.3267 H   0  0  0  0  0  0  0  0  0  0  0  0
  147.1343  141.1829  153.3113 H   0  0  0  0  0  0  0  0  0  0  0  0
  148.7268  142.7537  154.4463 H   0  0  0  0  0  0  0  0  0  0  0  0
  153.7882  142.9557  159.0339 H   0  0  0  0  0  0  0  0  0  0  0  0
  151.5683  141.9953  160.9097 H   0  0  0  0  0  0  0  0  0  0  0  0
  153.2781  142.1663  161.2508 H   0  0  0  0  0  0  0  0  0  0  0  0
  152.2162  144.1596  162.2428 H   0  0  0  0  0  0  0  0  0  0  0  0
  151.8109  146.0306  160.7650 H   0  0  0  0  0  0  0  0  0  0  0  0
  151.0550  145.4819  158.4628 H   0  0  0  0  0  0  0  0  0  0  0  0
  152.8047  145.3821  158.4289 H   0  0  0  0  0  0  0  0  0  0  0  0
  152.0077  143.3863  157.3097 H   0  0  0  0  0  0  0  0  0  0  0  0
  150.7887  143.0987  158.5273 H   0  0  0  0  0  0  0  0  0  0  0  0
  1  2  2  0  0  0  0
  2  3  1  0  0  0  0
  2 12  1  0  0  0  0
  3  4  1  0  0  0  0
  3 18  1  0  0  0  0
  4  5  1  0  0  0  0
  4 19  1  0  0  0  0
  4 20  1  0  0  0  0
  5  6  1  0  0  0  0
  5 21  1  0  0  0  0
  5 22  1  0  0  0  0
  6 11  1  0  0  0  0
  6  7  2  0  0  0  0
  7  8  1  0  0  0  0
  7 23  1  0  0  0  0
  8  9  2  0  0  0  0
  8 24  1  0  0  0  0
  9 10  1  0  0  0  0
  9 25  1  0  0  0  0
 10 11  2  0  0  0  0
 10 26  1  0  0  0  0
 12 17  1  0  0  0  0
 12 13  1  0  0  0  0
 12 27  1  0  0  0  0
 13 14  1  0  0  0  0
 13 28  1  0  0  0  0
 13 29  1  0  0  0  0
 14 15  2  0  0  0  0
 14 30  1  0  0  0  0
 15 16  1  0  0  0  0
 15 31  1  0  0  0  0
 16 17  1  0  0  0  0
 16 32  1  0  0  0  0
 16 33  1  0  0  0  0
 17 34  1  0  0  0  0
 17 35  1  0  0  0  0
M  END
> <s_m_source_file>
AV-unprocessed.smi

> <i_m_source_file_index>
2173

> <i_lp_mmshare_version>
43012

> <i_f3d_flags>
0

> <s_epik_input>
W0NIMl0xW0NIMl1bQ0hdPVtDSF1bQ0gyXVtDQEhdMUMoPU8pW05IXVtDSDJdW0NIMl1jMltjSF1bY0hdW2NIXVtjSF1uMg==

> <s_epik_cmdline>
J2VwaWtfcHl0aG9uJywgJy1waCcsICc3LjAnLCAnLXRuJywgJzgnLCAnLW1hJywgJzIwMCcsICctbWV0YWxfYmluZGluZycsICctaW1hZScsICc8aW5maWxlLm1hZT4nLCAnLW9tYWUnLCAnPG91dGZpbGUubWFlPic=

> <r_epik_Ionization_Penalty>
0.0268825

> <r_epik_Ionization_Penalty_Charging>
0

> <r_epik_Ionization_Penalty_Neutral>
0.0268825

> <r_epik_State_Penalty>
0.0219706

> <r_epik_Charging_Adjusted_Penalty>
0.0219706

> <i_epik_Tot_Q>
0

> <i_epik_Tot_abs_Q>
0

> <r_epik_Metal_State_Penalty>
0.0210138

> <b_epik_Metal_Only>
0

> <s_lp_Force_Field>
OPLS_2005

> <r_lp_Energy>
7.98713

> <b_lp_Chiralities_Consistent>
1

> <s_lp_Variant>
AV-unprocessed.smi:2173-1

> <Gold.Version>
5.8.1

> <Gold.Id.Protein>
6NUR|6NUR_protein|mol2

> <Gold.PLP.Fitness>
45.9047

> <Gold.PLP.PLP>
-42.1570

> <Gold.PLP.part.hbond>
-2.0000

> <Gold.PLP.part.metal>
0.0000

> <Gold.PLP.part.buried>
0.6657

> <Gold.PLP.part.nonpolar>
-38.9617

> <Gold.PLP.part.repulsive>
0.1969

> <Gold.PLP.ligand.clash>
0.0182

> <Gold.PLP.ligand.torsion>
0.9342

> <Gold.PLP.Chemscore.Hbond>
0.8640

> <Gold.PLP.Chemscore.CHOScore>
1.0000

> <Gold.PLP.Chemscore.Metal>
0.0000

> <Gold.Chemscore.Hbonds>
donor molecule, donor type, donor heavy atom, donor atom, acceptor molecule, acceptor atom, score
      P1  H  7997  8009       L1     1  0.85
      L1  C    10    26       P1  8028  1.00

> <Gold.PLP.Chemscore.Internal.Correction>
0.0424

> <Gold.Rescore>
     Score         DG    S(hbond)    S(metal)    S(lipo)     H(rot)  DE(clash)    DE(int)     intcor
     17.27     -18.19       0.77        0.00     117.19       1.39       0.06       0.86       ----

> <Gold.Chemscore.Fitness>
17.2688

> <Gold.Chemscore.DG>
-18.1877

> <Gold.Chemscore.ZeroCoef>
-5.4800

> <Gold.Chemscore.Hbond>
0.7654

> <Gold.Chemscore.Metal>
0.0000

> <Gold.Chemscore.Lipo>
117.1910

> <Gold.Chemscore.Internal_Hbond>
0.0000

> <Gold.Chemscore.DEClash>
0.0616

> <Gold.Chemscore.DEInternal>
0.8573

> <Gold.Chemscore.Rot>
1.3907

> <Gold.Chemscore.Internal.Correction>
   9.000000E+99

> <Gold.Chemscore.Hbonds>
donor molecule, donor type, donor heavy atom, donor atom, acceptor molecule, acceptor atom, score
      P1  H  7997  8009       L1     1  0.60

> <Gold.Chemscore.Hbond.Weighted>
-2.5564

> <Gold.Chemscore.Metal.Weighted>
-0.0000

> <Gold.Chemscore.Lipo.Weighted>
-13.7114

> <Gold.Chemscore.Internal_Hbond.Weighted>
0.0000

> <Gold.Chemscore.DEClash.Weighted>
0.0616

> <Gold.Chemscore.DEInternal.Weighted>
0.8573

> <Gold.Chemscore.Rot.Weighted>
3.5601

> <Gold.Chemscore.Internal.Correction.Weighted>
   9.000000E+99

> <Gold.Protein.RotatedTorsions>
[ 6907 6896 6895 6894 ] final  -55.83 input  -60.11 | X-H torsion
[ 7974 7965 7964 7962 ] final  116.45 input  175.53 | X-H torsion
[ 8008 7997 7996 7995 ] final  139.45 input   59.86 | X-H torsion
[ 10167 10162 10161 10158 ] final  107.56 input  -65.29 | X-H torsion
[ 10718 10713 10712 10709 ] final   26.91 input   66.30 | X-H torsion
[ 10763 10752 10751 10750 ] final   32.45 input  -60.55 | X-H torsion
[ 11005 11000 10999 10996 ] final   61.64 input  -57.11 | X-H torsion

> <Gold.Protein.ActiveResidues>
 VAL166  LYS551  ARG553  GLY616  TRP617  ASP618  TYR619  PRO620  LYS621  CYS622 
 ASP623  PHE694  ASN695  SER759  ASP760  ASP761  ALA762  ILE779  LEU786  VAL792 
 PHE793  MET794  SER795  GLU796  ALA797  LYS798  CYS799  TRP800  GLU811  SER814 

> <Gold.Protein.RotatedAtoms>
  150.8218  134.7430  159.6778 H   0  0  0  0  0  0  0  0  0  0  0  0  # atno 6907 bound_to 6896
  152.4333  134.5732  159.9937 H   0  0  0  0  0  0  0  0  0  0  0  0  # atno 6908 bound_to 6896
  151.5914  133.3329  159.3064 H   0  0  0  0  0  0  0  0  0  0  0  0  # atno 6909 bound_to 6896
  145.1794  139.3058  143.4426 H   0  0  0  0  0  0  0  0  0  0  0  0  # atno 7974 bound_to 7965
  156.2989  140.2367  156.4239 H   0  0  0  0  0  0  0  0  0  0  0  0  # atno 8008 bound_to 7997
  154.8330  140.0432  157.1510 H   0  0  0  0  0  0  0  0  0  0  0  0  # atno 8009 bound_to 7997
  154.9187  140.3000  155.5231 H   0  0  0  0  0  0  0  0  0  0  0  0  # atno 8010 bound_to 7997
  139.6917  144.7107  151.1337 H   0  0  0  0  0  0  0  0  0  0  0  0  # atno 10167 bound_to 10162
  157.2131  130.6943  149.6237 H   0  0  0  0  0  0  0  0  0  0  0  0  # atno 10718 bound_to 10713
  153.0262  135.6413  154.1358 H   0  0  0  0  0  0  0  0  0  0  0  0  # atno 10763 bound_to 10752
  154.1086  135.2854  155.3237 H   0  0  0  0  0  0  0  0  0  0  0  0  # atno 10764 bound_to 10752
  154.6347  135.5480  153.7784 H   0  0  0  0  0  0  0  0  0  0  0  0  # atno 10765 bound_to 10752
  140.0147  134.6243  155.9728 H   0  0  0  0  0  0  0  0  0  0  0  0  # atno 11005 bound_to 11000
  146.3455  140.1968  142.8589 LP  0  0  0  0  0  0  0  0  0  0  0  0  # atno 17320 bound_to 7965
  145.0151  140.8747  143.5200 LP  0  0  0  0  0  0  0  0  0  0  0  0  # atno 17321 bound_to 7965
  140.7684  143.5550  150.9162 LP  0  0  0  0  0  0  0  0  0  0  0  0  # atno 17342 bound_to 10162
  139.9227  143.6586  152.3093 LP  0  0  0  0  0  0  0  0  0  0  0  0  # atno 17343 bound_to 10162
  155.9689  130.4544  150.5850 LP  0  0  0  0  0  0  0  0  0  0  0  0  # atno 17370 bound_to 10713
  157.3652  131.0756  151.1603 LP  0  0  0  0  0  0  0  0  0  0  0  0  # atno 17371 bound_to 10713
  141.1734  133.6538  156.4738 LP  0  0  0  0  0  0  0  0  0  0  0  0  # atno 17394 bound_to 11000
  140.4492  134.6944  157.5031 LP  0  0  0  0  0  0  0  0  0  0  0  0  # atno 17395 bound_to 11000

$$$$
