AV-unprocessed.smi:2032|AV-procd|sdf|8242|dock1
  -GOLD-   2272010513D 1   1.00000     0.00000
 Structure written by MMmdl.
 43 44  0  0  0  0  0  0  0  0  2 V2000
  143.4916  139.7856  155.8409 C   0  0  0  0  0  0  0  0  0  0  0  0
  144.8010  140.3098  156.4573 C   0  0  1  0  0  0  0  0  0  0  0  0
  146.0232  140.1557  155.5289 C   0  0  0  0  0  0  0  0  0  0  0  0
  146.0027  141.1516  154.4221 N   0  3  2  0  0  0  0  0  0  0  0  0
  147.1177  141.0530  153.4230 C   0  0  2  0  0  0  0  0  0  0  0  0
  146.7705  139.9864  152.3595 C   0  0  0  0  0  0  0  0  0  0  0  0
  148.5063  140.7685  154.0608 C   0  0  0  0  0  0  0  0  0  0  0  0
  148.9145  141.7879  155.0252 N   0  0  0  0  0  0  0  0  0  0  0  0
  150.0246  141.7440  155.7772 C   0  0  0  0  0  0  0  0  0  0  0  0
  150.8448  140.8271  155.7216 O   0  0  0  0  0  0  0  0  0  0  0  0
  150.1160  142.8217  156.5755 N   0  0  0  0  0  0  0  0  0  0  0  0
  151.1556  143.1540  157.4834 C   0  0  0  0  0  0  0  0  0  0  0  0
  151.4260  144.3971  157.8985 N   0  0  0  0  0  0  0  0  0  0  0  0
  152.4980  144.4295  158.7937 C   0  0  0  0  0  0  0  0  0  0  0  0
  153.0353  143.1929  159.0514 C   0  0  0  0  0  0  0  0  0  0  0  0
  152.2118  141.9310  158.1744 S   0  0  0  0  0  0  0  0  0  0  0  0
  145.8697  142.5172  154.9945 C   0  0  0  0  0  0  0  0  0  0  0  0
  144.6107  142.6254  155.8708 C   0  0  2  0  0  0  0  0  0  0  0  0
  144.4826  144.0062  156.5238 C   0  0  0  0  0  0  0  0  0  0  0  0
  144.6814  141.6563  156.9105 O   0  0  0  0  0  0  0  0  0  0  0  0
  143.5594  138.7156  155.6426 H   0  0  0  0  0  0  0  0  0  0  0  0
  143.2524  140.2741  154.8967 H   0  0  0  0  0  0  0  0  0  0  0  0
  142.6532  139.9400  156.5206 H   0  0  0  0  0  0  0  0  0  0  0  0
  144.9872  139.7102  157.3488 H   0  0  0  0  0  0  0  0  0  0  0  0
  146.9419  140.2821  156.1039 H   0  0  0  0  0  0  0  0  0  0  0  0
  146.0196  139.1355  155.1461 H   0  0  0  0  0  0  0  0  0  0  0  0
  147.1956  142.0198  152.9225 H   0  0  0  0  0  0  0  0  0  0  0  0
  147.5037  139.9661  151.5540 H   0  0  0  0  0  0  0  0  0  0  0  0
  145.8093  140.1632  151.8806 H   0  0  0  0  0  0  0  0  0  0  0  0
  146.7381  138.9899  152.8009 H   0  0  0  0  0  0  0  0  0  0  0  0
  148.4824  139.8353  154.6231 H   0  0  0  0  0  0  0  0  0  0  0  0
  149.2643  140.6447  153.2851 H   0  0  0  0  0  0  0  0  0  0  0  0
  148.2989  142.5806  155.1359 H   0  0  0  0  0  0  0  0  0  0  0  0
  149.3606  143.4887  156.5205 H   0  0  0  0  0  0  0  0  0  0  0  0
  152.8129  145.3786  159.2017 H   0  0  0  0  0  0  0  0  0  0  0  0
  153.8619  142.9491  159.7021 H   0  0  0  0  0  0  0  0  0  0  0  0
  146.7576  142.7508  155.5846 H   0  0  0  0  0  0  0  0  0  0  0  0
  145.8118  143.2685  154.2090 H   0  0  0  0  0  0  0  0  0  0  0  0
  143.7220  142.4561  155.2621 H   0  0  0  0  0  0  0  0  0  0  0  0
  144.4180  144.7928  155.7713 H   0  0  0  0  0  0  0  0  0  0  0  0
  145.3395  144.2228  157.1620 H   0  0  0  0  0  0  0  0  0  0  0  0
  143.5854  144.0634  157.1405 H   0  0  0  0  0  0  0  0  0  0  0  0
  145.1539  140.9655  153.9068 H   0  0  0  0  0  0  0  0  0  0  0  0
  1  2  1  0  0  0  0
  1 21  1  0  0  0  0
  1 22  1  0  0  0  0
  1 23  1  0  0  0  0
  2 20  1  0  0  0  0
  2  3  1  0  0  0  0
  2 24  1  0  0  0  0
  3  4  1  0  0  0  0
  3 25  1  0  0  0  0
  3 26  1  0  0  0  0
  4  5  1  0  0  0  0
  4 17  1  0  0  0  0
  4 43  1  0  0  0  0
  5  6  1  0  0  0  0
  5  7  1  0  0  0  0
  5 27  1  0  0  0  0
  6 28  1  0  0  0  0
  6 29  1  0  0  0  0
  6 30  1  0  0  0  0
  7  8  1  0  0  0  0
  7 31  1  0  0  0  0
  7 32  1  0  0  0  0
  8  9  1  0  0  0  0
  8 33  1  0  0  0  0
  9 10  2  0  0  0  0
  9 11  1  0  0  0  0
 11 12  1  0  0  0  0
 11 34  1  0  0  0  0
 12 16  1  0  0  0  0
 12 13  2  0  0  0  0
 13 14  1  0  0  0  0
 14 15  2  0  0  0  0
 14 35  1  0  0  0  0
 15 16  1  0  0  0  0
 15 36  1  0  0  0  0
 17 18  1  0  0  0  0
 17 37  1  0  0  0  0
 17 38  1  0  0  0  0
 18 19  1  0  0  0  0
 18 20  1  0  0  0  0
 18 39  1  0  0  0  0
 19 40  1  0  0  0  0
 19 41  1  0  0  0  0
 19 42  1  0  0  0  0
M  CHG  1   4   1
M  END
> <s_m_source_file>
AV-unprocessed.smi

> <i_m_source_file_index>
2032

> <i_lp_mmshare_version>
43012

> <i_f3d_flags>
0

> <s_epik_input>
W0NIM11bQ0BASF0xW0NIMl1OKFtDSDJdW0NASF0oTzEpW0NIM10pW0NASF0oW0NIM10pW0NIMl1bTkhdQyg9TylbTkhdYzJuW2NIXVtjSF1zMg==

> <s_epik_cmdline>
J2VwaWtfcHl0aG9uJywgJy1waCcsICc3LjAnLCAnLXRuJywgJzgnLCAnLW1hJywgJzIwMCcsICctbWV0YWxfYmluZGluZycsICctaW1hZScsICc8aW5maWxlLm1hZT4nLCAnLW9tYWUnLCAnPG91dGZpbGUubWFlPic=

> <r_lp_tautomer_probability>
0.999

> <r_epik_Ionization_Penalty>
0.695838

> <r_epik_Ionization_Penalty_Charging>
0.695697

> <r_epik_Ionization_Penalty_Neutral>
0.000141198

> <r_epik_State_Penalty>
0.717972

> <r_epik_Charging_Adjusted_Penalty>
1.41367

> <i_epik_Tot_Q>
1

> <i_epik_Tot_abs_Q>
1

> <r_epik_Metal_State_Penalty>
0.756405

> <b_epik_Metal_Only>
0

> <s_lp_Force_Field>
OPLS_2005

> <r_lp_Energy>
21.4223

> <b_lp_Chiralities_Consistent>
1

> <s_lp_Variant>
AV-unprocessed.smi:2032-12

> <Gold.Version>
5.8.1

> <Gold.Id.Protein>
6NUR|6NUR_protein|mol2

> <Gold.PLP.Fitness>
41.6579

> <Gold.PLP.PLP>
-33.1753

> <Gold.PLP.part.hbond>
-2.6812

> <Gold.PLP.part.metal>
0.0000

> <Gold.PLP.part.buried>
-2.6633

> <Gold.PLP.part.nonpolar>
-28.8550

> <Gold.PLP.part.repulsive>
0.4201

> <Gold.PLP.ligand.clash>
0.0000

> <Gold.PLP.ligand.torsion>
0.6825

> <Gold.PLP.Chemscore.Hbond>
3.2607

> <Gold.PLP.Chemscore.CHOScore>
0.0000

> <Gold.PLP.Chemscore.Metal>
0.0000

> <Gold.Chemscore.Hbonds>
donor molecule, donor type, donor heavy atom, donor atom, acceptor molecule, acceptor atom, score
      L1  H     4    43       P1 10175  1.66
      L1  H     8    33       P1  8028  0.24
      L1  H    11    34       P1  8028  0.82
      P1  H  7989  7998       L1    10  0.15

> <Gold.PLP.Chemscore.Internal.Correction>
0.0657

> <Gold.Rescore>
     Score         DG    S(hbond)    S(metal)    S(lipo)     H(rot)  DE(clash)    DE(int)     intcor
     14.79     -15.74       1.64        0.00      76.15       1.61       0.07       0.88       ----

> <Gold.Chemscore.Fitness>
14.7904

> <Gold.Chemscore.DG>
-15.7436

> <Gold.Chemscore.ZeroCoef>
-5.4800

> <Gold.Chemscore.Hbond>
1.6401

> <Gold.Chemscore.Metal>
0.0000

> <Gold.Chemscore.Lipo>
76.1506

> <Gold.Chemscore.Internal_Hbond>
0.0000

> <Gold.Chemscore.DEClash>
0.0746

> <Gold.Chemscore.DEInternal>
0.8786

> <Gold.Chemscore.Rot>
1.6110

> <Gold.Chemscore.Internal.Correction>
   9.000000E+99

> <Gold.Chemscore.Hbonds>
donor molecule, donor type, donor heavy atom, donor atom, acceptor molecule, acceptor atom, score
      L1  H     4    43       P1 10175  0.70
      L1  H     8    33       P1  8028  0.23
      L1  H    11    34       P1  8028  0.79
      P1  H  7989  7998       L1    10  0.07

> <Gold.Chemscore.Hbond.Weighted>
-5.4781

> <Gold.Chemscore.Metal.Weighted>
-0.0000

> <Gold.Chemscore.Lipo.Weighted>
-8.9096

> <Gold.Chemscore.Internal_Hbond.Weighted>
0.0000

> <Gold.Chemscore.DEClash.Weighted>
0.0746

> <Gold.Chemscore.DEInternal.Weighted>
0.8786

> <Gold.Chemscore.Rot.Weighted>
4.1242

> <Gold.Chemscore.Internal.Correction.Weighted>
   9.000000E+99

> <Gold.Protein.RotatedTorsions>
[ 6907 6896 6895 6894 ] final  116.95 input  -60.11 | X-H torsion
[ 7974 7965 7964 7962 ] final  171.82 input  175.53 | X-H torsion
[ 8008 7997 7996 7995 ] final   -5.49 input   59.86 | X-H torsion
[ 10167 10162 10161 10158 ] final  -81.48 input  -65.29 | X-H torsion
[ 10718 10713 10712 10709 ] final   35.80 input   66.30 | X-H torsion
[ 10763 10752 10751 10750 ] final  153.37 input  -60.55 | X-H torsion
[ 11005 11000 10999 10996 ] final  135.55 input  -57.11 | X-H torsion

> <Gold.Protein.ActiveResidues>
 VAL166  LYS551  ARG553  GLY616  TRP617  ASP618  TYR619  PRO620  LYS621  CYS622 
 ASP623  PHE694  ASN695  SER759  ASP760  ASP761  ALA762  ILE779  LEU786  VAL792 
 PHE793  MET794  SER795  GLU796  ALA797  LYS798  CYS799  TRP800  GLU811  SER814 

> <Gold.Protein.RotatedAtoms>
  152.4644  133.7892  159.6892 H   0  0  0  0  0  0  0  0  0  0  0  0  # atno 6907 bound_to 6896
  150.8602  133.7644  159.3001 H   0  0  0  0  0  0  0  0  0  0  0  0  # atno 6908 bound_to 6896
  151.5212  135.1070  159.9931 H   0  0  0  0  0  0  0  0  0  0  0  0  # atno 6909 bound_to 6896
  144.7284  139.9406  143.6428 H   0  0  0  0  0  0  0  0  0  0  0  0  # atno 7974 bound_to 7965
  154.6034  140.2457  155.7763 H   0  0  0  0  0  0  0  0  0  0  0  0  # atno 8008 bound_to 7997
  156.2325  140.2961  156.0178 H   0  0  0  0  0  0  0  0  0  0  0  0  # atno 8009 bound_to 7997
  155.2173  140.0399  157.2933 H   0  0  0  0  0  0  0  0  0  0  0  0  # atno 8010 bound_to 7997
  140.4408  143.2515  151.8628 H   0  0  0  0  0  0  0  0  0  0  0  0  # atno 10167 bound_to 10162
  157.3271  130.7478  149.6823 H   0  0  0  0  0  0  0  0  0  0  0  0  # atno 10718 bound_to 10713
  154.1351  135.2824  155.3175 H   0  0  0  0  0  0  0  0  0  0  0  0  # atno 10763 bound_to 10752
  154.6327  135.5429  153.7702 H   0  0  0  0  0  0  0  0  0  0  0  0  # atno 10764 bound_to 10752
  153.0268  135.6466  154.1500 H   0  0  0  0  0  0  0  0  0  0  0  0  # atno 10765 bound_to 10752
  139.9987  134.9487  157.0023 H   0  0  0  0  0  0  0  0  0  0  0  0  # atno 11005 bound_to 11000
  146.0787  139.3775  143.0478 LP  0  0  0  0  0  0  0  0  0  0  0  0  # atno 17320 bound_to 7965
  145.7870  140.9831  143.1069 LP  0  0  0  0  0  0  0  0  0  0  0  0  # atno 17321 bound_to 7965
  139.4789  144.5231  151.8774 LP  0  0  0  0  0  0  0  0  0  0  0  0  # atno 17342 bound_to 10162
  140.4320  144.2103  150.5888 LP  0  0  0  0  0  0  0  0  0  0  0  0  # atno 17343 bound_to 10162
  155.9692  130.4206  150.4430 LP  0  0  0  0  0  0  0  0  0  0  0  0  # atno 17370 bound_to 10713
  157.2455  131.0535  151.2411 LP  0  0  0  0  0  0  0  0  0  0  0  0  # atno 17371 bound_to 10713
  140.4769  134.1329  155.7211 LP  0  0  0  0  0  0  0  0  0  0  0  0  # atno 17394 bound_to 11000
  141.1625  133.8766  157.1808 LP  0  0  0  0  0  0  0  0  0  0  0  0  # atno 17395 bound_to 11000

$$$$
