AV-unprocessed.smi:1801|AV-procd|sdf|7267|dock10
  -GOLD-   22720 8523D 1   1.00000     0.00000
 Structure written by MMmdl.
 38 39  0  0  0  0  0  0  0  0  2 V2000
  148.5466  138.7831  153.9096 C   0  0  0  0  0  0  0  0  0  0  0  0
  147.2102  139.4825  153.6085 C   0  0  2  0  0  0  0  0  0  0  0  0
  146.7462  139.1362  152.1742 C   0  0  0  0  0  0  0  0  0  0  0  0
  146.8093  137.7093  151.8659 N   0  0  0  0  0  0  0  0  0  0  0  0
  145.7981  136.8385  151.9988 C   0  0  0  0  0  0  0  0  0  0  0  0
  144.6770  137.1563  152.3958 O   0  0  0  0  0  0  0  0  0  0  0  0
  146.1750  135.5979  151.6430 N   0  0  0  0  0  0  0  0  0  0  0  0
  145.3844  134.4193  151.5925 C   0  0  0  0  0  0  0  0  0  0  0  0
  144.0708  134.3924  151.8673 N   0  0  0  0  0  0  0  0  0  0  0  0
  143.5387  133.1162  151.7352 N   0  0  0  0  0  0  0  0  0  0  0  0
  144.4700  132.2326  151.3652 C   0  0  0  0  0  0  0  0  0  0  0  0
  146.0880  132.8739  151.1375 S   0  0  0  0  0  0  0  0  0  0  0  0
  147.3078  141.0082  153.8451 C   0  0  0  0  0  0  0  0  0  0  0  0
  145.9940  141.6190  154.1586 N   0  3  0  0  0  0  0  0  0  0  0  0
  145.5335  141.3860  155.5417 C   0  0  0  0  0  0  0  0  0  0  0  0
  144.5281  142.4998  155.8129 C   0  0  0  0  0  0  0  0  0  0  0  0
  145.1365  143.6921  155.0812 C   0  0  0  0  0  0  0  0  0  0  0  0
  145.8946  143.0762  153.8972 C   0  0  0  0  0  0  0  0  0  0  0  0
  149.3424  139.1505  153.2608 H   0  0  0  0  0  0  0  0  0  0  0  0
  148.4672  137.7061  153.7588 H   0  0  0  0  0  0  0  0  0  0  0  0
  148.8585  138.9419  154.9420 H   0  0  0  0  0  0  0  0  0  0  0  0
  146.4731  139.0702  154.2975 H   0  0  0  0  0  0  0  0  0  0  0  0
  145.7154  139.4614  152.0301 H   0  0  0  0  0  0  0  0  0  0  0  0
  147.3442  139.6814  151.4421 H   0  0  0  0  0  0  0  0  0  0  0  0
  147.6976  137.3562  151.5410 H   0  0  0  0  0  0  0  0  0  0  0  0
  147.1392  135.4829  151.3677 H   0  0  0  0  0  0  0  0  0  0  0  0
  144.2019  131.1962  151.2231 H   0  0  0  0  0  0  0  0  0  0  0  0
  147.9976  141.2004  154.6683 H   0  0  0  0  0  0  0  0  0  0  0  0
  147.7203  141.5186  152.9742 H   0  0  0  0  0  0  0  0  0  0  0  0
  145.1024  140.3918  155.6610 H   0  0  0  0  0  0  0  0  0  0  0  0
  146.3747  141.4762  156.2315 H   0  0  0  0  0  0  0  0  0  0  0  0
  143.5631  142.2452  155.3721 H   0  0  0  0  0  0  0  0  0  0  0  0
  144.3759  142.6861  156.8765 H   0  0  0  0  0  0  0  0  0  0  0  0
  144.3857  144.4185  154.7681 H   0  0  0  0  0  0  0  0  0  0  0  0
  145.8396  144.2052  155.7394 H   0  0  0  0  0  0  0  0  0  0  0  0
  146.8755  143.5426  153.7913 H   0  0  0  0  0  0  0  0  0  0  0  0
  145.3551  143.2282  152.9618 H   0  0  0  0  0  0  0  0  0  0  0  0
  145.3089  141.1778  153.5617 H   0  0  0  0  0  0  0  0  0  0  0  0
  1  2  1  0  0  0  0
  1 19  1  0  0  0  0
  1 20  1  0  0  0  0
  1 21  1  0  0  0  0
  2  3  1  0  0  0  0
  2 13  1  0  0  0  0
  2 22  1  0  0  0  0
  3  4  1  0  0  0  0
  3 23  1  0  0  0  0
  3 24  1  0  0  0  0
  4  5  1  0  0  0  0
  4 25  1  0  0  0  0
  5  6  2  0  0  0  0
  5  7  1  0  0  0  0
  7  8  1  0  0  0  0
  7 26  1  0  0  0  0
  8 12  1  0  0  0  0
  8  9  2  0  0  0  0
  9 10  1  0  0  0  0
 10 11  2  0  0  0  0
 11 12  1  0  0  0  0
 11 27  1  0  0  0  0
 13 14  1  0  0  0  0
 13 28  1  0  0  0  0
 13 29  1  0  0  0  0
 14 18  1  0  0  0  0
 14 15  1  0  0  0  0
 14 38  1  0  0  0  0
 15 16  1  0  0  0  0
 15 30  1  0  0  0  0
 15 31  1  0  0  0  0
 16 17  1  0  0  0  0
 16 32  1  0  0  0  0
 16 33  1  0  0  0  0
 17 18  1  0  0  0  0
 17 34  1  0  0  0  0
 17 35  1  0  0  0  0
 18 36  1  0  0  0  0
 18 37  1  0  0  0  0
M  CHG  1  14   1
M  END
> <s_m_source_file>
AV-unprocessed.smi

> <i_m_source_file_index>
1801

> <i_lp_mmshare_version>
43012

> <i_f3d_flags>
0

> <s_epik_input>
W0NIMl0xW0NIMl1bQ0gyXVtDSDJdTjFbQ0gyXVtDQEhdKFtDSDNdKVtDSDJdW05IXUMoPU8pW05IXWMybm5bY0hdczI=

> <s_epik_cmdline>
J2VwaWtfcHl0aG9uJywgJy1waCcsICc3LjAnLCAnLXRuJywgJzgnLCAnLW1hJywgJzIwMCcsICctbWV0YWxfYmluZGluZycsICctaW1hZScsICc8aW5maWxlLm1hZT4nLCAnLW9tYWUnLCAnPG91dGZpbGUubWFlPic=

> <r_lp_tautomer_probability>
1

> <r_epik_Ionization_Penalty>
0.00281598

> <r_epik_Ionization_Penalty_Charging>
0.000371708

> <r_epik_Ionization_Penalty_Neutral>
0.00244427

> <r_epik_State_Penalty>
-0

> <r_epik_Charging_Adjusted_Penalty>
0.000371708

> <i_epik_Tot_Q>
1

> <i_epik_Tot_abs_Q>
1

> <r_epik_Metal_State_Penalty>
0.350595

> <b_epik_Metal_Only>
0

> <s_lp_Force_Field>
OPLS_2005

> <r_lp_Energy>
28.9171

> <b_lp_Chiralities_Consistent>
1

> <s_lp_Variant>
AV-unprocessed.smi:1801-1

> <Gold.Version>
5.8.1

> <Gold.Id.Protein>
6NUR|6NUR_protein|mol2

> <Gold.PLP.Fitness>
40.4920

> <Gold.PLP.PLP>
-30.2404

> <Gold.PLP.part.hbond>
-3.0000

> <Gold.PLP.part.metal>
0.0000

> <Gold.PLP.part.buried>
-6.0292

> <Gold.PLP.part.nonpolar>
-23.5291

> <Gold.PLP.part.repulsive>
1.7614

> <Gold.PLP.ligand.clash>
0.0000

> <Gold.PLP.ligand.torsion>
0.6655

> <Gold.PLP.Chemscore.Hbond>
3.8480

> <Gold.PLP.Chemscore.CHOScore>
0.0000

> <Gold.PLP.Chemscore.Metal>
0.0000

> <Gold.Chemscore.Hbonds>
donor molecule, donor type, donor heavy atom, donor atom, acceptor molecule, acceptor atom, score
      L1  H     4    25       P1  7948  0.93
      L1  H     7    26       P1  7948  0.80
      L1  H    14    38       P1 10175  1.85

> <Gold.PLP.Chemscore.Internal.Correction>
0.0387

> <Gold.Rescore>
     Score         DG    S(hbond)    S(metal)    S(lipo)     H(rot)  DE(clash)    DE(int)     intcor
     13.55     -15.82       2.66        0.00      55.60       1.97       0.10       2.18       ----

> <Gold.Chemscore.Fitness>
13.5483

> <Gold.Chemscore.DG>
-15.8247

> <Gold.Chemscore.ZeroCoef>
-5.4800

> <Gold.Chemscore.Hbond>
2.6569

> <Gold.Chemscore.Metal>
0.0000

> <Gold.Chemscore.Lipo>
55.6020

> <Gold.Chemscore.Internal_Hbond>
0.0000

> <Gold.Chemscore.DEClash>
0.1007

> <Gold.Chemscore.DEInternal>
2.1756

> <Gold.Chemscore.Rot>
1.9667

> <Gold.Chemscore.Internal.Correction>
   9.000000E+99

> <Gold.Chemscore.Hbonds>
donor molecule, donor type, donor heavy atom, donor atom, acceptor molecule, acceptor atom, score
      L1  H     4    25       P1  7948  0.89
      L1  H     7    26       P1  7948  0.73
      L1  H    14    38       P1 10175  0.40

> <Gold.Chemscore.Hbond.Weighted>
-8.8741

> <Gold.Chemscore.Metal.Weighted>
-0.0000

> <Gold.Chemscore.Lipo.Weighted>
-6.5054

> <Gold.Chemscore.Internal_Hbond.Weighted>
0.0000

> <Gold.Chemscore.DEClash.Weighted>
0.1007

> <Gold.Chemscore.DEInternal.Weighted>
2.1756

> <Gold.Chemscore.Rot.Weighted>
5.0348

> <Gold.Chemscore.Internal.Correction.Weighted>
   9.000000E+99

> <Gold.Protein.RotatedTorsions>
[ 6907 6896 6895 6894 ] final   -4.86 input  -60.11 | X-H torsion
[ 7974 7965 7964 7962 ] final   75.39 input  175.53 | X-H torsion
[ 8008 7997 7996 7995 ] final  103.18 input   59.86 | X-H torsion
[ 10167 10162 10161 10158 ] final   68.13 input  -65.29 | X-H torsion
[ 10718 10713 10712 10709 ] final  150.11 input   66.30 | X-H torsion
[ 10763 10752 10751 10750 ] final -122.28 input  -60.55 | X-H torsion
[ 11005 11000 10999 10996 ] final  140.50 input  -57.11 | X-H torsion

> <Gold.Protein.ActiveResidues>
 VAL166  LYS551  ARG553  GLY616  TRP617  ASP618  TYR619  PRO620  LYS621  CYS622 
 ASP623  PHE694  ASN695  SER759  ASP760  ASP761  ALA762  ILE779  LEU786  VAL792 
 PHE793  MET794  SER795  GLU796  ALA797  LYS798  CYS799  TRP800  GLU811  SER814 

> <Gold.Protein.RotatedAtoms>
  151.4908  135.1057  159.9802 H   0  0  0  0  0  0  0  0  0  0  0  0  # atno 6907 bound_to 6896
  152.4741  133.8094  159.7006 H   0  0  0  0  0  0  0  0  0  0  0  0  # atno 6908 bound_to 6896
  150.8769  133.7364  159.2970 H   0  0  0  0  0  0  0  0  0  0  0  0  # atno 6909 bound_to 6896
  145.7162  139.2632  143.1622 H   0  0  0  0  0  0  0  0  0  0  0  0  # atno 7974 bound_to 7965
  156.1461  140.3169  155.8572 H   0  0  0  0  0  0  0  0  0  0  0  0  # atno 8008 bound_to 7997
  155.4061  140.0503  157.3051 H   0  0  0  0  0  0  0  0  0  0  0  0  # atno 8009 bound_to 7997
  154.5017  140.2132  155.9344 H   0  0  0  0  0  0  0  0  0  0  0  0  # atno 8010 bound_to 7997
  140.0821  144.5062  150.7155 H   0  0  0  0  0  0  0  0  0  0  0  0  # atno 10167 bound_to 10162
  157.2876  131.0847  151.1485 H   0  0  0  0  0  0  0  0  0  0  0  0  # atno 10718 bound_to 10713
  154.8686  135.4138  154.2757 H   0  0  0  0  0  0  0  0  0  0  0  0  # atno 10763 bound_to 10752
  153.3659  135.7005  153.6681 H   0  0  0  0  0  0  0  0  0  0  0  0  # atno 10764 bound_to 10752
  153.5563  135.3619  155.2753 H   0  0  0  0  0  0  0  0  0  0  0  0  # atno 10765 bound_to 10752
  140.0332  134.9342  157.0702 H   0  0  0  0  0  0  0  0  0  0  0  0  # atno 11005 bound_to 11000
  146.0668  140.7912  142.9708 LP  0  0  0  0  0  0  0  0  0  0  0  0  # atno 17320 bound_to 7965
  144.6929  140.3280  143.7221 LP  0  0  0  0  0  0  0  0  0  0  0  0  # atno 17321 bound_to 7965
  140.7072  143.2477  151.4689 LP  0  0  0  0  0  0  0  0  0  0  0  0  # atno 17342 bound_to 10162
  139.5774  144.1788  152.1921 LP  0  0  0  0  0  0  0  0  0  0  0  0  # atno 17343 bound_to 10162
  157.2895  130.6789  149.6106 LP  0  0  0  0  0  0  0  0  0  0  0  0  # atno 17370 bound_to 10713
  155.9666  130.4425  150.5384 LP  0  0  0  0  0  0  0  0  0  0  0  0  # atno 17371 bound_to 10713
  140.4191  134.1899  155.7164 LP  0  0  0  0  0  0  0  0  0  0  0  0  # atno 17394 bound_to 11000
  141.1843  133.8348  157.1146 LP  0  0  0  0  0  0  0  0  0  0  0  0  # atno 17395 bound_to 11000

$$$$
