AV-unprocessed.smi:3303|AV-procd|sdf|12674|dock5
  -GOLD-   2272019 13D 1   1.00000     0.00000
 Structure written by MMmdl.
 44 45  0  0  0  0  0  0  0  0  2 V2000
  150.9212  138.2158  155.0641 C   0  0  0  0  0  0  0  0  0  0  0  0
  149.9693  139.1825  154.3400 C   0  0  1  0  0  0  0  0  0  0  0  0
  148.6045  138.5324  154.0369 C   0  0  0  0  0  0  0  0  0  0  0  0
  147.7844  139.4398  153.2338 N   0  0  0  0  0  0  0  0  0  0  0  0
  146.5847  138.7623  152.7577 C   0  0  0  0  0  0  0  0  0  0  0  0
  147.4935  140.7166  153.9041 C   0  0  1  0  0  0  0  0  0  0  0  0
  146.5088  140.6048  155.0914 C   0  0  0  0  0  0  0  0  0  0  0  0
  148.8226  141.4190  154.2706 C   0  0  0  0  0  0  0  0  0  0  0  0
  149.8005  140.5306  155.0729 C   0  0  1  0  0  0  0  0  0  0  0  0
  149.3705  140.3337  156.4778 N   0  3  0  0  0  0  0  0  0  0  0  0
  149.6054  141.4776  157.3825 C   0  0  0  0  0  0  0  0  0  0  0  0
  150.9630  142.1324  157.0950 C   0  0  0  0  0  0  0  0  0  0  0  0
  151.3793  143.0902  158.1950 C   0  0  0  0  0  0  0  0  0  0  0  0
  151.6160  144.4529  157.9153 C   0  0  0  0  0  0  0  0  0  0  0  0
  151.9908  145.2995  158.9768 C   0  0  0  0  0  0  0  0  0  0  0  0
  152.1123  144.7537  160.2691 C   0  0  0  0  0  0  0  0  0  0  0  0
  151.8530  143.3799  160.4441 C   0  0  0  0  0  0  0  0  0  0  0  0
  151.4922  142.5597  159.4334 N   0  0  0  0  0  0  0  0  0  0  0  0
  150.5123  137.8828  156.0183 H   0  0  0  0  0  0  0  0  0  0  0  0
  151.8864  138.6848  155.2575 H   0  0  0  0  0  0  0  0  0  0  0  0
  151.1044  137.3268  154.4598 H   0  0  0  0  0  0  0  0  0  0  0  0
  150.4357  139.4021  153.3776 H   0  0  0  0  0  0  0  0  0  0  0  0
  148.7663  137.6118  153.4741 H   0  0  0  0  0  0  0  0  0  0  0  0
  148.0887  138.2501  154.9550 H   0  0  0  0  0  0  0  0  0  0  0  0
  145.9761  139.4359  152.1533 H   0  0  0  0  0  0  0  0  0  0  0  0
  145.9757  138.3904  153.5822 H   0  0  0  0  0  0  0  0  0  0  0  0
  146.8548  137.9109  152.1323 H   0  0  0  0  0  0  0  0  0  0  0  0
  147.0049  141.3496  153.1620 H   0  0  0  0  0  0  0  0  0  0  0  0
  146.4021  141.5670  155.5931 H   0  0  0  0  0  0  0  0  0  0  0  0
  146.8229  139.8797  155.8401 H   0  0  0  0  0  0  0  0  0  0  0  0
  145.5122  140.3166  154.7570 H   0  0  0  0  0  0  0  0  0  0  0  0
  149.3166  141.7027  153.3401 H   0  0  0  0  0  0  0  0  0  0  0  0
  148.6264  142.3613  154.7808 H   0  0  0  0  0  0  0  0  0  0  0  0
  150.7746  141.0213  155.0998 H   0  0  0  0  0  0  0  0  0  0  0  0
  148.3876  140.1011  156.4848 H   0  0  0  0  0  0  0  0  0  0  0  0
  148.8072  142.2100  157.2556 H   0  0  0  0  0  0  0  0  0  0  0  0
  149.5751  141.1412  158.4184 H   0  0  0  0  0  0  0  0  0  0  0  0
  151.7324  141.3664  156.9850 H   0  0  0  0  0  0  0  0  0  0  0  0
  150.9264  142.6694  156.1461 H   0  0  0  0  0  0  0  0  0  0  0  0
  151.5122  144.8436  156.9136 H   0  0  0  0  0  0  0  0  0  0  0  0
  152.1803  146.3485  158.8033 H   0  0  0  0  0  0  0  0  0  0  0  0
  152.3975  145.3732  161.1068 H   0  0  0  0  0  0  0  0  0  0  0  0
  151.9359  142.9283  161.4219 H   0  0  0  0  0  0  0  0  0  0  0  0
  149.8876  139.5478  156.8455 H   0  0  0  0  0  0  0  0  0  0  0  0
  1  2  1  0  0  0  0
  1 19  1  0  0  0  0
  1 20  1  0  0  0  0
  1 21  1  0  0  0  0
  2  9  1  0  0  0  0
  2  3  1  0  0  0  0
  2 22  1  0  0  0  0
  3  4  1  0  0  0  0
  3 23  1  0  0  0  0
  3 24  1  0  0  0  0
  4  5  1  0  0  0  0
  4  6  1  0  0  0  0
  5 25  1  0  0  0  0
  5 26  1  0  0  0  0
  5 27  1  0  0  0  0
  6  7  1  0  0  0  0
  6  8  1  0  0  0  0
  6 28  1  0  0  0  0
  7 29  1  0  0  0  0
  7 30  1  0  0  0  0
  7 31  1  0  0  0  0
  8  9  1  0  0  0  0
  8 32  1  0  0  0  0
  8 33  1  0  0  0  0
  9 10  1  0  0  0  0
  9 34  1  0  0  0  0
 10 11  1  0  0  0  0
 10 35  1  0  0  0  0
 10 44  1  0  0  0  0
 11 12  1  0  0  0  0
 11 36  1  0  0  0  0
 11 37  1  0  0  0  0
 12 13  1  0  0  0  0
 12 38  1  0  0  0  0
 12 39  1  0  0  0  0
 13 18  1  0  0  0  0
 13 14  2  0  0  0  0
 14 15  1  0  0  0  0
 14 40  1  0  0  0  0
 15 16  2  0  0  0  0
 15 41  1  0  0  0  0
 16 17  1  0  0  0  0
 16 42  1  0  0  0  0
 17 18  2  0  0  0  0
 17 43  1  0  0  0  0
M  CHG  1  10   1
M  END
> <s_m_source_file>
AV-unprocessed.smi

> <i_m_source_file_index>
3303

> <i_lp_mmshare_version>
43012

> <i_f3d_flags>
0

> <s_epik_input>
W0NIM11bQ0BASF0xW0NIMl1OKFtDSDNdKVtDQEBIXShbQ0gzXSlbQ0gyXVtDQEhdMVtOSF1bQ0gyXVtDSDJdYzJbY0hdW2NIXVtjSF1bY0hdbjI=

> <s_epik_cmdline>
J2VwaWtfcHl0aG9uJywgJy1waCcsICc3LjAnLCAnLXRuJywgJzgnLCAnLW1hJywgJzIwMCcsICctbWV0YWxfYmluZGluZycsICctaW1hZScsICc8aW5maWxlLm1hZT4nLCAnLW9tYWUnLCAnPG91dGZpbGUubWFlPic=

> <r_epik_Ionization_Penalty>
1.37325

> <r_epik_Ionization_Penalty_Charging>
0.000251572

> <r_epik_Ionization_Penalty_Neutral>
1.373

> <r_epik_State_Penalty>
1.46343

> <r_epik_Charging_Adjusted_Penalty>
1.46368

> <i_epik_Tot_Q>
1

> <i_epik_Tot_abs_Q>
1

> <r_epik_Metal_State_Penalty>
1.46331

> <b_epik_Metal_Only>
0

> <s_lp_Force_Field>
OPLS_2005

> <r_lp_Energy>
24.8067

> <b_lp_Chiralities_Consistent>
1

> <s_lp_Variant>
AV-unprocessed.smi:3303-18

> <Gold.Version>
5.8.1

> <Gold.Id.Protein>
6NUR|6NUR_protein|mol2

> <Gold.PLP.Fitness>
38.0281

> <Gold.PLP.PLP>
-38.6012

> <Gold.PLP.part.hbond>
0.0000

> <Gold.PLP.part.metal>
0.0000

> <Gold.PLP.part.buried>
-5.0541

> <Gold.PLP.part.nonpolar>
-36.3312

> <Gold.PLP.part.repulsive>
2.1565

> <Gold.PLP.ligand.clash>
0.0000

> <Gold.PLP.ligand.torsion>
0.2925

> <Gold.PLP.Chemscore.Hbond>
0.0000

> <Gold.PLP.Chemscore.CHOScore>
0.0000

> <Gold.PLP.Chemscore.Metal>
0.0000

> <Gold.PLP.Chemscore.Internal.Correction>
0.0117

> <Gold.Rescore>
     Score         DG    S(hbond)    S(metal)    S(lipo)     H(rot)  DE(clash)    DE(int)     intcor
     14.71     -16.50       0.00        0.00     123.31       1.33       1.17       0.62       ----

> <Gold.Chemscore.Fitness>
14.7136

> <Gold.Chemscore.DG>
-16.5028

> <Gold.Chemscore.ZeroCoef>
-5.4800

> <Gold.Chemscore.Hbond>
0.0000

> <Gold.Chemscore.Metal>
0.0000

> <Gold.Chemscore.Lipo>
123.3086

> <Gold.Chemscore.Internal_Hbond>
0.0000

> <Gold.Chemscore.DEClash>
1.1693

> <Gold.Chemscore.DEInternal>
0.6199

> <Gold.Chemscore.Rot>
1.3298

> <Gold.Chemscore.Internal.Correction>
   9.000000E+99

> <Gold.Chemscore.Hbond.Weighted>
-0.0000

> <Gold.Chemscore.Metal.Weighted>
-0.0000

> <Gold.Chemscore.Lipo.Weighted>
-14.4271

> <Gold.Chemscore.Internal_Hbond.Weighted>
0.0000

> <Gold.Chemscore.DEClash.Weighted>
1.1693

> <Gold.Chemscore.DEInternal.Weighted>
0.6199

> <Gold.Chemscore.Rot.Weighted>
3.4043

> <Gold.Chemscore.Internal.Correction.Weighted>
   9.000000E+99

> <Gold.Protein.RotatedTorsions>
[ 6907 6896 6895 6894 ] final -164.84 input  -60.11 | X-H torsion
[ 7974 7965 7964 7962 ] final  142.77 input  175.53 | X-H torsion
[ 8008 7997 7996 7995 ] final  107.50 input   59.86 | X-H torsion
[ 10167 10162 10161 10158 ] final -117.78 input  -65.29 | X-H torsion
[ 10718 10713 10712 10709 ] final  -58.54 input   66.30 | X-H torsion
[ 10763 10752 10751 10750 ] final -140.29 input  -60.55 | X-H torsion
[ 11005 11000 10999 10996 ] final  -82.01 input  -57.11 | X-H torsion

> <Gold.Protein.ActiveResidues>
 VAL166  LYS551  ARG553  GLY616  TRP617  ASP618  TYR619  PRO620  LYS621  CYS622 
 ASP623  PHE694  ASN695  SER759  ASP760  ASP761  ALA762  ILE779  LEU786  VAL792 
 PHE793  MET794  SER795  GLU796  ALA797  LYS798  CYS799  TRP800  GLU811  SER814 

> <Gold.Protein.RotatedAtoms>
  151.4181  133.3706  159.2752 H   0  0  0  0  0  0  0  0  0  0  0  0  # atno 6907 bound_to 6896
  150.9313  134.8729  159.7564 H   0  0  0  0  0  0  0  0  0  0  0  0  # atno 6908 bound_to 6896
  152.5029  134.4126  159.9506 H   0  0  0  0  0  0  0  0  0  0  0  0  # atno 6909 bound_to 6896
  144.8979  139.5465  143.5768 H   0  0  0  0  0  0  0  0  0  0  0  0  # atno 7974 bound_to 7965
  156.1829  140.3093  155.9182 H   0  0  0  0  0  0  0  0  0  0  0  0  # atno 8008 bound_to 7997
  155.3345  140.0462  157.3060 H   0  0  0  0  0  0  0  0  0  0  0  0  # atno 8009 bound_to 7997
  154.5363  140.2247  155.8728 H   0  0  0  0  0  0  0  0  0  0  0  0  # atno 8010 bound_to 7997
  140.0647  143.4934  152.2013 H   0  0  0  0  0  0  0  0  0  0  0  0  # atno 10167 bound_to 10162
  156.1127  130.4173  150.0591 H   0  0  0  0  0  0  0  0  0  0  0  0  # atno 10718 bound_to 10713
  154.8583  135.3557  154.5683 H   0  0  0  0  0  0  0  0  0  0  0  0  # atno 10763 bound_to 10752
  153.6296  135.7003  153.5285 H   0  0  0  0  0  0  0  0  0  0  0  0  # atno 10764 bound_to 10752
  153.3060  135.4192  155.1254 H   0  0  0  0  0  0  0  0  0  0  0  0  # atno 10765 bound_to 10752
  141.1665  133.7224  156.8508 H   0  0  0  0  0  0  0  0  0  0  0  0  # atno 11005 bound_to 11000
  146.3091  139.7684  142.9033 LP  0  0  0  0  0  0  0  0  0  0  0  0  # atno 17320 bound_to 7965
  145.3668  141.0336  143.3253 LP  0  0  0  0  0  0  0  0  0  0  0  0  # atno 17321 bound_to 7965
  139.5872  144.7536  151.3490 LP  0  0  0  0  0  0  0  0  0  0  0  0  # atno 17342 bound_to 10162
  140.7155  143.7278  150.7647 LP  0  0  0  0  0  0  0  0  0  0  0  0  # atno 17343 bound_to 10162
  156.8550  130.9472  151.3622 LP  0  0  0  0  0  0  0  0  0  0  0  0  # atno 17370 bound_to 10713
  157.6309  130.8729  149.9273 LP  0  0  0  0  0  0  0  0  0  0  0  0  # atno 17371 bound_to 10713
  140.1917  134.8961  157.3068 LP  0  0  0  0  0  0  0  0  0  0  0  0  # atno 17394 bound_to 11000
  140.2283  134.3940  155.7533 LP  0  0  0  0  0  0  0  0  0  0  0  0  # atno 17395 bound_to 11000

$$$$
