AV-unprocessed.smi:2021|AV-procd|sdf|8182|dock1
  -GOLD-   2272010433D 1   1.00000     0.00000
 Structure written by MMmdl.
 41 42  0  0  0  0  0  0  0  0  3 V2000
  145.6223  136.2177  151.4482 C   0  0  0  0  0  0  0  0  0  0  0  0
  145.2162  136.0205  152.9164 C   0  0  0  0  0  0  0  0  0  0  0  0
  143.7207  136.3263  153.1038 C   0  0  0  0  0  0  0  0  0  0  0  0
  146.1037  136.8795  153.8435 C   0  0  0  0  0  0  0  0  0  0  0  0
  147.4610  136.3051  154.0518 N   0  3  2  0  0  0  0  0  0  0  0  0
  147.4465  134.8672  154.4156 C   0  0  0  0  0  0  0  0  0  0  0  0
  147.0925  134.6739  155.9004 C   0  0  0  0  0  0  0  0  0  0  0  0
  148.0171  135.4016  156.6963 O   0  0  0  0  0  0  0  0  0  0  0  0
  147.9583  136.8053  156.4617 C   0  0  1  0  0  0  0  0  0  0  0  0
  148.9257  137.5143  157.4251 C   0  0  0  0  0  0  0  0  0  0  0  0
  148.3495  137.6515  158.7585 N   0  0  0  0  0  0  0  0  0  0  0  0
  148.3946  136.7335  159.7340 C   0  0  0  0  0  0  0  0  0  0  0  0
  148.9821  135.6651  159.5490 O   0  0  0  0  0  0  0  0  0  0  0  0
  147.7529  137.1097  160.8628 N   0  5  0  0  0  0  0  0  0  0  0  0
  146.9415  136.2441  161.4931 C   0  0  0  0  0  0  0  0  0  0  0  0
  145.6333  136.1478  161.2069 N   0  0  0  0  0  0  0  0  0  0  0  0
  144.9760  135.1927  161.9707 N   0  0  0  0  0  0  0  0  0  0  0  0
  145.8083  134.5960  162.8238 C   0  0  0  0  0  0  0  0  0  0  0  0
  147.4682  135.1515  162.7767 S   0  0  0  0  0  0  0  0  0  0  0  0
  148.3296  137.0686  154.9854 C   0  0  0  0  0  0  0  0  0  0  0  0
  145.4833  137.2524  151.1326 H   0  0  0  0  0  0  0  0  0  0  0  0
  145.0279  135.5866  150.7868 H   0  0  0  0  0  0  0  0  0  0  0  0
  146.6701  135.9597  151.2913 H   0  0  0  0  0  0  0  0  0  0  0  0
  145.3732  134.9668  153.1438 H   0  0  0  0  0  0  0  0  0  0  0  0
  143.4982  137.3714  152.8856 H   0  0  0  0  0  0  0  0  0  0  0  0
  143.3941  136.1217  154.1236 H   0  0  0  0  0  0  0  0  0  0  0  0
  143.1100  135.7123  152.4409 H   0  0  0  0  0  0  0  0  0  0  0  0
  146.1838  137.8956  153.4574 H   0  0  0  0  0  0  0  0  0  0  0  0
  145.5988  136.9662  154.8068 H   0  0  0  0  0  0  0  0  0  0  0  0
  146.7609  134.3111  153.7755 H   0  0  0  0  0  0  0  0  0  0  0  0
  148.4395  134.4564  154.2280 H   0  0  0  0  0  0  0  0  0  0  0  0
  146.0717  134.9946  156.1132 H   0  0  0  0  0  0  0  0  0  0  0  0
  147.1552  133.6187  156.1666 H   0  0  0  0  0  0  0  0  0  0  0  0
  146.9481  137.1647  156.6633 H   0  0  0  0  0  0  0  0  0  0  0  0
  149.8860  136.9973  157.4637 H   0  0  0  0  0  0  0  0  0  0  0  0
  149.1345  138.5200  157.0599 H   0  0  0  0  0  0  0  0  0  0  0  0
  147.8612  138.5120  158.9590 H   0  0  0  0  0  0  0  0  0  0  0  0
  145.4418  133.8276  163.4878 H   0  0  0  0  0  0  0  0  0  0  0  0
  149.3602  136.7547  154.8138 H   0  0  0  0  0  0  0  0  0  0  0  0
  148.3009  138.1349  154.7663 H   0  0  0  0  0  0  0  0  0  0  0  0
  147.9035  136.3521  153.1449 H   0  0  0  0  0  0  0  0  0  0  0  0
  1  2  1  0  0  0  0
  1 21  1  0  0  0  0
  1 22  1  0  0  0  0
  1 23  1  0  0  0  0
  2  3  1  0  0  0  0
  2  4  1  0  0  0  0
  2 24  1  0  0  0  0
  3 25  1  0  0  0  0
  3 26  1  0  0  0  0
  3 27  1  0  0  0  0
  4  5  1  0  0  0  0
  4 28  1  0  0  0  0
  4 29  1  0  0  0  0
  5 20  1  0  0  0  0
  5  6  1  0  0  0  0
  5 41  1  0  0  0  0
  6  7  1  0  0  0  0
  6 30  1  0  0  0  0
  6 31  1  0  0  0  0
  7  8  1  0  0  0  0
  7 32  1  0  0  0  0
  7 33  1  0  0  0  0
  8  9  1  0  0  0  0
  9 10  1  0  0  0  0
  9 20  1  0  0  0  0
  9 34  1  0  0  0  0
 10 11  1  0  0  0  0
 10 35  1  0  0  0  0
 10 36  1  0  0  0  0
 11 12  1  0  0  0  0
 11 37  1  0  0  0  0
 12 13  2  0  0  0  0
 12 14  1  0  0  0  0
 14 15  1  0  0  0  0
 15 19  1  0  0  0  0
 15 16  2  0  0  0  0
 16 17  1  0  0  0  0
 17 18  2  0  0  0  0
 18 19  1  0  0  0  0
 18 38  1  0  0  0  0
 20 39  1  0  0  0  0
 20 40  1  0  0  0  0
M  CHG  1   5   1
M  CHG  1  14  -1
M  END
> <s_m_source_file>
AV-unprocessed.smi

> <i_m_source_file_index>
2021

> <i_lp_mmshare_version>
43012

> <i_f3d_flags>
0

> <s_epik_input>
W0NIM11bQ0hdKFtDSDNdKVtDSDJdTjFbQ0gyXVtDSDJdT1tDQEhdKFtDSDJdMSlbQ0gyXVtOSF1DKD1PKVtOSF1jMm5uW2NIXXMy

> <s_epik_cmdline>
J2VwaWtfcHl0aG9uJywgJy1waCcsICc3LjAnLCAnLXRuJywgJzgnLCAnLW1hJywgJzIwMCcsICctbWV0YWxfYmluZGluZycsICctaW1hZScsICc8aW5maWxlLm1hZT4nLCAnLW9tYWUnLCAnPG91dGZpbGUubWFlPic=

> <r_lp_tautomer_probability>
1

> <r_epik_Ionization_Penalty>
3.15762

> <r_epik_Ionization_Penalty_Charging>
3.12229

> <r_epik_Ionization_Penalty_Neutral>
0.0353298

> <r_epik_State_Penalty>
3.11266

> <r_epik_Charging_Adjusted_Penalty>
6.23495

> <i_epik_Tot_Q>
0

> <i_epik_Tot_abs_Q>
2

> <r_epik_Metal_State_Penalty>
0.541462

> <b_epik_Metal_Only>
1

> <s_lp_Force_Field>
OPLS_2005

> <r_lp_Energy>
12.8808

> <b_lp_Chiralities_Consistent>
1

> <s_lp_Variant>
AV-unprocessed.smi:2021-8

> <Gold.Version>
5.8.1

> <Gold.Id.Protein>
6NUR|6NUR_protein|mol2

> <Gold.PLP.Fitness>
40.1365

> <Gold.PLP.PLP>
-23.4567

> <Gold.PLP.part.hbond>
-4.0000

> <Gold.PLP.part.metal>
0.0000

> <Gold.PLP.part.buried>
-3.6027

> <Gold.PLP.part.nonpolar>
-16.5698

> <Gold.PLP.part.repulsive>
0.1574

> <Gold.PLP.ligand.clash>
0.0000

> <Gold.PLP.ligand.torsion>
1.6751

> <Gold.PLP.Chemscore.Hbond>
6.6073

> <Gold.PLP.Chemscore.CHOScore>
0.0000

> <Gold.PLP.Chemscore.Metal>
0.0000

> <Gold.Chemscore.Hbonds>
donor molecule, donor type, donor heavy atom, donor atom, acceptor molecule, acceptor atom, score
      L1  H     5    41       P1  7948  2.00
      P1  H  6896  6908       L1    13  1.00
      P1  H  6931  6943       L1    14  1.79
      P1  H  6934  6947       L1    14  1.79

> <Gold.PLP.Chemscore.Internal.Correction>
0.2083

> <Gold.Rescore>
     Score         DG    S(hbond)    S(metal)    S(lipo)     H(rot)  DE(clash)    DE(int)     intcor
     14.95     -16.53       3.27        0.00      41.65       1.85       0.01       1.57       ----

> <Gold.Chemscore.Fitness>
14.9545

> <Gold.Chemscore.DG>
-16.5350

> <Gold.Chemscore.ZeroCoef>
-5.4800

> <Gold.Chemscore.Hbond>
3.2661

> <Gold.Chemscore.Metal>
0.0000

> <Gold.Chemscore.Lipo>
41.6516

> <Gold.Chemscore.Internal_Hbond>
0.0000

> <Gold.Chemscore.DEClash>
0.0086

> <Gold.Chemscore.DEInternal>
1.5718

> <Gold.Chemscore.Rot>
1.8466

> <Gold.Chemscore.Internal.Correction>
   9.000000E+99

> <Gold.Chemscore.Hbonds>
donor molecule, donor type, donor heavy atom, donor atom, acceptor molecule, acceptor atom, score
      L1  H     5    41       P1  7948  1.00
      P1  H  6896  6908       L1    13  0.96
      P1  H  6931  6943       L1    14  0.50
      P1  H  6934  6947       L1    14  0.72

> <Gold.Chemscore.Hbond.Weighted>
-10.9089

> <Gold.Chemscore.Metal.Weighted>
-0.0000

> <Gold.Chemscore.Lipo.Weighted>
-4.8732

> <Gold.Chemscore.Internal_Hbond.Weighted>
0.0000

> <Gold.Chemscore.DEClash.Weighted>
0.0086

> <Gold.Chemscore.DEInternal.Weighted>
1.5718

> <Gold.Chemscore.Rot.Weighted>
4.7272

> <Gold.Chemscore.Internal.Correction.Weighted>
   9.000000E+99

> <Gold.Protein.RotatedTorsions>
[ 6907 6896 6895 6894 ] final  170.98 input  -60.11 | X-H torsion
[ 7974 7965 7964 7962 ] final  -16.53 input  175.53 | X-H torsion
[ 8008 7997 7996 7995 ] final  166.69 input   59.86 | X-H torsion
[ 10167 10162 10161 10158 ] final   54.49 input  -65.29 | X-H torsion
[ 10718 10713 10712 10709 ] final  138.15 input   66.30 | X-H torsion
[ 10763 10752 10751 10750 ] final   73.82 input  -60.55 | X-H torsion
[ 11005 11000 10999 10996 ] final  -11.40 input  -57.11 | X-H torsion

> <Gold.Protein.ActiveResidues>
 VAL166  LYS551  ARG553  GLY616  TRP617  ASP618  TYR619  PRO620  LYS621  CYS622 
 ASP623  PHE694  ASN695  SER759  ASP760  ASP761  ALA762  ILE779  LEU786  VAL792 
 PHE793  MET794  SER795  GLU796  ALA797  LYS798  CYS799  TRP800  GLU811  SER814 

> <Gold.Protein.RotatedAtoms>
  151.8075  133.3377  159.3545 H   0  0  0  0  0  0  0  0  0  0  0  0  # atno 6907 bound_to 6896
  150.7337  134.5695  159.5892 H   0  0  0  0  0  0  0  0  0  0  0  0  # atno 6908 bound_to 6896
  152.3099  134.7511  160.0390 H   0  0  0  0  0  0  0  0  0  0  0  0  # atno 6909 bound_to 6896
  146.1983  140.3649  142.8432 H   0  0  0  0  0  0  0  0  0  0  0  0  # atno 7974 bound_to 7965
  156.1697  140.1637  156.8468 H   0  0  0  0  0  0  0  0  0  0  0  0  # atno 8008 bound_to 7997
  154.5244  140.0771  156.8266 H   0  0  0  0  0  0  0  0  0  0  0  0  # atno 8009 bound_to 7997
  155.3537  140.3391  155.4242 H   0  0  0  0  0  0  0  0  0  0  0  0  # atno 8010 bound_to 7997
  140.2295  144.3702  150.6419 H   0  0  0  0  0  0  0  0  0  0  0  0  # atno 10167 bound_to 10162
  157.4284  131.1046  151.0277 H   0  0  0  0  0  0  0  0  0  0  0  0  # atno 10718 bound_to 10713
  153.0546  135.5049  154.7950 H   0  0  0  0  0  0  0  0  0  0  0  0  # atno 10763 bound_to 10752
  154.6786  135.2964  154.9647 H   0  0  0  0  0  0  0  0  0  0  0  0  # atno 10764 bound_to 10752
  154.0441  135.6713  153.4846 H   0  0  0  0  0  0  0  0  0  0  0  0  # atno 10765 bound_to 10752
  140.7549  133.8562  155.9076 H   0  0  0  0  0  0  0  0  0  0  0  0  # atno 11005 bound_to 11000
  144.8628  140.7163  143.6096 LP  0  0  0  0  0  0  0  0  0  0  0  0  # atno 17320 bound_to 7965
  145.3569  139.1691  143.4404 LP  0  0  0  0  0  0  0  0  0  0  0  0  # atno 17321 bound_to 7965
  140.6195  143.2175  151.6723 LP  0  0  0  0  0  0  0  0  0  0  0  0  # atno 17342 bound_to 10162
  139.5115  144.3507  152.0654 LP  0  0  0  0  0  0  0  0  0  0  0  0  # atno 17343 bound_to 10162
  157.1182  130.6050  149.5498 LP  0  0  0  0  0  0  0  0  0  0  0  0  # atno 17370 bound_to 10713
  155.9905  130.4956  150.7258 LP  0  0  0  0  0  0  0  0  0  0  0  0  # atno 17371 bound_to 10713
  140.9717  134.1523  157.4571 LP  0  0  0  0  0  0  0  0  0  0  0  0  # atno 17394 bound_to 11000
  139.8781  134.9981  156.5880 LP  0  0  0  0  0  0  0  0  0  0  0  0  # atno 17395 bound_to 11000

$$$$
