AV-unprocessed.smi:1033|AV-procd|sdf|4503|dock1
  -GOLD-   22720 2503D 1   1.00000     0.00000
 Structure written by MMmdl.
 57 59  0  0  0  0  0  0  0  0  3 V2000
  152.3742  145.1446  160.2892 C   0  0  0  0  0  0  0  0  0  0  0  0
  152.1071  143.8895  159.4757 C   0  0  0  0  0  0  0  0  0  0  0  0
  151.2298  143.9756  158.3709 C   0  0  0  0  0  0  0  0  0  0  0  0
  151.0063  142.8112  157.6460 C   0  0  0  0  0  0  0  0  0  0  0  0
  150.2094  142.5686  156.5248 N   0  3  0  0  0  0  0  0  0  0  0  0
  150.3140  141.2583  156.1679 C   0  0  0  0  0  0  0  0  0  0  0  0
  151.1652  140.6616  157.0458 N   0  0  0  0  0  0  0  0  0  0  0  0
  151.6212  139.2676  157.1190 C   0  0  0  0  0  0  0  0  0  0  0  0
  150.5552  138.3178  157.6989 C   0  0  1  0  0  0  0  0  0  0  0  0
  150.3501  138.6334  159.0620 O   0  0  0  0  0  0  0  0  0  0  0  0
  149.2130  138.4582  156.9545 C   0  0  0  0  0  0  0  0  0  0  0  0
  149.2867  138.3483  155.4921 N   0  0  0  0  0  0  0  0  0  0  0  0
  150.3742  137.4768  155.0480 C   0  0  0  0  0  0  0  0  0  0  0  0
  150.1099  135.9827  155.3251 C   0  0  0  0  0  0  0  0  0  0  0  0
  148.8417  135.5516  154.6825 N   0  3  0  0  0  0  0  0  0  0  0  0
  148.5794  134.1011  154.8663 C   0  0  0  0  0  0  0  0  0  0  0  0
  147.2993  133.6311  154.1475 C   0  0  2  0  0  0  0  0  0  0  0  0
  147.1710  132.1025  154.1411 C   0  0  0  0  0  0  0  0  0  0  0  0
  147.3277  134.0756  152.8060 O   0  0  0  0  0  0  0  0  0  0  0  0
  147.7137  136.4220  155.1106 C   0  0  0  0  0  0  0  0  0  0  0  0
  148.0485  137.9042  154.8449 C   0  0  0  0  0  0  0  0  0  0  0  0
  151.6217  141.5909  157.9856 C   0  0  0  0  0  0  0  0  0  0  0  0
  152.4878  141.4873  159.0712 C   0  0  0  0  0  0  0  0  0  0  0  0
  152.7270  142.6605  159.8219 C   0  0  0  0  0  0  0  0  0  0  0  0
  153.6666  142.5789  161.0130 C   0  0  0  0  0  0  0  0  0  0  0  0
  151.8356  146.0033  159.8872 H   0  0  0  0  0  0  0  0  0  0  0  0
  153.4373  145.3862  160.2829 H   0  0  0  0  0  0  0  0  0  0  0  0
  152.0559  145.0057  161.3227 H   0  0  0  0  0  0  0  0  0  0  0  0
  150.7533  144.9072  158.1020 H   0  0  0  0  0  0  0  0  0  0  0  0
  149.8104  140.7782  155.3411 H   0  0  0  0  0  0  0  0  0  0  0  0
  151.8940  138.9599  156.1085 H   0  0  0  0  0  0  0  0  0  0  0  0
  152.5373  139.2362  157.7100 H   0  0  0  0  0  0  0  0  0  0  0  0
  150.9298  137.2974  157.6361 H   0  0  0  0  0  0  0  0  0  0  0  0
  149.4527  138.9093  159.1733 H   0  0  0  0  0  0  0  0  0  0  0  0
  148.5362  137.6931  157.3380 H   0  0  0  0  0  0  0  0  0  0  0  0
  148.7570  139.4085  157.2299 H   0  0  0  0  0  0  0  0  0  0  0  0
  150.5253  137.6152  153.9765 H   0  0  0  0  0  0  0  0  0  0  0  0
  151.3095  137.7814  155.5195 H   0  0  0  0  0  0  0  0  0  0  0  0
  150.9376  135.3939  154.9281 H   0  0  0  0  0  0  0  0  0  0  0  0
  150.0707  135.7854  156.3974 H   0  0  0  0  0  0  0  0  0  0  0  0
  149.4233  133.5242  154.4842 H   0  0  0  0  0  0  0  0  0  0  0  0
  148.5214  133.8816  155.9335 H   0  0  0  0  0  0  0  0  0  0  0  0
  146.4130  134.0454  154.6265 H   0  0  0  0  0  0  0  0  0  0  0  0
  147.1258  131.7096  155.1572 H   0  0  0  0  0  0  0  0  0  0  0  0
  148.0185  131.6323  153.6408 H   0  0  0  0  0  0  0  0  0  0  0  0
  146.2628  131.7862  153.6266 H   0  0  0  0  0  0  0  0  0  0  0  0
  147.7795  134.9056  152.7695 H   0  0  0  0  0  0  0  0  0  0  0  0
  146.8107  136.1648  154.5587 H   0  0  0  0  0  0  0  0  0  0  0  0
  147.4900  136.2566  156.1650 H   0  0  0  0  0  0  0  0  0  0  0  0
  147.2099  138.5327  155.1401 H   0  0  0  0  0  0  0  0  0  0  0  0
  148.1463  138.0479  153.7679 H   0  0  0  0  0  0  0  0  0  0  0  0
  152.9594  140.5520  159.3332 H   0  0  0  0  0  0  0  0  0  0  0  0
  154.0456  141.5661  161.1535 H   0  0  0  0  0  0  0  0  0  0  0  0
  153.1515  142.8711  161.9284 H   0  0  0  0  0  0  0  0  0  0  0  0
  154.5228  143.2385  160.8710 H   0  0  0  0  0  0  0  0  0  0  0  0
  148.9664  135.6965  153.6904 H   0  0  0  0  0  0  0  0  0  0  0  0
  149.6350  143.2440  156.0374 H   0  0  0  0  0  0  0  0  0  0  0  0
  1  2  1  0  0  0  0
  1 26  1  0  0  0  0
  1 27  1  0  0  0  0
  1 28  1  0  0  0  0
  2 24  1  0  0  0  0
  2  3  2  0  0  0  0
  3  4  1  0  0  0  0
  3 29  1  0  0  0  0
  4 22  2  0  0  0  0
  4  5  1  0  0  0  0
  5  6  2  0  0  0  0
  5 57  1  0  0  0  0
  6  7  1  0  0  0  0
  6 30  1  0  0  0  0
  7  8  1  0  0  0  0
  7 22  1  0  0  0  0
  8  9  1  0  0  0  0
  8 31  1  0  0  0  0
  8 32  1  0  0  0  0
  9 10  1  0  0  0  0
  9 11  1  0  0  0  0
  9 33  1  0  0  0  0
 10 34  1  0  0  0  0
 11 12  1  0  0  0  0
 11 35  1  0  0  0  0
 11 36  1  0  0  0  0
 12 21  1  0  0  0  0
 12 13  1  0  0  0  0
 13 14  1  0  0  0  0
 13 37  1  0  0  0  0
 13 38  1  0  0  0  0
 14 15  1  0  0  0  0
 14 39  1  0  0  0  0
 14 40  1  0  0  0  0
 15 16  1  0  0  0  0
 15 20  1  0  0  0  0
 15 56  1  0  0  0  0
 16 17  1  0  0  0  0
 16 41  1  0  0  0  0
 16 42  1  0  0  0  0
 17 18  1  0  0  0  0
 17 19  1  0  0  0  0
 17 43  1  0  0  0  0
 18 44  1  0  0  0  0
 18 45  1  0  0  0  0
 18 46  1  0  0  0  0
 19 47  1  0  0  0  0
 20 21  1  0  0  0  0
 20 48  1  0  0  0  0
 20 49  1  0  0  0  0
 21 50  1  0  0  0  0
 21 51  1  0  0  0  0
 22 23  1  0  0  0  0
 23 24  2  0  0  0  0
 23 52  1  0  0  0  0
 24 25  1  0  0  0  0
 25 53  1  0  0  0  0
 25 54  1  0  0  0  0
 25 55  1  0  0  0  0
M  CHG  1   5   1
M  CHG  1  15   1
M  END
> <s_m_source_file>
AV-unprocessed.smi

> <i_m_source_file_index>
1033

> <i_lp_mmshare_version>
43012

> <i_f3d_flags>
0

> <s_epik_input>
W0NIM11jKFtjSF0xKWMoW0NIM10pW2NIXWMoYzEyKW4oW2NIXW4yKVtDSDJdW0NASF0oW09IXSlbQ0gyXU4zW0NIMl1bQ0gyXU4oW0NIMl1bQ0gyXTMpW0NIMl1bQ0BIXShbQ0gzXSlbT0hd

> <s_epik_cmdline>
J2VwaWtfcHl0aG9uJywgJy1waCcsICc3LjAnLCAnLXRuJywgJzgnLCAnLW1hJywgJzIwMCcsICctbWV0YWxfYmluZGluZycsICctaW1hZScsICc8aW5maWxlLm1hZT4nLCAnLW9tYWUnLCAnPG91dGZpbGUubWFlPic=

> <r_epik_Ionization_Penalty>
1.28617

> <r_epik_Ionization_Penalty_Charging>
1.23646

> <r_epik_Ionization_Penalty_Neutral>
0.0497112

> <r_epik_State_Penalty>
1.79157

> <r_epik_Charging_Adjusted_Penalty>
3.02803

> <i_epik_Tot_Q>
2

> <i_epik_Tot_abs_Q>
2

> <r_epik_Metal_State_Penalty>
5.81739

> <b_epik_Metal_Only>
0

> <s_lp_Force_Field>
OPLS_2005

> <r_lp_Energy>
41.025

> <b_lp_Chiralities_Consistent>
1

> <s_lp_Variant>
AV-unprocessed.smi:1033-14

> <Gold.Version>
5.8.1

> <Gold.Id.Protein>
6NUR|6NUR_protein|mol2

> <Gold.PLP.Fitness>
56.4428

> <Gold.PLP.PLP>
-42.5045

> <Gold.PLP.part.hbond>
-3.5175

> <Gold.PLP.part.metal>
0.0000

> <Gold.PLP.part.buried>
-3.9064

> <Gold.PLP.part.nonpolar>
-34.6880

> <Gold.PLP.part.repulsive>
0.1884

> <Gold.PLP.ligand.clash>
0.0000

> <Gold.PLP.ligand.torsion>
0.6537

> <Gold.PLP.Chemscore.Hbond>
5.0000

> <Gold.PLP.Chemscore.CHOScore>
0.0000

> <Gold.PLP.Chemscore.Metal>
0.0000

> <Gold.Chemscore.Hbonds>
donor molecule, donor type, donor heavy atom, donor atom, acceptor molecule, acceptor atom, score
      L1  H     5    57       P1  8028  2.00
      L1  H    15    56       P1  7948  2.00
      L1  H    19    47       P1  7948  1.00

> <Gold.PLP.Chemscore.Internal.Correction>
0.2456

> <Gold.Rescore>
     Score         DG    S(hbond)    S(metal)    S(lipo)     H(rot)  DE(clash)    DE(int)     intcor
     19.85     -20.27       2.95        0.00     110.98       3.15       0.02       0.41       ----

> <Gold.Chemscore.Fitness>
19.8461

> <Gold.Chemscore.DG>
-20.2749

> <Gold.Chemscore.ZeroCoef>
-5.4800

> <Gold.Chemscore.Hbond>
2.9550

> <Gold.Chemscore.Metal>
0.0000

> <Gold.Chemscore.Lipo>
110.9818

> <Gold.Chemscore.Internal_Hbond>
0.0000

> <Gold.Chemscore.DEClash>
0.0208

> <Gold.Chemscore.DEInternal>
0.4079

> <Gold.Chemscore.Rot>
3.1483

> <Gold.Chemscore.Internal.Correction>
   9.000000E+99

> <Gold.Chemscore.Hbonds>
donor molecule, donor type, donor heavy atom, donor atom, acceptor molecule, acceptor atom, score
      L1  H     5    57       P1  8028  1.00
      L1  H    15    56       P1  7948  0.88
      L1  H    19    47       P1  7948  0.90

> <Gold.Chemscore.Hbond.Weighted>
-9.8697

> <Gold.Chemscore.Metal.Weighted>
-0.0000

> <Gold.Chemscore.Lipo.Weighted>
-12.9849

> <Gold.Chemscore.Internal_Hbond.Weighted>
0.0000

> <Gold.Chemscore.DEClash.Weighted>
0.0208

> <Gold.Chemscore.DEInternal.Weighted>
0.4079

> <Gold.Chemscore.Rot.Weighted>
8.0597

> <Gold.Chemscore.Internal.Correction.Weighted>
   9.000000E+99

> <Gold.Protein.RotatedTorsions>
[ 6907 6896 6895 6894 ] final   16.31 input  -60.11 | X-H torsion
[ 7974 7965 7964 7962 ] final  111.42 input  175.53 | X-H torsion
[ 8008 7997 7996 7995 ] final  144.09 input   59.86 | X-H torsion
[ 10167 10162 10161 10158 ] final  -30.58 input  -65.29 | X-H torsion
[ 10718 10713 10712 10709 ] final  -19.88 input   66.30 | X-H torsion
[ 10763 10752 10751 10750 ] final -156.43 input  -60.55 | X-H torsion
[ 11005 11000 10999 10996 ] final -168.27 input  -57.11 | X-H torsion

> <Gold.Protein.ActiveResidues>
 VAL166  LYS551  ARG553  GLY616  TRP617  ASP618  TYR619  PRO620  LYS621  CYS622 
 ASP623  PHE694  ASN695  SER759  ASP760  ASP761  ALA762  ILE779  LEU786  VAL792 
 PHE793  MET794  SER795  GLU796  ALA797  LYS798  CYS799  TRP800  GLU811  SER814 

> <Gold.Protein.RotatedAtoms>
  151.8319  135.0619  160.0437 H   0  0  0  0  0  0  0  0  0  0  0  0  # atno 6907 bound_to 6896
  152.2874  133.5524  159.5544 H   0  0  0  0  0  0  0  0  0  0  0  0  # atno 6908 bound_to 6896
  150.7215  134.0394  159.3802 H   0  0  0  0  0  0  0  0  0  0  0  0  # atno 6909 bound_to 6896
  145.2424  139.2773  143.4110 H   0  0  0  0  0  0  0  0  0  0  0  0  # atno 7974 bound_to 7965
  156.2916  140.2245  156.4996 H   0  0  0  0  0  0  0  0  0  0  0  0  # atno 8008 bound_to 7997
  154.7701  140.0467  157.1065 H   0  0  0  0  0  0  0  0  0  0  0  0  # atno 8009 bound_to 7997
  154.9885  140.3087  155.4919 H   0  0  0  0  0  0  0  0  0  0  0  0  # atno 8010 bound_to 7997
  140.7247  143.3837  151.1553 H   0  0  0  0  0  0  0  0  0  0  0  0  # atno 10167 bound_to 10162
  156.5396  130.4675  149.6506 H   0  0  0  0  0  0  0  0  0  0  0  0  # atno 10718 bound_to 10713
  154.7713  135.3146  154.8183 H   0  0  0  0  0  0  0  0  0  0  0  0  # atno 10763 bound_to 10752
  153.8917  135.6824  153.4764 H   0  0  0  0  0  0  0  0  0  0  0  0  # atno 10764 bound_to 10752
  153.1328  135.4773  154.9310 H   0  0  0  0  0  0  0  0  0  0  0  0  # atno 10765 bound_to 10752
  140.5439  134.5495  157.5106 H   0  0  0  0  0  0  0  0  0  0  0  0  # atno 11005 bound_to 11000
  146.3325  140.2792  142.8609 LP  0  0  0  0  0  0  0  0  0  0  0  0  # atno 17320 bound_to 7965
  144.9577  140.8243  143.5533 LP  0  0  0  0  0  0  0  0  0  0  0  0  # atno 17321 bound_to 7965
  139.7431  143.8894  152.3055 LP  0  0  0  0  0  0  0  0  0  0  0  0  # atno 17342 bound_to 10162
  139.8722  144.7062  150.8975 LP  0  0  0  0  0  0  0  0  0  0  0  0  # atno 17343 bound_to 10162
  156.2984  130.7163  151.2029 LP  0  0  0  0  0  0  0  0  0  0  0  0  # atno 17370 bound_to 10713
  157.7408  131.0513  150.5144 LP  0  0  0  0  0  0  0  0  0  0  0  0  # atno 17371 bound_to 10713
  139.9490  134.7651  156.0494 LP  0  0  0  0  0  0  0  0  0  0  0  0  # atno 17394 bound_to 11000
  141.1211  133.6612  156.3217 LP  0  0  0  0  0  0  0  0  0  0  0  0  # atno 17395 bound_to 11000

$$$$
