AV-unprocessed.smi:3026|AV-procd|sdf|11513|dock9
  -GOLD-   2272016453D 1   1.00000     0.00000
 Structure written by MMmdl.
 33 34  0  0  0  0  0  0  0  0  1 V2000
  153.5796  141.7171  160.4273 C   0  0  0  0  0  0  0  0  0  0  0  0
  152.6563  142.1916  159.3258 C   0  0  0  0  0  0  0  0  0  0  0  0
  152.2046  143.5259  159.2649 C   0  0  0  0  0  0  0  0  0  0  0  0
  151.3461  143.8424  158.1930 C   0  0  0  0  0  0  0  0  0  0  0  0
  150.9801  142.9193  157.2774 N   0  0  0  0  0  0  0  0  0  0  0  0
  151.4745  141.6853  157.4241 C   0  0  0  0  0  0  0  0  0  0  0  0
  151.0632  140.7475  156.4848 N   0  0  0  0  0  0  0  0  0  0  0  0
  152.1867  140.1130  155.8011 C   0  0  0  0  0  0  0  0  0  0  0  0
  151.7297  138.8772  155.0179 C   0  0  0  0  0  0  0  0  0  0  0  0
  150.7238  139.2703  154.0978 O   0  0  0  0  0  0  0  0  0  0  0  0
  149.5765  139.7764  154.7669 C   0  0  0  0  0  0  0  0  0  0  0  0
  149.9228  141.0363  155.5994 C   0  0  1  0  0  0  0  0  0  0  0  0
  148.6752  141.5248  156.3874 C   0  0  0  0  0  0  0  0  0  0  0  0
  147.3610  141.5387  155.5868 C   0  0  0  0  0  0  0  0  0  0  0  0
  147.4512  142.4343  154.4990 O   0  0  0  0  0  0  0  0  0  0  0  0
  152.2843  141.2729  158.4084 N   0  0  0  0  0  0  0  0  0  0  0  0
  154.0366  142.5604  160.9456 H   0  0  0  0  0  0  0  0  0  0  0  0
  154.3781  141.0971  160.0185 H   0  0  0  0  0  0  0  0  0  0  0  0
  153.0232  141.1269  161.1557 H   0  0  0  0  0  0  0  0  0  0  0  0
  152.4960  144.2653  159.9962 H   0  0  0  0  0  0  0  0  0  0  0  0
  150.9503  144.8398  158.0710 H   0  0  0  0  0  0  0  0  0  0  0  0
  152.6454  140.8348  155.1240 H   0  0  0  0  0  0  0  0  0  0  0  0
  152.9524  139.8228  156.5219 H   0  0  0  0  0  0  0  0  0  0  0  0
  152.5675  138.4493  154.4676 H   0  0  0  0  0  0  0  0  0  0  0  0
  151.3556  138.1013  155.6880 H   0  0  0  0  0  0  0  0  0  0  0  0
  148.8349  140.0096  154.0041 H   0  0  0  0  0  0  0  0  0  0  0  0
  149.1458  138.9972  155.3983 H   0  0  0  0  0  0  0  0  0  0  0  0
  150.2391  141.8236  154.9138 H   0  0  0  0  0  0  0  0  0  0  0  0
  148.5444  140.8964  157.2693 H   0  0  0  0  0  0  0  0  0  0  0  0
  148.8254  142.5336  156.7703 H   0  0  0  0  0  0  0  0  0  0  0  0
  147.0932  140.5468  155.2255 H   0  0  0  0  0  0  0  0  0  0  0  0
  146.5435  141.8656  156.2298 H   0  0  0  0  0  0  0  0  0  0  0  0
  147.7863  143.2595  154.8154 H   0  0  0  0  0  0  0  0  0  0  0  0
  1  2  1  0  0  0  0
  1 17  1  0  0  0  0
  1 18  1  0  0  0  0
  1 19  1  0  0  0  0
  2 16  1  0  0  0  0
  2  3  2  0  0  0  0
  3  4  1  0  0  0  0
  3 20  1  0  0  0  0
  4  5  2  0  0  0  0
  4 21  1  0  0  0  0
  5  6  1  0  0  0  0
  6  7  1  0  0  0  0
  6 16  2  0  0  0  0
  7 12  1  0  0  0  0
  7  8  1  0  0  0  0
  8  9  1  0  0  0  0
  8 22  1  0  0  0  0
  8 23  1  0  0  0  0
  9 10  1  0  0  0  0
  9 24  1  0  0  0  0
  9 25  1  0  0  0  0
 10 11  1  0  0  0  0
 11 12  1  0  0  0  0
 11 26  1  0  0  0  0
 11 27  1  0  0  0  0
 12 13  1  0  0  0  0
 12 28  1  0  0  0  0
 13 14  1  0  0  0  0
 13 29  1  0  0  0  0
 13 30  1  0  0  0  0
 14 15  1  0  0  0  0
 14 31  1  0  0  0  0
 14 32  1  0  0  0  0
 15 33  1  0  0  0  0
M  END
> <s_m_source_file>
AV-unprocessed.smi

> <i_m_source_file_index>
3026

> <i_lp_mmshare_version>
43012

> <i_f3d_flags>
0

> <s_epik_input>
W0NIM11jMVtjSF1bY0hdbmMobjEpTjJbQ0gyXVtDSDJdT1tDSDJdW0NASF0yW0NIMl1bQ0gyXVtPSF0=

> <s_epik_cmdline>
J2VwaWtfcHl0aG9uJywgJy1waCcsICc3LjAnLCAnLXRuJywgJzgnLCAnLW1hJywgJzIwMCcsICctbWV0YWxfYmluZGluZycsICctaW1hZScsICc8aW5maWxlLm1hZT4nLCAnLW9tYWUnLCAnPG91dGZpbGUubWFlPic=

> <r_lp_tautomer_probability>
1

> <r_epik_Ionization_Penalty>
6.52665e-05

> <r_epik_Ionization_Penalty_Charging>
0

> <r_epik_Ionization_Penalty_Neutral>
6.52665e-05

> <r_epik_State_Penalty>
-0

> <r_epik_Charging_Adjusted_Penalty>
0

> <i_epik_Tot_Q>
0

> <i_epik_Tot_abs_Q>
0

> <r_epik_Metal_State_Penalty>
-0

> <b_epik_Metal_Only>
0

> <s_lp_Force_Field>
OPLS_2005

> <r_lp_Energy>
15.2375

> <b_lp_Chiralities_Consistent>
1

> <s_lp_Variant>
AV-unprocessed.smi:3026-1

> <Gold.Version>
5.8.1

> <Gold.Id.Protein>
6NUR|6NUR_protein|mol2

> <Gold.PLP.Fitness>
37.4806

> <Gold.PLP.PLP>
-31.7693

> <Gold.PLP.part.hbond>
-2.1022

> <Gold.PLP.part.metal>
0.0000

> <Gold.PLP.part.buried>
-2.9725

> <Gold.PLP.part.nonpolar>
-27.0204

> <Gold.PLP.part.repulsive>
0.3421

> <Gold.PLP.ligand.clash>
0.0000

> <Gold.PLP.ligand.torsion>
0.2988

> <Gold.PLP.Chemscore.Hbond>
2.0000

> <Gold.PLP.Chemscore.CHOScore>
0.0000

> <Gold.PLP.Chemscore.Metal>
0.0000

> <Gold.Chemscore.Hbonds>
donor molecule, donor type, donor heavy atom, donor atom, acceptor molecule, acceptor atom, score
      L1  H    15    33       P1  8028  1.00
      P1  H  7989  7998       L1    10  0.80

> <Gold.PLP.Chemscore.Internal.Correction>
0.3090

> <Gold.Rescore>
     Score         DG    S(hbond)    S(metal)    S(lipo)     H(rot)  DE(clash)    DE(int)     intcor
     11.78     -13.56       1.00        0.00      83.91       1.99       0.10       1.67       ----

> <Gold.Chemscore.Fitness>
11.7817

> <Gold.Chemscore.DG>
-13.5584

> <Gold.Chemscore.ZeroCoef>
-5.4800

> <Gold.Chemscore.Hbond>
1.0018

> <Gold.Chemscore.Metal>
0.0000

> <Gold.Chemscore.Lipo>
83.9101

> <Gold.Chemscore.Internal_Hbond>
0.0000

> <Gold.Chemscore.DEClash>
0.1017

> <Gold.Chemscore.DEInternal>
1.6750

> <Gold.Chemscore.Rot>
1.9864

> <Gold.Chemscore.Internal.Correction>
   9.000000E+99

> <Gold.Chemscore.Hbonds>
donor molecule, donor type, donor heavy atom, donor atom, acceptor molecule, acceptor atom, score
      L1  H    15    33       P1  8028  0.64
      P1  H  7989  7998       L1    10  0.05

> <Gold.Chemscore.Hbond.Weighted>
-3.3460

> <Gold.Chemscore.Metal.Weighted>
-0.0000

> <Gold.Chemscore.Lipo.Weighted>
-9.8175

> <Gold.Chemscore.Internal_Hbond.Weighted>
0.0000

> <Gold.Chemscore.DEClash.Weighted>
0.1017

> <Gold.Chemscore.DEInternal.Weighted>
1.6750

> <Gold.Chemscore.Rot.Weighted>
5.0851

> <Gold.Chemscore.Internal.Correction.Weighted>
   9.000000E+99

> <Gold.Protein.RotatedTorsions>
[ 6907 6896 6895 6894 ] final -128.38 input  -60.11 | X-H torsion
[ 7974 7965 7964 7962 ] final  -13.25 input  175.53 | X-H torsion
[ 8008 7997 7996 7995 ] final  150.77 input   59.86 | X-H torsion
[ 10167 10162 10161 10158 ] final  124.89 input  -65.29 | X-H torsion
[ 10718 10713 10712 10709 ] final   39.33 input   66.30 | X-H torsion
[ 10763 10752 10751 10750 ] final  -95.66 input  -60.55 | X-H torsion
[ 11005 11000 10999 10996 ] final -120.52 input  -57.11 | X-H torsion

> <Gold.Protein.ActiveResidues>
 VAL166  LYS551  ARG553  GLY616  TRP617  ASP618  TYR619  PRO620  LYS621  CYS622 
 ASP623  PHE694  ASN695  SER759  ASP760  ASP761  ALA762  ILE779  LEU786  VAL792 
 PHE793  MET794  SER795  GLU796  ALA797  LYS798  CYS799  TRP800  GLU811  SER814 

> <Gold.Protein.RotatedAtoms>
  150.9172  133.6924  159.2840 H   0  0  0  0  0  0  0  0  0  0  0  0  # atno 6907 bound_to 6896
  151.4391  135.1017  159.9674 H   0  0  0  0  0  0  0  0  0  0  0  0  # atno 6908 bound_to 6896
  152.4961  133.8585  159.7293 H   0  0  0  0  0  0  0  0  0  0  0  0  # atno 6909 bound_to 6896
  146.2121  140.3176  142.8387 H   0  0  0  0  0  0  0  0  0  0  0  0  # atno 7974 bound_to 7965
  156.2702  140.2066  156.6069 H   0  0  0  0  0  0  0  0  0  0  0  0  # atno 8008 bound_to 7997
  154.6862  140.0535  157.0341 H   0  0  0  0  0  0  0  0  0  0  0  0  # atno 8009 bound_to 7997
  155.0930  140.3198  155.4571 H   0  0  0  0  0  0  0  0  0  0  0  0  # atno 8010 bound_to 7997
  139.5716  144.6942  151.3763 H   0  0  0  0  0  0  0  0  0  0  0  0  # atno 10167 bound_to 10162
  157.3693  130.7692  149.7107 H   0  0  0  0  0  0  0  0  0  0  0  0  # atno 10718 bound_to 10713
  154.7168  135.5112  153.8751 H   0  0  0  0  0  0  0  0  0  0  0  0  # atno 10763 bound_to 10752
  153.0828  135.6636  154.0019 H   0  0  0  0  0  0  0  0  0  0  0  0  # atno 10764 bound_to 10752
  153.9850  135.3025  155.3396 H   0  0  0  0  0  0  0  0  0  0  0  0  # atno 10765 bound_to 10752
  141.0137  134.0227  157.3379 H   0  0  0  0  0  0  0  0  0  0  0  0  # atno 11005 bound_to 11000
  144.8943  140.7563  143.5907 LP  0  0  0  0  0  0  0  0  0  0  0  0  # atno 17320 bound_to 7965
  145.3100  139.1822  143.4644 LP  0  0  0  0  0  0  0  0  0  0  0  0  # atno 17321 bound_to 7965
  140.7000  143.7654  150.7388 LP  0  0  0  0  0  0  0  0  0  0  0  0  # atno 17342 bound_to 10162
  140.1162  143.4653  152.2340 LP  0  0  0  0  0  0  0  0  0  0  0  0  # atno 17343 bound_to 10162
  155.9752  130.4092  150.3864 LP  0  0  0  0  0  0  0  0  0  0  0  0  # atno 17370 bound_to 10713
  157.1953  131.0425  151.2679 LP  0  0  0  0  0  0  0  0  0  0  0  0  # atno 17371 bound_to 10713
  139.9104  135.0189  156.7669 LP  0  0  0  0  0  0  0  0  0  0  0  0  # atno 17394 bound_to 11000
  140.6690  133.9576  155.7846 LP  0  0  0  0  0  0  0  0  0  0  0  0  # atno 17395 bound_to 11000

$$$$
