AV-unprocessed.smi:1925|AV-procd|sdf|7792|dock6
  -GOLD-   22720 9533D 1   1.00000     0.00000
 Structure written by MMmdl.
 31 32  0  0  0  0  0  0  0  0  1 V2000
  144.5618  136.7891  152.3351 O   0  0  0  0  0  0  0  0  0  0  0  0
  145.7681  136.5598  152.2407 C   0  0  0  0  0  0  0  0  0  0  0  0
  146.7160  137.4047  152.6713 N   0  0  0  0  0  0  0  0  0  0  0  0
  146.4649  138.6970  153.3009 C   0  0  0  0  0  0  0  0  0  0  0  0
  147.6862  139.6328  153.2173 C   0  0  2  0  0  0  0  0  0  0  0  0
  148.7748  139.3582  154.2447 C   0  0  0  0  0  0  0  0  0  0  0  0
  149.4050  140.7331  154.4937 C   0  0  0  0  0  0  0  0  0  0  0  0
  148.6354  141.6653  153.7421 O   0  0  0  0  0  0  0  0  0  0  0  0
  147.3610  141.0972  153.4909 C   0  0  0  0  0  0  0  0  0  0  0  0
  146.3110  135.4522  151.7051 N   0  0  0  0  0  0  0  0  0  0  0  0
  145.6452  134.3387  151.1271 C   0  0  0  0  0  0  0  0  0  0  0  0
  146.4941  133.3652  150.5536 C   0  0  0  0  0  0  0  0  0  0  0  0
  145.9318  132.2225  149.9524 C   0  0  0  0  0  0  0  0  0  0  0  0
  144.5326  132.0827  149.9394 C   0  0  0  0  0  0  0  0  0  0  0  0
  143.7594  133.0983  150.5317 C   0  0  0  0  0  0  0  0  0  0  0  0
  144.2965  134.1939  151.1088 N   0  0  0  0  0  0  0  0  0  0  0  0
  147.6821  137.1363  152.5556 H   0  0  0  0  0  0  0  0  0  0  0  0
  145.5948  139.1701  152.8425 H   0  0  0  0  0  0  0  0  0  0  0  0
  146.2020  138.5173  154.3437 H   0  0  0  0  0  0  0  0  0  0  0  0
  148.1280  139.5694  152.2215 H   0  0  0  0  0  0  0  0  0  0  0  0
  148.3463  138.9762  155.1724 H   0  0  0  0  0  0  0  0  0  0  0  0
  149.4994  138.6265  153.8859 H   0  0  0  0  0  0  0  0  0  0  0  0
  149.3656  140.9906  155.5525 H   0  0  0  0  0  0  0  0  0  0  0  0
  150.4468  140.7700  154.1747 H   0  0  0  0  0  0  0  0  0  0  0  0
  146.8637  141.5834  152.6513 H   0  0  0  0  0  0  0  0  0  0  0  0
  146.7328  141.2060  154.3766 H   0  0  0  0  0  0  0  0  0  0  0  0
  147.3189  135.4007  151.7080 H   0  0  0  0  0  0  0  0  0  0  0  0
  147.5673  133.4883  150.5720 H   0  0  0  0  0  0  0  0  0  0  0  0
  146.5638  131.4671  149.5092 H   0  0  0  0  0  0  0  0  0  0  0  0
  144.0642  131.2207  149.4878 H   0  0  0  0  0  0  0  0  0  0  0  0
  142.6816  133.0302  150.5426 H   0  0  0  0  0  0  0  0  0  0  0  0
  1  2  2  0  0  0  0
  2  3  1  0  0  0  0
  2 10  1  0  0  0  0
  3  4  1  0  0  0  0
  3 17  1  0  0  0  0
  4  5  1  0  0  0  0
  4 18  1  0  0  0  0
  4 19  1  0  0  0  0
  5  9  1  0  0  0  0
  5  6  1  0  0  0  0
  5 20  1  0  0  0  0
  6  7  1  0  0  0  0
  6 21  1  0  0  0  0
  6 22  1  0  0  0  0
  7  8  1  0  0  0  0
  7 23  1  0  0  0  0
  7 24  1  0  0  0  0
  8  9  1  0  0  0  0
  9 25  1  0  0  0  0
  9 26  1  0  0  0  0
 10 11  1  0  0  0  0
 10 27  1  0  0  0  0
 11 16  1  0  0  0  0
 11 12  2  0  0  0  0
 12 13  1  0  0  0  0
 12 28  1  0  0  0  0
 13 14  2  0  0  0  0
 13 29  1  0  0  0  0
 14 15  1  0  0  0  0
 14 30  1  0  0  0  0
 15 16  2  0  0  0  0
 15 31  1  0  0  0  0
M  END
> <s_m_source_file>
AV-unprocessed.smi

> <i_m_source_file_index>
1925

> <i_lp_mmshare_version>
43012

> <i_f3d_flags>
0

> <s_epik_input>
bjFbY0hdW2NIXVtjSF1bY0hdYzFbTkhdQyg9TylbTkhdW0NIMl1bQ0BASF0yW0NIMl1bQ0gyXU9bQ0gyXTI=

> <s_epik_cmdline>
J2VwaWtfcHl0aG9uJywgJy1waCcsICc3LjAnLCAnLXRuJywgJzgnLCAnLW1hJywgJzIwMCcsICctbWV0YWxfYmluZGluZycsICctaW1hZScsICc8aW5maWxlLm1hZT4nLCAnLW9tYWUnLCAnPG91dGZpbGUubWFlPic=

> <r_lp_tautomer_probability>
1

> <r_epik_Ionization_Penalty>
4.81143e-05

> <r_epik_Ionization_Penalty_Charging>
0

> <r_epik_Ionization_Penalty_Neutral>
4.81143e-05

> <r_epik_State_Penalty>
-0

> <r_epik_Charging_Adjusted_Penalty>
0

> <i_epik_Tot_Q>
0

> <i_epik_Tot_abs_Q>
0

> <r_epik_Metal_State_Penalty>
-0

> <b_epik_Metal_Only>
0

> <s_lp_Force_Field>
OPLS_2005

> <r_lp_Energy>
20.9741

> <b_lp_Chiralities_Consistent>
1

> <s_lp_Variant>
AV-unprocessed.smi:1925-1

> <Gold.Version>
5.8.1

> <Gold.Id.Protein>
6NUR|6NUR_protein|mol2

> <Gold.PLP.Fitness>
40.2751

> <Gold.PLP.PLP>
-29.9695

> <Gold.PLP.part.hbond>
-3.0000

> <Gold.PLP.part.metal>
0.0000

> <Gold.PLP.part.buried>
-1.5573

> <Gold.PLP.part.nonpolar>
-25.1328

> <Gold.PLP.part.repulsive>
0.6351

> <Gold.PLP.ligand.clash>
0.0000

> <Gold.PLP.ligand.torsion>
0.3086

> <Gold.PLP.Chemscore.Hbond>
2.6400

> <Gold.PLP.Chemscore.CHOScore>
1.0000

> <Gold.PLP.Chemscore.Metal>
0.0000

> <Gold.Chemscore.Hbonds>
donor molecule, donor type, donor heavy atom, donor atom, acceptor molecule, acceptor atom, score
      L1  H     3    17       P1  7948  1.00
      L1  H    10    27       P1  7948  1.00
      P1  H  8011  8017       L1     8  0.62
      L1  C    15    31       P1 10186  1.00

> <Gold.PLP.Chemscore.Internal.Correction>
0.0027

> <Gold.Rescore>
     Score         DG    S(hbond)    S(metal)    S(lipo)     H(rot)  DE(clash)    DE(int)     intcor
     16.28     -18.39       2.40        0.00      69.69       1.27       0.50       1.62       ----

> <Gold.Chemscore.Fitness>
16.2752

> <Gold.Chemscore.DG>
-18.3883

> <Gold.Chemscore.ZeroCoef>
-5.4800

> <Gold.Chemscore.Hbond>
2.3953

> <Gold.Chemscore.Metal>
0.0000

> <Gold.Chemscore.Lipo>
69.6883

> <Gold.Chemscore.Internal_Hbond>
0.0000

> <Gold.Chemscore.DEClash>
0.4954

> <Gold.Chemscore.DEInternal>
1.6178

> <Gold.Chemscore.Rot>
1.2678

> <Gold.Chemscore.Internal.Correction>
   9.000000E+99

> <Gold.Chemscore.Hbonds>
donor molecule, donor type, donor heavy atom, donor atom, acceptor molecule, acceptor atom, score
      L1  H     3    17       P1  7948  0.98
      L1  H    10    27       P1  7948  0.94
      P1  H  8011  8017       L1     8  0.42

> <Gold.Chemscore.Hbond.Weighted>
-8.0003

> <Gold.Chemscore.Metal.Weighted>
-0.0000

> <Gold.Chemscore.Lipo.Weighted>
-8.1535

> <Gold.Chemscore.Internal_Hbond.Weighted>
0.0000

> <Gold.Chemscore.DEClash.Weighted>
0.4954

> <Gold.Chemscore.DEInternal.Weighted>
1.6178

> <Gold.Chemscore.Rot.Weighted>
3.2455

> <Gold.Chemscore.Internal.Correction.Weighted>
   9.000000E+99

> <Gold.Protein.RotatedTorsions>
[ 6907 6896 6895 6894 ] final -124.45 input  -60.11 | X-H torsion
[ 7974 7965 7964 7962 ] final -125.12 input  175.53 | X-H torsion
[ 8008 7997 7996 7995 ] final   44.64 input   59.86 | X-H torsion
[ 10167 10162 10161 10158 ] final   50.68 input  -65.29 | X-H torsion
[ 10718 10713 10712 10709 ] final -144.45 input   66.30 | X-H torsion
[ 10763 10752 10751 10750 ] final -171.22 input  -60.55 | X-H torsion
[ 11005 11000 10999 10996 ] final -173.43 input  -57.11 | X-H torsion

> <Gold.Protein.ActiveResidues>
 VAL166  LYS551  ARG553  GLY616  TRP617  ASP618  TYR619  PRO620  LYS621  CYS622 
 ASP623  PHE694  ASN695  SER759  ASP760  ASP761  ALA762  ILE779  LEU786  VAL792 
 PHE793  MET794  SER795  GLU796  ALA797  LYS798  CYS799  TRP800  GLU811  SER814 

> <Gold.Protein.RotatedAtoms>
  150.8769  133.7426  159.2943 H   0  0  0  0  0  0  0  0  0  0  0  0  # atno 6907 bound_to 6896
  151.5019  135.1060  159.9841 H   0  0  0  0  0  0  0  0  0  0  0  0  # atno 6908 bound_to 6896
  152.4734  133.8036  159.7021 H   0  0  0  0  0  0  0  0  0  0  0  0  # atno 6909 bound_to 6896
  145.0010  140.7820  143.4496 H   0  0  0  0  0  0  0  0  0  0  0  0  # atno 7974 bound_to 7965
  155.3226  140.3398  155.4241 H   0  0  0  0  0  0  0  0  0  0  0  0  # atno 8008 bound_to 7997
  156.1901  140.1695  156.8145 H   0  0  0  0  0  0  0  0  0  0  0  0  # atno 8009 bound_to 7997
  154.5432  140.0720  156.8529 H   0  0  0  0  0  0  0  0  0  0  0  0  # atno 8010 bound_to 7997
  140.2699  144.3277  150.6293 H   0  0  0  0  0  0  0  0  0  0  0  0  # atno 10167 bound_to 10162
  156.3703  130.7784  151.1964 H   0  0  0  0  0  0  0  0  0  0  0  0  # atno 10718 bound_to 10713
  154.6329  135.2889  155.0195 H   0  0  0  0  0  0  0  0  0  0  0  0  # atno 10763 bound_to 10752
  154.1350  135.6527  153.4934 H   0  0  0  0  0  0  0  0  0  0  0  0  # atno 10764 bound_to 10752
  153.0288  135.5319  154.7163 H   0  0  0  0  0  0  0  0  0  0  0  0  # atno 10765 bound_to 10752
  140.4858  134.6032  157.4936 H   0  0  0  0  0  0  0  0  0  0  0  0  # atno 11005 bound_to 11000
  145.2154  139.2184  143.5121 LP  0  0  0  0  0  0  0  0  0  0  0  0  # atno 17320 bound_to 7965
  146.3452  140.2000  142.8589 LP  0  0  0  0  0  0  0  0  0  0  0  0  # atno 17321 bound_to 7965
  140.5898  143.2168  151.7274 LP  0  0  0  0  0  0  0  0  0  0  0  0  # atno 17342 bound_to 10162
  139.4992  144.3956  152.0235 LP  0  0  0  0  0  0  0  0  0  0  0  0  # atno 17343 bound_to 10162
  157.7483  131.0374  150.4455 LP  0  0  0  0  0  0  0  0  0  0  0  0  # atno 17370 bound_to 10713
  156.4681  130.4046  149.6535 LP  0  0  0  0  0  0  0  0  0  0  0  0  # atno 17371 bound_to 10713
  139.9799  134.7154  155.9879 LP  0  0  0  0  0  0  0  0  0  0  0  0  # atno 17394 bound_to 11000
  141.1509  133.6549  156.4010 LP  0  0  0  0  0  0  0  0  0  0  0  0  # atno 17395 bound_to 11000

$$$$
