AV-unprocessed.smi:2410|AV-procd|sdf|9527|dock5
  -GOLD-   2272013153D 1   1.00000     0.00000
 Structure written by MMmdl.
 46 48  0  0  0  0  0  0  0  0  1 V2000
  153.6931  142.1453  162.3230 C   0  0  0  0  0  0  0  0  0  0  0  0
  153.0234  142.0109  160.9668 C   0  0  0  0  0  0  0  0  0  0  0  0
  153.2555  140.8477  160.1982 C   0  0  0  0  0  0  0  0  0  0  0  0
  152.6543  140.6852  158.9308 C   0  0  0  0  0  0  0  0  0  0  0  0
  152.7408  139.6456  158.0203 N   0  0  0  0  0  0  0  0  0  0  0  0
  151.9590  140.0844  157.0376 C   0  0  0  0  0  0  0  0  0  0  0  0
  151.3762  141.2872  157.2044 N   0  0  0  0  0  0  0  0  0  0  0  0
  150.4876  141.9728  156.2842 C   0  0  0  0  0  0  0  0  0  0  0  0
  149.3579  141.0584  155.7725 C   0  0  1  0  0  0  0  0  0  0  0  0
  148.2726  141.8732  155.3732 O   0  0  0  0  0  0  0  0  0  0  0  0
  149.8112  140.2051  154.5682 C   0  0  0  0  0  0  0  0  0  0  0  0
  149.8946  138.7744  154.9051 N   0  0  0  0  0  0  0  0  0  0  0  0
  151.1435  138.1617  154.7146 C   0  0  0  0  0  0  0  0  0  0  0  0
  151.3359  136.9127  154.9878 N   0  0  0  0  0  0  0  0  0  0  0  0
  150.2823  136.1357  155.4783 C   0  0  0  0  0  0  0  0  0  0  0  0
  150.6189  134.6843  155.7712 C   0  0  0  0  0  0  0  0  0  0  0  0
  149.0432  136.6654  155.6704 C   0  0  0  0  0  0  0  0  0  0  0  0
  147.8564  135.8668  156.1949 C   0  0  0  0  0  0  0  0  0  0  0  0
  148.8088  138.0854  155.3620 C   0  0  0  0  0  0  0  0  0  0  0  0
  147.7108  138.6284  155.5022 O   0  0  0  0  0  0  0  0  0  0  0  0
  151.8071  141.7260  158.4509 C   0  0  0  0  0  0  0  0  0  0  0  0
  151.5669  142.8872  159.2065 C   0  0  0  0  0  0  0  0  0  0  0  0
  152.1772  143.0346  160.4695 C   0  0  0  0  0  0  0  0  0  0  0  0
  151.9157  144.2944  161.2759 C   0  0  0  0  0  0  0  0  0  0  0  0
  154.2653  141.2520  162.5750 H   0  0  0  0  0  0  0  0  0  0  0  0
  152.9485  142.2951  163.1051 H   0  0  0  0  0  0  0  0  0  0  0  0
  154.3770  142.9943  162.3277 H   0  0  0  0  0  0  0  0  0  0  0  0
  153.9005  140.0683  160.5761 H   0  0  0  0  0  0  0  0  0  0  0  0
  151.8020  139.4983  156.1439 H   0  0  0  0  0  0  0  0  0  0  0  0
  150.0783  142.8565  156.7763 H   0  0  0  0  0  0  0  0  0  0  0  0
  151.0889  142.3309  155.4479 H   0  0  0  0  0  0  0  0  0  0  0  0
  149.0276  140.4159  156.5897 H   0  0  0  0  0  0  0  0  0  0  0  0
  148.5336  142.7787  155.4433 H   0  0  0  0  0  0  0  0  0  0  0  0
  149.1739  140.3927  153.7013 H   0  0  0  0  0  0  0  0  0  0  0  0
  150.8011  140.5312  154.2437 H   0  0  0  0  0  0  0  0  0  0  0  0
  151.9297  138.8088  154.3213 H   0  0  0  0  0  0  0  0  0  0  0  0
  150.4430  134.4557  156.8226 H   0  0  0  0  0  0  0  0  0  0  0  0
  151.6656  134.4674  155.5538 H   0  0  0  0  0  0  0  0  0  0  0  0
  150.0068  134.0192  155.1612 H   0  0  0  0  0  0  0  0  0  0  0  0
  147.0491  135.8684  155.4618 H   0  0  0  0  0  0  0  0  0  0  0  0
  147.4789  136.3145  157.1148 H   0  0  0  0  0  0  0  0  0  0  0  0
  148.0997  134.8282  156.4122 H   0  0  0  0  0  0  0  0  0  0  0  0
  150.9210  143.6592  158.8143 H   0  0  0  0  0  0  0  0  0  0  0  0
  151.2620  144.9823  160.7388 H   0  0  0  0  0  0  0  0  0  0  0  0
  152.8502  144.8159  161.4843 H   0  0  0  0  0  0  0  0  0  0  0  0
  151.4360  144.0490  162.2234 H   0  0  0  0  0  0  0  0  0  0  0  0
  1  2  1  0  0  0  0
  1 25  1  0  0  0  0
  1 26  1  0  0  0  0
  1 27  1  0  0  0  0
  2 23  1  0  0  0  0
  2  3  2  0  0  0  0
  3  4  1  0  0  0  0
  3 28  1  0  0  0  0
  4 21  2  0  0  0  0
  4  5  1  0  0  0  0
  5  6  2  0  0  0  0
  6  7  1  0  0  0  0
  6 29  1  0  0  0  0
  7  8  1  0  0  0  0
  7 21  1  0  0  0  0
  8  9  1  0  0  0  0
  8 30  1  0  0  0  0
  8 31  1  0  0  0  0
  9 10  1  0  0  0  0
  9 11  1  0  0  0  0
  9 32  1  0  0  0  0
 10 33  1  0  0  0  0
 11 12  1  0  0  0  0
 11 34  1  0  0  0  0
 11 35  1  0  0  0  0
 12 19  1  0  0  0  0
 12 13  1  0  0  0  0
 13 14  2  0  0  0  0
 13 36  1  0  0  0  0
 14 15  1  0  0  0  0
 15 16  1  0  0  0  0
 15 17  2  0  0  0  0
 16 37  1  0  0  0  0
 16 38  1  0  0  0  0
 16 39  1  0  0  0  0
 17 18  1  0  0  0  0
 17 19  1  0  0  0  0
 18 40  1  0  0  0  0
 18 41  1  0  0  0  0
 18 42  1  0  0  0  0
 19 20  2  0  0  0  0
 21 22  1  0  0  0  0
 22 23  2  0  0  0  0
 22 43  1  0  0  0  0
 23 24  1  0  0  0  0
 24 44  1  0  0  0  0
 24 45  1  0  0  0  0
 24 46  1  0  0  0  0
M  END
> <s_m_source_file>
AV-unprocessed.smi

> <i_m_source_file_index>
2410

> <i_lp_mmshare_version>
43012

> <i_f3d_flags>
0

> <s_epik_input>
W0NIM11jKFtjSF0xKWMoW0NIM10pW2NIXWMoYzEyKW4oW2NIXW4yKVtDSDJdW0NASF0oW09IXSlbQ0gyXW4zW2NIXW5jKFtDSDNdKWMoW0NIM10pYzM9Tw==

> <s_epik_cmdline>
J2VwaWtfcHl0aG9uJywgJy1waCcsICc3LjAnLCAnLXRuJywgJzgnLCAnLW1hJywgJzIwMCcsICctbWV0YWxfYmluZGluZycsICctaW1hZScsICc8aW5maWxlLm1hZT4nLCAnLW9tYWUnLCAnPG91dGZpbGUubWFlPic=

> <r_lp_tautomer_probability>
1

> <r_epik_Ionization_Penalty>
0.113377

> <r_epik_Ionization_Penalty_Charging>
7.56033e-08

> <r_epik_Ionization_Penalty_Neutral>
0.113377

> <r_epik_State_Penalty>
0.103025

> <r_epik_Charging_Adjusted_Penalty>
0.103025

> <i_epik_Tot_Q>
0

> <i_epik_Tot_abs_Q>
0

> <r_epik_Metal_State_Penalty>
0.0863476

> <b_epik_Metal_Only>
0

> <s_lp_Force_Field>
OPLS_2005

> <r_lp_Energy>
18.3765

> <b_lp_Chiralities_Consistent>
1

> <s_lp_Variant>
AV-unprocessed.smi:2410-2

> <Gold.Version>
5.8.1

> <Gold.Id.Protein>
6NUR|6NUR_protein|mol2

> <Gold.PLP.Fitness>
52.8929

> <Gold.PLP.PLP>
-46.4601

> <Gold.PLP.part.hbond>
-3.0000

> <Gold.PLP.part.metal>
0.0000

> <Gold.PLP.part.buried>
-3.3022

> <Gold.PLP.part.nonpolar>
-40.3629

> <Gold.PLP.part.repulsive>
0.2028

> <Gold.PLP.ligand.clash>
0.0000

> <Gold.PLP.ligand.torsion>
1.0899

> <Gold.PLP.Chemscore.Hbond>
2.8550

> <Gold.PLP.Chemscore.CHOScore>
0.0000

> <Gold.PLP.Chemscore.Metal>
0.0000

> <Gold.Chemscore.Hbonds>
donor molecule, donor type, donor heavy atom, donor atom, acceptor molecule, acceptor atom, score
      L1  H    10    33       P1  8028  1.00
      P1  H  7997  8009       L1     5  0.60
      P1  H 10752 10765       L1    14  0.80

> <Gold.PLP.Chemscore.Internal.Correction>
0.0476

> <Gold.Rescore>
     Score         DG    S(hbond)    S(metal)    S(lipo)     H(rot)  DE(clash)    DE(int)     intcor
     17.29     -18.77       1.69        0.00     116.60       2.35       0.15       1.33       ----

> <Gold.Chemscore.Fitness>
17.2925

> <Gold.Chemscore.DG>
-18.7697

> <Gold.Chemscore.ZeroCoef>
-5.4800

> <Gold.Chemscore.Hbond>
1.6941

> <Gold.Chemscore.Metal>
0.0000

> <Gold.Chemscore.Lipo>
116.5972

> <Gold.Chemscore.Internal_Hbond>
0.0000

> <Gold.Chemscore.DEClash>
0.1510

> <Gold.Chemscore.DEInternal>
1.3262

> <Gold.Chemscore.Rot>
2.3479

> <Gold.Chemscore.Internal.Correction>
   9.000000E+99

> <Gold.Chemscore.Hbonds>
donor molecule, donor type, donor heavy atom, donor atom, acceptor molecule, acceptor atom, score
      L1  H    10    33       P1  8028  0.98
      P1  H  7997  8009       L1     5  0.03
      P1  H 10752 10765       L1    14  0.55

> <Gold.Chemscore.Hbond.Weighted>
-5.6584

> <Gold.Chemscore.Metal.Weighted>
-0.0000

> <Gold.Chemscore.Lipo.Weighted>
-13.6419

> <Gold.Chemscore.Internal_Hbond.Weighted>
0.0000

> <Gold.Chemscore.DEClash.Weighted>
0.1510

> <Gold.Chemscore.DEInternal.Weighted>
1.3262

> <Gold.Chemscore.Rot.Weighted>
6.0106

> <Gold.Chemscore.Internal.Correction.Weighted>
   9.000000E+99

> <Gold.Protein.RotatedTorsions>
[ 6907 6896 6895 6894 ] final  166.54 input  -60.11 | X-H torsion
[ 7974 7965 7964 7962 ] final   -9.11 input  175.53 | X-H torsion
[ 8008 7997 7996 7995 ] final  154.66 input   59.86 | X-H torsion
[ 10167 10162 10161 10158 ] final  -59.51 input  -65.29 | X-H torsion
[ 10718 10713 10712 10709 ] final  153.61 input   66.30 | X-H torsion
[ 10763 10752 10751 10750 ] final  170.11 input  -60.55 | X-H torsion
[ 11005 11000 10999 10996 ] final  -27.65 input  -57.11 | X-H torsion

> <Gold.Protein.ActiveResidues>
 VAL166  LYS551  ARG553  GLY616  TRP617  ASP618  TYR619  PRO620  LYS621  CYS622 
 ASP623  PHE694  ASN695  SER759  ASP760  ASP761  ALA762  ILE779  LEU786  VAL792 
 PHE793  MET794  SER795  GLU796  ALA797  LYS798  CYS799  TRP800  GLU811  SER814 

> <Gold.Protein.RotatedAtoms>
  151.8773  133.3488  159.3754 H   0  0  0  0  0  0  0  0  0  0  0  0  # atno 6907 bound_to 6896
  150.7137  134.5054  159.5590 H   0  0  0  0  0  0  0  0  0  0  0  0  # atno 6908 bound_to 6896
  152.2598  134.8046  160.0483 H   0  0  0  0  0  0  0  0  0  0  0  0  # atno 6909 bound_to 6896
  146.2261  140.2568  142.8350 H   0  0  0  0  0  0  0  0  0  0  0  0  # atno 7974 bound_to 7965
  156.2519  140.1960  156.6681 H   0  0  0  0  0  0  0  0  0  0  0  0  # atno 8008 bound_to 7997
  154.6413  140.0583  156.9875 H   0  0  0  0  0  0  0  0  0  0  0  0  # atno 8009 bound_to 7997
  155.1558  140.3255  155.4424 H   0  0  0  0  0  0  0  0  0  0  0  0  # atno 8010 bound_to 7997
  140.6130  143.2393  151.5664 H   0  0  0  0  0  0  0  0  0  0  0  0  # atno 10167 bound_to 10162
  157.2425  131.0762  151.1783 H   0  0  0  0  0  0  0  0  0  0  0  0  # atno 10718 bound_to 10713
  154.3929  135.2754  155.2144 H   0  0  0  0  0  0  0  0  0  0  0  0  # atno 10763 bound_to 10752
  154.4203  135.6001  153.6009 H   0  0  0  0  0  0  0  0  0  0  0  0  # atno 10764 bound_to 10752
  152.9832  135.5971  154.4186 H   0  0  0  0  0  0  0  0  0  0  0  0  # atno 10765 bound_to 10752
  140.9138  133.7443  156.0707 H   0  0  0  0  0  0  0  0  0  0  0  0  # atno 11005 bound_to 11000
  144.9370  140.8037  143.5654 LP  0  0  0  0  0  0  0  0  0  0  0  0  # atno 17320 bound_to 7965
  145.2516  139.2029  143.4939 LP  0  0  0  0  0  0  0  0  0  0  0  0  # atno 17321 bound_to 7965
  139.5376  144.2737  152.1284 LP  0  0  0  0  0  0  0  0  0  0  0  0  # atno 17342 bound_to 10162
  140.1940  144.4724  150.6464 LP  0  0  0  0  0  0  0  0  0  0  0  0  # atno 17343 bound_to 10162
  157.3363  130.7010  149.6354 LP  0  0  0  0  0  0  0  0  0  0  0  0  # atno 17370 bound_to 10713
  155.9669  130.4293  150.4825 LP  0  0  0  0  0  0  0  0  0  0  0  0  # atno 17371 bound_to 10713
  140.8075  134.3437  157.5421 LP  0  0  0  0  0  0  0  0  0  0  0  0  # atno 17394 bound_to 11000
  139.8762  134.9235  156.3325 LP  0  0  0  0  0  0  0  0  0  0  0  0  # atno 17395 bound_to 11000

$$$$
