AV-unprocessed.smi:1047|AV-procd|sdf|4561|dock9
  -GOLD-   22720 3 03D 1   1.00000     0.00000
 Structure written by MMmdl.
 57 59  0  0  0  0  0  0  0  0  3 V2000
  150.8715  130.0400  155.2636 C   0  0  0  0  0  0  0  0  0  0  0  0
  151.1814  131.4653  155.7434 C   0  0  0  0  0  0  0  0  0  0  0  0
  149.9534  132.2215  156.1070 N   0  3  2  0  0  0  0  0  0  0  0  0
  148.8386  132.0395  155.1457 C   0  0  0  0  0  0  0  0  0  0  0  0
  149.0479  132.8941  153.8831 C   0  0  0  0  0  0  0  0  0  0  0  0
  149.1933  134.2597  154.2551 O   0  0  0  0  0  0  0  0  0  0  0  0
  150.3310  134.4834  155.0824 C   0  0  1  0  0  0  0  0  0  0  0  0
  150.4247  135.9911  155.3646 C   0  0  0  0  0  0  0  0  0  0  0  0
  150.4906  136.7697  154.1112 N   0  3  0  0  0  0  0  0  0  0  0  0
  151.1287  138.0938  154.2546 C   0  0  0  0  0  0  0  0  0  0  0  0
  150.1388  139.1337  154.8047 C   0  0  2  0  0  0  0  0  0  0  0  0
  149.2416  139.4948  153.7718 O   0  0  0  0  0  0  0  0  0  0  0  0
  150.8566  140.3956  155.3211 C   0  0  0  0  0  0  0  0  0  0  0  0
  151.4436  140.2006  156.6348 N   0  0  0  0  0  0  0  0  0  0  0  0
  151.9097  139.0492  157.1565 C   0  0  0  0  0  0  0  0  0  0  0  0
  152.4152  139.0986  158.3853 N   0  0  0  0  0  0  0  0  0  0  0  0
  152.2508  140.4362  158.7016 C   0  0  0  0  0  0  0  0  0  0  0  0
  152.5827  141.1487  159.8746 C   0  0  0  0  0  0  0  0  0  0  0  0
  152.3169  142.5324  159.9816 C   0  0  0  0  0  0  0  0  0  0  0  0
  152.6881  143.2583  161.2629 C   0  0  0  0  0  0  0  0  0  0  0  0
  151.7111  143.2254  158.9028 C   0  0  0  0  0  0  0  0  0  0  0  0
  151.4138  144.7115  158.9977 C   0  0  0  0  0  0  0  0  0  0  0  0
  151.3764  142.5296  157.7219 C   0  0  0  0  0  0  0  0  0  0  0  0
  151.6443  141.1524  157.6283 C   0  0  0  0  0  0  0  0  0  0  0  0
  150.1671  133.6660  156.3842 C   0  0  0  0  0  0  0  0  0  0  0  0
  151.7793  129.5483  154.9132 H   0  0  0  0  0  0  0  0  0  0  0  0
  150.1617  130.0481  154.4356 H   0  0  0  0  0  0  0  0  0  0  0  0
  150.4562  129.4198  156.0574 H   0  0  0  0  0  0  0  0  0  0  0  0
  151.8877  131.4421  156.5732 H   0  0  0  0  0  0  0  0  0  0  0  0
  151.6878  131.9835  154.9282 H   0  0  0  0  0  0  0  0  0  0  0  0
  148.7175  130.9870  154.8873 H   0  0  0  0  0  0  0  0  0  0  0  0
  147.9114  132.3419  155.6346 H   0  0  0  0  0  0  0  0  0  0  0  0
  149.9189  132.5605  153.3169 H   0  0  0  0  0  0  0  0  0  0  0  0
  148.1865  132.8008  153.2214 H   0  0  0  0  0  0  0  0  0  0  0  0
  151.2341  134.1700  154.5560 H   0  0  0  0  0  0  0  0  0  0  0  0
  149.5712  136.3212  155.9588 H   0  0  0  0  0  0  0  0  0  0  0  0
  151.3224  136.1993  155.9481 H   0  0  0  0  0  0  0  0  0  0  0  0
  151.0177  136.2437  153.4280 H   0  0  0  0  0  0  0  0  0  0  0  0
  151.9765  137.9969  154.9341 H   0  0  0  0  0  0  0  0  0  0  0  0
  151.5262  138.4189  153.2918 H   0  0  0  0  0  0  0  0  0  0  0  0
  149.5637  138.6915  155.6197 H   0  0  0  0  0  0  0  0  0  0  0  0
  149.7336  139.6050  152.9716 H   0  0  0  0  0  0  0  0  0  0  0  0
  151.6527  140.6850  154.6339 H   0  0  0  0  0  0  0  0  0  0  0  0
  150.1651  141.2383  155.3687 H   0  0  0  0  0  0  0  0  0  0  0  0
  151.8817  138.1234  156.6002 H   0  0  0  0  0  0  0  0  0  0  0  0
  153.0441  140.6208  160.6964 H   0  0  0  0  0  0  0  0  0  0  0  0
  151.8085  143.7236  161.7083 H   0  0  0  0  0  0  0  0  0  0  0  0
  153.4263  144.0345  161.0610 H   0  0  0  0  0  0  0  0  0  0  0  0
  153.1128  142.5755  161.9992 H   0  0  0  0  0  0  0  0  0  0  0  0
  150.9724  145.0895  158.0751 H   0  0  0  0  0  0  0  0  0  0  0  0
  152.3288  145.2736  159.1852 H   0  0  0  0  0  0  0  0  0  0  0  0
  150.7131  144.9093  159.8091 H   0  0  0  0  0  0  0  0  0  0  0  0
  150.9146  143.0455  156.8932 H   0  0  0  0  0  0  0  0  0  0  0  0
  149.2974  134.0325  156.9316 H   0  0  0  0  0  0  0  0  0  0  0  0
  151.0210  133.8151  157.0441 H   0  0  0  0  0  0  0  0  0  0  0  0
  149.5522  136.9020  153.7615 H   0  0  0  0  0  0  0  0  0  0  0  0
  149.6388  131.8050  156.9723 H   0  0  0  0  0  0  0  0  0  0  0  0
  1  2  1  0  0  0  0
  1 26  1  0  0  0  0
  1 27  1  0  0  0  0
  1 28  1  0  0  0  0
  2  3  1  0  0  0  0
  2 29  1  0  0  0  0
  2 30  1  0  0  0  0
  3 25  1  0  0  0  0
  3  4  1  0  0  0  0
  3 57  1  0  0  0  0
  4  5  1  0  0  0  0
  4 31  1  0  0  0  0
  4 32  1  0  0  0  0
  5  6  1  0  0  0  0
  5 33  1  0  0  0  0
  5 34  1  0  0  0  0
  6  7  1  0  0  0  0
  7  8  1  0  0  0  0
  7 25  1  0  0  0  0
  7 35  1  0  0  0  0
  8  9  1  0  0  0  0
  8 36  1  0  0  0  0
  8 37  1  0  0  0  0
  9 10  1  0  0  0  0
  9 38  1  0  0  0  0
  9 56  1  0  0  0  0
 10 11  1  0  0  0  0
 10 39  1  0  0  0  0
 10 40  1  0  0  0  0
 11 12  1  0  0  0  0
 11 13  1  0  0  0  0
 11 41  1  0  0  0  0
 12 42  1  0  0  0  0
 13 14  1  0  0  0  0
 13 43  1  0  0  0  0
 13 44  1  0  0  0  0
 14 24  1  0  0  0  0
 14 15  1  0  0  0  0
 15 16  2  0  0  0  0
 15 45  1  0  0  0  0
 16 17  1  0  0  0  0
 17 24  2  0  0  0  0
 17 18  1  0  0  0  0
 18 19  2  0  0  0  0
 18 46  1  0  0  0  0
 19 20  1  0  0  0  0
 19 21  1  0  0  0  0
 20 47  1  0  0  0  0
 20 48  1  0  0  0  0
 20 49  1  0  0  0  0
 21 22  1  0  0  0  0
 21 23  2  0  0  0  0
 22 50  1  0  0  0  0
 22 51  1  0  0  0  0
 22 52  1  0  0  0  0
 23 24  1  0  0  0  0
 23 53  1  0  0  0  0
 25 54  1  0  0  0  0
 25 55  1  0  0  0  0
M  CHG  1   3   1
M  CHG  1   9   1
M  END
> <s_m_source_file>
AV-unprocessed.smi

> <i_m_source_file_index>
1047

> <i_lp_mmshare_version>
43012

> <i_f3d_flags>
0

> <s_epik_input>
W0NIM11bQ0gyXU4xW0NIMl1bQ0gyXU9bQ0BIXShbQ0gyXTEpW0NIMl1bTkhdW0NIMl1bQ0BIXShbT0hdKVtDSDJdbihbY0hdbjIpYyhjMjMpW2NIXWMoW0NIM10pYyhbY0hdMylbQ0gzXQ==

> <s_epik_cmdline>
J2VwaWtfcHl0aG9uJywgJy1waCcsICc3LjAnLCAnLXRuJywgJzgnLCAnLW1hJywgJzIwMCcsICctbWV0YWxfYmluZGluZycsICctaW1hZScsICc8aW5maWxlLm1hZT4nLCAnLW9tYWUnLCAnPG91dGZpbGUubWFlPic=

> <r_epik_Ionization_Penalty>
0.528991

> <r_epik_Ionization_Penalty_Charging>
0.438567

> <r_epik_Ionization_Penalty_Neutral>
0.0904237

> <r_epik_State_Penalty>
0.533036

> <r_epik_Charging_Adjusted_Penalty>
0.971603

> <i_epik_Tot_Q>
2

> <i_epik_Tot_abs_Q>
2

> <r_epik_Metal_State_Penalty>
0.448985

> <b_epik_Metal_Only>
0

> <s_lp_Force_Field>
OPLS_2005

> <r_lp_Energy>
30.8403

> <b_lp_Chiralities_Consistent>
1

> <s_lp_Variant>
AV-unprocessed.smi:1047-2

> <Gold.Version>
5.8.1

> <Gold.Id.Protein>
6NUR|6NUR_protein|mol2

> <Gold.PLP.Fitness>
58.9968

> <Gold.PLP.PLP>
-50.5099

> <Gold.PLP.part.hbond>
-3.0000

> <Gold.PLP.part.metal>
0.0000

> <Gold.PLP.part.buried>
-4.9026

> <Gold.PLP.part.nonpolar>
-42.0086

> <Gold.PLP.part.repulsive>
0.6794

> <Gold.PLP.ligand.clash>
0.0000

> <Gold.PLP.ligand.torsion>
0.9922

> <Gold.PLP.Chemscore.Hbond>
3.4611

> <Gold.PLP.Chemscore.CHOScore>
0.0000

> <Gold.PLP.Chemscore.Metal>
0.0000

> <Gold.Chemscore.Hbonds>
donor molecule, donor type, donor heavy atom, donor atom, acceptor molecule, acceptor atom, score
      L1  H     9    38       P1  7949  1.58
      L1  H     9    56       P1  7948  0.74
      L1  H    12    42       P1  7957  0.90

> <Gold.PLP.Chemscore.Internal.Correction>
0.0879

> <Gold.Rescore>
     Score         DG    S(hbond)    S(metal)    S(lipo)     H(rot)  DE(clash)    DE(int)     intcor
     18.33     -19.75       1.58        0.00     136.00       2.70       0.54       0.88       ----

> <Gold.Chemscore.Fitness>
18.3274

> <Gold.Chemscore.DG>
-19.7479

> <Gold.Chemscore.ZeroCoef>
-5.4800

> <Gold.Chemscore.Hbond>
1.5759

> <Gold.Chemscore.Metal>
0.0000

> <Gold.Chemscore.Lipo>
136.0035

> <Gold.Chemscore.Internal_Hbond>
0.0000

> <Gold.Chemscore.DEClash>
0.5440

> <Gold.Chemscore.DEInternal>
0.8764

> <Gold.Chemscore.Rot>
2.6985

> <Gold.Chemscore.Internal.Correction>
   9.000000E+99

> <Gold.Chemscore.Hbonds>
donor molecule, donor type, donor heavy atom, donor atom, acceptor molecule, acceptor atom, score
      L1  H     9    38       P1  7949  0.17
      L1  H     9    56       P1  7948  0.31
      L1  H    12    42       P1  7957  0.88

> <Gold.Chemscore.Hbond.Weighted>
-5.2636

> <Gold.Chemscore.Metal.Weighted>
-0.0000

> <Gold.Chemscore.Lipo.Weighted>
-15.9124

> <Gold.Chemscore.Internal_Hbond.Weighted>
0.0000

> <Gold.Chemscore.DEClash.Weighted>
0.5440

> <Gold.Chemscore.DEInternal.Weighted>
0.8764

> <Gold.Chemscore.Rot.Weighted>
6.9081

> <Gold.Chemscore.Internal.Correction.Weighted>
   9.000000E+99

> <Gold.Protein.RotatedTorsions>
[ 6907 6896 6895 6894 ] final -101.85 input  -60.11 | X-H torsion
[ 7974 7965 7964 7962 ] final -175.43 input  175.53 | X-H torsion
[ 8008 7997 7996 7995 ] final  -12.95 input   59.86 | X-H torsion
[ 10167 10162 10161 10158 ] final   37.22 input  -65.29 | X-H torsion
[ 10718 10713 10712 10709 ] final   52.09 input   66.30 | X-H torsion
[ 10763 10752 10751 10750 ] final  -53.37 input  -60.55 | X-H torsion
[ 11005 11000 10999 10996 ] final   62.89 input  -57.11 | X-H torsion

> <Gold.Protein.ActiveResidues>
 VAL166  LYS551  ARG553  GLY616  TRP617  ASP618  TYR619  PRO620  LYS621  CYS622 
 ASP623  PHE694  ASN695  SER759  ASP760  ASP761  ALA762  ILE779  LEU786  VAL792 
 PHE793  MET794  SER795  GLU796  ALA797  LYS798  CYS799  TRP800  GLU811  SER814 

> <Gold.Protein.RotatedAtoms>
  150.7171  134.0671  159.3851 H   0  0  0  0  0  0  0  0  0  0  0  0  # atno 6907 bound_to 6896
  151.8652  135.0507  160.0483 H   0  0  0  0  0  0  0  0  0  0  0  0  # atno 6908 bound_to 6896
  152.2686  133.5326  159.5462 H   0  0  0  0  0  0  0  0  0  0  0  0  # atno 6909 bound_to 6896
  144.7128  140.1322  143.6398 H   0  0  0  0  0  0  0  0  0  0  0  0  # atno 7974 bound_to 7965
  154.5334  140.2262  155.8765 H   0  0  0  0  0  0  0  0  0  0  0  0  # atno 8008 bound_to 7997
  156.1786  140.3105  155.9070 H   0  0  0  0  0  0  0  0  0  0  0  0  # atno 8009 bound_to 7997
  155.3405  140.0450  157.3035 H   0  0  0  0  0  0  0  0  0  0  0  0  # atno 8010 bound_to 7997
  140.4053  144.1668  150.6136 H   0  0  0  0  0  0  0  0  0  0  0  0  # atno 10167 bound_to 10162
  157.5042  130.8458  149.8354 H   0  0  0  0  0  0  0  0  0  0  0  0  # atno 10718 bound_to 10713
  154.1578  135.6479  153.4978 H   0  0  0  0  0  0  0  0  0  0  0  0  # atno 10763 bound_to 10752
  153.0119  135.5353  154.6742 H   0  0  0  0  0  0  0  0  0  0  0  0  # atno 10764 bound_to 10752
  154.6047  135.2947  155.0469 H   0  0  0  0  0  0  0  0  0  0  0  0  # atno 10765 bound_to 10752
  140.0061  134.6367  155.9853 H   0  0  0  0  0  0  0  0  0  0  0  0  # atno 11005 bound_to 11000
  145.9277  139.2586  143.1344 LP  0  0  0  0  0  0  0  0  0  0  0  0  # atno 17320 bound_to 7965
  145.9555  140.8876  143.0237 LP  0  0  0  0  0  0  0  0  0  0  0  0  # atno 17321 bound_to 7965
  140.4696  143.2418  151.9107 LP  0  0  0  0  0  0  0  0  0  0  0  0  # atno 17342 bound_to 10162
  139.4783  144.5383  151.8566 LP  0  0  0  0  0  0  0  0  0  0  0  0  # atno 17343 bound_to 10162
  156.0248  130.3783  150.1856 LP  0  0  0  0  0  0  0  0  0  0  0  0  # atno 17370 bound_to 10713
  157.0045  130.9932  151.3382 LP  0  0  0  0  0  0  0  0  0  0  0  0  # atno 17371 bound_to 10713
  141.1678  133.6537  156.4541 LP  0  0  0  0  0  0  0  0  0  0  0  0  # atno 17394 bound_to 11000
  140.4639  134.6816  157.5098 LP  0  0  0  0  0  0  0  0  0  0  0  0  # atno 17395 bound_to 11000

$$$$
