AV-unprocessed.smi:798|AV-procd|sdf|3774|dock10
  -GOLD-   22720 1203D 1   1.00000     0.00000
 Structure written by MMmdl.
 34 36  0  0  0  0  0  0  0  0  1 V2000
  145.2829  137.4312  153.9181 O   0  0  0  0  0  0  0  0  0  0  0  0
  146.3512  137.1530  153.3727 C   0  0  0  0  0  0  0  0  0  0  0  0
  147.4447  137.9350  153.3624 N   0  0  0  0  0  0  0  0  0  0  0  0
  147.6176  139.2145  153.9533 C   0  0  0  0  0  0  0  0  0  0  0  0
  146.6059  140.0558  154.2180 N   0  0  0  0  0  0  0  0  0  0  0  0
  147.0508  141.2380  154.7957 N   0  0  0  0  0  0  0  0  0  0  0  0
  148.3786  141.2418  154.9432 C   0  0  0  0  0  0  0  0  0  0  0  0
  149.2159  139.8022  154.3895 S   0  0  0  0  0  0  0  0  0  0  0  0
  146.5687  136.0117  152.7044 N   0  0  0  0  0  0  0  0  0  0  0  0
  145.6014  134.9287  152.5429 C   0  0  1  0  0  0  0  0  0  0  0  0
  144.2488  135.4827  152.0428 C   0  0  2  0  0  0  0  0  0  0  0  0
  143.1659  134.4109  152.2598 C   0  0  0  0  0  0  0  0  0  0  0  0
  143.5150  133.3641  151.1853 C   0  0  0  0  0  0  0  0  0  0  0  0
  144.7551  133.9740  150.4963 C   0  0  1  0  0  0  0  0  0  0  0  0
  144.4067  135.4566  150.5251 C   0  0  0  0  0  0  0  0  0  0  0  0
  146.0008  133.9430  151.4142 C   0  0  2  0  0  0  0  0  0  0  0  0
  146.4209  132.5401  151.8939 C   0  0  0  0  0  0  0  0  0  0  0  0
  146.5680  131.6729  150.7903 O   0  0  0  0  0  0  0  0  0  0  0  0
  148.2500  137.5712  152.8752 H   0  0  0  0  0  0  0  0  0  0  0  0
  148.8687  142.0986  155.3811 H   0  0  0  0  0  0  0  0  0  0  0  0
  147.4768  135.8714  152.2868 H   0  0  0  0  0  0  0  0  0  0  0  0
  145.4588  134.4148  153.4958 H   0  0  0  0  0  0  0  0  0  0  0  0
  143.9817  136.4527  152.4637 H   0  0  0  0  0  0  0  0  0  0  0  0
  143.1821  133.9970  153.2686 H   0  0  0  0  0  0  0  0  0  0  0  0
  142.1713  134.8226  152.0842 H   0  0  0  0  0  0  0  0  0  0  0  0
  143.6959  132.3750  151.6044 H   0  0  0  0  0  0  0  0  0  0  0  0
  142.6943  133.2676  150.4734 H   0  0  0  0  0  0  0  0  0  0  0  0
  144.9410  133.5718  149.5002 H   0  0  0  0  0  0  0  0  0  0  0  0
  143.4864  135.6979  149.9900 H   0  0  0  0  0  0  0  0  0  0  0  0
  145.2093  136.0998  150.1598 H   0  0  0  0  0  0  0  0  0  0  0  0
  146.8283  134.3602  150.8361 H   0  0  0  0  0  0  0  0  0  0  0  0
  147.3596  132.5680  152.4468 H   0  0  0  0  0  0  0  0  0  0  0  0
  145.6627  132.1236  152.5571 H   0  0  0  0  0  0  0  0  0  0  0  0
  147.4874  131.4908  150.6692 H   0  0  0  0  0  0  0  0  0  0  0  0
  1  2  2  0  0  0  0
  2  3  1  0  0  0  0
  2  9  1  0  0  0  0
  3  4  1  0  0  0  0
  3 19  1  0  0  0  0
  4  8  1  0  0  0  0
  4  5  2  0  0  0  0
  5  6  1  0  0  0  0
  6  7  2  0  0  0  0
  7  8  1  0  0  0  0
  7 20  1  0  0  0  0
  9 10  1  0  0  0  0
  9 21  1  0  0  0  0
 10 16  1  0  0  0  0
 10 11  1  0  0  0  0
 10 22  1  0  0  0  0
 11 15  1  0  0  0  0
 11 12  1  0  0  0  0
 11 23  1  0  0  0  0
 12 13  1  0  0  0  0
 12 24  1  0  0  0  0
 12 25  1  0  0  0  0
 13 14  1  0  0  0  0
 13 26  1  0  0  0  0
 13 27  1  0  0  0  0
 14 15  1  0  0  0  0
 14 16  1  0  0  0  0
 14 28  1  0  0  0  0
 15 29  1  0  0  0  0
 15 30  1  0  0  0  0
 16 17  1  0  0  0  0
 16 31  1  0  0  0  0
 17 18  1  0  0  0  0
 17 32  1  0  0  0  0
 17 33  1  0  0  0  0
 18 34  1  0  0  0  0
M  END
> <s_m_source_file>
AV-unprocessed.smi

> <i_m_source_file_index>
798

> <i_lp_mmshare_version>
43012

> <i_f3d_flags>
0

> <s_epik_input>
W0NIMl0xW0NIMl1bQ0BASF0oW0NIMl0yKVtDQEBIXShbQ0gyXVtPSF0pW0NAQEhdKFtDQEhdMTIpW05IXUMoPU8pW05IXWMzbm5bY0hdczM=

> <s_epik_cmdline>
J2VwaWtfcHl0aG9uJywgJy1waCcsICc3LjAnLCAnLXRuJywgJzgnLCAnLW1hJywgJzIwMCcsICctbWV0YWxfYmluZGluZycsICctaW1hZScsICc8aW5maWxlLm1hZT4nLCAnLW9tYWUnLCAnPG91dGZpbGUubWFlPic=

> <r_lp_tautomer_probability>
1

> <r_epik_Ionization_Penalty>
0.000329046

> <r_epik_Ionization_Penalty_Charging>
0

> <r_epik_Ionization_Penalty_Neutral>
0.000329046

> <r_epik_State_Penalty>
-0

> <r_epik_Charging_Adjusted_Penalty>
0

> <i_epik_Tot_Q>
0

> <i_epik_Tot_abs_Q>
0

> <r_epik_Metal_State_Penalty>
0.173433

> <b_epik_Metal_Only>
0

> <s_lp_Force_Field>
OPLS_2005

> <r_lp_Energy>
48.4277

> <b_lp_Chiralities_Consistent>
1

> <s_lp_Variant>
AV-unprocessed.smi:798-6

> <Gold.Version>
5.8.1

> <Gold.Id.Protein>
6NUR|6NUR_protein|mol2

> <Gold.PLP.Fitness>
38.9188

> <Gold.PLP.PLP>
-27.7293

> <Gold.PLP.part.hbond>
-2.9513

> <Gold.PLP.part.metal>
0.0000

> <Gold.PLP.part.buried>
-3.7144

> <Gold.PLP.part.nonpolar>
-22.6395

> <Gold.PLP.part.repulsive>
0.4938

> <Gold.PLP.ligand.clash>
0.0000

> <Gold.PLP.ligand.torsion>
0.3075

> <Gold.PLP.Chemscore.Hbond>
2.9280

> <Gold.PLP.Chemscore.CHOScore>
1.0000

> <Gold.PLP.Chemscore.Metal>
0.0000

> <Gold.Chemscore.Hbonds>
donor molecule, donor type, donor heavy atom, donor atom, acceptor molecule, acceptor atom, score
      L1  H     3    19       P1  7948  0.96
      L1  H     9    21       P1  7948  1.00
      L1  H    18    34       P1 10747  1.00
      L1  C     7    20       P1  8028  0.75

> <Gold.PLP.Chemscore.Internal.Correction>
0.0205

> <Gold.Rescore>
     Score         DG    S(hbond)    S(metal)    S(lipo)     H(rot)  DE(clash)    DE(int)     intcor
     14.03     -16.90       2.93        0.00      56.42       1.94       0.16       2.71       ----

> <Gold.Chemscore.Fitness>
14.0295

> <Gold.Chemscore.DG>
-16.9010

> <Gold.Chemscore.ZeroCoef>
-5.4800

> <Gold.Chemscore.Hbond>
2.9332

> <Gold.Chemscore.Metal>
0.0000

> <Gold.Chemscore.Lipo>
56.4202

> <Gold.Chemscore.Internal_Hbond>
0.0000

> <Gold.Chemscore.DEClash>
0.1567

> <Gold.Chemscore.DEInternal>
2.7148

> <Gold.Chemscore.Rot>
1.9442

> <Gold.Chemscore.Internal.Correction>
   9.000000E+99

> <Gold.Chemscore.Hbonds>
donor molecule, donor type, donor heavy atom, donor atom, acceptor molecule, acceptor atom, score
      L1  H     3    19       P1  7948  0.92
      L1  H     9    21       P1  7948  0.95
      L1  H    18    34       P1 10747  1.00

> <Gold.Chemscore.Hbond.Weighted>
-9.7969

> <Gold.Chemscore.Metal.Weighted>
-0.0000

> <Gold.Chemscore.Lipo.Weighted>
-6.6012

> <Gold.Chemscore.Internal_Hbond.Weighted>
0.0000

> <Gold.Chemscore.DEClash.Weighted>
0.1567

> <Gold.Chemscore.DEInternal.Weighted>
2.7148

> <Gold.Chemscore.Rot.Weighted>
4.9771

> <Gold.Chemscore.Internal.Correction.Weighted>
   9.000000E+99

> <Gold.Protein.RotatedTorsions>
[ 6907 6896 6895 6894 ] final  178.69 input  -60.11 | X-H torsion
[ 7974 7965 7964 7962 ] final   39.56 input  175.53 | X-H torsion
[ 8008 7997 7996 7995 ] final  -89.81 input   59.86 | X-H torsion
[ 10167 10162 10161 10158 ] final -121.83 input  -65.29 | X-H torsion
[ 10718 10713 10712 10709 ] final -137.25 input   66.30 | X-H torsion
[ 10763 10752 10751 10750 ] final -153.12 input  -60.55 | X-H torsion
[ 11005 11000 10999 10996 ] final  148.39 input  -57.11 | X-H torsion

> <Gold.Protein.ActiveResidues>
 VAL166  LYS551  ARG553  GLY616  TRP617  ASP618  TYR619  PRO620  LYS621  CYS622 
 ASP623  PHE694  ASN695  SER759  ASP760  ASP761  ALA762  ILE779  LEU786  VAL792 
 PHE793  MET794  SER795  GLU796  ALA797  LYS798  CYS799  TRP800  GLU811  SER814 

> <Gold.Protein.RotatedAtoms>
  151.6837  133.3311  159.3225 H   0  0  0  0  0  0  0  0  0  0  0  0  # atno 6907 bound_to 6896
  150.7811  134.6758  159.6426 H   0  0  0  0  0  0  0  0  0  0  0  0  # atno 6908 bound_to 6896
  152.3868  134.6508  160.0174 H   0  0  0  0  0  0  0  0  0  0  0  0  # atno 6909 bound_to 6896
  146.0974  139.5637  142.9436 H   0  0  0  0  0  0  0  0  0  0  0  0  # atno 7974 bound_to 7965
  154.6910  140.0537  157.0363 H   0  0  0  0  0  0  0  0  0  0  0  0  # atno 8008 bound_to 7997
  155.0817  140.3210  155.4580 H   0  0  0  0  0  0  0  0  0  0  0  0  # atno 8009 bound_to 7997
  156.2728  140.2063  156.5945 H   0  0  0  0  0  0  0  0  0  0  0  0  # atno 8010 bound_to 7997
  140.0208  143.5346  152.2221 H   0  0  0  0  0  0  0  0  0  0  0  0  # atno 10167 bound_to 10162
  156.2861  130.7348  151.1360 H   0  0  0  0  0  0  0  0  0  0  0  0  # atno 10718 bound_to 10713
  154.7949  135.3220  154.7691 H   0  0  0  0  0  0  0  0  0  0  0  0  # atno 10763 bound_to 10752
  153.8372  135.6874  153.4811 H   0  0  0  0  0  0  0  0  0  0  0  0  # atno 10764 bound_to 10752
  153.1635  135.4651  154.9747 H   0  0  0  0  0  0  0  0  0  0  0  0  # atno 10765 bound_to 10752
  140.0956  134.9015  157.1717 H   0  0  0  0  0  0  0  0  0  0  0  0  # atno 11005 bound_to 11000
  145.5920  141.0368  143.2065 LP  0  0  0  0  0  0  0  0  0  0  0  0  # atno 17320 bound_to 7965
  144.7406  139.7459  143.7312 LP  0  0  0  0  0  0  0  0  0  0  0  0  # atno 17321 bound_to 7965
  139.6141  144.7615  151.2886 LP  0  0  0  0  0  0  0  0  0  0  0  0  # atno 17342 bound_to 10162
  140.7343  143.6769  150.8033 LP  0  0  0  0  0  0  0  0  0  0  0  0  # atno 17343 bound_to 10162
  157.7329  131.0596  150.5606 LP  0  0  0  0  0  0  0  0  0  0  0  0  # atno 17370 bound_to 10713
  156.5717  130.4281  149.6016 LP  0  0  0  0  0  0  0  0  0  0  0  0  # atno 17371 bound_to 10713
  140.3291  134.2829  155.7231 LP  0  0  0  0  0  0  0  0  0  0  0  0  # atno 17394 bound_to 11000
  141.2091  133.7759  157.0019 LP  0  0  0  0  0  0  0  0  0  0  0  0  # atno 17395 bound_to 11000

$$$$
