#       Name:                AV-unprocessed.smi:99
#       Creating user name   scv26
#       Creation time:       Thu Mar 26 17:33:44 2020


#       File generated by GOLD software.
#

@<TRIPOS>MOLECULE
AV-unprocessed.smi:99
    65    68     1
SMALL
NO_CHARGES


@<TRIPOS>ATOM
      1 ****        -3.7293  -0.1715  -0.9497 O.2            1 S1                 0.0000
      2 ****        -2.8572   0.6668  -1.1867 C.2            1 S1                 0.0000
      3 ****        -1.5585   0.3621  -1.3666 O.3            1 S1                 0.0000
      4 ****        -1.1140  -0.9782  -1.2329 C.3            1 S1                 0.0000
      5 ****         0.4195  -0.9936  -1.1619 C.3            1 S1                 0.0000
      6 ****         0.9011  -2.3072  -0.9082 O.3            1 S1                 0.0000
      7 ****         2.1818  -2.2456  -0.3516 C.3            1 S1                 0.0000
      8 ****         3.2164  -2.6601  -1.3828 N.am           1 S1                 0.0000
      9 ****         2.9614  -2.6489  -2.7491 C.2            1 S1                 0.0000
     10 ****         3.8813  -3.0092  -3.6753 C.2            1 S1                 0.0000
     11 ****         5.2151  -3.4386  -3.2684 C.2            1 S1                 0.0000
     12 ****         6.1139  -3.7808  -4.0338 O.2            1 S1                 0.0000
     13 ****         5.4272  -3.4401  -1.8873 N.am           1 S1                 0.0000
     14 ****         4.4878  -3.0709  -0.9237 C.2            1 S1                 0.0000
     15 ****         4.7836  -3.1037   0.2703 O.2            1 S1                 0.0000
     16 ****         2.3912  -0.8051   0.1813 C.3            1 S1                 0.0000
     17 ****         3.3844  -0.0542  -0.4946 O.3            1 S1                 0.0000
     18 ****         1.0324  -0.1538  -0.0391 C.3            1 S1                 0.0000
     19 ****         0.2360  -0.2357   1.1382 O.3            1 S1                 0.0000
     20 ****         0.2159   0.7734   2.0335 C.2            1 S1                 0.0000
     21 ****         0.9099   1.7873   1.9369 O.2            1 S1                 0.0000
     22 ****        -0.7356   0.5297   3.1546 C.ar           1 S1                 0.0000
     23 ****        -0.8309   1.4761   4.2011 C.ar           1 S1                 0.0000
     24 ****        -1.7217   1.2727   5.2729 C.ar           1 S1                 0.0000
     25 ****        -2.5293   0.1211   5.3100 C.ar           1 S1                 0.0000
     26 ****        -2.4458  -0.8266   4.2733 C.ar           1 S1                 0.0000
     27 ****        -1.5549  -0.6255   3.2011 C.ar           1 S1                 0.0000
     28 ****        -3.1289   2.1277  -1.3073 C.ar           1 S1                 0.0000
     29 ****        -4.4648   2.5904  -1.2656 C.ar           1 S1                 0.0000
     30 ****        -4.7512   3.9651  -1.3750 C.ar           1 S1                 0.0000
     31 ****        -3.7049   4.8940  -1.5244 C.ar           1 S1                 0.0000
     32 ****        -2.3715   4.4466  -1.5643 C.ar           1 S1                 0.0000
     33 ****        -2.0830   3.0720  -1.4571 C.ar           1 S1                 0.0000
     34 ****         6.3370  -3.7299  -1.5594 H              1 S1                 0.0000
     35 ****        -1.5329  -1.4260  -0.3303 H              1 S1                 0.0000
     36 ****        -1.4620  -1.5690  -2.0808 H              1 S1                 0.0000
     37 ****         0.8281  -0.6476  -2.1117 H              1 S1                 0.0000
     38 ****         2.2279  -3.0043   0.4320 H              1 S1                 0.0000
     39 ****         1.9940  -2.3473  -3.1181 H              1 S1                 0.0000
     40 ****         3.6282  -2.9809  -4.7253 H              1 S1                 0.0000
     41 ****         2.6589  -0.8465   1.2378 H              1 S1                 0.0000
     42 ****         3.4289   0.8050  -0.1035 H              1 S1                 0.0000
     43 ****         1.1192   0.8860  -0.3594 H              1 S1                 0.0000
     44 ****        -0.2210   2.3681   4.1942 H              1 S1                 0.0000
     45 ****        -1.7845   2.0015   6.0677 H              1 S1                 0.0000
     46 ****        -3.2122  -0.0345   6.1321 H              1 S1                 0.0000
     47 ****        -3.0661  -1.7102   4.2997 H              1 S1                 0.0000
     48 ****        -1.5176  -1.3720   2.4209 H              1 S1                 0.0000
     49 ****        -5.2847   1.8959  -1.1519 H              1 S1                 0.0000
     50 ****        -5.7755   4.3066  -1.3436 H              1 S1                 0.0000
     51 ****        -3.9251   5.9482  -1.6068 H              1 S1                 0.0000
     52 ****        -1.5675   5.1590  -1.6762 H              1 S1                 0.0000
     53 ****        -1.0484   2.7625  -1.4877 H              1 S1                 0.0000
     54 ****        -3.4872  -1.1394  -0.8817 LP             1 S1                 0.0000
     55 ****        -4.6789   0.1163  -0.8254 LP             1 S1                 0.0000
     56 ****         0.9370  -2.8187  -1.7667 LP             1 S1                 0.0000
     57 ****         0.2844  -2.7690  -0.2706 LP             1 S1                 0.0000
     58 ****         5.9575  -3.7782  -5.0214 LP             1 S1                 0.0000
     59 ****         7.0015  -4.0618  -3.6688 LP             1 S1                 0.0000
     60 ****         4.1116  -2.8328   0.9596 LP             1 S1                 0.0000
     61 ****         5.6959  -3.4013   0.5514 LP             1 S1                 0.0000
     62 ****         3.1452   0.0276  -1.4621 LP             1 S1                 0.0000
     63 ****         4.2698  -0.5107  -0.4075 LP             1 S1                 0.0000
     64 ****         1.5322   1.8952   1.1617 LP             1 S1                 0.0000
     65 ****         0.8506   2.5020   2.6338 LP             1 S1                 0.0000
@<TRIPOS>BOND
    1    1    2 2     
    2    2    3 1     
    3    2   28 1     
    4    3    4 1     
    5    4    5 1     
    6    4   35 1     
    7    4   36 1     
    8    5   18 1     
    9    5    6 1     
   10    5   37 1     
   11    6    7 1     
   12    7    8 1     
   13    7   16 1     
   14    7   38 1     
   15    8   14 1     
   16    8    9 1     
   17    9   10 2     
   18    9   39 1     
   19   10   11 1     
   20   10   40 1     
   21   11   12 2     
   22   11   13 1     
   23   13   34 1     
   24   13   14 1     
   25   14   15 2     
   26   16   17 1     
   27   16   18 1     
   28   16   41 1     
   29   17   42 1     
   30   18   19 1     
   31   18   43 1     
   32   19   20 1     
   33   20   21 2     
   34   20   22 1     
   35   22   27 ar    
   36   22   23 ar    
   37   23   24 ar    
   38   23   44 1     
   39   24   25 ar    
   40   24   45 1     
   41   25   26 ar    
   42   25   46 1     
   43   26   27 ar    
   44   26   47 1     
   45   27   48 1     
   46   28   33 ar    
   47   28   29 ar    
   48   29   30 ar    
   49   29   49 1     
   50   30   31 ar    
   51   30   50 1     
   52   31   32 ar    
   53   31   51 1     
   54   32   33 ar    
   55   32   52 1     
   56   33   53 1     
   57    1   54 1     
   58    1   55 1     
   59    6   56 1     
   60    6   57 1     
   61   12   58 1     
   62   12   59 1     
   63   15   60 1     
   64   15   61 1     
   65   17   62 1     
   66   17   63 1     
   67   21   64 1     
   68   21   65 1     
@<TRIPOS>SUBSTRUCTURE
      1 S1             1
@<TRIPOS>SET
LONE_PAIRS      STATIC     ATOMS    <user>   **** ""
12 54 55 56 57 58 59 60 61 62 63 64 65
DONOR_HYDROGENS      STATIC     ATOMS    <user>   **** ""
2 34 42
ATOM$BLUE        STATIC     ATOMS    COLORGROUP SYSTEM
12 54 55 56 57 58 59 60 61 62 63 64 65
ATOM$RED        STATIC     ATOMS    COLORGROUP SYSTEM
2 34 42
