AV-unprocessed.smi:2059|AV-procd|sdf|8350|dock6
  -GOLD-   2272011 23D 1   1.00000     0.00000
 Structure written by MMmdl.
 29 30  0  0  0  0  0  0  0  0  2 V2000
  145.5663  133.2716  161.8804 C   0  0  0  0  0  0  0  0  0  0  0  0
  146.4091  134.2469  161.1318 C   0  0  0  0  0  0  0  0  0  0  0  0
  146.6005  135.5938  161.2547 C   0  0  0  0  0  0  0  0  0  0  0  0
  147.5339  135.8854  160.2231 C   0  0  0  0  0  0  0  0  0  0  0  0
  148.0446  137.0976  159.9439 N   0  5  0  0  0  0  0  0  0  0  0  0
  149.1735  137.2699  159.2059 C   0  0  0  0  0  0  0  0  0  0  0  0
  149.9553  136.3562  158.9454 O   0  0  0  0  0  0  0  0  0  0  0  0
  149.4387  138.5060  158.7409 N   0  0  0  0  0  0  0  0  0  0  0  0
  150.5979  138.8970  157.9454 C   0  0  2  0  0  0  0  0  0  0  0  0
  150.5734  140.4075  157.6482 C   0  0  0  0  0  0  0  0  0  0  0  0
  151.5845  140.7071  156.5349 C   0  0  0  0  0  0  0  0  0  0  0  0
  151.6336  139.2094  155.4787 S   0  0  0  0  0  0  0  0  0  0  0  0
  150.8664  139.4501  154.2470 O   0  0  0  0  0  0  0  0  0  0  0  0
  153.0169  138.7124  155.4226 O   0  0  0  0  0  0  0  0  0  0  0  0
  150.6473  138.1512  156.6023 C   0  0  0  0  0  0  0  0  0  0  0  0
  147.8853  134.8086  159.5401 N   0  0  0  0  0  0  0  0  0  0  0  0
  147.1642  133.7543  160.1131 O   0  0  0  0  0  0  0  0  0  0  0  0
  145.9757  133.0946  162.8751 H   0  0  0  0  0  0  0  0  0  0  0  0
  145.5157  132.3146  161.3606 H   0  0  0  0  0  0  0  0  0  0  0  0
  144.5496  133.6474  161.9949 H   0  0  0  0  0  0  0  0  0  0  0  0
  146.1462  136.2651  161.9679 H   0  0  0  0  0  0  0  0  0  0  0  0
  148.7765  139.2342  158.9649 H   0  0  0  0  0  0  0  0  0  0  0  0
  151.5121  138.6809  158.5014 H   0  0  0  0  0  0  0  0  0  0  0  0
  149.5782  140.6869  157.2985 H   0  0  0  0  0  0  0  0  0  0  0  0
  150.7738  141.0000  158.5414 H   0  0  0  0  0  0  0  0  0  0  0  0
  151.3167  141.5804  155.9403 H   0  0  0  0  0  0  0  0  0  0  0  0
  152.5812  140.8584  156.9496 H   0  0  0  0  0  0  0  0  0  0  0  0
  151.0975  137.1615  156.6819 H   0  0  0  0  0  0  0  0  0  0  0  0
  149.6502  138.0456  156.1733 H   0  0  0  0  0  0  0  0  0  0  0  0
  1  2  1  0  0  0  0
  1 18  1  0  0  0  0
  1 19  1  0  0  0  0
  1 20  1  0  0  0  0
  2 17  1  0  0  0  0
  2  3  2  0  0  0  0
  3  4  1  0  0  0  0
  3 21  1  0  0  0  0
  4  5  1  0  0  0  0
  4 16  2  0  0  0  0
  5  6  1  0  0  0  0
  6  7  2  0  0  0  0
  6  8  1  0  0  0  0
  8  9  1  0  0  0  0
  8 22  1  0  0  0  0
  9 15  1  0  0  0  0
  9 10  1  0  0  0  0
  9 23  1  0  0  0  0
 10 11  1  0  0  0  0
 10 24  1  0  0  0  0
 10 25  1  0  0  0  0
 11 12  1  0  0  0  0
 11 26  1  0  0  0  0
 11 27  1  0  0  0  0
 12 13  2  0  0  0  0
 12 14  2  0  0  0  0
 12 15  1  0  0  0  0
 15 28  1  0  0  0  0
 15 29  1  0  0  0  0
 16 17  1  0  0  0  0
M  CHG  1   5  -1
M  END
> <s_m_source_file>
AV-unprocessed.smi

> <i_m_source_file_index>
2059

> <i_lp_mmshare_version>
43012

> <i_f3d_flags>
0

> <s_epik_input>
W0NIM11jMVtjSF1jKG5vMSlbTkhdQyg9TylbTkhdW0NAQEhdKFtDSDJdMilbQ0gyXVtDSDJdUzIoPU8pPU8=

> <s_epik_cmdline>
J2VwaWtfcHl0aG9uJywgJy1waCcsICc3LjAnLCAnLXRuJywgJzgnLCAnLW1hJywgJzIwMCcsICctbWV0YWxfYmluZGluZycsICctaW1hZScsICc8aW5maWxlLm1hZT4nLCAnLW9tYWUnLCAnPG91dGZpbGUubWFlPic=

> <r_lp_tautomer_probability>
1

> <r_epik_Ionization_Penalty>
6.15571

> <r_epik_Ionization_Penalty_Charging>
6.1556

> <r_epik_Ionization_Penalty_Neutral>
0.000110918

> <r_epik_State_Penalty>
6.15558

> <r_epik_Charging_Adjusted_Penalty>
12.3112

> <i_epik_Tot_Q>
-1

> <i_epik_Tot_abs_Q>
1

> <r_epik_Metal_State_Penalty>
2.1059

> <b_epik_Metal_Only>
1

> <s_lp_Force_Field>
OPLS_2005

> <r_lp_Energy>
-1.67492

> <b_lp_Chiralities_Consistent>
1

> <s_lp_Variant>
AV-unprocessed.smi:2059-3

> <Gold.Version>
5.8.1

> <Gold.Id.Protein>
6NUR|6NUR_protein|mol2

> <Gold.PLP.Fitness>
37.3116

> <Gold.PLP.PLP>
-23.2397

> <Gold.PLP.part.hbond>
-5.0000

> <Gold.PLP.part.metal>
0.0000

> <Gold.PLP.part.buried>
-1.9873

> <Gold.PLP.part.nonpolar>
-17.5269

> <Gold.PLP.part.repulsive>
0.4041

> <Gold.PLP.ligand.clash>
0.0000

> <Gold.PLP.ligand.torsion>
0.1165

> <Gold.PLP.Chemscore.Hbond>
4.7681

> <Gold.PLP.Chemscore.CHOScore>
0.0000

> <Gold.PLP.Chemscore.Metal>
0.0000

> <Gold.Chemscore.Hbonds>
donor molecule, donor type, donor heavy atom, donor atom, acceptor molecule, acceptor atom, score
      P1  H  6896  6908       L1     7  1.00
      P1  H  6934  6947       L1     5  0.40
      P1  H  7989  7998       L1    13  1.00
      P1  H  7997  8010       L1    14  0.80

> <Gold.PLP.Chemscore.Internal.Correction>
0.0005

> <Gold.Rescore>
     Score         DG    S(hbond)    S(metal)    S(lipo)     H(rot)  DE(clash)    DE(int)     intcor
     16.37     -18.76       3.25        0.00      42.47       1.00       0.66       1.73       ----

> <Gold.Chemscore.Fitness>
16.3714

> <Gold.Chemscore.DG>
-18.7584

> <Gold.Chemscore.ZeroCoef>
-5.4800

> <Gold.Chemscore.Hbond>
3.2543

> <Gold.Chemscore.Metal>
0.0000

> <Gold.Chemscore.Lipo>
42.4714

> <Gold.Chemscore.Internal_Hbond>
0.0000

> <Gold.Chemscore.DEClash>
0.6609

> <Gold.Chemscore.DEInternal>
1.7261

> <Gold.Chemscore.Rot>
1.0000

> <Gold.Chemscore.Internal.Correction>
   9.000000E+99

> <Gold.Chemscore.Hbonds>
donor molecule, donor type, donor heavy atom, donor atom, acceptor molecule, acceptor atom, score
      P1  H  6896  6908       L1     7  1.00
      P1  H  6934  6947       L1     5  0.19
      P1  H  7989  7998       L1    13  0.50
      P1  H  7997  8010       L1    14  0.66

> <Gold.Chemscore.Hbond.Weighted>
-10.8692

> <Gold.Chemscore.Metal.Weighted>
-0.0000

> <Gold.Chemscore.Lipo.Weighted>
-4.9692

> <Gold.Chemscore.Internal_Hbond.Weighted>
0.0000

> <Gold.Chemscore.DEClash.Weighted>
0.6609

> <Gold.Chemscore.DEInternal.Weighted>
1.7261

> <Gold.Chemscore.Rot.Weighted>
2.5600

> <Gold.Chemscore.Internal.Correction.Weighted>
   9.000000E+99

> <Gold.Protein.RotatedTorsions>
[ 6907 6896 6895 6894 ] final -170.71 input  -60.11 | X-H torsion
[ 7974 7965 7964 7962 ] final -142.84 input  175.53 | X-H torsion
[ 8008 7997 7996 7995 ] final  105.05 input   59.86 | X-H torsion
[ 10167 10162 10161 10158 ] final  -15.61 input  -65.29 | X-H torsion
[ 10718 10713 10712 10709 ] final  -15.01 input   66.30 | X-H torsion
[ 10763 10752 10751 10750 ] final -161.45 input  -60.55 | X-H torsion
[ 11005 11000 10999 10996 ] final -178.76 input  -57.11 | X-H torsion

> <Gold.Protein.ActiveResidues>
 VAL166  LYS551  ARG553  GLY616  TRP617  ASP618  TYR619  PRO620  LYS621  CYS622 
 ASP623  PHE694  ASN695  SER759  ASP760  ASP761  ALA762  ILE779  LEU786  VAL792 
 PHE793  MET794  SER795  GLU796  ALA797  LYS798  CYS799  TRP800  GLU811  SER814 

> <Gold.Protein.RotatedAtoms>
  151.5121  133.3483  159.2886 H   0  0  0  0  0  0  0  0  0  0  0  0  # atno 6907 bound_to 6896
  150.8706  134.8081  159.7163 H   0  0  0  0  0  0  0  0  0  0  0  0  # atno 6908 bound_to 6896
  152.4695  134.5004  159.9775 H   0  0  0  0  0  0  0  0  0  0  0  0  # atno 6909 bound_to 6896
  144.8413  140.5908  143.5450 H   0  0  0  0  0  0  0  0  0  0  0  0  # atno 7974 bound_to 7965
  156.1626  140.3137  155.8833 H   0  0  0  0  0  0  0  0  0  0  0  0  # atno 8008 bound_to 7997
  155.3752  140.0484  157.3062 H   0  0  0  0  0  0  0  0  0  0  0  0  # atno 8009 bound_to 7997
  154.5161  140.2182  155.9074 H   0  0  0  0  0  0  0  0  0  0  0  0  # atno 8010 bound_to 7997
  140.7221  143.5201  150.9644 H   0  0  0  0  0  0  0  0  0  0  0  0  # atno 10167 bound_to 10162
  156.6078  130.4841  149.6213 H   0  0  0  0  0  0  0  0  0  0  0  0  # atno 10718 bound_to 10713
  154.7302  135.3045  154.8904 H   0  0  0  0  0  0  0  0  0  0  0  0  # atno 10763 bound_to 10752
  153.9749  135.6737  153.4752 H   0  0  0  0  0  0  0  0  0  0  0  0  # atno 10764 bound_to 10752
  153.0911  135.4959  154.8613 H   0  0  0  0  0  0  0  0  0  0  0  0  # atno 10765 bound_to 10752
  140.4262  134.6561  157.4689 H   0  0  0  0  0  0  0  0  0  0  0  0  # atno 11005 bound_to 11000
  145.4688  139.1505  143.3826 LP  0  0  0  0  0  0  0  0  0  0  0  0  # atno 17320 bound_to 7965
  146.2705  140.4820  142.8816 LP  0  0  0  0  0  0  0  0  0  0  0  0  # atno 17321 bound_to 7965
  139.8918  143.6944  152.3144 LP  0  0  0  0  0  0  0  0  0  0  0  0  # atno 17342 bound_to 10162
  139.7262  144.7592  151.0875 LP  0  0  0  0  0  0  0  0  0  0  0  0  # atno 17343 bound_to 10162
  156.2415  130.6854  151.1560 LP  0  0  0  0  0  0  0  0  0  0  0  0  # atno 17370 bound_to 10713
  157.7262  131.0647  150.5918 LP  0  0  0  0  0  0  0  0  0  0  0  0  # atno 17371 bound_to 10713
  140.0166  134.6610  155.9301 LP  0  0  0  0  0  0  0  0  0  0  0  0  # atno 17394 bound_to 11000
  141.1764  133.6541  156.4846 LP  0  0  0  0  0  0  0  0  0  0  0  0  # atno 17395 bound_to 11000

$$$$
