AV-unprocessed.smi:157|AV-procd|sdf|1295|dock2
  -GOLD-   2262018583D 1   1.00000     0.00000
 Structure written by MMmdl.
 35 37  0  0  0  0  0  0  0  0  1 V2000
  147.3491  141.9598  155.5341 O   0  0  0  0  0  0  0  0  0  0  0  0
  148.0025  141.5478  154.3523 C   0  0  0  0  0  0  0  0  0  0  0  0
  149.4370  141.0984  154.6697 C   0  0  1  0  0  0  0  0  0  0  0  0
  149.9941  141.9600  155.6527 O   0  0  0  0  0  0  0  0  0  0  0  0
  151.0131  141.2636  156.2817 C   0  0  1  0  0  0  0  0  0  0  0  0
  151.3053  141.9186  157.5963 N   0  0  0  0  0  0  0  0  0  0  0  0
  150.6594  142.9835  158.0860 C   0  0  0  0  0  0  0  0  0  0  0  0
  151.0870  143.3914  159.2685 N   0  0  0  0  0  0  0  0  0  0  0  0
  152.1062  142.4950  159.5847 C   0  0  0  0  0  0  0  0  0  0  0  0
  152.2550  141.5661  158.5643 C   0  0  0  0  0  0  0  0  0  0  0  0
  153.0755  140.4798  158.3228 N   0  0  0  0  0  0  0  0  0  0  0  0
  153.6991  139.9479  159.3260 C   0  0  0  0  0  0  0  0  0  0  0  0
  153.7702  140.3496  160.6519 N   0  0  0  0  0  0  0  0  0  0  0  0
  154.0527  141.7156  161.0580 C   0  0  0  0  0  0  0  0  0  0  0  0
  152.8651  142.6668  160.8690 C   0  0  2  0  0  0  0  0  0  0  0  0
  151.9437  142.4762  161.9232 O   0  0  0  0  0  0  0  0  0  0  0  0
  150.5053  139.8349  156.4583 C   0  0  0  0  0  0  0  0  0  0  0  0
  149.5135  139.6961  155.3079 C   0  0  2  0  0  0  0  0  0  0  0  0
  149.9716  138.7414  154.3716 O   0  0  0  0  0  0  0  0  0  0  0  0
  150.0663  141.1369  153.7776 H   0  0  0  0  0  0  0  0  0  0  0  0
  151.9343  141.3255  155.6996 H   0  0  0  0  0  0  0  0  0  0  0  0
  153.2284  143.6919  160.9492 H   0  0  0  0  0  0  0  0  0  0  0  0
  148.5447  139.3806  155.6975 H   0  0  0  0  0  0  0  0  0  0  0  0
  147.7396  142.7688  155.8270 H   0  0  0  0  0  0  0  0  0  0  0  0
  147.4388  140.7534  153.8617 H   0  0  0  0  0  0  0  0  0  0  0  0
  148.0186  142.4019  153.6748 H   0  0  0  0  0  0  0  0  0  0  0  0
  149.8571  143.4774  157.5578 H   0  0  0  0  0  0  0  0  0  0  0  0
  154.2818  139.0422  159.1517 H   0  0  0  0  0  0  0  0  0  0  0  0
  154.1008  139.6870  161.3384 H   0  0  0  0  0  0  0  0  0  0  0  0
  154.4012  141.7308  162.0911 H   0  0  0  0  0  0  0  0  0  0  0  0
  154.8867  142.0692  160.4499 H   0  0  0  0  0  0  0  0  0  0  0  0
  151.7780  143.3150  162.3262 H   0  0  0  0  0  0  0  0  0  0  0  0
  151.3365  139.1291  156.4308 H   0  0  0  0  0  0  0  0  0  0  0  0
  149.9910  139.7275  157.4136 H   0  0  0  0  0  0  0  0  0  0  0  0
  150.7163  138.2919  154.7411 H   0  0  0  0  0  0  0  0  0  0  0  0
  1  2  1  0  0  0  0
  1 24  1  0  0  0  0
  2  3  1  0  0  0  0
  2 25  1  0  0  0  0
  2 26  1  0  0  0  0
  3 20  1  0  0  0  0
  3 18  1  0  0  0  0
  3  4  1  0  0  0  0
  4  5  1  0  0  0  0
  5 21  1  0  0  0  0
  5  6  1  0  0  0  0
  5 17  1  0  0  0  0
  6 10  1  0  0  0  0
  6  7  1  0  0  0  0
  7  8  2  0  0  0  0
  7 27  1  0  0  0  0
  8  9  1  0  0  0  0
  9 15  1  0  0  0  0
  9 10  2  0  0  0  0
 10 11  1  0  0  0  0
 11 12  2  0  0  0  0
 12 13  1  0  0  0  0
 12 28  1  0  0  0  0
 13 14  1  0  0  0  0
 13 29  1  0  0  0  0
 14 15  1  0  0  0  0
 14 30  1  0  0  0  0
 14 31  1  0  0  0  0
 15 22  1  0  0  0  0
 15 16  1  0  0  0  0
 16 32  1  0  0  0  0
 17 18  1  0  0  0  0
 17 33  1  0  0  0  0
 17 34  1  0  0  0  0
 18 23  1  0  0  0  0
 18 19  1  0  0  0  0
 19 35  1  0  0  0  0
M  END
> <s_m_source_file>
AV-unprocessed.smi

> <i_m_source_file_index>
157

> <i_lp_mmshare_version>
43012

> <i_f3d_flags>
0

> <s_epik_input>
W09IXVtDSDJdW0NASF0xT1tDQEhdKFtDSDJdW0NAQEhdMVtPSF0pbihbY0hdbjIpYyhjMjMpTj1bQ0hdW05IXVtDSDJdW0NASF0zW09IXQ==

> <s_epik_cmdline>
J2VwaWtfcHl0aG9uJywgJy1waCcsICc3LjAnLCAnLXRuJywgJzgnLCAnLW1hJywgJzIwMCcsICctbWV0YWxfYmluZGluZycsICctaW1hZScsICc8aW5maWxlLm1hZT4nLCAnLW9tYWUnLCAnPG91dGZpbGUubWFlPic=

> <r_lp_tautomer_probability>
1

> <r_epik_Ionization_Penalty>
0.0357149

> <r_epik_Ionization_Penalty_Charging>
0.0355056

> <r_epik_Ionization_Penalty_Neutral>
0.000209255

> <r_epik_State_Penalty>
0.0296046

> <r_epik_Charging_Adjusted_Penalty>
0.0651102

> <i_epik_Tot_Q>
0

> <i_epik_Tot_abs_Q>
0

> <r_epik_Metal_State_Penalty>
3.03559e-05

> <b_epik_Metal_Only>
0

> <s_epik_Chemistry_Notes>
This compound has an imine and may undergo hydrolysis. This compound contains an acetal/aminal-like group ( X-CH(R)-Y where X, Y are N, S, or O) that may be acid/base labile, releasing an aldehyde.

> <s_lp_Force_Field>
OPLS_2005

> <r_lp_Energy>
44.773

> <b_lp_Chiralities_Consistent>
1

> <s_lp_Variant>
AV-unprocessed.smi:157-5

> <Gold.Version>
5.8.1

> <Gold.Id.Protein>
6NUR|6NUR_protein|mol2

> <Gold.PLP.Fitness>
44.2049

> <Gold.PLP.PLP>
-34.2685

> <Gold.PLP.part.hbond>
-3.4244

> <Gold.PLP.part.metal>
0.0000

> <Gold.PLP.part.buried>
-3.6165

> <Gold.PLP.part.nonpolar>
-27.1794

> <Gold.PLP.part.repulsive>
1.2408

> <Gold.PLP.ligand.clash>
0.0000

> <Gold.PLP.ligand.torsion>
0.1876

> <Gold.PLP.Chemscore.Hbond>
2.4321

> <Gold.PLP.Chemscore.CHOScore>
1.0000

> <Gold.PLP.Chemscore.Metal>
0.0000

> <Gold.Chemscore.Hbonds>
donor molecule, donor type, donor heavy atom, donor atom, acceptor molecule, acceptor atom, score
      L1  H     1    24       P1  8028  0.47
      P1  H  6933  6945       L1    16  0.62
      P1  H  7997  8008       L1    11  0.62
      L1  C     7    27       P1  8028  1.00

> <Gold.PLP.Chemscore.Internal.Correction>
0.0154

> <Gold.Rescore>
     Score         DG    S(hbond)    S(metal)    S(lipo)     H(rot)  DE(clash)    DE(int)     intcor
      6.09      -7.78       1.41        0.00      58.99       3.64       1.60       0.10       ----

> <Gold.Chemscore.Fitness>
6.0865

> <Gold.Chemscore.DG>
-7.7800

> <Gold.Chemscore.ZeroCoef>
-5.4800

> <Gold.Chemscore.Hbond>
1.4093

> <Gold.Chemscore.Metal>
0.0000

> <Gold.Chemscore.Lipo>
58.9880

> <Gold.Chemscore.Internal_Hbond>
0.0000

> <Gold.Chemscore.DEClash>
1.5975

> <Gold.Chemscore.DEInternal>
0.0959

> <Gold.Chemscore.Rot>
3.6362

> <Gold.Chemscore.Internal.Correction>
   9.000000E+99

> <Gold.Chemscore.Hbonds>
donor molecule, donor type, donor heavy atom, donor atom, acceptor molecule, acceptor atom, score
      L1  H     1    24       P1  8028  0.25
      P1  H  6933  6945       L1    16  0.07
      P1  H  7997  8008       L1    11  0.09

> <Gold.Chemscore.Hbond.Weighted>
-4.7071

> <Gold.Chemscore.Metal.Weighted>
-0.0000

> <Gold.Chemscore.Lipo.Weighted>
-6.9016

> <Gold.Chemscore.Internal_Hbond.Weighted>
0.0000

> <Gold.Chemscore.DEClash.Weighted>
1.5975

> <Gold.Chemscore.DEInternal.Weighted>
0.0959

> <Gold.Chemscore.Rot.Weighted>
9.3087

> <Gold.Chemscore.Internal.Correction.Weighted>
   9.000000E+99

> <Gold.Protein.RotatedTorsions>
[ 6907 6896 6895 6894 ] final  -10.94 input  -60.11 | X-H torsion
[ 7974 7965 7964 7962 ] final  -64.11 input  175.53 | X-H torsion
[ 8008 7997 7996 7995 ] final  -77.24 input   59.86 | X-H torsion
[ 10167 10162 10161 10158 ] final   25.49 input  -65.29 | X-H torsion
[ 10718 10713 10712 10709 ] final  -88.38 input   66.30 | X-H torsion
[ 10763 10752 10751 10750 ] final  -72.16 input  -60.55 | X-H torsion
[ 11005 11000 10999 10996 ] final  124.23 input  -57.11 | X-H torsion

> <Gold.Protein.ActiveResidues>
 VAL166  LYS551  ARG553  GLY616  TRP617  ASP618  TYR619  PRO620  LYS621  CYS622 
 ASP623  PHE694  ASN695  SER759  ASP760  ASP761  ALA762  ILE779  LEU786  VAL792 
 PHE793  MET794  SER795  GLU796  ALA797  LYS798  CYS799  TRP800  GLU811  SER814 

> <Gold.Protein.RotatedAtoms>
  151.3940  135.0960  159.9534 H   0  0  0  0  0  0  0  0  0  0  0  0  # atno 6907 bound_to 6896
  152.5071  133.8952  159.7424 H   0  0  0  0  0  0  0  0  0  0  0  0  # atno 6908 bound_to 6896
  150.9412  133.6599  159.2819 H   0  0  0  0  0  0  0  0  0  0  0  0  # atno 6909 bound_to 6896
  145.7708  140.8814  143.0381 H   0  0  0  0  0  0  0  0  0  0  0  0  # atno 7974 bound_to 7965
  154.5578  140.0714  156.8771 H   0  0  0  0  0  0  0  0  0  0  0  0  # atno 8008 bound_to 7997
  155.2869  140.3375  155.4236 H   0  0  0  0  0  0  0  0  0  0  0  0  # atno 8009 bound_to 7997
  156.2017  140.1724  156.7872 H   0  0  0  0  0  0  0  0  0  0  0  0  # atno 8010 bound_to 7997
  140.5101  144.0174  150.6369 H   0  0  0  0  0  0  0  0  0  0  0  0  # atno 10167 bound_to 10162
  155.9984  130.4834  150.5011 H   0  0  0  0  0  0  0  0  0  0  0  0  # atno 10718 bound_to 10713
  154.4418  135.5939  153.6134 H   0  0  0  0  0  0  0  0  0  0  0  0  # atno 10763 bound_to 10752
  152.9806  135.6000  154.3713 H   0  0  0  0  0  0  0  0  0  0  0  0  # atno 10764 bound_to 10752
  154.3564  135.2841  155.2323 H   0  0  0  0  0  0  0  0  0  0  0  0  # atno 10765 bound_to 10752
  139.9349  134.9640  156.8378 H   0  0  0  0  0  0  0  0  0  0  0  0  # atno 11005 bound_to 11000
  144.6813  139.9852  143.7484 LP  0  0  0  0  0  0  0  0  0  0  0  0  # atno 17320 bound_to 7965
  146.0172  139.3220  143.0835 LP  0  0  0  0  0  0  0  0  0  0  0  0  # atno 17321 bound_to 7965
  140.3494  143.2972  152.0503 LP  0  0  0  0  0  0  0  0  0  0  0  0  # atno 17342 bound_to 10162
  139.4894  144.6385  151.6926 LP  0  0  0  0  0  0  0  0  0  0  0  0  # atno 17343 bound_to 10162
  157.2995  131.0642  151.2078 LP  0  0  0  0  0  0  0  0  0  0  0  0  # atno 17370 bound_to 10713
  157.3062  130.6867  149.6191 LP  0  0  0  0  0  0  0  0  0  0  0  0  # atno 17371 bound_to 10713
  140.6103  134.0089  155.7574 LP  0  0  0  0  0  0  0  0  0  0  0  0  # atno 17394 bound_to 11000
  141.0957  133.9847  157.3163 LP  0  0  0  0  0  0  0  0  0  0  0  0  # atno 17395 bound_to 11000

$$$$
