AV-unprocessed.smi:2785|AV-procd|sdf|10747|dock6
  -GOLD-   2272015183D 1   1.00000     0.00000
 Structure written by MMmdl.
 37 38  0  0  0  0  0  0  0  0  1 V2000
  153.3886  141.3880  160.7949 C   0  0  0  0  0  0  0  0  0  0  0  0
  153.0965  142.8838  160.5759 C   0  0  0  0  0  0  0  0  0  0  0  0
  152.3655  143.5052  161.7765 C   0  0  0  0  0  0  0  0  0  0  0  0
  152.3491  143.1410  159.3370 N   0  0  0  0  0  0  0  0  0  0  0  0
  152.5324  144.3513  158.5521 C   0  0  0  0  0  0  0  0  0  0  0  0
  151.7733  144.0937  157.2469 C   0  0  0  0  0  0  0  0  0  0  0  0
  150.8559  142.8863  157.4992 C   0  0  2  0  0  0  0  0  0  0  0  0
  149.4816  143.3396  157.7020 N   0  0  0  0  0  0  0  0  0  0  0  0
  148.4834  142.5890  158.1908 C   0  0  0  0  0  0  0  0  0  0  0  0
  148.6138  141.4047  158.5012 O   0  0  0  0  0  0  0  0  0  0  0  0
  147.3471  143.3007  158.2946 N   0  0  0  0  0  0  0  0  0  0  0  0
  146.0826  142.8707  158.7776 C   0  0  0  0  0  0  0  0  0  0  0  0
  145.0329  143.8038  158.6178 C   0  0  0  0  0  0  0  0  0  0  0  0
  143.7386  143.4747  159.0656 C   0  0  0  0  0  0  0  0  0  0  0  0
  143.5290  142.2183  159.6615 C   0  0  0  0  0  0  0  0  0  0  0  0
  142.3023  141.8574  160.1074 F   0  0  0  0  0  0  0  0  0  0  0  0
  144.6268  141.3465  159.7823 C   0  0  0  0  0  0  0  0  0  0  0  0
  145.8678  141.6610  159.3535 N   0  0  0  0  0  0  0  0  0  0  0  0
  151.4208  142.3328  158.8064 C   0  0  0  0  0  0  0  0  0  0  0  0
  151.0557  141.2556  159.2767 O   0  0  0  0  0  0  0  0  0  0  0  0
  154.0214  141.2424  161.6707 H   0  0  0  0  0  0  0  0  0  0  0  0
  153.9129  140.9592  159.9403 H   0  0  0  0  0  0  0  0  0  0  0  0
  152.4758  140.8135  160.9553 H   0  0  0  0  0  0  0  0  0  0  0  0
  154.0663  143.3777  160.4894 H   0  0  0  0  0  0  0  0  0  0  0  0
  152.9301  143.3582  162.6974 H   0  0  0  0  0  0  0  0  0  0  0  0
  151.3807  143.0579  161.9150 H   0  0  0  0  0  0  0  0  0  0  0  0
  152.2284  144.5788  161.6444 H   0  0  0  0  0  0  0  0  0  0  0  0
  152.1014  145.2008  159.0834 H   0  0  0  0  0  0  0  0  0  0  0  0
  153.5879  144.5569  158.3691 H   0  0  0  0  0  0  0  0  0  0  0  0
  151.2356  144.9797  156.9059 H   0  0  0  0  0  0  0  0  0  0  0  0
  152.4873  143.8390  156.4622 H   0  0  0  0  0  0  0  0  0  0  0  0
  150.9300  142.1549  156.6924 H   0  0  0  0  0  0  0  0  0  0  0  0
  149.2849  144.3032  157.4747 H   0  0  0  0  0  0  0  0  0  0  0  0
  147.3944  144.2655  158.0027 H   0  0  0  0  0  0  0  0  0  0  0  0
  145.2135  144.7647  158.1581 H   0  0  0  0  0  0  0  0  0  0  0  0
  142.9230  144.1737  158.9537 H   0  0  0  0  0  0  0  0  0  0  0  0
  144.5070  140.3727  160.2337 H   0  0  0  0  0  0  0  0  0  0  0  0
  1  2  1  0  0  0  0
  1 21  1  0  0  0  0
  1 22  1  0  0  0  0
  1 23  1  0  0  0  0
  2  3  1  0  0  0  0
  2  4  1  0  0  0  0
  2 24  1  0  0  0  0
  3 25  1  0  0  0  0
  3 26  1  0  0  0  0
  3 27  1  0  0  0  0
  4 19  1  0  0  0  0
  4  5  1  0  0  0  0
  5  6  1  0  0  0  0
  5 28  1  0  0  0  0
  5 29  1  0  0  0  0
  6  7  1  0  0  0  0
  6 30  1  0  0  0  0
  6 31  1  0  0  0  0
  7  8  1  0  0  0  0
  7 19  1  0  0  0  0
  7 32  1  0  0  0  0
  8  9  1  0  0  0  0
  8 33  1  0  0  0  0
  9 10  2  0  0  0  0
  9 11  1  0  0  0  0
 11 12  1  0  0  0  0
 11 34  1  0  0  0  0
 12 18  1  0  0  0  0
 12 13  2  0  0  0  0
 13 14  1  0  0  0  0
 13 35  1  0  0  0  0
 14 15  2  0  0  0  0
 14 36  1  0  0  0  0
 15 16  1  0  0  0  0
 15 17  1  0  0  0  0
 17 18  2  0  0  0  0
 17 37  1  0  0  0  0
 19 20  2  0  0  0  0
M  END
> <s_m_source_file>
AV-unprocessed.smi

> <i_m_source_file_index>
2785

> <i_lp_mmshare_version>
43012

> <i_f3d_flags>
0

> <s_epik_input>
W0NIM11bQ0hdKFtDSDNdKU4xW0NIMl1bQ0gyXVtDQEhdKEMxPU8pW05IXUMoPU8pW05IXWMyW2NIXVtjSF1jKEYpW2NIXW4y

> <s_epik_cmdline>
J2VwaWtfcHl0aG9uJywgJy1waCcsICc3LjAnLCAnLXRuJywgJzgnLCAnLW1hJywgJzIwMCcsICctbWV0YWxfYmluZGluZycsICctaW1hZScsICc8aW5maWxlLm1hZT4nLCAnLW9tYWUnLCAnPG91dGZpbGUubWFlPic=

> <r_lp_tautomer_probability>
1

> <r_epik_Ionization_Penalty>
3.20266e-05

> <r_epik_Ionization_Penalty_Charging>
0

> <r_epik_Ionization_Penalty_Neutral>
3.20266e-05

> <r_epik_State_Penalty>
-0

> <r_epik_Charging_Adjusted_Penalty>
0

> <i_epik_Tot_Q>
0

> <i_epik_Tot_abs_Q>
0

> <r_epik_Metal_State_Penalty>
-0

> <b_epik_Metal_Only>
0

> <s_lp_Force_Field>
OPLS_2005

> <r_lp_Energy>
23.5858

> <b_lp_Chiralities_Consistent>
1

> <s_lp_Variant>
AV-unprocessed.smi:2785-2

> <Gold.Version>
5.8.1

> <Gold.Id.Protein>
6NUR|6NUR_protein|mol2

> <Gold.PLP.Fitness>
41.7299

> <Gold.PLP.PLP>
-36.6842

> <Gold.PLP.part.hbond>
-5.6034

> <Gold.PLP.part.metal>
0.0000

> <Gold.PLP.part.buried>
-2.6289

> <Gold.PLP.part.nonpolar>
-29.7144

> <Gold.PLP.part.repulsive>
0.1507

> <Gold.PLP.ligand.clash>
0.0000

> <Gold.PLP.ligand.torsion>
0.8310

> <Gold.PLP.Chemscore.Hbond>
2.2112

> <Gold.PLP.Chemscore.CHOScore>
0.0000

> <Gold.PLP.Chemscore.Metal>
0.0000

> <Gold.Chemscore.Hbonds>
donor molecule, donor type, donor heavy atom, donor atom, acceptor molecule, acceptor atom, score
      L1  H     8    33       P1  8028  0.21
      L1  H    11    34       P1  8029  1.00
      P1  H  6934  6946       L1    18  1.00

> <Gold.PLP.Chemscore.Internal.Correction>
0.0741

> <Gold.Rescore>
     Score         DG    S(hbond)    S(metal)    S(lipo)     H(rot)  DE(clash)    DE(int)     intcor
     11.63     -16.53       1.63        0.00      76.16       1.29       0.03       4.88       ----

> <Gold.Chemscore.Fitness>
11.6323

> <Gold.Chemscore.DG>
-16.5350

> <Gold.Chemscore.ZeroCoef>
-5.4800

> <Gold.Chemscore.Hbond>
1.6287

> <Gold.Chemscore.Metal>
0.0000

> <Gold.Chemscore.Lipo>
76.1626

> <Gold.Chemscore.Internal_Hbond>
0.0000

> <Gold.Chemscore.DEClash>
0.0263

> <Gold.Chemscore.DEInternal>
4.8764

> <Gold.Chemscore.Rot>
1.2875

> <Gold.Chemscore.Internal.Correction>
   9.000000E+99

> <Gold.Chemscore.Hbonds>
donor molecule, donor type, donor heavy atom, donor atom, acceptor molecule, acceptor atom, score
      L1  H     8    33       P1  8028  0.01
      L1  H    11    34       P1  8029  0.30
      P1  H  6934  6946       L1    18  0.24

> <Gold.Chemscore.Hbond.Weighted>
-5.4398

> <Gold.Chemscore.Metal.Weighted>
-0.0000

> <Gold.Chemscore.Lipo.Weighted>
-8.9110

> <Gold.Chemscore.Internal_Hbond.Weighted>
0.0000

> <Gold.Chemscore.DEClash.Weighted>
0.0263

> <Gold.Chemscore.DEInternal.Weighted>
4.8764

> <Gold.Chemscore.Rot.Weighted>
3.2959

> <Gold.Chemscore.Internal.Correction.Weighted>
   9.000000E+99

> <Gold.Protein.RotatedTorsions>
[ 6907 6896 6895 6894 ] final   26.38 input  -60.11 | X-H torsion
[ 7974 7965 7964 7962 ] final   64.65 input  175.53 | X-H torsion
[ 8008 7997 7996 7995 ] final  -64.88 input   59.86 | X-H torsion
[ 10167 10162 10161 10158 ] final  126.82 input  -65.29 | X-H torsion
[ 10718 10713 10712 10709 ] final   47.27 input   66.30 | X-H torsion
[ 10763 10752 10751 10750 ] final  106.84 input  -60.55 | X-H torsion
[ 11005 11000 10999 10996 ] final   87.52 input  -57.11 | X-H torsion

> <Gold.Protein.ActiveResidues>
 VAL166  LYS551  ARG553  GLY616  TRP617  ASP618  TYR619  PRO620  LYS621  CYS622 
 ASP623  PHE694  ASN695  SER759  ASP760  ASP761  ALA762  ILE779  LEU786  VAL792 
 PHE793  MET794  SER795  GLU796  ALA797  LYS798  CYS799  TRP800  GLU811  SER814 

> <Gold.Protein.RotatedAtoms>
  151.9866  135.0001  160.0559 H   0  0  0  0  0  0  0  0  0  0  0  0  # atno 6907 bound_to 6896
  152.1647  133.4600  159.4887 H   0  0  0  0  0  0  0  0  0  0  0  0  # atno 6908 bound_to 6896
  150.6893  134.1945  159.4341 H   0  0  0  0  0  0  0  0  0  0  0  0  # atno 6909 bound_to 6896
  145.8478  139.3235  143.0893 H   0  0  0  0  0  0  0  0  0  0  0  0  # atno 7974 bound_to 7965
  154.4638  140.0945  156.6964 H   0  0  0  0  0  0  0  0  0  0  0  0  # atno 8008 bound_to 7997
  155.4918  140.3471  155.4338 H   0  0  0  0  0  0  0  0  0  0  0  0  # atno 8009 bound_to 7997
  156.0918  140.1399  156.9570 H   0  0  0  0  0  0  0  0  0  0  0  0  # atno 8010 bound_to 7997
  139.5611  144.6882  151.4041 H   0  0  0  0  0  0  0  0  0  0  0  0  # atno 10167 bound_to 10162
  157.4568  130.8172  149.7844 H   0  0  0  0  0  0  0  0  0  0  0  0  # atno 10718 bound_to 10713
  153.3984  135.3864  155.1971 H   0  0  0  0  0  0  0  0  0  0  0  0  # atno 10763 bound_to 10752
  154.8727  135.3765  154.4649 H   0  0  0  0  0  0  0  0  0  0  0  0  # atno 10764 bound_to 10752
  153.5144  135.7087  153.5826 H   0  0  0  0  0  0  0  0  0  0  0  0  # atno 10765 bound_to 10752
  139.8918  134.8427  156.2871 H   0  0  0  0  0  0  0  0  0  0  0  0  # atno 11005 bound_to 11000
  145.9393  140.8992  143.0316 LP  0  0  0  0  0  0  0  0  0  0  0  0  # atno 17320 bound_to 7965
  144.6730  140.1526  143.7429 LP  0  0  0  0  0  0  0  0  0  0  0  0  # atno 17321 bound_to 7965
  140.6890  143.7906  150.7228 LP  0  0  0  0  0  0  0  0  0  0  0  0  # atno 17342 bound_to 10162
  140.1382  143.4465  152.2211 LP  0  0  0  0  0  0  0  0  0  0  0  0  # atno 17343 bound_to 10162
  156.0011  130.3880  150.2604 LP  0  0  0  0  0  0  0  0  0  0  0  0  # atno 17370 bound_to 10713
  157.0779  131.0135  151.3167 LP  0  0  0  0  0  0  0  0  0  0  0  0  # atno 17371 bound_to 10713
  141.0000  133.7157  156.0946 LP  0  0  0  0  0  0  0  0  0  0  0  0  # atno 17394 bound_to 11000
  140.7510  134.4045  157.5541 LP  0  0  0  0  0  0  0  0  0  0  0  0  # atno 17395 bound_to 11000

$$$$
