AV-unprocessed.smi:2226|AV-procd|sdf|9020|dock4
  -GOLD-   2272012223D 1   1.00000     0.00000
 Structure written by MMmdl.
 39 41  0  0  0  0  0  0  0  0  3 V2000
  147.8536  141.7350  154.0197 C   0  0  0  0  0  0  0  0  0  0  0  0
  148.5095  141.8263  155.3458 N   0  3  2  0  0  0  0  0  0  0  0  0
  149.7398  141.0124  155.4893 C   0  0  1  0  0  0  0  0  0  0  0  0
  150.5403  141.5184  156.7113 C   0  0  0  0  0  0  0  0  0  0  0  0
  149.7174  141.5940  158.0119 C   0  0  0  0  0  0  0  0  0  0  0  0
  148.2923  142.1349  157.7836 C   0  0  0  0  0  0  0  0  0  0  0  0
  147.6114  141.5983  156.5028 C   0  0  2  0  0  0  0  0  0  0  0  0
  147.1384  140.1242  156.5717 C   0  0  0  0  0  0  0  0  0  0  0  0
  148.2421  139.0522  156.3979 C   0  0  2  0  0  0  0  0  0  0  0  0
  148.6803  138.5267  157.6887 N   0  0  0  0  0  0  0  0  0  0  0  0
  148.1629  137.4789  158.3465 C   0  0  0  0  0  0  0  0  0  0  0  0
  147.2061  136.8637  157.8707 O   0  0  0  0  0  0  0  0  0  0  0  0
  148.7950  137.2068  159.5095 N   0  5  0  0  0  0  0  0  0  0  0  0
  148.1527  136.5314  160.4761 C   0  0  0  0  0  0  0  0  0  0  0  0
  147.7460  135.2622  160.4178 N   0  0  0  0  0  0  0  0  0  0  0  0
  147.1332  135.0050  161.6346 C   0  0  0  0  0  0  0  0  0  0  0  0
  147.1903  136.1485  162.3837 C   0  0  0  0  0  0  0  0  0  0  0  0
  147.8282  137.1194  161.6624 O   0  0  0  0  0  0  0  0  0  0  0  0
  149.4209  139.4967  155.4906 C   0  0  0  0  0  0  0  0  0  0  0  0
  147.4805  140.7325  153.8110 H   0  0  0  0  0  0  0  0  0  0  0  0
  148.5549  142.0052  153.2298 H   0  0  0  0  0  0  0  0  0  0  0  0
  147.0126  142.4266  153.9635 H   0  0  0  0  0  0  0  0  0  0  0  0
  150.3666  141.2053  154.6175 H   0  0  0  0  0  0  0  0  0  0  0  0
  151.4281  140.9043  156.8664 H   0  0  0  0  0  0  0  0  0  0  0  0
  150.9077  142.5202  156.4848 H   0  0  0  0  0  0  0  0  0  0  0  0
  149.6820  140.6221  158.4920 H   0  0  0  0  0  0  0  0  0  0  0  0
  150.2349  142.2290  158.7314 H   0  0  0  0  0  0  0  0  0  0  0  0
  147.6721  141.9350  158.6580 H   0  0  0  0  0  0  0  0  0  0  0  0
  148.3529  143.2212  157.7048 H   0  0  0  0  0  0  0  0  0  0  0  0
  146.7214  142.2117  156.3551 H   0  0  0  0  0  0  0  0  0  0  0  0
  146.5737  139.9515  157.4890 H   0  0  0  0  0  0  0  0  0  0  0  0
  146.4119  139.9758  155.7721 H   0  0  0  0  0  0  0  0  0  0  0  0
  147.7620  138.2051  155.9037 H   0  0  0  0  0  0  0  0  0  0  0  0
  149.4580  138.9976  158.1273 H   0  0  0  0  0  0  0  0  0  0  0  0
  146.7093  134.0395  161.8679 H   0  0  0  0  0  0  0  0  0  0  0  0
  146.8519  136.4189  163.3725 H   0  0  0  0  0  0  0  0  0  0  0  0
  149.1653  139.2151  154.4686 H   0  0  0  0  0  0  0  0  0  0  0  0
  150.3247  138.9275  155.7098 H   0  0  0  0  0  0  0  0  0  0  0  0
  148.8100  142.7877  155.4194 H   0  0  0  0  0  0  0  0  0  0  0  0
  1  2  1  0  0  0  0
  1 20  1  0  0  0  0
  1 21  1  0  0  0  0
  1 22  1  0  0  0  0
  2  7  1  0  0  0  0
  2  3  1  0  0  0  0
  2 39  1  0  0  0  0
  3 19  1  0  0  0  0
  3  4  1  0  0  0  0
  3 23  1  0  0  0  0
  4  5  1  0  0  0  0
  4 24  1  0  0  0  0
  4 25  1  0  0  0  0
  5  6  1  0  0  0  0
  5 26  1  0  0  0  0
  5 27  1  0  0  0  0
  6  7  1  0  0  0  0
  6 28  1  0  0  0  0
  6 29  1  0  0  0  0
  7  8  1  0  0  0  0
  7 30  1  0  0  0  0
  8  9  1  0  0  0  0
  8 31  1  0  0  0  0
  8 32  1  0  0  0  0
  9 10  1  0  0  0  0
  9 19  1  0  0  0  0
  9 33  1  0  0  0  0
 10 34  1  0  0  0  0
 10 11  1  0  0  0  0
 11 13  1  0  0  0  0
 11 12  2  0  0  0  0
 13 14  1  0  0  0  0
 14 18  1  0  0  0  0
 14 15  2  0  0  0  0
 15 16  1  0  0  0  0
 16 35  1  0  0  0  0
 16 17  2  0  0  0  0
 17 36  1  0  0  0  0
 17 18  1  0  0  0  0
 19 37  1  0  0  0  0
 19 38  1  0  0  0  0
M  CHG  1   2   1
M  CHG  1  13  -1
M  END
> <s_m_source_file>
AV-unprocessed.smi

> <i_m_source_file_index>
2226

> <i_lp_mmshare_version>
43012

> <i_f3d_flags>
0

> <s_epik_input>
W0NIMl0xW0NIMl1bQ0gyXVtDQEhdKE4oW0NIM10pW0NIXTEyKVtDSDJdW0NASF0oW0NIMl0yKVtOSF1DKD1PKVtOSF1jM25bY0hdW2NIXW8z

> <s_epik_cmdline>
J2VwaWtfcHl0aG9uJywgJy1waCcsICc3LjAnLCAnLXRuJywgJzgnLCAnLW1hJywgJzIwMCcsICctbWV0YWxfYmluZGluZycsICctaW1hZScsICc8aW5maWxlLm1hZT4nLCAnLW9tYWUnLCAnPG91dGZpbGUubWFlPic=

> <r_lp_tautomer_probability>
0.107061

> <r_epik_Ionization_Penalty>
10.5612

> <r_epik_Ionization_Penalty_Charging>
7.48913

> <r_epik_Ionization_Penalty_Neutral>
3.07202

> <r_epik_State_Penalty>
5.6431

> <r_epik_Charging_Adjusted_Penalty>
13.1322

> <i_epik_Tot_Q>
0

> <i_epik_Tot_abs_Q>
2

> <r_epik_Metal_State_Penalty>
1.58163

> <b_epik_Metal_Only>
1

> <s_lp_Force_Field>
OPLS_2005

> <r_lp_Energy>
26.6809

> <b_lp_Chiralities_Consistent>
1

> <s_lp_Variant>
AV-unprocessed.smi:2226-20

> <Gold.Version>
5.8.1

> <Gold.Id.Protein>
6NUR|6NUR_protein|mol2

> <Gold.PLP.Fitness>
36.0562

> <Gold.PLP.PLP>
-27.3292

> <Gold.PLP.part.hbond>
-3.8454

> <Gold.PLP.part.metal>
0.0000

> <Gold.PLP.part.buried>
-3.5788

> <Gold.PLP.part.nonpolar>
-19.1556

> <Gold.PLP.part.repulsive>
0.2263

> <Gold.PLP.ligand.clash>
0.0000

> <Gold.PLP.ligand.torsion>
1.0800

> <Gold.PLP.Chemscore.Hbond>
3.6115

> <Gold.PLP.Chemscore.CHOScore>
0.0000

> <Gold.PLP.Chemscore.Metal>
0.0000

> <Gold.Chemscore.Hbonds>
donor molecule, donor type, donor heavy atom, donor atom, acceptor molecule, acceptor atom, score
      L1  H     2    39       P1  8028  2.00
      P1  H  6931  6943       L1    18  1.00
      P1  H  6934  6947       L1    18  0.51

> <Gold.PLP.Chemscore.Internal.Correction>
0.0524

> <Gold.Rescore>
     Score         DG    S(hbond)    S(metal)    S(lipo)     H(rot)  DE(clash)    DE(int)     intcor
     16.35     -17.62       2.50        0.00      54.18       1.00       0.13       1.15       ----

> <Gold.Chemscore.Fitness>
16.3468

> <Gold.Chemscore.DG>
-17.6203

> <Gold.Chemscore.ZeroCoef>
-5.4800

> <Gold.Chemscore.Hbond>
2.5034

> <Gold.Chemscore.Metal>
0.0000

> <Gold.Chemscore.Lipo>
54.1786

> <Gold.Chemscore.Internal_Hbond>
0.0000

> <Gold.Chemscore.DEClash>
0.1270

> <Gold.Chemscore.DEInternal>
1.1464

> <Gold.Chemscore.Rot>
1.0000

> <Gold.Chemscore.Internal.Correction>
   9.000000E+99

> <Gold.Chemscore.Hbonds>
donor molecule, donor type, donor heavy atom, donor atom, acceptor molecule, acceptor atom, score
      L1  H     2    39       P1  8028  0.99
      P1  H  6931  6943       L1    18  0.49
      P1  H  6934  6947       L1    18  0.13

> <Gold.Chemscore.Hbond.Weighted>
-8.3614

> <Gold.Chemscore.Metal.Weighted>
-0.0000

> <Gold.Chemscore.Lipo.Weighted>
-6.3389

> <Gold.Chemscore.Internal_Hbond.Weighted>
0.0000

> <Gold.Chemscore.DEClash.Weighted>
0.1270

> <Gold.Chemscore.DEInternal.Weighted>
1.1464

> <Gold.Chemscore.Rot.Weighted>
2.5600

> <Gold.Chemscore.Internal.Correction.Weighted>
   9.000000E+99

> <Gold.Protein.RotatedTorsions>
[ 6907 6896 6895 6894 ] final   52.84 input  -60.11 | X-H torsion
[ 7974 7965 7964 7962 ] final   38.63 input  175.53 | X-H torsion
[ 8008 7997 7996 7995 ] final  133.43 input   59.86 | X-H torsion
[ 10167 10162 10161 10158 ] final  106.64 input  -65.29 | X-H torsion
[ 10718 10713 10712 10709 ] final  134.60 input   66.30 | X-H torsion
[ 10763 10752 10751 10750 ] final  -14.08 input  -60.55 | X-H torsion
[ 11005 11000 10999 10996 ] final  -22.26 input  -57.11 | X-H torsion

> <Gold.Protein.ActiveResidues>
 VAL166  LYS551  ARG553  GLY616  TRP617  ASP618  TYR619  PRO620  LYS621  CYS622 
 ASP623  PHE694  ASN695  SER759  ASP760  ASP761  ALA762  ILE779  LEU786  VAL792 
 PHE793  MET794  SER795  GLU796  ALA797  LYS798  CYS799  TRP800  GLU811  SER814 

> <Gold.Protein.RotatedAtoms>
  152.3275  134.7302  160.0297 H   0  0  0  0  0  0  0  0  0  0  0  0  # atno 6907 bound_to 6896
  151.7730  133.3337  159.3458 H   0  0  0  0  0  0  0  0  0  0  0  0  # atno 6908 bound_to 6896
  150.7404  134.5933  159.6043 H   0  0  0  0  0  0  0  0  0  0  0  0  # atno 6909 bound_to 6896
  146.1047  139.5748  142.9391 H   0  0  0  0  0  0  0  0  0  0  0  0  # atno 7974 bound_to 7965
  156.2992  140.2521  156.3252 H   0  0  0  0  0  0  0  0  0  0  0  0  # atno 8008 bound_to 7997
  154.9197  140.0401  157.2010 H   0  0  0  0  0  0  0  0  0  0  0  0  # atno 8009 bound_to 7997
  154.8323  140.2877  155.5718 H   0  0  0  0  0  0  0  0  0  0  0  0  # atno 8010 bound_to 7997
  139.6992  144.7097  151.1214 H   0  0  0  0  0  0  0  0  0  0  0  0  # atno 10167 bound_to 10162
  157.4656  131.1076  150.9867 H   0  0  0  0  0  0  0  0  0  0  0  0  # atno 10718 bound_to 10713
  153.5229  135.7015  153.5722 H   0  0  0  0  0  0  0  0  0  0  0  0  # atno 10763 bound_to 10752
  153.3763  135.3931  155.1825 H   0  0  0  0  0  0  0  0  0  0  0  0  # atno 10764 bound_to 10752
  154.8693  135.3824  154.4720 H   0  0  0  0  0  0  0  0  0  0  0  0  # atno 10765 bound_to 10752
  140.8640  133.7768  156.0108 H   0  0  0  0  0  0  0  0  0  0  0  0  # atno 11005 bound_to 11000
  145.5785  141.0385  143.2135 LP  0  0  0  0  0  0  0  0  0  0  0  0  # atno 17320 bound_to 7965
  144.7461  139.7317  143.7292 LP  0  0  0  0  0  0  0  0  0  0  0  0  # atno 17321 bound_to 7965
  140.7705  143.5447  150.9272 LP  0  0  0  0  0  0  0  0  0  0  0  0  # atno 17342 bound_to 10162
  139.9128  143.6699  152.3112 LP  0  0  0  0  0  0  0  0  0  0  0  0  # atno 17343 bound_to 10162
  157.0649  130.5840  149.5392 LP  0  0  0  0  0  0  0  0  0  0  0  0  # atno 17370 bound_to 10713
  156.0049  130.5134  150.7793 LP  0  0  0  0  0  0  0  0  0  0  0  0  # atno 17371 bound_to 10713
  140.8650  134.2795  157.5217 LP  0  0  0  0  0  0  0  0  0  0  0  0  # atno 17394 bound_to 11000
  139.8708  134.9538  156.4156 LP  0  0  0  0  0  0  0  0  0  0  0  0  # atno 17395 bound_to 11000

$$$$
