AV-unprocessed.smi:3117|AV-procd|sdf|11882|dock4
  -GOLD-   2272017273D 1   1.00000     0.00000
 Structure written by MMmdl.
 36 36  0  0  0  0  0  0  0  0  1 V2000
  151.5090  141.4045  156.8364 C   0  0  0  0  0  0  0  0  0  0  0  0
  150.4613  142.1600  157.6730 C   0  0  2  0  0  0  0  0  0  0  0  0
  149.3395  142.4903  156.7848 N   0  0  0  0  0  0  0  0  0  0  0  0
  148.7685  141.3671  156.0355 C   0  0  0  0  0  0  0  0  0  0  0  0
  147.8270  141.8339  154.9050 C   0  0  0  0  0  0  0  0  0  0  0  0
  147.6157  140.6902  153.8992 C   0  0  0  0  0  0  0  0  0  0  0  0
  146.4678  142.3333  155.4314 C   0  0  0  0  0  0  0  0  0  0  0  0
  148.4608  142.8807  154.1954 O   0  0  0  0  0  0  0  0  0  0  0  0
  151.0596  143.4313  158.3507 C   0  0  2  0  0  0  0  0  0  0  0  0
  151.8211  144.3484  157.3722 C   0  0  0  0  0  0  0  0  0  0  0  0
  151.9193  143.1128  159.4840 N   0  0  0  0  0  0  0  0  0  0  0  0
  153.1092  142.4134  159.4790 C   0  0  0  0  0  0  0  0  0  0  0  0
  153.5661  142.3734  160.7651 C   0  0  0  0  0  0  0  0  0  0  0  0
  152.5754  143.0846  161.4977 C   0  0  0  0  0  0  0  0  0  0  0  0
  151.5928  143.5272  160.7302 N   0  0  0  0  0  0  0  0  0  0  0  0
  152.3025  140.9914  157.4587 H   0  0  0  0  0  0  0  0  0  0  0  0
  151.9680  142.0534  156.0897 H   0  0  0  0  0  0  0  0  0  0  0  0
  151.0560  140.5632  156.3107 H   0  0  0  0  0  0  0  0  0  0  0  0
  150.1190  141.4707  158.4463 H   0  0  0  0  0  0  0  0  0  0  0  0
  149.6308  143.2044  156.1243 H   0  0  0  0  0  0  0  0  0  0  0  0
  149.5714  140.7590  155.6167 H   0  0  0  0  0  0  0  0  0  0  0  0
  148.2082  140.7098  156.6950 H   0  0  0  0  0  0  0  0  0  0  0  0
  147.1291  139.8363  154.3721 H   0  0  0  0  0  0  0  0  0  0  0  0
  148.5638  140.3410  153.4875 H   0  0  0  0  0  0  0  0  0  0  0  0
  146.9891  141.0030  153.0630 H   0  0  0  0  0  0  0  0  0  0  0  0
  145.9623  141.5568  156.0068 H   0  0  0  0  0  0  0  0  0  0  0  0
  145.8068  142.6198  154.6128 H   0  0  0  0  0  0  0  0  0  0  0  0
  146.5761  143.2044  156.0783 H   0  0  0  0  0  0  0  0  0  0  0  0
  148.3129  143.6904  154.6595 H   0  0  0  0  0  0  0  0  0  0  0  0
  150.2282  144.0173  158.7461 H   0  0  0  0  0  0  0  0  0  0  0  0
  151.1546  144.7937  156.6340 H   0  0  0  0  0  0  0  0  0  0  0  0
  152.5994  143.8042  156.8362 H   0  0  0  0  0  0  0  0  0  0  0  0
  152.2979  145.1738  157.9022 H   0  0  0  0  0  0  0  0  0  0  0  0
  153.5296  142.0113  158.5690 H   0  0  0  0  0  0  0  0  0  0  0  0
  154.4709  141.9084  161.1267 H   0  0  0  0  0  0  0  0  0  0  0  0
  152.5424  143.2927  162.5569 H   0  0  0  0  0  0  0  0  0  0  0  0
  1  2  1  0  0  0  0
  1 16  1  0  0  0  0
  1 17  1  0  0  0  0
  1 18  1  0  0  0  0
  2  3  1  0  0  0  0
  2  9  1  0  0  0  0
  2 19  1  0  0  0  0
  3  4  1  0  0  0  0
  3 20  1  0  0  0  0
  4  5  1  0  0  0  0
  4 21  1  0  0  0  0
  4 22  1  0  0  0  0
  5  6  1  0  0  0  0
  5  7  1  0  0  0  0
  5  8  1  0  0  0  0
  6 23  1  0  0  0  0
  6 24  1  0  0  0  0
  6 25  1  0  0  0  0
  7 26  1  0  0  0  0
  7 27  1  0  0  0  0
  7 28  1  0  0  0  0
  8 29  1  0  0  0  0
  9 10  1  0  0  0  0
  9 11  1  0  0  0  0
  9 30  1  0  0  0  0
 10 31  1  0  0  0  0
 10 32  1  0  0  0  0
 10 33  1  0  0  0  0
 11 15  1  0  0  0  0
 11 12  1  0  0  0  0
 12 13  2  0  0  0  0
 12 34  1  0  0  0  0
 13 14  1  0  0  0  0
 13 35  1  0  0  0  0
 14 15  2  0  0  0  0
 14 36  1  0  0  0  0
M  END
> <s_m_source_file>
AV-unprocessed.smi

> <i_m_source_file_index>
3117

> <i_lp_mmshare_version>
43012

> <i_f3d_flags>
0

> <s_epik_input>
W0NIM11DKFtDSDNdKShbT0hdKVtDSDJdW05IXVtDQEBIXShbQ0gzXSlbQ0BIXShbQ0gzXSluMVtjSF1bY0hdW2NIXW4x

> <s_epik_cmdline>
J2VwaWtfcHl0aG9uJywgJy1waCcsICc3LjAnLCAnLXRuJywgJzgnLCAnLW1hJywgJzIwMCcsICctbWV0YWxfYmluZGluZycsICctaW1hZScsICc8aW5maWxlLm1hZT4nLCAnLW9tYWUnLCAnPG91dGZpbGUubWFlPic=

> <r_lp_tautomer_probability>
1

> <r_epik_Ionization_Penalty>
2.13419

> <r_epik_Ionization_Penalty_Charging>
0

> <r_epik_Ionization_Penalty_Neutral>
2.13419

> <r_epik_State_Penalty>
2.27148

> <r_epik_Charging_Adjusted_Penalty>
2.27148

> <i_epik_Tot_Q>
0

> <i_epik_Tot_abs_Q>
0

> <r_epik_Metal_State_Penalty>
2.27029

> <b_epik_Metal_Only>
0

> <s_lp_Force_Field>
OPLS_2005

> <r_lp_Energy>
19.9089

> <b_lp_Chiralities_Consistent>
1

> <s_lp_Variant>
AV-unprocessed.smi:3117-5

> <Gold.Version>
5.8.1

> <Gold.Id.Protein>
6NUR|6NUR_protein|mol2

> <Gold.PLP.Fitness>
41.6006

> <Gold.PLP.PLP>
-37.6929

> <Gold.PLP.part.hbond>
-3.8585

> <Gold.PLP.part.metal>
0.0000

> <Gold.PLP.part.buried>
-1.8755

> <Gold.PLP.part.nonpolar>
-29.4268

> <Gold.PLP.part.repulsive>
0.1127

> <Gold.PLP.ligand.clash>
0.0000

> <Gold.PLP.ligand.torsion>
0.4164

> <Gold.PLP.Chemscore.Hbond>
1.5440

> <Gold.PLP.Chemscore.CHOScore>
0.0000

> <Gold.PLP.Chemscore.Metal>
0.0000

> <Gold.Chemscore.Hbonds>
donor molecule, donor type, donor heavy atom, donor atom, acceptor molecule, acceptor atom, score
      L1  H     3    20       P1  8028  0.62
      L1  H     8    29       P1  8028  0.89

> <Gold.PLP.Chemscore.Internal.Correction>
0.1085

> <Gold.Rescore>
     Score         DG    S(hbond)    S(metal)    S(lipo)     H(rot)  DE(clash)    DE(int)     intcor
     16.18     -16.49       1.71        0.00      93.03       2.19       0.10       0.21       ----

> <Gold.Chemscore.Fitness>
16.1783

> <Gold.Chemscore.DG>
-16.4884

> <Gold.Chemscore.ZeroCoef>
-5.4800

> <Gold.Chemscore.Hbond>
1.7143

> <Gold.Chemscore.Metal>
0.0000

> <Gold.Chemscore.Lipo>
93.0283

> <Gold.Chemscore.Internal_Hbond>
0.0000

> <Gold.Chemscore.DEClash>
0.1035

> <Gold.Chemscore.DEInternal>
0.2066

> <Gold.Chemscore.Rot>
2.1882

> <Gold.Chemscore.Internal.Correction>
   9.000000E+99

> <Gold.Chemscore.Hbonds>
donor molecule, donor type, donor heavy atom, donor atom, acceptor molecule, acceptor atom, score
      L1  H     3    20       P1  8028  0.62
      L1  H     8    29       P1  8028  0.77
      P1  H  8011  8017       L1     8  0.01

> <Gold.Chemscore.Hbond.Weighted>
-5.7258

> <Gold.Chemscore.Metal.Weighted>
-0.0000

> <Gold.Chemscore.Lipo.Weighted>
-10.8843

> <Gold.Chemscore.Internal_Hbond.Weighted>
0.0000

> <Gold.Chemscore.DEClash.Weighted>
0.1035

> <Gold.Chemscore.DEInternal.Weighted>
0.2066

> <Gold.Chemscore.Rot.Weighted>
5.6018

> <Gold.Chemscore.Internal.Correction.Weighted>
   9.000000E+99

> <Gold.Protein.RotatedTorsions>
[ 6907 6896 6895 6894 ] final   40.09 input  -60.11 | X-H torsion
[ 7974 7965 7964 7962 ] final  -64.80 input  175.53 | X-H torsion
[ 8008 7997 7996 7995 ] final -162.44 input   59.86 | X-H torsion
[ 10167 10162 10161 10158 ] final   28.58 input  -65.29 | X-H torsion
[ 10718 10713 10712 10709 ] final -154.33 input   66.30 | X-H torsion
[ 10763 10752 10751 10750 ] final   34.19 input  -60.55 | X-H torsion
[ 11005 11000 10999 10996 ] final -170.45 input  -57.11 | X-H torsion

> <Gold.Protein.ActiveResidues>
 VAL166  LYS551  ARG553  GLY616  TRP617  ASP618  TYR619  PRO620  LYS621  CYS622 
 ASP623  PHE694  ASN695  SER759  ASP760  ASP761  ALA762  ILE779  LEU786  VAL792 
 PHE793  MET794  SER795  GLU796  ALA797  LYS798  CYS799  TRP800  GLU811  SER814 

> <Gold.Protein.RotatedAtoms>
  152.1780  134.8778  160.0528 H   0  0  0  0  0  0  0  0  0  0  0  0  # atno 6907 bound_to 6896
  151.9713  133.3722  159.4080 H   0  0  0  0  0  0  0  0  0  0  0  0  # atno 6908 bound_to 6896
  150.6912  134.4060  159.5184 H   0  0  0  0  0  0  0  0  0  0  0  0  # atno 6909 bound_to 6896
  145.7622  140.8855  143.0424 H   0  0  0  0  0  0  0  0  0  0  0  0  # atno 7974 bound_to 7965
  155.8068  140.0900  157.1926 H   0  0  0  0  0  0  0  0  0  0  0  0  # atno 8008 bound_to 7997
  154.3980  140.1462  156.3399 H   0  0  0  0  0  0  0  0  0  0  0  0  # atno 8009 bound_to 7997
  155.8406  140.3439  155.5632 H   0  0  0  0  0  0  0  0  0  0  0  0  # atno 8010 bound_to 7997
  140.4840  144.0572  150.6274 H   0  0  0  0  0  0  0  0  0  0  0  0  # atno 10167 bound_to 10162
  156.4979  130.8377  151.2597 H   0  0  0  0  0  0  0  0  0  0  0  0  # atno 10718 bound_to 10713
  153.0176  135.6367  154.1630 H   0  0  0  0  0  0  0  0  0  0  0  0  # atno 10763 bound_to 10752
  154.1368  135.2837  155.3173 H   0  0  0  0  0  0  0  0  0  0  0  0  # atno 10764 bound_to 10752
  154.6154  135.5542  153.7579 H   0  0  0  0  0  0  0  0  0  0  0  0  # atno 10765 bound_to 10752
  140.5193  134.5725  157.5043 H   0  0  0  0  0  0  0  0  0  0  0  0  # atno 11005 bound_to 11000
  144.6828  139.9739  143.7482 LP  0  0  0  0  0  0  0  0  0  0  0  0  # atno 17320 bound_to 7965
  146.0252  139.3286  143.0788 LP  0  0  0  0  0  0  0  0  0  0  0  0  # atno 17321 bound_to 7965
  140.3822  143.2797  152.0157 LP  0  0  0  0  0  0  0  0  0  0  0  0  # atno 17342 bound_to 10162
  139.4838  144.6146  151.7371 LP  0  0  0  0  0  0  0  0  0  0  0  0  # atno 17343 bound_to 10162
  157.7466  130.9991  150.2879 LP  0  0  0  0  0  0  0  0  0  0  0  0  # atno 17370 bound_to 10713
  156.3362  130.3808  149.7448 LP  0  0  0  0  0  0  0  0  0  0  0  0  # atno 17371 bound_to 10713
  139.9615  134.7445  156.0228 LP  0  0  0  0  0  0  0  0  0  0  0  0  # atno 17394 bound_to 11000
  141.1343  133.6579  156.3550 LP  0  0  0  0  0  0  0  0  0  0  0  0  # atno 17395 bound_to 11000

$$$$
