AV-unprocessed.smi:898|AV-procd|sdf|4086|dock5
  -GOLD-   22720 1573D 1   1.00000     0.00000
 Structure written by MMmdl.
 33 35  0  0  0  0  0  0  0  0  2 V2000
  151.8090  140.6124  156.3887 O   0  0  0  0  0  0  0  0  0  0  0  0
  150.9684  141.4244  155.9952 C   0  0  0  0  0  0  0  0  0  0  0  0
  150.0772  141.2345  154.9956 N   0  5  0  0  0  0  0  0  0  0  0  0
  148.7787  141.5171  155.1908 C   0  0  0  0  0  0  0  0  0  0  0  0
  148.2156  141.5072  156.4072 N   0  0  0  0  0  0  0  0  0  0  0  0
  146.8648  141.8226  156.3842 N   0  0  0  0  0  0  0  0  0  0  0  0
  146.4239  142.0604  155.1467 C   0  0  0  0  0  0  0  0  0  0  0  0
  145.0053  142.4234  154.8597 C   0  0  0  0  0  0  0  0  0  0  0  0
  144.6443  143.7027  154.1361 C   0  0  0  0  0  0  0  0  0  0  0  0
  144.3326  143.5541  155.6035 C   0  0  0  0  0  0  0  0  0  0  0  0
  147.6471  141.9058  153.8957 S   0  0  0  0  0  0  0  0  0  0  0  0
  150.8734  142.6275  156.5796 N   0  0  0  0  0  0  0  0  0  0  0  0
  151.6844  143.1130  157.6933 C   0  0  1  0  0  0  0  0  0  0  0  0
  151.1760  144.5045  158.1169 C   0  0  0  0  0  0  0  0  0  0  0  0
  152.0125  145.1243  159.2480 C   0  0  0  0  0  0  0  0  0  0  0  0
  151.9918  144.2713  160.5240 C   0  0  0  0  0  0  0  0  0  0  0  0
  152.7128  142.6342  160.2300 S   0  0  0  0  0  0  0  0  0  0  0  0
  151.6416  142.1095  158.8626 C   0  0  0  0  0  0  0  0  0  0  0  0
  144.4174  141.5337  154.6426 H   0  0  0  0  0  0  0  0  0  0  0  0
  145.4466  144.3863  153.8656 H   0  0  0  0  0  0  0  0  0  0  0  0
  143.8096  143.6660  153.4392 H   0  0  0  0  0  0  0  0  0  0  0  0
  143.2907  143.4185  155.8861 H   0  0  0  0  0  0  0  0  0  0  0  0
  144.9364  144.1264  156.3052 H   0  0  0  0  0  0  0  0  0  0  0  0
  150.1708  143.2576  156.2217 H   0  0  0  0  0  0  0  0  0  0  0  0
  152.7164  143.2173  157.3531 H   0  0  0  0  0  0  0  0  0  0  0  0
  151.1955  145.1747  157.2566 H   0  0  0  0  0  0  0  0  0  0  0  0
  150.1324  144.4401  158.4288 H   0  0  0  0  0  0  0  0  0  0  0  0
  153.0413  145.2641  158.9139 H   0  0  0  0  0  0  0  0  0  0  0  0
  151.6275  146.1187  159.4754 H   0  0  0  0  0  0  0  0  0  0  0  0
  152.5553  144.7635  161.3168 H   0  0  0  0  0  0  0  0  0  0  0  0
  150.9699  144.1505  160.8848 H   0  0  0  0  0  0  0  0  0  0  0  0
  150.6224  141.9986  159.2342 H   0  0  0  0  0  0  0  0  0  0  0  0
  151.9704  141.1224  158.5362 H   0  0  0  0  0  0  0  0  0  0  0  0
  1  2  2  0  0  0  0
  2  3  1  0  0  0  0
  2 12  1  0  0  0  0
  3  4  1  0  0  0  0
  4 11  1  0  0  0  0
  4  5  2  0  0  0  0
  5  6  1  0  0  0  0
  6  7  2  0  0  0  0
  7  8  1  0  0  0  0
  7 11  1  0  0  0  0
  8 10  1  0  0  0  0
  8  9  1  0  0  0  0
  8 19  1  0  0  0  0
  9 10  1  0  0  0  0
  9 20  1  0  0  0  0
  9 21  1  0  0  0  0
 10 22  1  0  0  0  0
 10 23  1  0  0  0  0
 12 13  1  0  0  0  0
 12 24  1  0  0  0  0
 13 18  1  0  0  0  0
 13 14  1  0  0  0  0
 13 25  1  0  0  0  0
 14 15  1  0  0  0  0
 14 26  1  0  0  0  0
 14 27  1  0  0  0  0
 15 16  1  0  0  0  0
 15 28  1  0  0  0  0
 15 29  1  0  0  0  0
 16 17  1  0  0  0  0
 16 30  1  0  0  0  0
 16 31  1  0  0  0  0
 17 18  1  0  0  0  0
 18 32  1  0  0  0  0
 18 33  1  0  0  0  0
M  CHG  1   3  -1
M  END
> <s_m_source_file>
AV-unprocessed.smi

> <i_m_source_file_index>
898

> <i_lp_mmshare_version>
43012

> <i_f3d_flags>
0

> <s_epik_input>
W0NIMl0xU1tDSDJdW0NIMl1bQ0gyXVtDQEhdMVtOSF1DKD1PKVtOSF1jMm5uYyhzMilbQ0hdM1tDSDJdW0NIMl0z

> <s_epik_cmdline>
J2VwaWtfcHl0aG9uJywgJy1waCcsICc3LjAnLCAnLXRuJywgJzgnLCAnLW1hJywgJzIwMCcsICctbWV0YWxfYmluZGluZycsICctaW1hZScsICc8aW5maWxlLm1hZT4nLCAnLW9tYWUnLCAnPG91dGZpbGUubWFlPic=

> <r_lp_tautomer_probability>
1

> <r_epik_Ionization_Penalty>
4.71411

> <r_epik_Ionization_Penalty_Charging>
4.5615

> <r_epik_Ionization_Penalty_Neutral>
0.152604

> <r_epik_State_Penalty>
4.56123

> <r_epik_Charging_Adjusted_Penalty>
9.12273

> <i_epik_Tot_Q>
-1

> <i_epik_Tot_abs_Q>
1

> <r_epik_Metal_State_Penalty>
0.850765

> <b_epik_Metal_Only>
1

> <s_lp_Force_Field>
OPLS_2005

> <r_lp_Energy>
0.516701

> <b_lp_Chiralities_Consistent>
1

> <s_lp_Variant>
AV-unprocessed.smi:898-4

> <Gold.Version>
5.8.1

> <Gold.Id.Protein>
6NUR|6NUR_protein|mol2

> <Gold.PLP.Fitness>
41.9099

> <Gold.PLP.PLP>
-39.6325

> <Gold.PLP.part.hbond>
-2.0000

> <Gold.PLP.part.metal>
0.0000

> <Gold.PLP.part.buried>
-4.5593

> <Gold.PLP.part.nonpolar>
-33.5360

> <Gold.PLP.part.repulsive>
0.5331

> <Gold.PLP.ligand.clash>
0.0850

> <Gold.PLP.ligand.torsion>
0.6686

> <Gold.PLP.Chemscore.Hbond>
1.1804

> <Gold.PLP.Chemscore.CHOScore>
0.0000

> <Gold.PLP.Chemscore.Metal>
0.0000

> <Gold.Chemscore.Hbonds>
donor molecule, donor type, donor heavy atom, donor atom, acceptor molecule, acceptor atom, score
      L1  H    12    24       P1  8028  1.00
      P1  H  7989  7998       L1     3  0.26

> <Gold.PLP.Chemscore.Internal.Correction>
0.1585

> <Gold.Rescore>
     Score         DG    S(hbond)    S(metal)    S(lipo)     H(rot)  DE(clash)    DE(int)     intcor
     15.02     -17.03       0.99        0.00      96.53       1.19       0.09       1.92       ----

> <Gold.Chemscore.Fitness>
15.0242

> <Gold.Chemscore.DG>
-17.0322

> <Gold.Chemscore.ZeroCoef>
-5.4800

> <Gold.Chemscore.Hbond>
0.9901

> <Gold.Chemscore.Metal>
0.0000

> <Gold.Chemscore.Lipo>
96.5331

> <Gold.Chemscore.Internal_Hbond>
0.0000

> <Gold.Chemscore.DEClash>
0.0865

> <Gold.Chemscore.DEInternal>
1.9215

> <Gold.Chemscore.Rot>
1.1911

> <Gold.Chemscore.Internal.Correction>
   9.000000E+99

> <Gold.Chemscore.Hbonds>
donor molecule, donor type, donor heavy atom, donor atom, acceptor molecule, acceptor atom, score
      L1  H    12    24       P1  8028  0.94
      P1  H  7989  7998       L1     3  0.03

> <Gold.Chemscore.Hbond.Weighted>
-3.3071

> <Gold.Chemscore.Metal.Weighted>
-0.0000

> <Gold.Chemscore.Lipo.Weighted>
-11.2944

> <Gold.Chemscore.Internal_Hbond.Weighted>
0.0000

> <Gold.Chemscore.DEClash.Weighted>
0.0865

> <Gold.Chemscore.DEInternal.Weighted>
1.9215

> <Gold.Chemscore.Rot.Weighted>
3.0492

> <Gold.Chemscore.Internal.Correction.Weighted>
   9.000000E+99

> <Gold.Protein.RotatedTorsions>
[ 6907 6896 6895 6894 ] final   52.56 input  -60.11 | X-H torsion
[ 7974 7965 7964 7962 ] final  103.69 input  175.53 | X-H torsion
[ 8008 7997 7996 7995 ] final -128.26 input   59.86 | X-H torsion
[ 10167 10162 10161 10158 ] final -101.40 input  -65.29 | X-H torsion
[ 10718 10713 10712 10709 ] final  -39.79 input   66.30 | X-H torsion
[ 10763 10752 10751 10750 ] final   59.20 input  -60.55 | X-H torsion
[ 11005 11000 10999 10996 ] final   95.28 input  -57.11 | X-H torsion

> <Gold.Protein.ActiveResidues>
 VAL166  LYS551  ARG553  GLY616  TRP617  ASP618  TYR619  PRO620  LYS621  CYS622 
 ASP623  PHE694  ASN695  SER759  ASP760  ASP761  ALA762  ILE779  LEU786  VAL792 
 PHE793  MET794  SER795  GLU796  ALA797  LYS798  CYS799  TRP800  GLU811  SER814 

> <Gold.Protein.RotatedAtoms>
  152.3246  134.7337  160.0304 H   0  0  0  0  0  0  0  0  0  0  0  0  # atno 6907 bound_to 6896
  151.7774  133.3341  159.3470 H   0  0  0  0  0  0  0  0  0  0  0  0  # atno 6908 bound_to 6896
  150.7388  134.5894  159.6024 H   0  0  0  0  0  0  0  0  0  0  0  0  # atno 6909 bound_to 6896
  145.3426  139.2458  143.3601 H   0  0  0  0  0  0  0  0  0  0  0  0  # atno 7974 bound_to 7965
  155.2598  140.0435  157.2996 H   0  0  0  0  0  0  0  0  0  0  0  0  # atno 8008 bound_to 7997
  154.5718  140.2376  155.8150 H   0  0  0  0  0  0  0  0  0  0  0  0  # atno 8009 bound_to 7997
  156.2128  140.2994  155.9779 H   0  0  0  0  0  0  0  0  0  0  0  0  # atno 8010 bound_to 7997
  140.2417  143.3534  152.0795 H   0  0  0  0  0  0  0  0  0  0  0  0  # atno 10167 bound_to 10162
  156.2885  130.4225  149.8263 H   0  0  0  0  0  0  0  0  0  0  0  0  # atno 10718 bound_to 10713
  152.9888  135.5580  154.5674 H   0  0  0  0  0  0  0  0  0  0  0  0  # atno 10763 bound_to 10752
  154.5081  135.2801  155.1367 H   0  0  0  0  0  0  0  0  0  0  0  0  # atno 10764 bound_to 10752
  154.2770  135.6352  153.5385 H   0  0  0  0  0  0  0  0  0  0  0  0  # atno 10765 bound_to 10752
  139.8790  134.8891  156.3988 H   0  0  0  0  0  0  0  0  0  0  0  0  # atno 11005 bound_to 11000
  146.3001  140.4026  142.8707 LP  0  0  0  0  0  0  0  0  0  0  0  0  # atno 17320 bound_to 7965
  144.8779  140.7360  143.6005 LP  0  0  0  0  0  0  0  0  0  0  0  0  # atno 17321 bound_to 7965
  139.5075  144.6833  151.5952 LP  0  0  0  0  0  0  0  0  0  0  0  0  # atno 17342 bound_to 10162
  140.6108  143.9439  150.6452 LP  0  0  0  0  0  0  0  0  0  0  0  0  # atno 17343 bound_to 10162
  156.5685  130.8414  151.3349 LP  0  0  0  0  0  0  0  0  0  0  0  0  # atno 17370 bound_to 10713
  157.7335  130.9732  150.1983 LP  0  0  0  0  0  0  0  0  0  0  0  0  # atno 17371 bound_to 10713
  140.9281  133.7598  155.9990 LP  0  0  0  0  0  0  0  0  0  0  0  0  # atno 17394 bound_to 11000
  140.8362  134.3120  157.5330 LP  0  0  0  0  0  0  0  0  0  0  0  0  # atno 17395 bound_to 11000

$$$$
