#       Name:                AV-unprocessed.smi:1801
#       Creating user name   scv26
#       Creation time:       Fri Mar 27 08:52:12 2020


#       File generated by GOLD software.
#

@<TRIPOS>MOLECULE
AV-unprocessed.smi:1801
    42    43     1
SMALL
NO_CHARGES


@<TRIPOS>ATOM
      1 ****        -0.0975  -1.4846   2.9845 C.3            1 S1                 0.0000
      2 ****         0.3494  -0.8427   1.6601 C.3            1 S1                 0.0000
      3 ****         1.8938  -0.7814   1.5996 C.3            1 S1                 0.0000
      4 ****         2.4097  -0.2047   0.3602 N.am           1 S1                 0.0000
      5 ****         2.3331  -0.7708  -0.8531 C.2            1 S1                 0.0000
      6 ****         1.7985  -1.8601  -1.0609 O.2            1 S1                 0.0000
      7 ****         2.9089   0.0045  -1.7886 N.am           1 S1                 0.0000
      8 ****         2.9853  -0.2173  -3.1892 C.2            1 S1                 0.0000
      9 ****         2.4098  -1.2592  -3.8098 N.2            1 S1                 0.0000
     10 ****         2.6314  -1.2339  -5.1807 N.2            1 S1                 0.0000
     11 ****         3.3626  -0.1750  -5.5398 C.2            1 S1                 0.0000
     12 ****         3.8488   0.8979  -4.2384 S.3            1 S1                 0.0000
     13 ****        -0.3048   0.5446   1.4584 C.3            1 S1                 0.0000
     14 ****        -1.7752   0.4595   1.2905 N.4            1 S1                 1.0000
     15 ****        -2.4719   1.7567   1.3963 C.3            1 S1                 0.0000
     16 ****        -3.7957   1.5510   0.6681 C.3            1 S1                 0.0000
     17 ****        -3.4060   0.6449  -0.4956 C.3            1 S1                 0.0000
     18 ****        -2.2329  -0.1894   0.0371 C.3            1 S1                 0.0000
     19 ****         0.1929  -0.8739   3.8400 H              1 S1                 0.0000
     20 ****         0.3521  -2.4697   3.1132 H              1 S1                 0.0000
     21 ****        -1.1790  -1.6166   3.0212 H              1 S1                 0.0000
     22 ****         0.0182  -1.5032   0.8588 H              1 S1                 0.0000
     23 ****         2.2729  -0.1815   2.4276 H              1 S1                 0.0000
     24 ****         2.3164  -1.7795   1.7263 H              1 S1                 0.0000
     25 ****         2.8750   0.6880   0.4367 H              1 S1                 0.0000
     26 ****         3.3366   0.8588  -1.4630 H              1 S1                 0.0000
     27 ****         3.6157  -0.0233  -6.5786 H              1 S1                 0.0000
     28 ****        -0.0786   1.1766   2.3185 H              1 S1                 0.0000
     29 ****         0.1075   1.0541   0.5869 H              1 S1                 0.0000
     30 ****        -2.6057   2.0589   2.4352 H              1 S1                 0.0000
     31 ****        -1.8918   2.5302   0.8897 H              1 S1                 0.0000
     32 ****        -4.5029   1.0363   1.3203 H              1 S1                 0.0000
     33 ****        -4.2530   2.4864   0.3441 H              1 S1                 0.0000
     34 ****        -4.2366   0.0293  -0.8430 H              1 S1                 0.0000
     35 ****        -3.0705   1.2537  -1.3367 H              1 S1                 0.0000
     36 ****        -1.4390  -0.2470  -0.7095 H              1 S1                 0.0000
     37 ****        -2.5456  -1.2090   0.2645 H              1 S1                 0.0000
     38 ****        -2.1305  -0.1071   2.0476 H              1 S1                 0.0000
     39 ****         1.3923  -2.3705  -0.3029 LP             1 S1                 0.0000
     40 ****         1.7704  -2.2346  -1.9877 LP             1 S1                 0.0000
     41 ****         1.8841  -1.9691  -3.3409 LP             1 S1                 0.0000
     42 ****         2.2867  -1.9222  -5.8190 LP             1 S1                 0.0000
@<TRIPOS>BOND
    1    1    2 1     
    2    1   19 1     
    3    1   20 1     
    4    1   21 1     
    5    2    3 1     
    6    2   13 1     
    7    2   22 1     
    8    3    4 1     
    9    3   23 1     
   10    3   24 1     
   11    4    5 am    
   12    4   25 1     
   13    5    6 2     
   14    5    7 am    
   15    7    8 1     
   16    7   26 1     
   17    8   12 1     
   18    8    9 2     
   19    9   10 1     
   20   10   11 2     
   21   11   12 1     
   22   11   27 1     
   23   13   14 1     
   24   13   28 1     
   25   13   29 1     
   26   14   18 1     
   27   14   15 1     
   28   14   38 1     
   29   15   16 1     
   30   15   30 1     
   31   15   31 1     
   32   16   17 1     
   33   16   32 1     
   34   16   33 1     
   35   17   18 1     
   36   17   34 1     
   37   17   35 1     
   38   18   36 1     
   39   18   37 1     
   40    6   39 1     
   41    6   40 1     
   42    9   41 1     
   43   10   42 1     
@<TRIPOS>SUBSTRUCTURE
      1 S1             1
@<TRIPOS>SET
LONE_PAIRS      STATIC     ATOMS    <user>   **** ""
4 39 40 41 42
DONOR_HYDROGENS      STATIC     ATOMS    <user>   **** ""
3 25 26 38
ATOM$BLUE        STATIC     ATOMS    COLORGROUP SYSTEM
4 39 40 41 42
ATOM$RED        STATIC     ATOMS    COLORGROUP SYSTEM
3 25 26 38
