AV-unprocessed.smi:103|AV-procd|sdf|985|dock8
  -GOLD-   2262017553D 1   1.00000     0.00000
 Structure written by MMmdl.
 53 55  0  0  0  0  0  0  0  0  1 V2000
  151.0189  145.1228  159.3846 C   0  0  0  0  0  0  0  0  0  0  0  0
  151.5619  143.8161  159.9481 C   0  0  0  0  0  0  0  0  0  0  0  0
  151.2843  143.4441  161.0884 O   0  0  0  0  0  0  0  0  0  0  0  0
  152.3451  143.1655  159.0686 O   0  0  0  0  0  0  0  0  0  0  0  0
  153.1052  142.0359  159.4774 C   0  0  0  0  0  0  0  0  0  0  0  0
  152.5556  140.7444  158.8439 C   0  0  2  0  0  0  0  0  0  0  0  0
  151.2941  140.4068  159.4051 O   0  0  0  0  0  0  0  0  0  0  0  0
  151.0644  139.0468  159.2438 C   0  0  1  0  0  0  0  0  0  0  0  0
  150.3346  138.8329  157.9318 N   0  0  0  0  0  0  0  0  0  0  0  0
  149.2884  137.9596  157.6919 C   0  0  0  0  0  0  0  0  0  0  0  0
  148.5702  136.8037  158.8564 S   0  0  0  0  0  0  0  0  0  0  0  0
  148.1140  135.3966  157.7634 C   0  0  0  0  0  0  0  0  0  0  0  0
  149.6404  136.3841  159.7741 O   0  0  0  0  0  0  0  0  0  0  0  0
  147.3439  137.4276  159.3783 O   0  0  0  0  0  0  0  0  0  0  0  0
  148.8351  137.8955  156.4711 N   0  0  0  0  0  0  0  0  0  0  0  0
  149.5598  138.8759  155.8164 C   0  0  0  0  0  0  0  0  0  0  0  0
  149.5576  139.3661  154.4860 C   0  0  0  0  0  0  0  0  0  0  0  0
  148.7480  138.8860  153.5316 N   0  0  0  0  0  0  0  0  0  0  0  0
  150.4081  140.3663  154.1625 N   0  0  0  0  0  0  0  0  0  0  0  0
  151.2212  140.8627  155.0980 C   0  0  0  0  0  0  0  0  0  0  0  0
  151.3366  140.5019  156.3776 N   0  0  0  0  0  0  0  0  0  0  0  0
  150.4834  139.4887  156.7141 C   0  0  0  0  0  0  0  0  0  0  0  0
  152.4367  138.3654  159.3824 C   0  0  1  0  0  0  0  0  0  0  0  0
  152.6023  137.2224  158.5519 O   0  0  0  0  0  0  0  0  0  0  0  0
  153.7743  136.5670  158.5265 C   0  0  0  0  0  0  0  0  0  0  0  0
  153.7864  135.4411  157.5019 C   0  0  0  0  0  0  0  0  0  0  0  0
  154.7501  136.7999  159.2398 O   0  0  0  0  0  0  0  0  0  0  0  0
  153.4264  139.4842  159.0443 C   0  0  2  0  0  0  0  0  0  0  0  0
  154.3560  139.6403  160.1124 O   0  0  0  0  0  0  0  0  0  0  0  0
  155.6793  139.5796  159.8751 C   0  0  0  0  0  0  0  0  0  0  0  0
  156.5062  139.7256  161.1455 C   0  0  0  0  0  0  0  0  0  0  0  0
  156.2121  139.4180  158.7772 O   0  0  0  0  0  0  0  0  0  0  0  0
  151.8358  145.7540  159.0345 H   0  0  0  0  0  0  0  0  0  0  0  0
  150.4640  145.6682  160.1482 H   0  0  0  0  0  0  0  0  0  0  0  0
  150.3496  144.9240  158.5474 H   0  0  0  0  0  0  0  0  0  0  0  0
  154.1243  142.1997  159.1269 H   0  0  0  0  0  0  0  0  0  0  0  0
  153.1593  141.9543  160.5642 H   0  0  0  0  0  0  0  0  0  0  0  0
  152.4211  140.9150  157.7767 H   0  0  0  0  0  0  0  0  0  0  0  0
  150.3769  138.6772  159.9999 H   0  0  0  0  0  0  0  0  0  0  0  0
  147.6370  134.6169  158.3566 H   0  0  0  0  0  0  0  0  0  0  0  0
  149.0065  134.9940  157.2866 H   0  0  0  0  0  0  0  0  0  0  0  0
  147.4210  135.7439  156.9972 H   0  0  0  0  0  0  0  0  0  0  0  0
  148.1019  138.1408  153.7487 H   0  0  0  0  0  0  0  0  0  0  0  0
  148.7816  139.2730  152.5996 H   0  0  0  0  0  0  0  0  0  0  0  0
  151.8744  141.6603  154.7759 H   0  0  0  0  0  0  0  0  0  0  0  0
  152.5595  138.0923  160.4322 H   0  0  0  0  0  0  0  0  0  0  0  0
  153.2920  135.7559  156.5825 H   0  0  0  0  0  0  0  0  0  0  0  0
  153.2643  134.5688  157.8956 H   0  0  0  0  0  0  0  0  0  0  0  0
  154.8105  135.1539  157.2618 H   0  0  0  0  0  0  0  0  0  0  0  0
  153.9628  139.2779  158.1169 H   0  0  0  0  0  0  0  0  0  0  0  0
  156.0371  140.4327  161.8299 H   0  0  0  0  0  0  0  0  0  0  0  0
  157.5069  140.0879  160.9091 H   0  0  0  0  0  0  0  0  0  0  0  0
  156.5968  138.7630  161.6487 H   0  0  0  0  0  0  0  0  0  0  0  0
  1  2  1  0  0  0  0
  1 33  1  0  0  0  0
  1 34  1  0  0  0  0
  1 35  1  0  0  0  0
  2  3  2  0  0  0  0
  2  4  1  0  0  0  0
  4  5  1  0  0  0  0
  5  6  1  0  0  0  0
  5 36  1  0  0  0  0
  5 37  1  0  0  0  0
  6 28  1  0  0  0  0
  6  7  1  0  0  0  0
  6 38  1  0  0  0  0
  7  8  1  0  0  0  0
  8  9  1  0  0  0  0
  8 23  1  0  0  0  0
  8 39  1  0  0  0  0
  9 22  1  0  0  0  0
  9 10  1  0  0  0  0
 10 11  1  0  0  0  0
 10 15  2  0  0  0  0
 11 12  1  0  0  0  0
 11 13  2  0  0  0  0
 11 14  2  0  0  0  0
 12 40  1  0  0  0  0
 12 41  1  0  0  0  0
 12 42  1  0  0  0  0
 15 16  1  0  0  0  0
 16 22  2  0  0  0  0
 16 17  1  0  0  0  0
 17 18  1  0  0  0  0
 17 19  2  0  0  0  0
 18 43  1  0  0  0  0
 18 44  1  0  0  0  0
 19 20  1  0  0  0  0
 20 21  2  0  0  0  0
 20 45  1  0  0  0  0
 21 22  1  0  0  0  0
 23 24  1  0  0  0  0
 23 28  1  0  0  0  0
 23 46  1  0  0  0  0
 24 25  1  0  0  0  0
 25 26  1  0  0  0  0
 25 27  2  0  0  0  0
 26 47  1  0  0  0  0
 26 48  1  0  0  0  0
 26 49  1  0  0  0  0
 28 29  1  0  0  0  0
 28 50  1  0  0  0  0
 29 30  1  0  0  0  0
 30 31  1  0  0  0  0
 30 32  2  0  0  0  0
 31 51  1  0  0  0  0
 31 52  1  0  0  0  0
 31 53  1  0  0  0  0
M  END
> <s_m_source_file>
AV-unprocessed.smi

> <i_m_source_file_index>
103

> <i_lp_mmshare_version>
43012

> <i_f3d_flags>
0

> <s_epik_input>
W0NIM11DKD1PKU9bQ0gyXVtDQEBIXTFPW0NASF0oW0NAQEhdKE9DKD1PKVtDSDNdKVtDQEhdMU9DKD1PKVtDSDNdKW4oYyhuMilTKD1PKSg9TylbQ0gzXSljKGMyMyluW2NIXW5jM1tOSDJd

> <s_epik_cmdline>
J2VwaWtfcHl0aG9uJywgJy1waCcsICc3LjAnLCAnLXRuJywgJzgnLCAnLW1hJywgJzIwMCcsICctbWV0YWxfYmluZGluZycsICctaW1hZScsICc8aW5maWxlLm1hZT4nLCAnLW9tYWUnLCAnPG91dGZpbGUubWFlPic=

> <r_lp_tautomer_probability>
1

> <r_epik_Ionization_Penalty>
1.51338e-05

> <r_epik_Ionization_Penalty_Charging>
0

> <r_epik_Ionization_Penalty_Neutral>
1.51338e-05

> <r_epik_State_Penalty>
-0

> <r_epik_Charging_Adjusted_Penalty>
0

> <i_epik_Tot_Q>
0

> <i_epik_Tot_abs_Q>
0

> <r_epik_Metal_State_Penalty>
-0

> <b_epik_Metal_Only>
0

> <s_epik_Chemistry_Notes>
This compound has an ester and may undergo hydrolysis at high or low pH. This compound contains an acetal/aminal-like group ( X-CH(R)-Y where X, Y are N, S, or O) that may be acid/base labile, releasing an aldehyde.

> <s_lp_Force_Field>
OPLS_2005

> <r_lp_Energy>
17.8584

> <b_lp_Chiralities_Consistent>
1

> <s_lp_Variant>
AV-unprocessed.smi:103-9

> <Gold.Version>
5.8.1

> <Gold.Id.Protein>
6NUR|6NUR_protein|mol2

> <Gold.PLP.Fitness>
38.3379

> <Gold.PLP.PLP>
-30.9009

> <Gold.PLP.part.hbond>
-6.1271

> <Gold.PLP.part.metal>
0.0000

> <Gold.PLP.part.buried>
-1.5563

> <Gold.PLP.part.nonpolar>
-23.6194

> <Gold.PLP.part.repulsive>
0.8629

> <Gold.PLP.ligand.clash>
0.0000

> <Gold.PLP.ligand.torsion>
3.0101

> <Gold.PLP.Chemscore.Hbond>
3.7520

> <Gold.PLP.Chemscore.CHOScore>
0.0000

> <Gold.PLP.Chemscore.Metal>
0.0000

> <Gold.Chemscore.Hbonds>
donor molecule, donor type, donor heavy atom, donor atom, acceptor molecule, acceptor atom, score
      L1  H    18    44       P1  7957  1.00
      P1  H  6896  6909       L1    13  1.00
      P1  H  6933  6945       L1     3  0.04
      P1  H  6934  6947       L1    14  0.41
      P1  H  7997  8009       L1    32  1.00

> <Gold.PLP.Chemscore.Internal.Correction>
2.2011

> <Gold.Rescore>
     Score         DG    S(hbond)    S(metal)    S(lipo)     H(rot)  DE(clash)    DE(int)     intcor
      7.84     -14.25       4.07        0.00      51.80       4.25       2.14       4.27       ----

> <Gold.Chemscore.Fitness>
7.8382

> <Gold.Chemscore.DG>
-14.2489

> <Gold.Chemscore.ZeroCoef>
-5.4800

> <Gold.Chemscore.Hbond>
4.0651

> <Gold.Chemscore.Metal>
0.0000

> <Gold.Chemscore.Lipo>
51.7962

> <Gold.Chemscore.Internal_Hbond>
0.0000

> <Gold.Chemscore.DEClash>
2.1432

> <Gold.Chemscore.DEInternal>
4.2676

> <Gold.Chemscore.Rot>
4.2456

> <Gold.Chemscore.Internal.Correction>
   9.000000E+99

> <Gold.Chemscore.Hbonds>
donor molecule, donor type, donor heavy atom, donor atom, acceptor molecule, acceptor atom, score
      L1  H    18    44       P1  7957  0.98
      P1  H  6896  6909       L1    13  0.98
      P1  H  6933  6945       L1     3  0.05
      P1  H  6934  6947       L1    14  0.42
      P1  H  7997  8009       L1    32  0.94

> <Gold.Chemscore.Hbond.Weighted>
-13.5774

> <Gold.Chemscore.Metal.Weighted>
-0.0000

> <Gold.Chemscore.Lipo.Weighted>
-6.0602

> <Gold.Chemscore.Internal_Hbond.Weighted>
0.0000

> <Gold.Chemscore.DEClash.Weighted>
2.1432

> <Gold.Chemscore.DEInternal.Weighted>
4.2676

> <Gold.Chemscore.Rot.Weighted>
10.8687

> <Gold.Chemscore.Internal.Correction.Weighted>
   9.000000E+99

> <Gold.Protein.RotatedTorsions>
[ 6907 6896 6895 6894 ] final   89.98 input  -60.11 | X-H torsion
[ 7974 7965 7964 7962 ] final   17.50 input  175.53 | X-H torsion
[ 8008 7997 7996 7995 ] final  105.39 input   59.86 | X-H torsion
[ 10167 10162 10161 10158 ] final  -38.69 input  -65.29 | X-H torsion
[ 10718 10713 10712 10709 ] final -176.24 input   66.30 | X-H torsion
[ 10763 10752 10751 10750 ] final  118.71 input  -60.55 | X-H torsion
[ 11005 11000 10999 10996 ] final  -16.85 input  -57.11 | X-H torsion

> <Gold.Protein.ActiveResidues>
 VAL166  LYS551  ARG553  GLY616  TRP617  ASP618  TYR619  PRO620  LYS621  CYS622 
 ASP623  PHE694  ASN695  SER759  ASP760  ASP761  ALA762  ILE779  LEU786  VAL792 
 PHE793  MET794  SER795  GLU796  ALA797  LYS798  CYS799  TRP800  GLU811  SER814 

> <Gold.Protein.RotatedAtoms>
  152.5441  134.1882  159.8663 H   0  0  0  0  0  0  0  0  0  0  0  0  # atno 6907 bound_to 6896
  151.1880  133.4678  159.2602 H   0  0  0  0  0  0  0  0  0  0  0  0  # atno 6908 bound_to 6896
  151.1112  135.0039  159.8550 H   0  0  0  0  0  0  0  0  0  0  0  0  # atno 6909 bound_to 6896
  146.2216  139.8593  142.8607 H   0  0  0  0  0  0  0  0  0  0  0  0  # atno 7974 bound_to 7965
  156.1655  140.3131  155.8881 H   0  0  0  0  0  0  0  0  0  0  0  0  # atno 8008 bound_to 7997
  155.3694  140.0481  157.3062 H   0  0  0  0  0  0  0  0  0  0  0  0  # atno 8009 bound_to 7997
  154.5188  140.2191  155.9025 H   0  0  0  0  0  0  0  0  0  0  0  0  # atno 8010 bound_to 7997
  140.7085  143.3261  151.2676 H   0  0  0  0  0  0  0  0  0  0  0  0  # atno 10167 bound_to 10162
  156.8118  130.9589  151.3115 H   0  0  0  0  0  0  0  0  0  0  0  0  # atno 10718 bound_to 10713
  153.5718  135.3500  155.2841 H   0  0  0  0  0  0  0  0  0  0  0  0  # atno 10763 bound_to 10752
  154.8681  135.4161  154.2716 H   0  0  0  0  0  0  0  0  0  0  0  0  # atno 10764 bound_to 10752
  153.3484  135.7054  153.6879 H   0  0  0  0  0  0  0  0  0  0  0  0  # atno 10765 bound_to 10752
  140.8109  133.8141  155.9562 H   0  0  0  0  0  0  0  0  0  0  0  0  # atno 11005 bound_to 11000
  145.2720  141.0112  143.3766 LP  0  0  0  0  0  0  0  0  0  0  0  0  # atno 17320 bound_to 7965
  144.9216  139.4405  143.6538 LP  0  0  0  0  0  0  0  0  0  0  0  0  # atno 17321 bound_to 7965
  139.6730  143.9987  152.2764 LP  0  0  0  0  0  0  0  0  0  0  0  0  # atno 17342 bound_to 10162
  139.9592  144.6569  150.8096 LP  0  0  0  0  0  0  0  0  0  0  0  0  # atno 17343 bound_to 10162
  157.6502  130.8878  149.9618 LP  0  0  0  0  0  0  0  0  0  0  0  0  # atno 17370 bound_to 10713
  156.1040  130.3654  150.0167 LP  0  0  0  0  0  0  0  0  0  0  0  0  # atno 17371 bound_to 10713
  140.9199  134.2155  157.4933 LP  0  0  0  0  0  0  0  0  0  0  0  0  # atno 17394 bound_to 11000
  139.8714  134.9787  156.5009 LP  0  0  0  0  0  0  0  0  0  0  0  0  # atno 17395 bound_to 11000

$$$$
