AV-unprocessed.smi:2588|AV-procd|sdf|10149|dock10
  -GOLD-   2272014163D 1   1.00000     0.00000
 Structure written by MMmdl.
 40 41  0  0  0  0  0  0  0  0  2 V2000
  152.3785  142.8049  158.8649 C   0  0  0  0  0  0  0  0  0  0  0  0
  151.6164  143.5914  157.7773 C   0  0  0  0  0  0  0  0  0  0  0  0
  151.0793  144.8936  158.4090 C   0  0  0  0  0  0  0  0  0  0  0  0
  150.5354  142.7771  157.1297 N   0  3  2  0  0  0  0  0  0  0  0  0
  149.5384  142.2369  158.1016 C   0  0  0  0  0  0  0  0  0  0  0  0
  148.3902  141.4801  157.4066 C   0  0  0  0  0  0  0  0  0  0  0  0
  148.9035  140.3500  156.5049 C   0  0  2  0  0  0  0  0  0  0  0  0
  149.4673  139.2708  157.3144 N   0  0  0  0  0  0  0  0  0  0  0  0
  148.7991  138.5469  158.2250 C   0  0  0  0  0  0  0  0  0  0  0  0
  147.6208  138.7481  158.5190 O   0  0  0  0  0  0  0  0  0  0  0  0
  149.5866  137.4267  158.9125 C   0  0  0  0  0  0  0  0  0  0  0  0
  148.7302  136.6021  159.7650 N   0  0  0  0  0  0  0  0  0  0  0  0
  148.1095  137.1935  160.8208 N   0  0  0  0  0  0  0  0  0  0  0  0
  147.3895  136.3558  161.4708 C   0  0  0  0  0  0  0  0  0  0  0  0
  147.3816  134.6953  160.8617 S   0  0  0  0  0  0  0  0  0  0  0  0
  148.4953  135.2421  159.5784 C   0  0  0  0  0  0  0  0  0  0  0  0
  148.9433  134.5006  158.7046 O   0  0  0  0  0  0  0  0  0  0  0  0
  149.9322  140.9393  155.5239 C   0  0  0  0  0  0  0  0  0  0  0  0
  151.0607  141.6906  156.2513 C   0  0  0  0  0  0  0  0  0  0  0  0
  153.0686  143.4526  159.4067 H   0  0  0  0  0  0  0  0  0  0  0  0
  152.9887  142.0042  158.4485 H   0  0  0  0  0  0  0  0  0  0  0  0
  151.6950  142.3714  159.5956 H   0  0  0  0  0  0  0  0  0  0  0  0
  152.3346  143.8696  157.0045 H   0  0  0  0  0  0  0  0  0  0  0  0
  151.8560  145.4017  158.9814 H   0  0  0  0  0  0  0  0  0  0  0  0
  150.2500  144.6942  159.0888 H   0  0  0  0  0  0  0  0  0  0  0  0
  150.7449  145.6120  157.6610 H   0  0  0  0  0  0  0  0  0  0  0  0
  150.0446  141.5864  158.8165 H   0  0  0  0  0  0  0  0  0  0  0  0
  149.0806  143.0402  158.6758 H   0  0  0  0  0  0  0  0  0  0  0  0
  147.6999  141.0828  158.1522 H   0  0  0  0  0  0  0  0  0  0  0  0
  147.8118  142.1836  156.8061 H   0  0  0  0  0  0  0  0  0  0  0  0
  148.0618  139.9431  155.9418 H   0  0  0  0  0  0  0  0  0  0  0  0
  150.4380  139.0420  157.1560 H   0  0  0  0  0  0  0  0  0  0  0  0
  150.0690  136.7889  158.1695 H   0  0  0  0  0  0  0  0  0  0  0  0
  150.3885  137.8771  159.4997 H   0  0  0  0  0  0  0  0  0  0  0  0
  146.7894  136.5728  162.3544 H   0  0  0  0  0  0  0  0  0  0  0  0
  150.3552  140.1596  154.8899 H   0  0  0  0  0  0  0  0  0  0  0  0
  149.4256  141.6284  154.8467 H   0  0  0  0  0  0  0  0  0  0  0  0
  151.7141  142.0944  155.4807 H   0  0  0  0  0  0  0  0  0  0  0  0
  151.6602  140.9973  156.8436 H   0  0  0  0  0  0  0  0  0  0  0  0
  150.0295  143.4090  156.5254 H   0  0  0  0  0  0  0  0  0  0  0  0
  1  2  1  0  0  0  0
  1 20  1  0  0  0  0
  1 21  1  0  0  0  0
  1 22  1  0  0  0  0
  2  3  1  0  0  0  0
  2  4  1  0  0  0  0
  2 23  1  0  0  0  0
  3 24  1  0  0  0  0
  3 25  1  0  0  0  0
  3 26  1  0  0  0  0
  4 19  1  0  0  0  0
  4  5  1  0  0  0  0
  4 40  1  0  0  0  0
  5  6  1  0  0  0  0
  5 27  1  0  0  0  0
  5 28  1  0  0  0  0
  6  7  1  0  0  0  0
  6 29  1  0  0  0  0
  6 30  1  0  0  0  0
  7  8  1  0  0  0  0
  7 18  1  0  0  0  0
  7 31  1  0  0  0  0
  8  9  1  0  0  0  0
  8 32  1  0  0  0  0
  9 10  2  0  0  0  0
  9 11  1  0  0  0  0
 11 12  1  0  0  0  0
 11 33  1  0  0  0  0
 11 34  1  0  0  0  0
 12 16  1  0  0  0  0
 12 13  1  0  0  0  0
 13 14  2  0  0  0  0
 14 15  1  0  0  0  0
 14 35  1  0  0  0  0
 15 16  1  0  0  0  0
 16 17  2  0  0  0  0
 18 19  1  0  0  0  0
 18 36  1  0  0  0  0
 18 37  1  0  0  0  0
 19 38  1  0  0  0  0
 19 39  1  0  0  0  0
M  CHG  1   4   1
M  END
> <s_m_source_file>
AV-unprocessed.smi

> <i_m_source_file_index>
2588

> <i_lp_mmshare_version>
43012

> <i_f3d_flags>
0

> <s_epik_input>
W0NIM11bQ0hdKFtDSDNdKU4xW0NIMl1bQ0gyXVtDSF0oW0NIMl1bQ0gyXTEpW05IXUMoPU8pW0NIMl1uMm5bY0hdc2MyPU8=

> <s_epik_cmdline>
J2VwaWtfcHl0aG9uJywgJy1waCcsICc3LjAnLCAnLXRuJywgJzgnLCAnLW1hJywgJzIwMCcsICctbWV0YWxfYmluZGluZycsICctaW1hZScsICc8aW5maWxlLm1hZT4nLCAnLW9tYWUnLCAnPG91dGZpbGUubWFlPic=

> <r_lp_tautomer_probability>
1

> <r_epik_Ionization_Penalty>
0.00923155

> <r_epik_Ionization_Penalty_Charging>
0.00923117

> <r_epik_Ionization_Penalty_Neutral>
3.88423e-07

> <r_epik_State_Penalty>
0.0069994

> <r_epik_Charging_Adjusted_Penalty>
0.0162306

> <i_epik_Tot_Q>
1

> <i_epik_Tot_abs_Q>
1

> <r_epik_Metal_State_Penalty>
0.0069994

> <b_epik_Metal_Only>
0

> <s_lp_Force_Field>
OPLS_2005

> <r_lp_Energy>
20.7245

> <b_lp_Chiralities_Consistent>
1

> <s_lp_Variant>
AV-unprocessed.smi:2588-2

> <Gold.Version>
5.8.1

> <Gold.Id.Protein>
6NUR|6NUR_protein|mol2

> <Gold.PLP.Fitness>
46.3469

> <Gold.PLP.PLP>
-32.7847

> <Gold.PLP.part.hbond>
-5.0000

> <Gold.PLP.part.metal>
0.0000

> <Gold.PLP.part.buried>
-4.5745

> <Gold.PLP.part.nonpolar>
-23.8028

> <Gold.PLP.part.repulsive>
0.0686

> <Gold.PLP.ligand.clash>
0.0000

> <Gold.PLP.ligand.torsion>
0.1365

> <Gold.PLP.Chemscore.Hbond>
4.6000

> <Gold.PLP.Chemscore.CHOScore>
0.0000

> <Gold.PLP.Chemscore.Metal>
0.0000

> <Gold.Chemscore.Hbonds>
donor molecule, donor type, donor heavy atom, donor atom, acceptor molecule, acceptor atom, score
      L1  H     4    40       P1  8028  2.00
      P1  H  6896  6908       L1    17  1.00
      P1  H  6931  6943       L1    13  0.88
      P1  H  6934  6947       L1    13  0.67

> <Gold.PLP.Chemscore.Internal.Correction>
0.0353

> <Gold.Rescore>
     Score         DG    S(hbond)    S(metal)    S(lipo)     H(rot)  DE(clash)    DE(int)     intcor
     16.95     -19.11       2.86        0.00      75.84       1.88       0.01       2.14       ----

> <Gold.Chemscore.Fitness>
16.9541

> <Gold.Chemscore.DG>
-19.1054

> <Gold.Chemscore.ZeroCoef>
-5.4800

> <Gold.Chemscore.Hbond>
2.8604

> <Gold.Chemscore.Metal>
0.0000

> <Gold.Chemscore.Lipo>
75.8383

> <Gold.Chemscore.Internal_Hbond>
0.0000

> <Gold.Chemscore.DEClash>
0.0089

> <Gold.Chemscore.DEInternal>
2.1424

> <Gold.Chemscore.Rot>
1.8756

> <Gold.Chemscore.Internal.Correction>
   9.000000E+99

> <Gold.Chemscore.Hbonds>
donor molecule, donor type, donor heavy atom, donor atom, acceptor molecule, acceptor atom, score
      L1  H     4    40       P1  8028  0.99
      P1  H  6896  6908       L1    17  0.48
      P1  H  6931  6943       L1    13  0.72
      P1  H  6934  6947       L1    13  0.42

> <Gold.Chemscore.Hbond.Weighted>
-9.5538

> <Gold.Chemscore.Metal.Weighted>
-0.0000

> <Gold.Chemscore.Lipo.Weighted>
-8.8731

> <Gold.Chemscore.Internal_Hbond.Weighted>
0.0000

> <Gold.Chemscore.DEClash.Weighted>
0.0089

> <Gold.Chemscore.DEInternal.Weighted>
2.1424

> <Gold.Chemscore.Rot.Weighted>
4.8015

> <Gold.Chemscore.Internal.Correction.Weighted>
   9.000000E+99

> <Gold.Protein.RotatedTorsions>
[ 6907 6896 6895 6894 ] final  132.33 input  -60.11 | X-H torsion
[ 7974 7965 7964 7962 ] final    2.71 input  175.53 | X-H torsion
[ 8008 7997 7996 7995 ] final  -10.09 input   59.86 | X-H torsion
[ 10167 10162 10161 10158 ] final   30.09 input  -65.29 | X-H torsion
[ 10718 10713 10712 10709 ] final  -92.58 input   66.30 | X-H torsion
[ 10763 10752 10751 10750 ] final -178.21 input  -60.55 | X-H torsion
[ 11005 11000 10999 10996 ] final   54.94 input  -57.11 | X-H torsion

> <Gold.Protein.ActiveResidues>
 VAL166  LYS551  ARG553  GLY616  TRP617  ASP618  TYR619  PRO620  LYS621  CYS622 
 ASP623  PHE694  ASN695  SER759  ASP760  ASP761  ALA762  ILE779  LEU786  VAL792 
 PHE793  MET794  SER795  GLU796  ALA797  LYS798  CYS799  TRP800  GLU811  SER814 

> <Gold.Protein.RotatedAtoms>
  152.3335  133.5985  159.5825 H   0  0  0  0  0  0  0  0  0  0  0  0  # atno 6907 bound_to 6896
  150.7437  133.9832  159.3592 H   0  0  0  0  0  0  0  0  0  0  0  0  # atno 6908 bound_to 6896
  151.7704  135.0788  160.0410 H   0  0  0  0  0  0  0  0  0  0  0  0  # atno 6909 bound_to 6896
  146.2444  140.0795  142.8358 H   0  0  0  0  0  0  0  0  0  0  0  0  # atno 7974 bound_to 7965
  154.5586  140.2338  155.8370 H   0  0  0  0  0  0  0  0  0  0  0  0  # atno 8008 bound_to 7997
  156.2010  140.3052  155.9486 H   0  0  0  0  0  0  0  0  0  0  0  0  # atno 8009 bound_to 7997
  155.2931  140.0427  157.3015 H   0  0  0  0  0  0  0  0  0  0  0  0  # atno 8010 bound_to 7997
  140.4708  144.0765  150.6237 H   0  0  0  0  0  0  0  0  0  0  0  0  # atno 10167 bound_to 10162
  156.0004  130.4993  150.5647 H   0  0  0  0  0  0  0  0  0  0  0  0  # atno 10718 bound_to 10713
  154.5505  135.2812  155.1013 H   0  0  0  0  0  0  0  0  0  0  0  0  # atno 10763 bound_to 10752
  154.2461  135.6348  153.5227 H   0  0  0  0  0  0  0  0  0  0  0  0  # atno 10764 bound_to 10752
  153.0001  135.5571  154.6070 H   0  0  0  0  0  0  0  0  0  0  0  0  # atno 10765 bound_to 10752
  140.0646  134.5554  155.9113 H   0  0  0  0  0  0  0  0  0  0  0  0  # atno 11005 bound_to 11000
  145.0745  140.9179  143.4862 LP  0  0  0  0  0  0  0  0  0  0  0  0  # atno 17320 bound_to 7965
  145.0936  139.2873  143.5722 LP  0  0  0  0  0  0  0  0  0  0  0  0  # atno 17321 bound_to 7965
  140.3979  143.2719  151.9983 LP  0  0  0  0  0  0  0  0  0  0  0  0  # atno 17342 bound_to 10162
  139.4818  144.6022  151.7585 LP  0  0  0  0  0  0  0  0  0  0  0  0  # atno 17343 bound_to 10162
  157.3551  131.0740  151.1682 LP  0  0  0  0  0  0  0  0  0  0  0  0  # atno 17370 bound_to 10713
  157.2486  130.6603  149.5921 LP  0  0  0  0  0  0  0  0  0  0  0  0  # atno 17371 bound_to 10713
  141.1987  133.6603  156.5807 LP  0  0  0  0  0  0  0  0  0  0  0  0  # atno 17394 bound_to 11000
  140.3718  134.7599  157.4604 LP  0  0  0  0  0  0  0  0  0  0  0  0  # atno 17395 bound_to 11000

$$$$
