AV-unprocessed.smi:2784|AV-procd|sdf|10742|dock3
  -GOLD-   2272015183D 1   1.00000     0.00000
 Structure written by MMmdl.
 30 31  0  0  0  0  0  0  0  0  2 V2000
  152.8042  142.6361  162.3118 C   0  0  0  0  0  0  0  0  0  0  0  0
  151.9218  142.4153  161.2231 O   0  0  0  0  0  0  0  0  0  0  0  0
  152.4239  142.8764  159.9753 C   0  0  2  0  0  0  0  0  0  0  0  0
  152.4312  144.4102  159.8948 C   0  0  0  0  0  0  0  0  0  0  0  0
  152.1704  144.7204  158.4255 C   0  0  0  0  0  0  0  0  0  0  0  0
  151.1607  143.6553  158.0039 C   0  0  0  0  0  0  0  0  0  0  0  0
  151.5118  142.3979  158.8238 C   0  0  1  0  0  0  0  0  0  0  0  0
  152.2006  141.4061  157.9996 N   0  0  0  0  0  0  0  0  0  0  0  0
  151.6219  140.3981  157.3312 C   0  0  0  0  0  0  0  0  0  0  0  0
  150.3984  140.2506  157.3797 O   0  0  0  0  0  0  0  0  0  0  0  0
  152.4958  139.6274  156.6450 N   0  5  0  0  0  0  0  0  0  0  0  0
  152.0688  138.9012  155.5993 C   0  0  0  0  0  0  0  0  0  0  0  0
  152.8066  138.0743  154.8565 N   0  0  0  0  0  0  0  0  0  0  0  0
  151.9482  137.5574  153.8983 C   0  0  0  0  0  0  0  0  0  0  0  0
  150.7123  138.1077  154.1015 C   0  0  0  0  0  0  0  0  0  0  0  0
  150.7766  138.9603  155.1687 O   0  0  0  0  0  0  0  0  0  0  0  0
  152.3621  142.2356  163.2240 H   0  0  0  0  0  0  0  0  0  0  0  0
  152.9892  143.6988  162.4710 H   0  0  0  0  0  0  0  0  0  0  0  0
  153.7594  142.1336  162.1543 H   0  0  0  0  0  0  0  0  0  0  0  0
  153.4389  142.5039  159.8195 H   0  0  0  0  0  0  0  0  0  0  0  0
  151.6172  144.8174  160.4963 H   0  0  0  0  0  0  0  0  0  0  0  0
  153.3627  144.8461  160.2568 H   0  0  0  0  0  0  0  0  0  0  0  0
  151.8029  145.7345  158.2667 H   0  0  0  0  0  0  0  0  0  0  0  0
  153.0918  144.6024  157.8532 H   0  0  0  0  0  0  0  0  0  0  0  0
  150.1574  143.9877  158.2735 H   0  0  0  0  0  0  0  0  0  0  0  0
  151.1632  143.4908  156.9254 H   0  0  0  0  0  0  0  0  0  0  0  0
  150.5970  141.9590  159.2268 H   0  0  0  0  0  0  0  0  0  0  0  0
  153.2043  141.4883  157.9333 H   0  0  0  0  0  0  0  0  0  0  0  0
  152.2816  136.8478  153.1558 H   0  0  0  0  0  0  0  0  0  0  0  0
  149.7540  138.0078  153.6143 H   0  0  0  0  0  0  0  0  0  0  0  0
  1  2  1  0  0  0  0
  1 17  1  0  0  0  0
  1 18  1  0  0  0  0
  1 19  1  0  0  0  0
  2  3  1  0  0  0  0
  3  7  1  0  0  0  0
  3  4  1  0  0  0  0
  3 20  1  0  0  0  0
  4  5  1  0  0  0  0
  4 21  1  0  0  0  0
  4 22  1  0  0  0  0
  5  6  1  0  0  0  0
  5 23  1  0  0  0  0
  5 24  1  0  0  0  0
  6  7  1  0  0  0  0
  6 25  1  0  0  0  0
  6 26  1  0  0  0  0
  7  8  1  0  0  0  0
  7 27  1  0  0  0  0
  8 28  1  0  0  0  0
  8  9  1  0  0  0  0
  9 11  1  0  0  0  0
  9 10  2  0  0  0  0
 11 12  1  0  0  0  0
 12 16  1  0  0  0  0
 12 13  2  0  0  0  0
 13 14  1  0  0  0  0
 14 29  1  0  0  0  0
 14 15  2  0  0  0  0
 15 30  1  0  0  0  0
 15 16  1  0  0  0  0
M  CHG  1  11  -1
M  END
> <s_m_source_file>
AV-unprocessed.smi

> <i_m_source_file_index>
2784

> <i_lp_mmshare_version>
43012

> <i_f3d_flags>
0

> <s_epik_input>
W0NIM11PW0NAQEhdMVtDSDJdW0NIMl1bQ0gyXVtDQEhdMVtOSF1DKD1PKVtOSF1jMm5bY0hdW2NIXW8y

> <s_epik_cmdline>
J2VwaWtfcHl0aG9uJywgJy1waCcsICc3LjAnLCAnLXRuJywgJzgnLCAnLW1hJywgJzIwMCcsICctbWV0YWxfYmluZGluZycsICctaW1hZScsICc8aW5maWxlLm1hZT4nLCAnLW9tYWUnLCAnPG91dGZpbGUubWFlPic=

> <r_lp_tautomer_probability>
0.107061

> <r_epik_Ionization_Penalty>
10.8857

> <r_epik_Ionization_Penalty_Charging>
7.67908

> <r_epik_Ionization_Penalty_Neutral>
3.20665

> <r_epik_State_Penalty>
5.80296

> <r_epik_Charging_Adjusted_Penalty>
13.482

> <i_epik_Tot_Q>
-1

> <i_epik_Tot_abs_Q>
1

> <r_epik_Metal_State_Penalty>
1.73217

> <b_epik_Metal_Only>
1

> <s_lp_Force_Field>
OPLS_2005

> <r_lp_Energy>
14.4726

> <b_lp_Chiralities_Consistent>
1

> <s_lp_Variant>
AV-unprocessed.smi:2784-17

> <Gold.Version>
5.8.1

> <Gold.Id.Protein>
6NUR|6NUR_protein|mol2

> <Gold.PLP.Fitness>
44.9797

> <Gold.PLP.PLP>
-33.7238

> <Gold.PLP.part.hbond>
-2.8397

> <Gold.PLP.part.metal>
0.0000

> <Gold.PLP.part.buried>
-1.7493

> <Gold.PLP.part.nonpolar>
-29.0916

> <Gold.PLP.part.repulsive>
0.2546

> <Gold.PLP.ligand.clash>
0.0000

> <Gold.PLP.ligand.torsion>
0.5369

> <Gold.PLP.Chemscore.Hbond>
2.2746

> <Gold.PLP.Chemscore.CHOScore>
1.8330

> <Gold.PLP.Chemscore.Metal>
0.0000

> <Gold.Chemscore.Hbonds>
donor molecule, donor type, donor heavy atom, donor atom, acceptor molecule, acceptor atom, score
      P1  H  6933  6945       L1     2  0.27
      P1  H  7997  8009       L1    11  2.00
      L1  C    14    29       P1  7949  0.99
      L1  C    15    30       P1  7948  0.84

> <Gold.PLP.Chemscore.Internal.Correction>
0.0070

> <Gold.Rescore>
     Score         DG    S(hbond)    S(metal)    S(lipo)     H(rot)  DE(clash)    DE(int)     intcor
     13.21     -15.54       1.28        0.00      78.20       1.31       0.13       2.19       ----

> <Gold.Chemscore.Fitness>
13.2135

> <Gold.Chemscore.DG>
-15.5378

> <Gold.Chemscore.ZeroCoef>
-5.4800

> <Gold.Chemscore.Hbond>
1.2764

> <Gold.Chemscore.Metal>
0.0000

> <Gold.Chemscore.Lipo>
78.2022

> <Gold.Chemscore.Internal_Hbond>
0.0000

> <Gold.Chemscore.DEClash>
0.1337

> <Gold.Chemscore.DEInternal>
2.1906

> <Gold.Chemscore.Rot>
1.3106

> <Gold.Chemscore.Internal.Correction>
   9.000000E+99

> <Gold.Chemscore.Hbonds>
donor molecule, donor type, donor heavy atom, donor atom, acceptor molecule, acceptor atom, score
      P1  H  6933  6945       L1     2  0.11
      P1  H  7997  8009       L1    11  0.59

> <Gold.Chemscore.Hbond.Weighted>
-4.2631

> <Gold.Chemscore.Metal.Weighted>
-0.0000

> <Gold.Chemscore.Lipo.Weighted>
-9.1497

> <Gold.Chemscore.Internal_Hbond.Weighted>
0.0000

> <Gold.Chemscore.DEClash.Weighted>
0.1337

> <Gold.Chemscore.DEInternal.Weighted>
2.1906

> <Gold.Chemscore.Rot.Weighted>
3.3550

> <Gold.Chemscore.Internal.Correction.Weighted>
   9.000000E+99

> <Gold.Protein.RotatedTorsions>
[ 6907 6896 6895 6894 ] final -168.09 input  -60.11 | X-H torsion
[ 7974 7965 7964 7962 ] final   53.40 input  175.53 | X-H torsion
[ 8008 7997 7996 7995 ] final -157.49 input   59.86 | X-H torsion
[ 10167 10162 10161 10158 ] final  161.36 input  -65.29 | X-H torsion
[ 10718 10713 10712 10709 ] final -172.71 input   66.30 | X-H torsion
[ 10763 10752 10751 10750 ] final -136.24 input  -60.55 | X-H torsion
[ 11005 11000 10999 10996 ] final  148.85 input  -57.11 | X-H torsion

> <Gold.Protein.ActiveResidues>
 VAL166  LYS551  ARG553  GLY616  TRP617  ASP618  TYR619  PRO620  LYS621  CYS622 
 ASP623  PHE694  ASN695  SER759  ASP760  ASP761  ALA762  ILE779  LEU786  VAL792 
 PHE793  MET794  SER795  GLU796  ALA797  LYS798  CYS799  TRP800  GLU811  SER814 

> <Gold.Protein.RotatedAtoms>
  151.4700  133.3571  159.2821 H   0  0  0  0  0  0  0  0  0  0  0  0  # atno 6907 bound_to 6896
  150.8967  134.8378  159.7342 H   0  0  0  0  0  0  0  0  0  0  0  0  # atno 6908 bound_to 6896
  152.4855  134.4616  159.9659 H   0  0  0  0  0  0  0  0  0  0  0  0  # atno 6909 bound_to 6896
  145.9715  139.4154  143.0187 H   0  0  0  0  0  0  0  0  0  0  0  0  # atno 7974 bound_to 7965
  155.7332  140.0804  157.2279 H   0  0  0  0  0  0  0  0  0  0  0  0  # atno 8008 bound_to 7997
  154.4030  140.1591  156.2587 H   0  0  0  0  0  0  0  0  0  0  0  0  # atno 8009 bound_to 7997
  155.9090  140.3405  155.6086 H   0  0  0  0  0  0  0  0  0  0  0  0  # atno 8010 bound_to 7997
  139.4848  144.4544  151.8787 H   0  0  0  0  0  0  0  0  0  0  0  0  # atno 10167 bound_to 10162
  156.7596  130.9408  151.3117 H   0  0  0  0  0  0  0  0  0  0  0  0  # atno 10718 bound_to 10713
  154.8688  135.3679  154.5028 H   0  0  0  0  0  0  0  0  0  0  0  0  # atno 10763 bound_to 10752
  153.5668  135.7021  153.5527 H   0  0  0  0  0  0  0  0  0  0  0  0  # atno 10764 bound_to 10752
  153.3578  135.4054  155.1658 H   0  0  0  0  0  0  0  0  0  0  0  0  # atno 10765 bound_to 10752
  140.0995  134.8992  157.1774 H   0  0  0  0  0  0  0  0  0  0  0  0  # atno 11005 bound_to 11000
  145.7898  140.9819  143.1055 LP  0  0  0  0  0  0  0  0  0  0  0  0  # atno 17320 bound_to 7965
  144.6838  139.9669  143.7481 LP  0  0  0  0  0  0  0  0  0  0  0  0  # atno 17321 bound_to 7965
  140.4003  144.2502  150.5893 LP  0  0  0  0  0  0  0  0  0  0  0  0  # atno 17342 bound_to 10162
  140.5064  143.2303  151.8602 LP  0  0  0  0  0  0  0  0  0  0  0  0  # atno 17343 bound_to 10162
  157.6741  130.9078  150.0108 LP  0  0  0  0  0  0  0  0  0  0  0  0  # atno 17370 bound_to 10713
  156.1348  130.3643  149.9675 LP  0  0  0  0  0  0  0  0  0  0  0  0  # atno 17371 bound_to 10713
  140.3240  134.2884  155.7240 LP  0  0  0  0  0  0  0  0  0  0  0  0  # atno 17394 bound_to 11000
  141.2101  133.7728  156.9951 LP  0  0  0  0  0  0  0  0  0  0  0  0  # atno 17395 bound_to 11000

$$$$
