#       Name:                AV-unprocessed.smi:1868
#       Creating user name   scv26
#       Creation time:       Fri Mar 27 09:29:29 2020


#       File generated by GOLD software.
#

@<TRIPOS>MOLECULE
AV-unprocessed.smi:1868
    50    52     1
SMALL
NO_CHARGES


@<TRIPOS>ATOM
      1 ****        -2.0725   1.3992  -3.4504 C.3            1 S1                 0.0000
      2 ****        -2.5182   1.6093  -2.0381 C.2            1 S1                 0.0000
      3 ****        -2.8408   2.8139  -1.5679 N.2            1 S1                 0.0000
      4 ****        -3.1934   2.5451  -0.2597 C.ar           1 S1                 0.0000
      5 ****        -3.6312   3.4084   0.7698 C.ar           1 S1                 0.0000
      6 ****        -3.9350   2.8977   2.0487 C.ar           1 S1                 0.0000
      7 ****        -3.8061   1.5195   2.3161 C.ar           1 S1                 0.0000
      8 ****        -3.3719   0.6414   1.3046 C.ar           1 S1                 0.0000
      9 ****        -3.0692   1.1564   0.0296 C.ar           1 S1                 0.0000
     10 ****        -2.6183   0.5838  -1.1567 N.pl3          1 S1                 0.0000
     11 ****        -2.3256  -0.8248  -1.3833 C.3            1 S1                 0.0000
     12 ****        -0.8284  -1.1624  -1.2270 C.3            1 S1                 0.0000
     13 ****        -0.6790  -2.5516  -1.4375 O.3            1 S1                 0.0000
     14 ****        -0.2548  -0.8107   0.1636 C.3            1 S1                 0.0000
     15 ****         1.2014  -1.0823   0.2664 N.4            1 S1                 1.0000
     16 ****         1.6290  -1.3315   1.6669 C.3            1 S1                 0.0000
     17 ****         3.1074  -1.7502   1.7306 C.3            1 S1                 0.0000
     18 ****         4.0156  -0.6967   1.0747 C.3            1 S1                 0.0000
     19 ****         5.4905  -1.1213   1.1038 C.3            1 S1                 0.0000
     20 ****         3.5275  -0.4300  -0.3592 C.3            1 S1                 0.0000
     21 ****         2.0404  -0.0387  -0.3808 C.3            1 S1                 0.0000
     22 ****        -2.1015   2.3391  -4.0029 H              1 S1                 0.0000
     23 ****        -2.7279   0.6884  -3.9539 H              1 S1                 0.0000
     24 ****        -1.0510   1.0210  -3.4748 H              1 S1                 0.0000
     25 ****        -3.7334   4.4658   0.5751 H              1 S1                 0.0000
     26 ****        -4.2692   3.5669   2.8281 H              1 S1                 0.0000
     27 ****        -4.0417   1.1369   3.2985 H              1 S1                 0.0000
     28 ****        -3.2725  -0.4141   1.5088 H              1 S1                 0.0000
     29 ****        -2.9184  -1.4146  -0.6828 H              1 S1                 0.0000
     30 ****        -2.6771  -1.1004  -2.3781 H              1 S1                 0.0000
     31 ****        -0.2722  -0.6467  -2.0079 H              1 S1                 0.0000
     32 ****        -1.0217  -2.7665  -2.2923 H              1 S1                 0.0000
     33 ****        -0.4279   0.2372   0.4105 H              1 S1                 0.0000
     34 ****        -0.7954  -1.3917   0.9127 H              1 S1                 0.0000
     35 ****         1.4638  -0.4335   2.2647 H              1 S1                 0.0000
     36 ****         1.0173  -2.1215   2.1042 H              1 S1                 0.0000
     37 ****         3.4006  -1.9016   2.7701 H              1 S1                 0.0000
     38 ****         3.2346  -2.7118   1.2314 H              1 S1                 0.0000
     39 ****         3.9260   0.2306   1.6429 H              1 S1                 0.0000
     40 ****         5.6481  -2.0490   0.5523 H              1 S1                 0.0000
     41 ****         5.8332  -1.2801   2.1267 H              1 S1                 0.0000
     42 ****         6.1279  -0.3571   0.6580 H              1 S1                 0.0000
     43 ****         4.1212   0.3642  -0.8134 H              1 S1                 0.0000
     44 ****         3.6786  -1.3184  -0.9745 H              1 S1                 0.0000
     45 ****         1.7314   0.1123  -1.4144 H              1 S1                 0.0000
     46 ****         1.8974   0.9143   0.1314 H              1 S1                 0.0000
     47 ****         1.3615  -1.9456  -0.2335 H              1 S1                 0.0000
     48 ****        -2.8302   3.6934  -2.0437 LP             1 S1                 0.0000
     49 ****        -1.1839  -3.0546  -0.7361 LP             1 S1                 0.0000
     50 ****         0.2894  -2.7969  -1.3916 LP             1 S1                 0.0000
@<TRIPOS>BOND
    1    1    2 1     
    2    1   22 1     
    3    1   23 1     
    4    1   24 1     
    5    2   10 1     
    6    2    3 2     
    7    3    4 1     
    8    4    9 ar    
    9    4    5 ar    
   10    5    6 ar    
   11    5   25 1     
   12    6    7 ar    
   13    6   26 1     
   14    7    8 ar    
   15    7   27 1     
   16    8    9 ar    
   17    8   28 1     
   18    9   10 1     
   19   10   11 1     
   20   11   12 1     
   21   11   29 1     
   22   11   30 1     
   23   12   13 1     
   24   12   14 1     
   25   12   31 1     
   26   13   32 1     
   27   14   15 1     
   28   14   33 1     
   29   14   34 1     
   30   15   21 1     
   31   15   16 1     
   32   15   47 1     
   33   16   17 1     
   34   16   35 1     
   35   16   36 1     
   36   17   18 1     
   37   17   37 1     
   38   17   38 1     
   39   18   19 1     
   40   18   20 1     
   41   18   39 1     
   42   19   40 1     
   43   19   41 1     
   44   19   42 1     
   45   20   21 1     
   46   20   43 1     
   47   20   44 1     
   48   21   45 1     
   49   21   46 1     
   50    3   48 1     
   51   13   49 1     
   52   13   50 1     
@<TRIPOS>SUBSTRUCTURE
      1 S1             1
@<TRIPOS>SET
LONE_PAIRS      STATIC     ATOMS    <user>   **** ""
3 48 49 50
DONOR_HYDROGENS      STATIC     ATOMS    <user>   **** ""
2 32 47
ATOM$BLUE        STATIC     ATOMS    COLORGROUP SYSTEM
3 48 49 50
ATOM$RED        STATIC     ATOMS    COLORGROUP SYSTEM
2 32 47
