AV-unprocessed.smi:182|AV-procd|sdf|1455|dock1
  -GOLD-   2262019253D 1   1.00000     0.00000
 Structure written by MMmdl.
 56 59  0  0  0  0  0  0  0  0  1 V2000
  155.4724  139.3119  162.3242 N   0  0  0  0  0  0  0  0  0  0  0  0
  154.9859  140.5366  162.1106 C   0  0  0  0  0  0  0  0  0  0  0  0
  155.0108  141.4089  162.9770 O   0  0  0  0  0  0  0  0  0  0  0  0
  154.3826  140.8063  160.7286 C   0  0  0  0  0  0  0  0  0  0  0  0
  153.6001  142.1332  160.6551 C   0  0  0  0  0  0  0  0  0  0  0  0
  152.9861  142.4200  159.2704 C   0  0  2  0  0  0  0  0  0  0  0  0
  151.9662  143.5730  159.3501 C   0  0  0  0  0  0  0  0  0  0  0  0
  151.3339  143.8386  157.9761 C   0  0  0  0  0  0  0  0  0  0  0  0
  150.7056  142.5587  157.4066 C   0  0  0  0  0  0  0  0  0  0  0  0
  151.6843  141.4731  157.3717 N   0  0  0  0  0  0  0  0  0  0  0  0
  151.3414  140.4271  156.5762 C   0  0  0  0  0  0  0  0  0  0  0  0
  150.9171  140.6527  155.3033 N   0  0  0  0  0  0  0  0  0  0  0  0
  150.5828  139.6313  154.5101 C   0  0  0  0  0  0  0  0  0  0  0  0
  150.6012  138.3252  154.7801 N   0  0  0  0  0  0  0  0  0  0  0  0
  151.0234  138.0894  156.0552 C   0  0  0  0  0  0  0  0  0  0  0  0
  151.4013  139.0730  157.0132 C   0  0  0  0  0  0  0  0  0  0  0  0
  151.7393  138.4565  158.2125 N   0  0  0  0  0  0  0  0  0  0  0  0
  151.5791  137.1836  157.9742 C   0  0  0  0  0  0  0  0  0  0  0  0
  151.1818  136.8717  156.6937 N   0  0  0  0  0  0  0  0  0  0  0  0
  150.8974  135.5648  156.1780 C   0  0  0  0  0  0  0  0  0  0  0  0
  150.5565  135.3536  154.7008 C   0  0  0  0  0  0  0  0  0  0  0  0
  149.6198  134.1872  155.0905 C   0  0  0  0  0  0  0  0  0  0  0  0
  148.2798  134.1324  154.3383 C   0  0  0  0  0  0  0  0  0  0  0  0
  147.7595  135.4287  154.1246 O   0  0  0  0  0  0  0  0  0  0  0  0
  150.2678  132.7882  155.0741 C   0  0  0  0  0  0  0  0  0  0  0  0
  149.4098  131.8153  155.6349 O   0  0  0  0  0  0  0  0  0  0  0  0
  149.5671  134.8691  156.4752 C   0  0  0  0  0  0  0  0  0  0  0  0
  152.3188  141.1694  158.6567 C   0  0  0  0  0  0  0  0  0  0  0  0
  155.8780  139.0852  163.2207 H   0  0  0  0  0  0  0  0  0  0  0  0
  155.4319  138.6165  161.5933 H   0  0  0  0  0  0  0  0  0  0  0  0
  155.1840  140.8154  159.9884 H   0  0  0  0  0  0  0  0  0  0  0  0
  153.7333  139.9670  160.4798 H   0  0  0  0  0  0  0  0  0  0  0  0
  152.8104  142.1413  161.4081 H   0  0  0  0  0  0  0  0  0  0  0  0
  154.2746  142.9505  160.9157 H   0  0  0  0  0  0  0  0  0  0  0  0
  153.7900  142.7367  158.6039 H   0  0  0  0  0  0  0  0  0  0  0  0
  151.1842  143.3268  160.0699 H   0  0  0  0  0  0  0  0  0  0  0  0
  152.4489  144.4810  159.7132 H   0  0  0  0  0  0  0  0  0  0  0  0
  150.5782  144.6202  158.0560 H   0  0  0  0  0  0  0  0  0  0  0  0
  152.0936  144.2101  157.2872 H   0  0  0  0  0  0  0  0  0  0  0  0
  149.8644  142.2500  158.0288 H   0  0  0  0  0  0  0  0  0  0  0  0
  150.3000  142.7677  156.4176 H   0  0  0  0  0  0  0  0  0  0  0  0
  150.2564  139.8988  153.5159 H   0  0  0  0  0  0  0  0  0  0  0  0
  151.7533  136.4325  158.7314 H   0  0  0  0  0  0  0  0  0  0  0  0
  151.7374  134.9345  156.4748 H   0  0  0  0  0  0  0  0  0  0  0  0
  150.0214  136.2028  154.2714 H   0  0  0  0  0  0  0  0  0  0  0  0
  151.4088  135.0780  154.0793 H   0  0  0  0  0  0  0  0  0  0  0  0
  148.4024  133.6604  153.3630 H   0  0  0  0  0  0  0  0  0  0  0  0
  147.5406  133.5370  154.8744 H   0  0  0  0  0  0  0  0  0  0  0  0
  148.0240  135.7205  153.2656 H   0  0  0  0  0  0  0  0  0  0  0  0
  150.5046  132.4749  154.0571 H   0  0  0  0  0  0  0  0  0  0  0  0
  151.2121  132.7789  155.6192 H   0  0  0  0  0  0  0  0  0  0  0  0
  148.8238  131.5074  154.9605 H   0  0  0  0  0  0  0  0  0  0  0  0
  149.5950  134.1849  157.3241 H   0  0  0  0  0  0  0  0  0  0  0  0
  148.7400  135.5753  156.5714 H   0  0  0  0  0  0  0  0  0  0  0  0
  153.0673  140.3901  158.5102 H   0  0  0  0  0  0  0  0  0  0  0  0
  151.5678  140.7718  159.3412 H   0  0  0  0  0  0  0  0  0  0  0  0
  1  2  1  0  0  0  0
  1 29  1  0  0  0  0
  1 30  1  0  0  0  0
  2  3  2  0  0  0  0
  2  4  1  0  0  0  0
  4  5  1  0  0  0  0
  4 31  1  0  0  0  0
  4 32  1  0  0  0  0
  5  6  1  0  0  0  0
  5 33  1  0  0  0  0
  5 34  1  0  0  0  0
  6 28  1  0  0  0  0
  6  7  1  0  0  0  0
  6 35  1  0  0  0  0
  7  8  1  0  0  0  0
  7 36  1  0  0  0  0
  7 37  1  0  0  0  0
  8  9  1  0  0  0  0
  8 38  1  0  0  0  0
  8 39  1  0  0  0  0
  9 10  1  0  0  0  0
  9 40  1  0  0  0  0
  9 41  1  0  0  0  0
 10 11  1  0  0  0  0
 10 28  1  0  0  0  0
 11 16  1  0  0  0  0
 11 12  2  0  0  0  0
 12 13  1  0  0  0  0
 13 14  2  0  0  0  0
 13 42  1  0  0  0  0
 14 15  1  0  0  0  0
 15 19  1  0  0  0  0
 15 16  2  0  0  0  0
 16 17  1  0  0  0  0
 17 18  2  0  0  0  0
 18 19  1  0  0  0  0
 18 43  1  0  0  0  0
 19 20  1  0  0  0  0
 20 27  1  0  0  0  0
 20 21  1  0  0  0  0
 20 44  1  0  0  0  0
 21 22  1  0  0  0  0
 21 45  1  0  0  0  0
 21 46  1  0  0  0  0
 22 23  1  0  0  0  0
 22 25  1  0  0  0  0
 22 27  1  0  0  0  0
 23 24  1  0  0  0  0
 23 47  1  0  0  0  0
 23 48  1  0  0  0  0
 24 49  1  0  0  0  0
 25 26  1  0  0  0  0
 25 50  1  0  0  0  0
 25 51  1  0  0  0  0
 26 52  1  0  0  0  0
 27 53  1  0  0  0  0
 27 54  1  0  0  0  0
 28 55  1  0  0  0  0
 28 56  1  0  0  0  0
M  END
> <s_m_source_file>
AV-unprocessed.smi

> <i_m_source_file_index>
182

> <i_lp_mmshare_version>
43012

> <i_f3d_flags>
0

> <s_epik_input>
W05IMl1DKD1PKVtDSDJdW0NIMl1bQ0BASF0xW0NIMl1bQ0gyXVtDSDJdTihbQ0gyXTEpYyhuW2NIXW4yKWMoYzIzKW5bY0hdbjNbQ0hdKFtDSDJdNClbQ0gyXUM0KFtDSDJdW09IXSlbQ0gyXVtPSF0=

> <s_epik_cmdline>
J2VwaWtfcHl0aG9uJywgJy1waCcsICc3LjAnLCAnLXRuJywgJzgnLCAnLW1hJywgJzIwMCcsICctbWV0YWxfYmluZGluZycsICctaW1hZScsICc8aW5maWxlLm1hZT4nLCAnLW9tYWUnLCAnPG91dGZpbGUubWFlPic=

> <r_lp_tautomer_probability>
1

> <r_epik_Ionization_Penalty>
0.00186057

> <r_epik_Ionization_Penalty_Charging>
0

> <r_epik_Ionization_Penalty_Neutral>
0.00186057

> <r_epik_State_Penalty>
0.00110736

> <r_epik_Charging_Adjusted_Penalty>
0.00110736

> <i_epik_Tot_Q>
0

> <i_epik_Tot_abs_Q>
0

> <r_epik_Metal_State_Penalty>
-0

> <b_epik_Metal_Only>
0

> <s_lp_Force_Field>
OPLS_2005

> <r_lp_Energy>
36.2346

> <b_lp_Chiralities_Consistent>
1

> <s_lp_Variant>
AV-unprocessed.smi:182-1

> <Gold.Version>
5.8.1

> <Gold.Id.Protein>
6NUR|6NUR_protein|mol2

> <Gold.PLP.Fitness>
50.1737

> <Gold.PLP.PLP>
-45.1240

> <Gold.PLP.part.hbond>
-3.0000

> <Gold.PLP.part.metal>
0.0000

> <Gold.PLP.part.buried>
-2.8035

> <Gold.PLP.part.nonpolar>
-38.5220

> <Gold.PLP.part.repulsive>
0.2183

> <Gold.PLP.ligand.clash>
0.0000

> <Gold.PLP.ligand.torsion>
0.9644

> <Gold.PLP.Chemscore.Hbond>
1.0000

> <Gold.PLP.Chemscore.CHOScore>
1.0000

> <Gold.PLP.Chemscore.Metal>
0.0000

> <Gold.Chemscore.Hbonds>
donor molecule, donor type, donor heavy atom, donor atom, acceptor molecule, acceptor atom, score
      L1  H    24    49       P1  7948  1.00
      L1  C    13    42       P1  7957  1.00

> <Gold.PLP.Chemscore.Internal.Correction>
0.9785

> <Gold.Rescore>
     Score         DG    S(hbond)    S(metal)    S(lipo)     H(rot)  DE(clash)    DE(int)     intcor
      4.60      -8.58       1.00        0.00     102.85       4.79       0.53       3.45       ----

> <Gold.Chemscore.Fitness>
4.5996

> <Gold.Chemscore.DG>
-8.5835

> <Gold.Chemscore.ZeroCoef>
-5.4800

> <Gold.Chemscore.Hbond>
0.9995

> <Gold.Chemscore.Metal>
0.0000

> <Gold.Chemscore.Lipo>
102.8487

> <Gold.Chemscore.Internal_Hbond>
0.0000

> <Gold.Chemscore.DEClash>
0.5321

> <Gold.Chemscore.DEInternal>
3.4518

> <Gold.Chemscore.Rot>
4.7922

> <Gold.Chemscore.Internal.Correction>
   9.000000E+99

> <Gold.Chemscore.Hbonds>
donor molecule, donor type, donor heavy atom, donor atom, acceptor molecule, acceptor atom, score
      L1  H    24    49       P1  7948  1.00

> <Gold.Chemscore.Hbond.Weighted>
-3.3382

> <Gold.Chemscore.Metal.Weighted>
-0.0000

> <Gold.Chemscore.Lipo.Weighted>
-12.0333

> <Gold.Chemscore.Internal_Hbond.Weighted>
0.0000

> <Gold.Chemscore.DEClash.Weighted>
0.5321

> <Gold.Chemscore.DEInternal.Weighted>
3.4518

> <Gold.Chemscore.Rot.Weighted>
12.2680

> <Gold.Chemscore.Internal.Correction.Weighted>
   9.000000E+99

> <Gold.Protein.RotatedTorsions>
[ 6907 6896 6895 6894 ] final  -12.62 input  -60.11 | X-H torsion
[ 7974 7965 7964 7962 ] final  134.26 input  175.53 | X-H torsion
[ 8008 7997 7996 7995 ] final -145.18 input   59.86 | X-H torsion
[ 10167 10162 10161 10158 ] final  -14.94 input  -65.29 | X-H torsion
[ 10718 10713 10712 10709 ] final  177.20 input   66.30 | X-H torsion
[ 10763 10752 10751 10750 ] final   87.42 input  -60.55 | X-H torsion
[ 11005 11000 10999 10996 ] final -118.80 input  -57.11 | X-H torsion

> <Gold.Protein.ActiveResidues>
 VAL166  LYS551  ARG553  GLY616  TRP617  ASP618  TYR619  PRO620  LYS621  CYS622 
 ASP623  PHE694  ASN695  SER759  ASP760  ASP761  ALA762  ILE779  LEU786  VAL792 
 PHE793  MET794  SER795  GLU796  ALA797  LYS798  CYS799  TRP800  GLU811  SER814 

> <Gold.Protein.RotatedAtoms>
  151.3677  135.0916  159.9454 H   0  0  0  0  0  0  0  0  0  0  0  0  # atno 6907 bound_to 6896
  152.5144  133.9196  159.7538 H   0  0  0  0  0  0  0  0  0  0  0  0  # atno 6908 bound_to 6896
  150.9603  133.6398  159.2785 H   0  0  0  0  0  0  0  0  0  0  0  0  # atno 6909 bound_to 6896
  144.9782  139.4532  143.5399 H   0  0  0  0  0  0  0  0  0  0  0  0  # atno 7974 bound_to 7965
  155.5390  140.0606  157.2874 H   0  0  0  0  0  0  0  0  0  0  0  0  # atno 8008 bound_to 7997
  154.4458  140.1922  156.0616 H   0  0  0  0  0  0  0  0  0  0  0  0  # atno 8009 bound_to 7997
  156.0598  140.3274  155.7452 H   0  0  0  0  0  0  0  0  0  0  0  0  # atno 8010 bound_to 7997
  140.7210  143.5269  150.9566 H   0  0  0  0  0  0  0  0  0  0  0  0  # atno 10167 bound_to 10162
  156.9089  130.9903  151.3024 H   0  0  0  0  0  0  0  0  0  0  0  0  # atno 10718 bound_to 10713
  153.1667  135.4544  154.9846 H   0  0  0  0  0  0  0  0  0  0  0  0  # atno 10763 bound_to 10752
  154.7937  135.3229  154.7721 H   0  0  0  0  0  0  0  0  0  0  0  0  # atno 10764 bound_to 10752
  153.8202  135.6947  153.4883 H   0  0  0  0  0  0  0  0  0  0  0  0  # atno 10765 bound_to 10752
  141.0261  134.0052  157.3213 H   0  0  0  0  0  0  0  0  0  0  0  0  # atno 11005 bound_to 11000
  146.3401  139.9038  142.8790 LP  0  0  0  0  0  0  0  0  0  0  0  0  # atno 17320 bound_to 7965
  145.2459  141.0026  143.3909 LP  0  0  0  0  0  0  0  0  0  0  0  0  # atno 17321 bound_to 7965
  139.8988  143.6861  152.3134 LP  0  0  0  0  0  0  0  0  0  0  0  0  # atno 17342 bound_to 10162
  139.7203  144.7604  151.0965 LP  0  0  0  0  0  0  0  0  0  0  0  0  # atno 17343 bound_to 10162
  157.5980  130.8491  149.8758 LP  0  0  0  0  0  0  0  0  0  0  0  0  # atno 17370 bound_to 10713
  156.0545  130.3711  150.1122 LP  0  0  0  0  0  0  0  0  0  0  0  0  # atno 17371 bound_to 10713
  139.9177  135.0198  156.7943 LP  0  0  0  0  0  0  0  0  0  0  0  0  # atno 17394 bound_to 11000
  140.6489  133.9749  155.7745 LP  0  0  0  0  0  0  0  0  0  0  0  0  # atno 17395 bound_to 11000

$$$$
