AV-unprocessed.smi:2556|AV-procd|sdf|10025|dock7
  -GOLD-   2272014 73D 1   1.00000     0.00000
 Structure written by MMmdl.
 34 36  0  0  0  0  0  0  0  0  2 V2000
  149.0585  136.1123  156.9406 C   0  0  0  0  0  0  0  0  0  0  0  0
  150.0161  137.1032  156.4414 N   0  0  0  0  0  0  0  0  0  0  0  0
  151.1353  136.7162  155.7510 C   0  0  0  0  0  0  0  0  0  0  0  0
  151.3183  135.5128  155.5620 O   0  0  0  0  0  0  0  0  0  0  0  0
  152.0201  137.6675  155.2898 N   0  5  0  0  0  0  0  0  0  0  0  0
  151.9014  139.0238  155.4495 C   0  0  0  0  0  0  0  0  0  0  0  0
  152.6779  139.8849  155.0407 O   0  0  0  0  0  0  0  0  0  0  0  0
  150.6829  139.3891  156.2033 C   0  0  0  0  0  0  0  0  0  0  0  0
  149.7801  138.4855  156.6774 C   0  0  0  0  0  0  0  0  0  0  0  0
  148.7322  139.1141  157.3420 N   0  0  0  0  0  0  0  0  0  0  0  0
  149.0649  140.3996  157.2309 C   0  0  0  0  0  0  0  0  0  0  0  0
  150.2106  140.6519  156.5669 N   0  0  0  0  0  0  0  0  0  0  0  0
  150.7739  141.9709  156.3157 C   0  0  0  0  0  0  0  0  0  0  0  0
  150.8829  142.8275  157.5940 C   0  0  2  0  0  0  0  0  0  0  0  0
  151.1847  144.1708  157.2694 O   0  0  0  0  0  0  0  0  0  0  0  0
  151.8899  142.2370  158.5683 C   0  0  0  0  0  0  0  0  0  0  0  0
  152.2525  142.9494  159.7317 C   0  0  0  0  0  0  0  0  0  0  0  0
  153.1820  142.4021  160.6378 C   0  0  0  0  0  0  0  0  0  0  0  0
  153.7522  141.1392  160.3868 C   0  0  0  0  0  0  0  0  0  0  0  0
  153.3912  140.4224  159.2299 C   0  0  0  0  0  0  0  0  0  0  0  0
  152.4616  140.9689  158.3239 C   0  0  0  0  0  0  0  0  0  0  0  0
  148.6445  135.5316  156.1152 H   0  0  0  0  0  0  0  0  0  0  0  0
  148.2221  136.5655  157.4716 H   0  0  0  0  0  0  0  0  0  0  0  0
  149.5470  135.4234  157.6307 H   0  0  0  0  0  0  0  0  0  0  0  0
  148.4526  141.1867  157.6456 H   0  0  0  0  0  0  0  0  0  0  0  0
  151.7660  141.8348  155.8829 H   0  0  0  0  0  0  0  0  0  0  0  0
  150.1886  142.4782  155.5505 H   0  0  0  0  0  0  0  0  0  0  0  0
  149.9069  142.8444  158.0810 H   0  0  0  0  0  0  0  0  0  0  0  0
  150.6566  144.4274  156.5294 H   0  0  0  0  0  0  0  0  0  0  0  0
  151.8191  143.9178  159.9348 H   0  0  0  0  0  0  0  0  0  0  0  0
  153.4569  142.9509  161.5264 H   0  0  0  0  0  0  0  0  0  0  0  0
  154.4645  140.7200  161.0819 H   0  0  0  0  0  0  0  0  0  0  0  0
  153.8257  139.4526  159.0369 H   0  0  0  0  0  0  0  0  0  0  0  0
  152.1862  140.4108  157.4404 H   0  0  0  0  0  0  0  0  0  0  0  0
  1  2  1  0  0  0  0
  1 22  1  0  0  0  0
  1 23  1  0  0  0  0
  1 24  1  0  0  0  0
  2  9  1  0  0  0  0
  2  3  1  0  0  0  0
  3  4  2  0  0  0  0
  3  5  1  0  0  0  0
  5  6  1  0  0  0  0
  6  7  2  0  0  0  0
  6  8  1  0  0  0  0
  8 12  1  0  0  0  0
  8  9  2  0  0  0  0
  9 10  1  0  0  0  0
 10 11  2  0  0  0  0
 11 12  1  0  0  0  0
 11 25  1  0  0  0  0
 12 13  1  0  0  0  0
 13 14  1  0  0  0  0
 13 26  1  0  0  0  0
 13 27  1  0  0  0  0
 14 15  1  0  0  0  0
 14 16  1  0  0  0  0
 14 28  1  0  0  0  0
 15 29  1  0  0  0  0
 16 21  1  0  0  0  0
 16 17  2  0  0  0  0
 17 18  1  0  0  0  0
 17 30  1  0  0  0  0
 18 19  2  0  0  0  0
 18 31  1  0  0  0  0
 19 20  1  0  0  0  0
 19 32  1  0  0  0  0
 20 21  2  0  0  0  0
 20 33  1  0  0  0  0
 21 34  1  0  0  0  0
M  CHG  1   5  -1
M  END
> <s_m_source_file>
AV-unprocessed.smi

> <i_m_source_file_index>
2556

> <i_lp_mmshare_version>
43012

> <i_f3d_flags>
0

> <s_epik_input>
Tz1jMVtuSF1jKD1PKW4oW0NIM10pYyhjMTIpbltjSF1uMltDSDJdW0NASF0oW09IXSljM1tjSF1bY0hdW2NIXVtjSF1bY0hdMw==

> <s_epik_cmdline>
J2VwaWtfcHl0aG9uJywgJy1waCcsICc3LjAnLCAnLXRuJywgJzgnLCAnLW1hJywgJzIwMCcsICctbWV0YWxfYmluZGluZycsICctaW1hZScsICc8aW5maWxlLm1hZT4nLCAnLW9tYWUnLCAnPG91dGZpbGUubWFlPic=

> <r_lp_tautomer_probability>
1

> <r_epik_Ionization_Penalty>
4.84872

> <r_epik_Ionization_Penalty_Charging>
0.03865

> <r_epik_Ionization_Penalty_Neutral>
4.81007

> <r_epik_State_Penalty>
4.80988

> <r_epik_Charging_Adjusted_Penalty>
4.84853

> <i_epik_Tot_Q>
-1

> <i_epik_Tot_abs_Q>
1

> <r_epik_Metal_State_Penalty>
0.994041

> <b_epik_Metal_Only>
1

> <s_lp_Force_Field>
OPLS_2005

> <r_lp_Energy>
33.4055

> <b_lp_Chiralities_Consistent>
1

> <s_lp_Variant>
AV-unprocessed.smi:2556-3

> <Gold.Version>
5.8.1

> <Gold.Id.Protein>
6NUR|6NUR_protein|mol2

> <Gold.PLP.Fitness>
44.9658

> <Gold.PLP.PLP>
-35.1732

> <Gold.PLP.part.hbond>
-4.4167

> <Gold.PLP.part.metal>
0.0000

> <Gold.PLP.part.buried>
-5.2481

> <Gold.PLP.part.nonpolar>
-26.5447

> <Gold.PLP.part.repulsive>
0.1498

> <Gold.PLP.ligand.clash>
0.0000

> <Gold.PLP.ligand.torsion>
0.3051

> <Gold.PLP.Chemscore.Hbond>
3.4576

> <Gold.PLP.Chemscore.CHOScore>
0.0000

> <Gold.PLP.Chemscore.Metal>
0.0000

> <Gold.Chemscore.Hbonds>
donor molecule, donor type, donor heavy atom, donor atom, acceptor molecule, acceptor atom, score
      L1  H    15    29       P1  8028  1.00
      P1  H  7989  7998       L1     7  0.46
      P1  H  7997  8008       L1     7  1.00
      P1  H 10752 10765       L1     4  1.00

> <Gold.PLP.Chemscore.Internal.Correction>
0.0300

> <Gold.Rescore>
     Score         DG    S(hbond)    S(metal)    S(lipo)     H(rot)  DE(clash)    DE(int)     intcor
     17.11     -18.76       2.77        0.00      84.55       2.28       0.41       1.24       ----

> <Gold.Chemscore.Fitness>
17.1081

> <Gold.Chemscore.DG>
-18.7648

> <Gold.Chemscore.ZeroCoef>
-5.4800

> <Gold.Chemscore.Hbond>
2.7650

> <Gold.Chemscore.Metal>
0.0000

> <Gold.Chemscore.Lipo>
84.5522

> <Gold.Chemscore.Internal_Hbond>
0.0000

> <Gold.Chemscore.DEClash>
0.4136

> <Gold.Chemscore.DEInternal>
1.2431

> <Gold.Chemscore.Rot>
2.2824

> <Gold.Chemscore.Internal.Correction>
   9.000000E+99

> <Gold.Chemscore.Hbonds>
donor molecule, donor type, donor heavy atom, donor atom, acceptor molecule, acceptor atom, score
      L1  H    15    29       P1  8028  0.94
      P1  H  7989  7998       L1     7  0.25
      P1  H  7997  8008       L1     7  0.94
      P1  H 10752 10765       L1     4  0.30

> <Gold.Chemscore.Hbond.Weighted>
-9.2352

> <Gold.Chemscore.Metal.Weighted>
-0.0000

> <Gold.Chemscore.Lipo.Weighted>
-9.8926

> <Gold.Chemscore.Internal_Hbond.Weighted>
0.0000

> <Gold.Chemscore.DEClash.Weighted>
0.4136

> <Gold.Chemscore.DEInternal.Weighted>
1.2431

> <Gold.Chemscore.Rot.Weighted>
5.8431

> <Gold.Chemscore.Internal.Correction.Weighted>
   9.000000E+99

> <Gold.Protein.RotatedTorsions>
[ 6907 6896 6895 6894 ] final   83.92 input  -60.11 | X-H torsion
[ 7974 7965 7964 7962 ] final  158.86 input  175.53 | X-H torsion
[ 8008 7997 7996 7995 ] final  -24.50 input   59.86 | X-H torsion
[ 10167 10162 10161 10158 ] final  176.21 input  -65.29 | X-H torsion
[ 10718 10713 10712 10709 ] final -148.80 input   66.30 | X-H torsion
[ 10763 10752 10751 10750 ] final -167.16 input  -60.55 | X-H torsion
[ 11005 11000 10999 10996 ] final  129.10 input  -57.11 | X-H torsion

> <Gold.Protein.ActiveResidues>
 VAL166  LYS551  ARG553  GLY616  TRP617  ASP618  TYR619  PRO620  LYS621  CYS622 
 ASP623  PHE694  ASN695  SER759  ASP760  ASP761  ALA762  ILE779  LEU786  VAL792 
 PHE793  MET794  SER795  GLU796  ALA797  LYS798  CYS799  TRP800  GLU811  SER814 

> <Gold.Protein.RotatedAtoms>
  152.5339  134.2821  159.9011 H   0  0  0  0  0  0  0  0  0  0  0  0  # atno 6907 bound_to 6896
  151.2775  133.4219  159.2632 H   0  0  0  0  0  0  0  0  0  0  0  0  # atno 6908 bound_to 6896
  151.0313  134.9556  159.8169 H   0  0  0  0  0  0  0  0  0  0  0  0  # atno 6909 bound_to 6896
  144.7822  139.7537  143.6255 H   0  0  0  0  0  0  0  0  0  0  0  0  # atno 7974 bound_to 7965
  154.4526  140.1952  156.0474 H   0  0  0  0  0  0  0  0  0  0  0  0  # atno 8008 bound_to 7997
  156.0679  140.3288  155.7513 H   0  0  0  0  0  0  0  0  0  0  0  0  # atno 8009 bound_to 7997
  155.5309  140.0578  157.2880 H   0  0  0  0  0  0  0  0  0  0  0  0  # atno 8010 bound_to 7997
  139.5206  144.2941  152.0437 H   0  0  0  0  0  0  0  0  0  0  0  0  # atno 10167 bound_to 10162
  156.4249  130.8047  151.2271 H   0  0  0  0  0  0  0  0  0  0  0  0  # atno 10718 bound_to 10713
  154.6760  135.2947  154.9678 H   0  0  0  0  0  0  0  0  0  0  0  0  # atno 10763 bound_to 10752
  154.0689  135.6621  153.4825 H   0  0  0  0  0  0  0  0  0  0  0  0  # atno 10764 bound_to 10752
  153.0516  135.5170  154.7779 H   0  0  0  0  0  0  0  0  0  0  0  0  # atno 10765 bound_to 10752
  139.9597  134.9605  156.9099 H   0  0  0  0  0  0  0  0  0  0  0  0  # atno 11005 bound_to 11000
  146.2036  139.5346  142.9727 LP  0  0  0  0  0  0  0  0  0  0  0  0  # atno 17320 bound_to 7965
  145.6019  141.0354  143.2014 LP  0  0  0  0  0  0  0  0  0  0  0  0  # atno 17321 bound_to 7965
  140.2391  144.4288  150.6267 LP  0  0  0  0  0  0  0  0  0  0  0  0  # atno 17342 bound_to 10162
  140.6303  143.2186  151.6510 LP  0  0  0  0  0  0  0  0  0  0  0  0  # atno 17343 bound_to 10162
  157.7508  131.0216  150.3759 LP  0  0  0  0  0  0  0  0  0  0  0  0  # atno 17370 bound_to 10713
  156.4084  130.3929  149.6909 LP  0  0  0  0  0  0  0  0  0  0  0  0  # atno 17371 bound_to 10713
  140.5528  134.0610  155.7374 LP  0  0  0  0  0  0  0  0  0  0  0  0  # atno 17394 bound_to 11000
  141.1273  133.9362  157.2609 LP  0  0  0  0  0  0  0  0  0  0  0  0  # atno 17395 bound_to 11000

$$$$
