AV-unprocessed.smi:1381|AV-procd|sdf|5604|dock3
  -GOLD-   22720 5213D 1   1.00000     0.00000
 Structure written by MMmdl.
 42 43  0  0  0  0  0  0  0  0  1 V2000
  144.4138  131.4357  150.7538 C   0  0  0  0  0  0  0  0  0  0  0  0
  144.6587  132.8625  151.1075 C   0  0  0  0  0  0  0  0  0  0  0  0
  145.7907  133.6262  151.1610 C   0  0  0  0  0  0  0  0  0  0  0  0
  145.3024  134.8931  151.5773 C   0  0  0  0  0  0  0  0  0  0  0  0
  146.1850  135.9877  151.7628 N   0  0  0  0  0  0  0  0  0  0  0  0
  145.8891  137.2045  152.2505 C   0  0  0  0  0  0  0  0  0  0  0  0
  144.7693  137.5730  152.6067 O   0  0  0  0  0  0  0  0  0  0  0  0
  146.9767  137.9866  152.3021 N   0  0  0  0  0  0  0  0  0  0  0  0
  146.9895  139.3727  152.7587 C   0  0  0  0  0  0  0  0  0  0  0  0
  146.9939  139.4714  154.2968 C   0  0  0  0  0  0  0  0  0  0  0  0
  148.2945  139.7583  154.9036 N   0  0  0  0  0  0  0  0  0  0  0  0
  148.7252  141.1367  154.6811 C   0  0  0  0  0  0  0  0  0  0  0  0
  150.1103  141.4339  155.2900 C   0  0  1  0  0  0  0  0  0  0  0  0
  150.0877  141.5555  156.8235 C   0  0  0  0  0  0  0  0  0  0  0  0
  151.0641  140.4663  154.8491 O   0  0  0  0  0  0  0  0  0  0  0  0
  150.6871  139.1054  155.0500 C   0  0  2  0  0  0  0  0  0  0  0  0
  151.7828  138.2157  154.4531 C   0  0  0  0  0  0  0  0  0  0  0  0
  149.3174  138.8535  154.3954 C   0  0  0  0  0  0  0  0  0  0  0  0
  143.9905  134.9028  151.7592 N   0  0  0  0  0  0  0  0  0  0  0  0
  143.5713  133.6013  151.4588 O   0  0  0  0  0  0  0  0  0  0  0  0
  145.3111  130.9784  150.3366 H   0  0  0  0  0  0  0  0  0  0  0  0
  143.6165  131.3504  150.0152 H   0  0  0  0  0  0  0  0  0  0  0  0
  144.1219  130.8644  151.6353 H   0  0  0  0  0  0  0  0  0  0  0  0
  146.8035  133.3235  150.9396 H   0  0  0  0  0  0  0  0  0  0  0  0
  147.1464  135.8240  151.5033 H   0  0  0  0  0  0  0  0  0  0  0  0
  147.8560  137.6049  151.9857 H   0  0  0  0  0  0  0  0  0  0  0  0
  147.8647  139.8841  152.3550 H   0  0  0  0  0  0  0  0  0  0  0  0
  146.1265  139.8864  152.3365 H   0  0  0  0  0  0  0  0  0  0  0  0
  146.2899  140.2546  154.5815 H   0  0  0  0  0  0  0  0  0  0  0  0
  146.5904  138.5487  154.7161 H   0  0  0  0  0  0  0  0  0  0  0  0
  148.7624  141.3350  153.6088 H   0  0  0  0  0  0  0  0  0  0  0  0
  148.0007  141.8358  155.0978 H   0  0  0  0  0  0  0  0  0  0  0  0
  150.4476  142.3947  154.9003 H   0  0  0  0  0  0  0  0  0  0  0  0
  149.4471  142.3797  157.1376 H   0  0  0  0  0  0  0  0  0  0  0  0
  151.0876  141.7482  157.2125 H   0  0  0  0  0  0  0  0  0  0  0  0
  149.7115  140.6514  157.3016 H   0  0  0  0  0  0  0  0  0  0  0  0
  150.6233  138.9008  156.1193 H   0  0  0  0  0  0  0  0  0  0  0  0
  151.5497  137.1595  154.5908 H   0  0  0  0  0  0  0  0  0  0  0  0
  152.7439  138.4088  154.9301 H   0  0  0  0  0  0  0  0  0  0  0  0
  151.8992  138.3969  153.3842 H   0  0  0  0  0  0  0  0  0  0  0  0
  149.0185  137.8207  154.5789 H   0  0  0  0  0  0  0  0  0  0  0  0
  149.4032  138.9648  153.3133 H   0  0  0  0  0  0  0  0  0  0  0  0
  1  2  1  0  0  0  0
  1 21  1  0  0  0  0
  1 22  1  0  0  0  0
  1 23  1  0  0  0  0
  2 20  1  0  0  0  0
  2  3  2  0  0  0  0
  3  4  1  0  0  0  0
  3 24  1  0  0  0  0
  4  5  1  0  0  0  0
  4 19  2  0  0  0  0
  5  6  1  0  0  0  0
  5 25  1  0  0  0  0
  6  7  2  0  0  0  0
  6  8  1  0  0  0  0
  8  9  1  0  0  0  0
  8 26  1  0  0  0  0
  9 10  1  0  0  0  0
  9 27  1  0  0  0  0
  9 28  1  0  0  0  0
 10 11  1  0  0  0  0
 10 29  1  0  0  0  0
 10 30  1  0  0  0  0
 11 18  1  0  0  0  0
 11 12  1  0  0  0  0
 12 13  1  0  0  0  0
 12 31  1  0  0  0  0
 12 32  1  0  0  0  0
 13 14  1  0  0  0  0
 13 15  1  0  0  0  0
 13 33  1  0  0  0  0
 14 34  1  0  0  0  0
 14 35  1  0  0  0  0
 14 36  1  0  0  0  0
 15 16  1  0  0  0  0
 16 17  1  0  0  0  0
 16 18  1  0  0  0  0
 16 37  1  0  0  0  0
 17 38  1  0  0  0  0
 17 39  1  0  0  0  0
 17 40  1  0  0  0  0
 18 41  1  0  0  0  0
 18 42  1  0  0  0  0
 19 20  1  0  0  0  0
M  END
> <s_m_source_file>
AV-unprocessed.smi

> <i_m_source_file_index>
1381

> <i_lp_mmshare_version>
43012

> <i_f3d_flags>
0

> <s_epik_input>
W0NIM11jMVtjSF1jKG5vMSlbTkhdQyg9TylbTkhdW0NIMl1bQ0gyXU4yW0NIMl1bQ0BASF0oW0NIM10pT1tDQEBIXShbQ0gzXSlbQ0gyXTI=

> <s_epik_cmdline>
J2VwaWtfcHl0aG9uJywgJy1waCcsICc3LjAnLCAnLXRuJywgJzgnLCAnLW1hJywgJzIwMCcsICctbWV0YWxfYmluZGluZycsICctaW1hZScsICc8aW5maWxlLm1hZT4nLCAnLW9tYWUnLCAnPG91dGZpbGUubWFlPic=

> <r_epik_Ionization_Penalty>
0.214073

> <r_epik_Ionization_Penalty_Charging>
0

> <r_epik_Ionization_Penalty_Neutral>
0.214073

> <r_epik_State_Penalty>
0.204211

> <r_epik_Charging_Adjusted_Penalty>
0.204211

> <i_epik_Tot_Q>
0

> <i_epik_Tot_abs_Q>
0

> <r_epik_Metal_State_Penalty>
0.217067

> <b_epik_Metal_Only>
0

> <s_lp_Force_Field>
OPLS_2005

> <r_lp_Energy>
24.2919

> <b_lp_Chiralities_Consistent>
1

> <s_lp_Variant>
AV-unprocessed.smi:1381-3

> <Gold.Version>
5.8.1

> <Gold.Id.Protein>
6NUR|6NUR_protein|mol2

> <Gold.PLP.Fitness>
41.5968

> <Gold.PLP.PLP>
-33.6342

> <Gold.PLP.part.hbond>
-2.8398

> <Gold.PLP.part.metal>
0.0000

> <Gold.PLP.part.buried>
-5.0509

> <Gold.PLP.part.nonpolar>
-26.4906

> <Gold.PLP.part.repulsive>
1.3334

> <Gold.PLP.ligand.clash>
0.0000

> <Gold.PLP.ligand.torsion>
0.4985

> <Gold.PLP.Chemscore.Hbond>
2.9760

> <Gold.PLP.Chemscore.CHOScore>
0.0000

> <Gold.PLP.Chemscore.Metal>
0.0000

> <Gold.Chemscore.Hbonds>
donor molecule, donor type, donor heavy atom, donor atom, acceptor molecule, acceptor atom, score
      L1  H     5    25       P1  7948  0.96
      L1  H     8    26       P1  7948  1.00
      P1  H  7989  7998       L1    15  0.96

> <Gold.PLP.Chemscore.Internal.Correction>
0.0317

> <Gold.Rescore>
     Score         DG    S(hbond)    S(metal)    S(lipo)     H(rot)  DE(clash)    DE(int)     intcor
     17.80     -19.59       2.79        0.00      75.26       1.57       0.07       1.72       ----

> <Gold.Chemscore.Fitness>
17.8044

> <Gold.Chemscore.DG>
-19.5925

> <Gold.Chemscore.ZeroCoef>
-5.4800

> <Gold.Chemscore.Hbond>
2.7922

> <Gold.Chemscore.Metal>
0.0000

> <Gold.Chemscore.Lipo>
75.2571

> <Gold.Chemscore.Internal_Hbond>
0.0000

> <Gold.Chemscore.DEClash>
0.0710

> <Gold.Chemscore.DEInternal>
1.7170

> <Gold.Chemscore.Rot>
1.5697

> <Gold.Chemscore.Internal.Correction>
   9.000000E+99

> <Gold.Chemscore.Hbonds>
donor molecule, donor type, donor heavy atom, donor atom, acceptor molecule, acceptor atom, score
      L1  H     5    25       P1  7948  0.92
      L1  H     8    26       P1  7948  0.95
      P1  H  7989  7998       L1    15  0.64

> <Gold.Chemscore.Hbond.Weighted>
-9.3259

> <Gold.Chemscore.Metal.Weighted>
-0.0000

> <Gold.Chemscore.Lipo.Weighted>
-8.8051

> <Gold.Chemscore.Internal_Hbond.Weighted>
0.0000

> <Gold.Chemscore.DEClash.Weighted>
0.0710

> <Gold.Chemscore.DEInternal.Weighted>
1.7170

> <Gold.Chemscore.Rot.Weighted>
4.0185

> <Gold.Chemscore.Internal.Correction.Weighted>
   9.000000E+99

> <Gold.Protein.RotatedTorsions>
[ 6907 6896 6895 6894 ] final  138.60 input  -60.11 | X-H torsion
[ 7974 7965 7964 7962 ] final -174.08 input  175.53 | X-H torsion
[ 8008 7997 7996 7995 ] final  -80.46 input   59.86 | X-H torsion
[ 10167 10162 10161 10158 ] final -179.69 input  -65.29 | X-H torsion
[ 10718 10713 10712 10709 ] final  174.52 input   66.30 | X-H torsion
[ 10763 10752 10751 10750 ] final  117.98 input  -60.55 | X-H torsion
[ 11005 11000 10999 10996 ] final   14.25 input  -57.11 | X-H torsion

> <Gold.Protein.ActiveResidues>
 VAL166  LYS551  ARG553  GLY616  TRP617  ASP618  TYR619  PRO620  LYS621  CYS622 
 ASP623  PHE694  ASN695  SER759  ASP760  ASP761  ALA762  ILE779  LEU786  VAL792 
 PHE793  MET794  SER795  GLU796  ALA797  LYS798  CYS799  TRP800  GLU811  SER814 

> <Gold.Protein.RotatedAtoms>
  152.2647  133.5329  159.5402 H   0  0  0  0  0  0  0  0  0  0  0  0  # atno 6907 bound_to 6896
  150.7137  134.0781  159.3897 H   0  0  0  0  0  0  0  0  0  0  0  0  # atno 6908 bound_to 6896
  151.8697  135.0494  160.0529 H   0  0  0  0  0  0  0  0  0  0  0  0  # atno 6909 bound_to 6896
  144.7134  140.1525  143.6383 H   0  0  0  0  0  0  0  0  0  0  0  0  # atno 7974 bound_to 7965
  154.5885  140.0662  156.9205 H   0  0  0  0  0  0  0  0  0  0  0  0  # atno 8008 bound_to 7997
  155.2337  140.3339  155.4282 H   0  0  0  0  0  0  0  0  0  0  0  0  # atno 8009 bound_to 7997
  156.2239  140.1811  156.7394 H   0  0  0  0  0  0  0  0  0  0  0  0  # atno 8010 bound_to 7997
  139.5375  144.2456  152.0825 H   0  0  0  0  0  0  0  0  0  0  0  0  # atno 10167 bound_to 10162
  156.9484  131.0023  151.2954 H   0  0  0  0  0  0  0  0  0  0  0  0  # atno 10718 bound_to 10713
  153.5606  135.3521  155.2798 H   0  0  0  0  0  0  0  0  0  0  0  0  # atno 10763 bound_to 10752
  154.8695  135.4136  154.2835 H   0  0  0  0  0  0  0  0  0  0  0  0  # atno 10764 bound_to 10752
  153.3580  135.7058  153.6804 H   0  0  0  0  0  0  0  0  0  0  0  0  # atno 10765 bound_to 10752
  140.4717  134.1025  155.7734 H   0  0  0  0  0  0  0  0  0  0  0  0  # atno 11005 bound_to 11000
  145.9104  139.2483  143.1441 LP  0  0  0  0  0  0  0  0  0  0  0  0  # atno 17320 bound_to 7965
  145.9722  140.8751  143.0157 LP  0  0  0  0  0  0  0  0  0  0  0  0  # atno 17321 bound_to 7965
  140.1929  144.4734  150.6470 LP  0  0  0  0  0  0  0  0  0  0  0  0  # atno 17342 bound_to 10162
  140.6589  143.2246  151.5903 LP  0  0  0  0  0  0  0  0  0  0  0  0  # atno 17343 bound_to 10162
  157.5738  130.8329  149.8428 LP  0  0  0  0  0  0  0  0  0  0  0  0  # atno 17370 bound_to 10713
  156.0373  130.3748  150.1526 LP  0  0  0  0  0  0  0  0  0  0  0  0  # atno 17371 bound_to 10713
  141.1574  133.8857  157.1941 LP  0  0  0  0  0  0  0  0  0  0  0  0  # atno 17394 bound_to 11000
  139.9881  135.0074  156.9911 LP  0  0  0  0  0  0  0  0  0  0  0  0  # atno 17395 bound_to 11000

$$$$
