AV-unprocessed.smi:478|AV-procd|sdf|2671|dock3
  -GOLD-   2262023 83D 1   1.00000     0.00000
 Structure written by MMmdl.
 41 42  0  0  0  0  0  0  0  0  1 V2000
  152.7342  137.8392  159.6967 C   0  0  0  0  0  0  0  0  0  0  0  0
  152.9857  137.4901  158.2947 N   0  0  0  0  0  0  0  0  0  0  0  0
  154.2909  136.8512  158.0920 C   0  0  0  0  0  0  0  0  0  0  0  0
  151.6464  136.8398  157.4098 S   0  0  0  0  0  0  0  0  0  0  0  0
  152.1497  135.7041  156.6214 O   0  0  0  0  0  0  0  0  0  0  0  0
  150.5430  136.6351  158.3617 O   0  0  0  0  0  0  0  0  0  0  0  0
  151.1261  138.1320  156.2488 C   0  0  0  0  0  0  0  0  0  0  0  0
  150.7975  137.8034  154.8803 C   0  0  0  0  0  0  0  0  0  0  0  0
  150.2746  138.7405  154.0648 C   0  0  0  0  0  0  0  0  0  0  0  0
  150.0192  140.1095  154.5284 C   0  0  0  0  0  0  0  0  0  0  0  0
  149.5556  140.9753  153.7859 O   0  0  0  0  0  0  0  0  0  0  0  0
  150.3224  140.3619  155.8393 N   0  0  0  0  0  0  0  0  0  0  0  0
  150.0888  141.6924  156.4236 C   0  0  0  0  0  0  0  0  0  0  0  0
  149.0300  141.6627  157.5349 C   0  0  0  0  0  0  0  0  0  0  0  0
  148.6748  140.5757  157.9968 O   0  0  0  0  0  0  0  0  0  0  0  0
  148.5677  142.8744  157.9220 N   0  0  0  0  0  0  0  0  0  0  0  0
  147.6448  143.2212  158.8508 C   0  0  0  0  0  0  0  0  0  0  0  0
  146.9214  142.3665  159.3602 O   0  0  0  0  0  0  0  0  0  0  0  0
  147.5650  144.5242  159.1789 N   0  0  0  0  0  0  0  0  0  0  0  0
  146.9782  145.0520  160.3676 C   0  0  0  0  0  0  0  0  0  0  0  0
  147.8331  145.0742  161.6163 C   0  0  0  0  0  0  0  0  0  0  0  0
  146.7009  144.0915  161.5037 C   0  0  0  0  0  0  0  0  0  0  0  0
  150.8495  139.3702  156.6902 C   0  0  0  0  0  0  0  0  0  0  0  0
  153.5813  138.3804  160.1193 H   0  0  0  0  0  0  0  0  0  0  0  0
  152.5642  136.9374  160.2858 H   0  0  0  0  0  0  0  0  0  0  0  0
  151.8547  138.4778  159.7785 H   0  0  0  0  0  0  0  0  0  0  0  0
  155.0827  137.4340  158.5636 H   0  0  0  0  0  0  0  0  0  0  0  0
  154.5202  136.7757  157.0297 H   0  0  0  0  0  0  0  0  0  0  0  0
  154.2926  135.8480  158.5199 H   0  0  0  0  0  0  0  0  0  0  0  0
  150.9737  136.8057  154.5060 H   0  0  0  0  0  0  0  0  0  0  0  0
  150.0367  138.4794  153.0441 H   0  0  0  0  0  0  0  0  0  0  0  0
  151.0106  142.0957  156.8452 H   0  0  0  0  0  0  0  0  0  0  0  0
  149.8009  142.3997  155.6432 H   0  0  0  0  0  0  0  0  0  0  0  0
  148.9820  143.6569  157.4369 H   0  0  0  0  0  0  0  0  0  0  0  0
  147.9465  145.1947  158.5262 H   0  0  0  0  0  0  0  0  0  0  0  0
  146.2765  145.8775  160.2562 H   0  0  0  0  0  0  0  0  0  0  0  0
  148.8456  144.6809  161.5482 H   0  0  0  0  0  0  0  0  0  0  0  0
  147.7048  145.9134  162.2969 H   0  0  0  0  0  0  0  0  0  0  0  0
  145.8153  144.2742  162.1091 H   0  0  0  0  0  0  0  0  0  0  0  0
  146.9579  143.0438  161.3589 H   0  0  0  0  0  0  0  0  0  0  0  0
  150.9936  139.6773  157.7160 H   0  0  0  0  0  0  0  0  0  0  0  0
  1  2  1  0  0  0  0
  1 24  1  0  0  0  0
  1 25  1  0  0  0  0
  1 26  1  0  0  0  0
  2  3  1  0  0  0  0
  2  4  1  0  0  0  0
  3 27  1  0  0  0  0
  3 28  1  0  0  0  0
  3 29  1  0  0  0  0
  4  5  2  0  0  0  0
  4  6  2  0  0  0  0
  4  7  1  0  0  0  0
  7 23  2  0  0  0  0
  7  8  1  0  0  0  0
  8  9  2  0  0  0  0
  8 30  1  0  0  0  0
  9 10  1  0  0  0  0
  9 31  1  0  0  0  0
 10 11  2  0  0  0  0
 10 12  1  0  0  0  0
 12 13  1  0  0  0  0
 12 23  1  0  0  0  0
 13 14  1  0  0  0  0
 13 32  1  0  0  0  0
 13 33  1  0  0  0  0
 14 15  2  0  0  0  0
 14 16  1  0  0  0  0
 16 17  1  0  0  0  0
 16 34  1  0  0  0  0
 17 18  2  0  0  0  0
 17 19  1  0  0  0  0
 19 20  1  0  0  0  0
 19 35  1  0  0  0  0
 20 22  1  0  0  0  0
 20 21  1  0  0  0  0
 20 36  1  0  0  0  0
 21 22  1  0  0  0  0
 21 37  1  0  0  0  0
 21 38  1  0  0  0  0
 22 39  1  0  0  0  0
 22 40  1  0  0  0  0
 23 41  1  0  0  0  0
M  END
> <s_m_source_file>
AV-unprocessed.smi

> <i_m_source_file_index>
478

> <i_lp_mmshare_version>
43012

> <i_f3d_flags>
0

> <s_epik_input>
W0NIM11OKFtDSDNdKVMoPU8pKD1PKWMxW2NIXVtjSF1jKD1PKW4oW2NIXTEpW0NIMl1DKD1PKVtOSF1DKD1PKVtOSF1bQ0hdMltDSDJdW0NIMl0y

> <s_epik_cmdline>
J2VwaWtfcHl0aG9uJywgJy1waCcsICc3LjAnLCAnLXRuJywgJzgnLCAnLW1hJywgJzIwMCcsICctbWV0YWxfYmluZGluZycsICctaW1hZScsICc8aW5maWxlLm1hZT4nLCAnLW9tYWUnLCAnPG91dGZpbGUubWFlPic=

> <r_lp_tautomer_probability>
1

> <r_epik_Ionization_Penalty>
3.37124e-05

> <r_epik_Ionization_Penalty_Charging>
7.23904e-09

> <r_epik_Ionization_Penalty_Neutral>
3.37051e-05

> <r_epik_State_Penalty>
-0

> <r_epik_Charging_Adjusted_Penalty>
7.23904e-09

> <i_epik_Tot_Q>
0

> <i_epik_Tot_abs_Q>
0

> <r_epik_Metal_State_Penalty>
-0

> <b_epik_Metal_Only>
0

> <s_lp_Force_Field>
OPLS_2005

> <r_lp_Energy>
28.3578

> <b_lp_Chiralities_Consistent>
1

> <s_lp_Variant>
AV-unprocessed.smi:478-1

> <Gold.Version>
5.8.1

> <Gold.Id.Protein>
6NUR|6NUR_protein|mol2

> <Gold.PLP.Fitness>
48.2265

> <Gold.PLP.PLP>
-34.8520

> <Gold.PLP.part.hbond>
-7.5824

> <Gold.PLP.part.metal>
0.0000

> <Gold.PLP.part.buried>
-4.7200

> <Gold.PLP.part.nonpolar>
-24.6928

> <Gold.PLP.part.repulsive>
2.4423

> <Gold.PLP.ligand.clash>
0.0000

> <Gold.PLP.ligand.torsion>
1.9192

> <Gold.PLP.Chemscore.Hbond>
4.8480

> <Gold.PLP.Chemscore.CHOScore>
0.0000

> <Gold.PLP.Chemscore.Metal>
0.0000

> <Gold.Chemscore.Hbonds>
donor molecule, donor type, donor heavy atom, donor atom, acceptor molecule, acceptor atom, score
      L1  H    16    34       P1  8028  0.72
      L1  H    19    35       P1  8029  0.81
      P1  H  6896  6908       L1     6  0.50
      P1  H  6934  6946       L1    18  0.83
      P1  H  8011  8017       L1    11  0.89
      P1  H 10752 10764       L1     5  1.00

> <Gold.PLP.Chemscore.Internal.Correction>
2.6688

> <Gold.Rescore>
     Score         DG    S(hbond)    S(metal)    S(lipo)     H(rot)  DE(clash)    DE(int)     intcor
     13.75     -21.29       4.25        0.00      56.39       1.95       1.50       6.04       ----

> <Gold.Chemscore.Fitness>
13.7534

> <Gold.Chemscore.DG>
-21.2935

> <Gold.Chemscore.ZeroCoef>
-5.4800

> <Gold.Chemscore.Hbond>
4.2507

> <Gold.Chemscore.Metal>
0.0000

> <Gold.Chemscore.Lipo>
56.3918

> <Gold.Chemscore.Internal_Hbond>
0.0000

> <Gold.Chemscore.DEClash>
1.5032

> <Gold.Chemscore.DEInternal>
6.0369

> <Gold.Chemscore.Rot>
1.9459

> <Gold.Chemscore.Internal.Correction>
   9.000000E+99

> <Gold.Chemscore.Hbonds>
donor molecule, donor type, donor heavy atom, donor atom, acceptor molecule, acceptor atom, score
      L1  H    16    34       P1  8028  0.14
      L1  H    19    35       P1  8029  0.77
      P1  H  6896  6908       L1     6  0.41
      P1  H  6934  6946       L1    18  0.79
      P1  H  8011  8017       L1    11  0.82
      P1  H 10752 10764       L1     5  1.00

> <Gold.Chemscore.Hbond.Weighted>
-14.1972

> <Gold.Chemscore.Metal.Weighted>
-0.0000

> <Gold.Chemscore.Lipo.Weighted>
-6.5978

> <Gold.Chemscore.Internal_Hbond.Weighted>
0.0000

> <Gold.Chemscore.DEClash.Weighted>
1.5032

> <Gold.Chemscore.DEInternal.Weighted>
6.0369

> <Gold.Chemscore.Rot.Weighted>
4.9815

> <Gold.Chemscore.Internal.Correction.Weighted>
   9.000000E+99

> <Gold.Protein.RotatedTorsions>
[ 6907 6896 6895 6894 ] final -163.45 input  -60.11 | X-H torsion
[ 7974 7965 7964 7962 ] final -160.14 input  175.53 | X-H torsion
[ 8008 7997 7996 7995 ] final   76.97 input   59.86 | X-H torsion
[ 10167 10162 10161 10158 ] final   16.88 input  -65.29 | X-H torsion
[ 10718 10713 10712 10709 ] final  173.49 input   66.30 | X-H torsion
[ 10763 10752 10751 10750 ] final  -18.98 input  -60.55 | X-H torsion
[ 11005 11000 10999 10996 ] final   14.44 input  -57.11 | X-H torsion

> <Gold.Protein.ActiveResidues>
 VAL166  LYS551  ARG553  GLY616  TRP617  ASP618  TYR619  PRO620  LYS621  CYS622 
 ASP623  PHE694  ASN695  SER759  ASP760  ASP761  ALA762  ILE779  LEU786  VAL792 
 PHE793  MET794  SER795  GLU796  ALA797  LYS798  CYS799  TRP800  GLU811  SER814 

> <Gold.Protein.RotatedAtoms>
  151.3962  133.3772  159.2726 H   0  0  0  0  0  0  0  0  0  0  0  0  # atno 6907 bound_to 6896
  150.9468  134.8873  159.7657 H   0  0  0  0  0  0  0  0  0  0  0  0  # atno 6908 bound_to 6896
  152.5095  134.3915  159.9438 H   0  0  0  0  0  0  0  0  0  0  0  0  # atno 6909 bound_to 6896
  144.7438  140.3585  143.6101 H   0  0  0  0  0  0  0  0  0  0  0  0  # atno 7974 bound_to 7965
  155.8350  140.3464  155.5596 H   0  0  0  0  0  0  0  0  0  0  0  0  # atno 8008 bound_to 7997
  155.8202  140.0911  157.1873 H   0  0  0  0  0  0  0  0  0  0  0  0  # atno 8009 bound_to 7997
  154.4004  140.1431  156.3478 H   0  0  0  0  0  0  0  0  0  0  0  0  # atno 8010 bound_to 7997
  140.5766  143.9061  150.6755 H   0  0  0  0  0  0  0  0  0  0  0  0  # atno 10167 bound_to 10162
  156.9635  131.0068  151.2922 H   0  0  0  0  0  0  0  0  0  0  0  0  # atno 10718 bound_to 10713
  153.5977  135.7000  153.5397 H   0  0  0  0  0  0  0  0  0  0  0  0  # atno 10763 bound_to 10752
  153.3124  135.4097  155.1347 H   0  0  0  0  0  0  0  0  0  0  0  0  # atno 10764 bound_to 10752
  154.8588  135.3675  154.5511 H   0  0  0  0  0  0  0  0  0  0  0  0  # atno 10765 bound_to 10752
  140.4695  134.1045  155.7730 H   0  0  0  0  0  0  0  0  0  0  0  0  # atno 11005 bound_to 11000
  145.7202  139.1708  143.2489 LP  0  0  0  0  0  0  0  0  0  0  0  0  # atno 17320 bound_to 7965
  146.1283  140.7219  142.9424 LP  0  0  0  0  0  0  0  0  0  0  0  0  # atno 17321 bound_to 7965
  140.2550  143.3565  152.1373 LP  0  0  0  0  0  0  0  0  0  0  0  0  # atno 17342 bound_to 10162
  139.5146  144.6950  151.5655 LP  0  0  0  0  0  0  0  0  0  0  0  0  # atno 17343 bound_to 10162
  157.5642  130.8266  149.8305 LP  0  0  0  0  0  0  0  0  0  0  0  0  # atno 17370 bound_to 10713
  156.0312  130.3764  150.1682 LP  0  0  0  0  0  0  0  0  0  0  0  0  # atno 17371 bound_to 10713
  141.1583  133.8840  157.1917 LP  0  0  0  0  0  0  0  0  0  0  0  0  # atno 17394 bound_to 11000
  139.9894  135.0070  156.9939 LP  0  0  0  0  0  0  0  0  0  0  0  0  # atno 17395 bound_to 11000

$$$$
