#       Name:                AV-unprocessed.smi:1988
#       Creating user name   scv26
#       Creation time:       Fri Mar 27 10:26:26 2020


#       File generated by GOLD software.
#

@<TRIPOS>MOLECULE
AV-unprocessed.smi:1988
    42    43     1
SMALL
NO_CHARGES


@<TRIPOS>ATOM
      1 ****        -0.9379   1.2520  -2.5849 C.3            1 S1                 0.0000
      2 ****        -1.6396  -0.0226  -2.2127 C.2            1 S1                 0.0000
      3 ****        -2.9430  -0.0042  -1.9910 N.2            1 S1                 0.0000
      4 ****        -3.2936  -1.3148  -1.6538 O.3            1 S1                 0.0000
      5 ****        -2.1728  -2.0797  -1.6834 C.2            1 S1                 0.0000
      6 ****        -2.3329  -3.5208  -1.3348 C.3            1 S1                 0.0000
      7 ****        -1.0877  -1.3244  -2.0331 C.2            1 S1                 0.0000
      8 ****         0.3486  -1.7586  -2.1738 C.3            1 S1                 0.0000
      9 ****         1.0778  -1.4922  -0.8588 C.2            1 S1                 0.0000
     10 ****         1.0817  -2.3476   0.0262 O.2            1 S1                 0.0000
     11 ****         1.6556  -0.2874  -0.7329 N.am           1 S1                 0.0000
     12 ****         2.2754   0.2321   0.4813 C.3            1 S1                 0.0000
     13 ****         1.3394   1.2159   1.2095 C.3            1 S1                 0.0000
     14 ****         1.9905   1.8267   2.4655 C.3            1 S1                 0.0000
     15 ****         0.9167   2.5812   3.2562 C.3            1 S1                 0.0000
     16 ****        -0.6340   1.6393   3.0064 S.o2           1 S1                 0.0000
     17 ****        -0.8846   0.7856   4.1775 O.2            1 S1                 0.0000
     18 ****        -1.6699   2.5506   2.4972 O.2            1 S1                 0.0000
     19 ****        -0.0051   0.5992   1.6354 C.3            1 S1                 0.0000
     20 ****        -0.0822   1.0581  -3.2311 H              1 S1                 0.0000
     21 ****        -0.5729   1.7673  -1.6962 H              1 S1                 0.0000
     22 ****        -1.6023   1.9342  -3.1160 H              1 S1                 0.0000
     23 ****        -1.8001  -3.7537  -0.4128 H              1 S1                 0.0000
     24 ****        -1.9332  -4.1556  -2.1254 H              1 S1                 0.0000
     25 ****        -3.3828  -3.7783  -1.1930 H              1 S1                 0.0000
     26 ****         0.4231  -2.8209  -2.4094 H              1 S1                 0.0000
     27 ****         0.8508  -1.2330  -2.9870 H              1 S1                 0.0000
     28 ****         1.6034   0.3431  -1.5200 H              1 S1                 0.0000
     29 ****         2.5744  -0.5775   1.1493 H              1 S1                 0.0000
     30 ****         3.1940   0.7445   0.1946 H              1 S1                 0.0000
     31 ****         1.1163   2.0412   0.5312 H              1 S1                 0.0000
     32 ****         2.3882   1.0248   3.0891 H              1 S1                 0.0000
     33 ****         2.8279   2.4776   2.2121 H              1 S1                 0.0000
     34 ****         1.1441   2.6615   4.3193 H              1 S1                 0.0000
     35 ****         0.7711   3.5834   2.8525 H              1 S1                 0.0000
     36 ****        -0.7358   0.5638   0.8271 H              1 S1                 0.0000
     37 ****         0.1317  -0.4114   2.0215 H              1 S1                 0.0000
     38 ****        -3.5532   0.7857  -2.0521 LP             1 S1                 0.0000
     39 ****        -3.9596  -1.6661  -2.3119 LP             1 S1                 0.0000
     40 ****        -3.6905  -1.3327  -0.7361 LP             1 S1                 0.0000
     41 ****         0.6075  -3.2164  -0.1162 LP             1 S1                 0.0000
     42 ****         1.5590  -2.1737   0.8875 LP             1 S1                 0.0000
@<TRIPOS>BOND
    1    1    2 1     
    2    1   20 1     
    3    1   21 1     
    4    1   22 1     
    5    2    7 1     
    6    2    3 2     
    7    3    4 1     
    8    4    5 1     
    9    5    6 1     
   10    5    7 2     
   11    6   23 1     
   12    6   24 1     
   13    6   25 1     
   14    7    8 1     
   15    8    9 1     
   16    8   26 1     
   17    8   27 1     
   18    9   10 2     
   19    9   11 am    
   20   11   12 1     
   21   11   28 1     
   22   12   13 1     
   23   12   29 1     
   24   12   30 1     
   25   13   19 1     
   26   13   14 1     
   27   13   31 1     
   28   14   15 1     
   29   14   32 1     
   30   14   33 1     
   31   15   16 1     
   32   15   34 1     
   33   15   35 1     
   34   16   17 2     
   35   16   18 2     
   36   16   19 1     
   37   19   36 1     
   38   19   37 1     
   39    3   38 1     
   40    4   39 1     
   41    4   40 1     
   42   10   41 1     
   43   10   42 1     
@<TRIPOS>SUBSTRUCTURE
      1 S1             1
@<TRIPOS>SET
LONE_PAIRS      STATIC     ATOMS    <user>   **** ""
7 38 39 40 41 42 17 18
DONOR_HYDROGENS      STATIC     ATOMS    <user>   **** ""
1 28
ATOM$BLUE        STATIC     ATOMS    COLORGROUP SYSTEM
7 38 39 40 41 42 17 18
ATOM$RED        STATIC     ATOMS    COLORGROUP SYSTEM
1 28
