AV-unprocessed.smi:1824|AV-procd|sdf|7404|dock3
  -GOLD-   22720 9 73D 1   1.00000     0.00000
 Structure written by MMmdl.
 45 47  0  0  0  0  0  0  0  0  2 V2000
  146.5772  138.4244  152.1238 C   0  0  0  0  0  0  0  0  0  0  0  0
  147.1262  138.3008  153.5564 C   0  0  1  0  0  0  0  0  0  0  0  0
  148.1995  139.3533  153.8990 C   0  0  0  0  0  0  0  0  0  0  0  0
  147.5934  140.6920  154.0902 N   0  3  2  0  0  0  0  0  0  0  0  0
  148.6070  141.7467  154.3480 C   0  0  0  0  0  0  0  0  0  0  0  0
  149.2710  141.6012  155.7315 C   0  0  2  0  0  0  0  0  0  0  0  0
  148.6210  142.4696  156.6410 O   0  0  0  0  0  0  0  0  0  0  0  0
  150.7736  141.9400  155.6827 C   0  0  0  0  0  0  0  0  0  0  0  0
  151.5169  141.3403  156.7772 N   0  0  0  0  0  0  0  0  0  0  0  0
  151.9923  140.0815  156.8394 C   0  0  0  0  0  0  0  0  0  0  0  0
  152.6512  139.7324  157.9404 N   0  0  0  0  0  0  0  0  0  0  0  0
  152.5996  140.9013  158.6803 C   0  0  0  0  0  0  0  0  0  0  0  0
  153.1191  141.2006  159.9601 C   0  0  0  0  0  0  0  0  0  0  0  0
  152.9413  142.4820  160.5221 C   0  0  0  0  0  0  0  0  0  0  0  0
  153.4469  142.7526  161.7490 F   0  0  0  0  0  0  0  0  0  0  0  0
  152.2408  143.4814  159.8145 C   0  0  0  0  0  0  0  0  0  0  0  0
  152.0729  144.7085  160.3617 F   0  0  0  0  0  0  0  0  0  0  0  0
  151.7138  143.2064  158.5380 C   0  0  0  0  0  0  0  0  0  0  0  0
  151.8957  141.9273  157.9802 C   0  0  0  0  0  0  0  0  0  0  0  0
  146.5255  140.6299  155.1169 C   0  0  0  0  0  0  0  0  0  0  0  0
  145.4633  139.5884  154.7215 C   0  0  2  0  0  0  0  0  0  0  0  0
  144.3848  139.4285  155.7983 C   0  0  0  0  0  0  0  0  0  0  0  0
  146.0879  138.3208  154.5358 O   0  0  0  0  0  0  0  0  0  0  0  0
  147.3700  138.2709  151.3914 H   0  0  0  0  0  0  0  0  0  0  0  0
  146.1429  139.4044  151.9280 H   0  0  0  0  0  0  0  0  0  0  0  0
  145.8082  137.6743  151.9370 H   0  0  0  0  0  0  0  0  0  0  0  0
  147.5910  137.3172  153.6304 H   0  0  0  0  0  0  0  0  0  0  0  0
  148.7183  139.0653  154.8148 H   0  0  0  0  0  0  0  0  0  0  0  0
  148.9500  139.3877  153.1081 H   0  0  0  0  0  0  0  0  0  0  0  0
  149.3578  141.7233  153.5567 H   0  0  0  0  0  0  0  0  0  0  0  0
  148.1390  142.7308  154.2908 H   0  0  0  0  0  0  0  0  0  0  0  0
  149.1599  140.5817  156.0998 H   0  0  0  0  0  0  0  0  0  0  0  0
  148.8655  143.3601  156.4389 H   0  0  0  0  0  0  0  0  0  0  0  0
  151.2077  141.5894  154.7454 H   0  0  0  0  0  0  0  0  0  0  0  0
  150.9241  143.0201  155.7082 H   0  0  0  0  0  0  0  0  0  0  0  0
  151.8449  139.3809  156.0303 H   0  0  0  0  0  0  0  0  0  0  0  0
  153.6560  140.4435  160.5118 H   0  0  0  0  0  0  0  0  0  0  0  0
  151.1776  143.9707  157.9960 H   0  0  0  0  0  0  0  0  0  0  0  0
  146.9631  140.3747  156.0835 H   0  0  0  0  0  0  0  0  0  0  0  0
  146.0499  141.6034  155.2310 H   0  0  0  0  0  0  0  0  0  0  0  0
  144.9733  139.8978  153.7983 H   0  0  0  0  0  0  0  0  0  0  0  0
  143.8688  140.3714  155.9808 H   0  0  0  0  0  0  0  0  0  0  0  0
  144.8148  139.0928  156.7426 H   0  0  0  0  0  0  0  0  0  0  0  0
  143.6373  138.6954  155.4939 H   0  0  0  0  0  0  0  0  0  0  0  0
  147.1515  140.9303  153.2133 H   0  0  0  0  0  0  0  0  0  0  0  0
  1  2  1  0  0  0  0
  1 24  1  0  0  0  0
  1 25  1  0  0  0  0
  1 26  1  0  0  0  0
  2 23  1  0  0  0  0
  2  3  1  0  0  0  0
  2 27  1  0  0  0  0
  3  4  1  0  0  0  0
  3 28  1  0  0  0  0
  3 29  1  0  0  0  0
  4  5  1  0  0  0  0
  4 20  1  0  0  0  0
  4 45  1  0  0  0  0
  5  6  1  0  0  0  0
  5 30  1  0  0  0  0
  5 31  1  0  0  0  0
  6  7  1  0  0  0  0
  6  8  1  0  0  0  0
  6 32  1  0  0  0  0
  7 33  1  0  0  0  0
  8  9  1  0  0  0  0
  8 34  1  0  0  0  0
  8 35  1  0  0  0  0
  9 19  1  0  0  0  0
  9 10  1  0  0  0  0
 10 11  2  0  0  0  0
 10 36  1  0  0  0  0
 11 12  1  0  0  0  0
 12 19  2  0  0  0  0
 12 13  1  0  0  0  0
 13 14  2  0  0  0  0
 13 37  1  0  0  0  0
 14 15  1  0  0  0  0
 14 16  1  0  0  0  0
 16 17  1  0  0  0  0
 16 18  2  0  0  0  0
 18 19  1  0  0  0  0
 18 38  1  0  0  0  0
 20 21  1  0  0  0  0
 20 39  1  0  0  0  0
 20 40  1  0  0  0  0
 21 22  1  0  0  0  0
 21 23  1  0  0  0  0
 21 41  1  0  0  0  0
 22 42  1  0  0  0  0
 22 43  1  0  0  0  0
 22 44  1  0  0  0  0
M  CHG  1   4   1
M  END
> <s_m_source_file>
AV-unprocessed.smi

> <i_m_source_file_index>
1824

> <i_lp_mmshare_version>
43012

> <i_f3d_flags>
0

> <s_epik_input>
W0NIM11bQ0BASF0xW0NIMl1OKFtDSDJdW0NASF0oTzEpW0NIM10pW0NIMl1bQ0BIXShbT0hdKVtDSDJdbihbY0hdbjIpYyhjMjMpW2NIXWMoRiljKEYpW2NIXTM=

> <s_epik_cmdline>
J2VwaWtfcHl0aG9uJywgJy1waCcsICc3LjAnLCAnLXRuJywgJzgnLCAnLW1hJywgJzIwMCcsICctbWV0YWxfYmluZGluZycsICctaW1hZScsICc8aW5maWxlLm1hZT4nLCAnLW9tYWUnLCAnPG91dGZpbGUubWFlPic=

> <r_epik_Ionization_Penalty>
0.61967

> <r_epik_Ionization_Penalty_Charging>
0.608065

> <r_epik_Ionization_Penalty_Neutral>
0.0116057

> <r_epik_State_Penalty>
0.664205

> <r_epik_Charging_Adjusted_Penalty>
1.27227

> <i_epik_Tot_Q>
1

> <i_epik_Tot_abs_Q>
1

> <r_epik_Metal_State_Penalty>
0.654947

> <b_epik_Metal_Only>
0

> <s_lp_Force_Field>
OPLS_2005

> <r_lp_Energy>
23.1423

> <b_lp_Chiralities_Consistent>
1

> <s_lp_Variant>
AV-unprocessed.smi:1824-12

> <Gold.Version>
5.8.1

> <Gold.Id.Protein>
6NUR|6NUR_protein|mol2

> <Gold.PLP.Fitness>
45.0333

> <Gold.PLP.PLP>
-41.1222

> <Gold.PLP.part.hbond>
-2.0000

> <Gold.PLP.part.metal>
0.0000

> <Gold.PLP.part.buried>
-1.5844

> <Gold.PLP.part.nonpolar>
-37.1357

> <Gold.PLP.part.repulsive>
0.1239

> <Gold.PLP.ligand.clash>
0.0000

> <Gold.PLP.ligand.torsion>
1.0951

> <Gold.PLP.Chemscore.Hbond>
2.0000

> <Gold.PLP.Chemscore.CHOScore>
0.0000

> <Gold.PLP.Chemscore.Metal>
0.0000

> <Gold.Chemscore.Hbonds>
donor molecule, donor type, donor heavy atom, donor atom, acceptor molecule, acceptor atom, score
      L1  H     7    33       P1  8028  1.00
      P1  H  7997  8008       L1    11  0.37

> <Gold.PLP.Chemscore.Internal.Correction>
0.1012

> <Gold.Rescore>
     Score         DG    S(hbond)    S(metal)    S(lipo)     H(rot)  DE(clash)    DE(int)     intcor
     13.12     -14.39       0.84        0.00     103.06       2.33       0.22       1.05       ----

> <Gold.Chemscore.Fitness>
13.1213

> <Gold.Chemscore.DG>
-14.3945

> <Gold.Chemscore.ZeroCoef>
-5.4800

> <Gold.Chemscore.Hbond>
0.8411

> <Gold.Chemscore.Metal>
0.0000

> <Gold.Chemscore.Lipo>
103.0562

> <Gold.Chemscore.Internal_Hbond>
0.0000

> <Gold.Chemscore.DEClash>
0.2219

> <Gold.Chemscore.DEInternal>
1.0513

> <Gold.Chemscore.Rot>
2.3251

> <Gold.Chemscore.Internal.Correction>
   9.000000E+99

> <Gold.Chemscore.Hbonds>
donor molecule, donor type, donor heavy atom, donor atom, acceptor molecule, acceptor atom, score
      L1  H     7    33       P1  8028  0.90

> <Gold.Chemscore.Hbond.Weighted>
-2.8092

> <Gold.Chemscore.Metal.Weighted>
-0.0000

> <Gold.Chemscore.Lipo.Weighted>
-12.0576

> <Gold.Chemscore.Internal_Hbond.Weighted>
0.0000

> <Gold.Chemscore.DEClash.Weighted>
0.2219

> <Gold.Chemscore.DEInternal.Weighted>
1.0513

> <Gold.Chemscore.Rot.Weighted>
5.9523

> <Gold.Chemscore.Internal.Correction.Weighted>
   9.000000E+99

> <Gold.Protein.RotatedTorsions>
[ 6907 6896 6895 6894 ] final  -16.91 input  -60.11 | X-H torsion
[ 7974 7965 7964 7962 ] final  -44.00 input  175.53 | X-H torsion
[ 8008 7997 7996 7995 ] final  -81.51 input   59.86 | X-H torsion
[ 10167 10162 10161 10158 ] final -109.45 input  -65.29 | X-H torsion
[ 10718 10713 10712 10709 ] final  -68.05 input   66.30 | X-H torsion
[ 10763 10752 10751 10750 ] final   -5.78 input  -60.55 | X-H torsion
[ 11005 11000 10999 10996 ] final   21.93 input  -57.11 | X-H torsion

> <Gold.Protein.ActiveResidues>
 VAL166  LYS551  ARG553  GLY616  TRP617  ASP618  TYR619  PRO620  LYS621  CYS622 
 ASP623  PHE694  ASN695  SER759  ASP760  ASP761  ALA762  ILE779  LEU786  VAL792 
 PHE793  MET794  SER795  GLU796  ALA797  LYS798  CYS799  TRP800  GLU811  SER814 

> <Gold.Protein.RotatedAtoms>
  151.3014  135.0769  159.9239 H   0  0  0  0  0  0  0  0  0  0  0  0  # atno 6907 bound_to 6896
  152.5297  133.9829  159.7825 H   0  0  0  0  0  0  0  0  0  0  0  0  # atno 6908 bound_to 6896
  151.0117  133.5908  159.2712 H   0  0  0  0  0  0  0  0  0  0  0  0  # atno 6909 bound_to 6896
  145.9963  140.7124  142.9292 H   0  0  0  0  0  0  0  0  0  0  0  0  # atno 7974 bound_to 7965
  154.5990  140.0647  156.9343 H   0  0  0  0  0  0  0  0  0  0  0  0  # atno 8008 bound_to 7997
  155.2164  140.3326  155.4303 H   0  0  0  0  0  0  0  0  0  0  0  0  # atno 8009 bound_to 7997
  156.2306  140.1839  156.7236 H   0  0  0  0  0  0  0  0  0  0  0  0  # atno 8010 bound_to 7997
  140.1551  143.4166  152.1466 H   0  0  0  0  0  0  0  0  0  0  0  0  # atno 10167 bound_to 10162
  156.0525  130.4288  150.1943 H   0  0  0  0  0  0  0  0  0  0  0  0  # atno 10718 bound_to 10713
  153.4032  135.7005  153.6411 H   0  0  0  0  0  0  0  0  0  0  0  0  # atno 10763 bound_to 10752
  153.4936  135.3667  155.2504 H   0  0  0  0  0  0  0  0  0  0  0  0  # atno 10764 bound_to 10752
  154.8712  135.4095  154.3371 H   0  0  0  0  0  0  0  0  0  0  0  0  # atno 10765 bound_to 10752
  140.3862  134.1868  155.7663 H   0  0  0  0  0  0  0  0  0  0  0  0  # atno 11005 bound_to 11000
  144.6905  140.3156  143.7241 LP  0  0  0  0  0  0  0  0  0  0  0  0  # atno 17320 bound_to 7965
  145.7554  139.1807  143.2297 LP  0  0  0  0  0  0  0  0  0  0  0  0  # atno 17321 bound_to 7965
  139.5407  144.7253  151.4743 LP  0  0  0  0  0  0  0  0  0  0  0  0  # atno 17342 bound_to 10162
  140.6678  143.8360  150.6962 LP  0  0  0  0  0  0  0  0  0  0  0  0  # atno 17343 bound_to 10162
  157.0025  130.9926  151.3387 LP  0  0  0  0  0  0  0  0  0  0  0  0  # atno 17370 bound_to 10713
  157.5466  130.8154  149.8093 LP  0  0  0  0  0  0  0  0  0  0  0  0  # atno 17371 bound_to 10713
  141.1906  133.8212  157.0910 LP  0  0  0  0  0  0  0  0  0  0  0  0  # atno 17394 bound_to 11000
  140.0441  134.9839  157.1016 LP  0  0  0  0  0  0  0  0  0  0  0  0  # atno 17395 bound_to 11000

$$$$
