AV-unprocessed.smi:2171|AV-procd|sdf|8828|dock6
  -GOLD-   2272012 23D 1   1.00000     0.00000
 Structure written by MMmdl.
 39 41  0  0  0  0  0  0  0  0  2 V2000
  150.3984  140.1872  154.7000 O   0  0  0  0  0  0  0  0  0  0  0  0
  149.7135  141.1727  154.9716 C   0  0  0  0  0  0  0  0  0  0  0  0
  148.4507  141.4734  154.1603 C   0  0  0  0  0  0  0  0  0  0  0  0
  147.5452  140.3373  154.1315 N   0  0  0  0  0  0  0  0  0  0  0  0
  147.0986  139.6239  153.0384 C   0  0  0  0  0  0  0  0  0  0  0  0
  146.2611  138.6504  153.5024 C   0  0  0  0  0  0  0  0  0  0  0  0
  146.2598  138.8486  154.9115 C   0  0  0  0  0  0  0  0  0  0  0  0
  147.0288  139.8587  155.2849 N   0  0  0  0  0  0  0  0  0  0  0  0
  150.0187  142.0338  155.9555 N   0  0  0  0  0  0  0  0  0  0  0  0
  151.1641  141.9158  156.8524 C   0  0  2  0  0  0  0  0  0  0  0  0
  151.1858  140.5831  157.6215 C   0  0  0  0  0  0  0  0  0  0  0  0
  151.7037  140.9326  159.0306 C   0  0  0  0  0  0  0  0  0  0  0  0
  152.0397  142.3683  158.9788 N   0  3  2  0  0  0  0  0  0  0  0  0
  152.0362  143.1080  160.2597 C   0  0  0  0  0  0  0  0  0  0  0  0
  152.4935  144.5592  160.0098 C   0  0  0  0  0  0  0  0  0  0  0  0
  151.6613  145.2382  158.9029 C   0  0  0  0  0  0  0  0  0  0  0  0
  151.6240  144.3767  157.6258 C   0  0  0  0  0  0  0  0  0  0  0  0
  151.1418  142.9580  157.9739 C   0  0  1  0  0  0  0  0  0  0  0  0
  147.9329  142.3296  154.5941 H   0  0  0  0  0  0  0  0  0  0  0  0
  148.7154  141.7432  153.1365 H   0  0  0  0  0  0  0  0  0  0  0  0
  147.4094  139.8664  152.0329 H   0  0  0  0  0  0  0  0  0  0  0  0
  145.7312  137.9083  152.9239 H   0  0  0  0  0  0  0  0  0  0  0  0
  145.7266  138.2929  155.6686 H   0  0  0  0  0  0  0  0  0  0  0  0
  149.3986  142.8166  156.1054 H   0  0  0  0  0  0  0  0  0  0  0  0
  152.0987  142.0028  156.2940 H   0  0  0  0  0  0  0  0  0  0  0  0
  150.1880  140.1475  157.6947 H   0  0  0  0  0  0  0  0  0  0  0  0
  151.8247  139.8528  157.1234 H   0  0  0  0  0  0  0  0  0  0  0  0
  150.9210  140.7564  159.7701 H   0  0  0  0  0  0  0  0  0  0  0  0
  152.5754  140.3416  159.3123 H   0  0  0  0  0  0  0  0  0  0  0  0
  151.0363  143.0917  160.6958 H   0  0  0  0  0  0  0  0  0  0  0  0
  152.7061  142.6188  160.9677 H   0  0  0  0  0  0  0  0  0  0  0  0
  152.4293  145.1360  160.9328 H   0  0  0  0  0  0  0  0  0  0  0  0
  153.5449  144.5607  159.7191 H   0  0  0  0  0  0  0  0  0  0  0  0
  150.6437  145.3982  159.2618 H   0  0  0  0  0  0  0  0  0  0  0  0
  152.0682  146.2246  158.6786 H   0  0  0  0  0  0  0  0  0  0  0  0
  150.9624  144.8344  156.8902 H   0  0  0  0  0  0  0  0  0  0  0  0
  152.6161  144.3370  157.1739 H   0  0  0  0  0  0  0  0  0  0  0  0
  150.1348  143.0097  158.3950 H   0  0  0  0  0  0  0  0  0  0  0  0
  152.9730  142.4307  158.5976 H   0  0  0  0  0  0  0  0  0  0  0  0
  1  2  2  0  0  0  0
  2  3  1  0  0  0  0
  2  9  1  0  0  0  0
  3  4  1  0  0  0  0
  3 19  1  0  0  0  0
  3 20  1  0  0  0  0
  4  8  1  0  0  0  0
  4  5  1  0  0  0  0
  5  6  2  0  0  0  0
  5 21  1  0  0  0  0
  6  7  1  0  0  0  0
  6 22  1  0  0  0  0
  7  8  2  0  0  0  0
  7 23  1  0  0  0  0
  9 10  1  0  0  0  0
  9 24  1  0  0  0  0
 10 18  1  0  0  0  0
 10 11  1  0  0  0  0
 10 25  1  0  0  0  0
 11 12  1  0  0  0  0
 11 26  1  0  0  0  0
 11 27  1  0  0  0  0
 12 13  1  0  0  0  0
 12 28  1  0  0  0  0
 12 29  1  0  0  0  0
 13 18  1  0  0  0  0
 13 14  1  0  0  0  0
 13 39  1  0  0  0  0
 14 15  1  0  0  0  0
 14 30  1  0  0  0  0
 14 31  1  0  0  0  0
 15 16  1  0  0  0  0
 15 32  1  0  0  0  0
 15 33  1  0  0  0  0
 16 17  1  0  0  0  0
 16 34  1  0  0  0  0
 16 35  1  0  0  0  0
 17 18  1  0  0  0  0
 17 36  1  0  0  0  0
 17 37  1  0  0  0  0
 18 38  1  0  0  0  0
M  CHG  1  13   1
M  END
> <s_m_source_file>
AV-unprocessed.smi

> <i_m_source_file_index>
2171

> <i_lp_mmshare_version>
43012

> <i_f3d_flags>
0

> <s_epik_input>
bjFbY0hdW2NIXVtjSF1uMVtDSDJdQyg9TylbTkhdW0NASF0oW0NIMl1bQ0gyXTIpW0NAQEhdKE4yMylbQ0gyXVtDSDJdW0NIMl1bQ0gyXTM=

> <s_epik_cmdline>
J2VwaWtfcHl0aG9uJywgJy1waCcsICc3LjAnLCAnLXRuJywgJzgnLCAnLW1hJywgJzIwMCcsICctbWV0YWxfYmluZGluZycsICctaW1hZScsICc8aW5maWxlLm1hZT4nLCAnLW9tYWUnLCAnPG91dGZpbGUubWFlPic=

> <r_lp_tautomer_probability>
1

> <r_epik_Ionization_Penalty>
0.00204179

> <r_epik_Ionization_Penalty_Charging>
0.00203239

> <r_epik_Ionization_Penalty_Neutral>
9.40205e-06

> <r_epik_State_Penalty>
0.00138983

> <r_epik_Charging_Adjusted_Penalty>
0.00342221

> <i_epik_Tot_Q>
1

> <i_epik_Tot_abs_Q>
1

> <r_epik_Metal_State_Penalty>
-0

> <b_epik_Metal_Only>
0

> <s_lp_Force_Field>
OPLS_2005

> <r_lp_Energy>
34.6158

> <b_lp_Chiralities_Consistent>
1

> <s_lp_Variant>
AV-unprocessed.smi:2171-3

> <Gold.Version>
5.8.1

> <Gold.Id.Protein>
6NUR|6NUR_protein|mol2

> <Gold.PLP.Fitness>
46.2447

> <Gold.PLP.PLP>
-37.4375

> <Gold.PLP.part.hbond>
-2.0000

> <Gold.PLP.part.metal>
0.0000

> <Gold.PLP.part.buried>
-4.5625

> <Gold.PLP.part.nonpolar>
-30.4371

> <Gold.PLP.part.repulsive>
0.2995

> <Gold.PLP.ligand.clash>
0.0000

> <Gold.PLP.ligand.torsion>
0.0651

> <Gold.PLP.Chemscore.Hbond>
1.9760

> <Gold.PLP.Chemscore.CHOScore>
1.0000

> <Gold.PLP.Chemscore.Metal>
0.0000

> <Gold.Chemscore.Hbonds>
donor molecule, donor type, donor heavy atom, donor atom, acceptor molecule, acceptor atom, score
      L1  H     9    24       P1  8028  0.98
      P1  H  7989  7998       L1     1  1.00
      L1  C     5    21       P1  7957  1.00

> <Gold.PLP.Chemscore.Internal.Correction>
0.0095

> <Gold.Rescore>
     Score         DG    S(hbond)    S(metal)    S(lipo)     H(rot)  DE(clash)    DE(int)     intcor
     18.61     -19.00       1.61        0.00     101.08       1.44       0.35       0.04       ----

> <Gold.Chemscore.Fitness>
18.6085

> <Gold.Chemscore.DG>
-18.9975

> <Gold.Chemscore.ZeroCoef>
-5.4800

> <Gold.Chemscore.Hbond>
1.6109

> <Gold.Chemscore.Metal>
0.0000

> <Gold.Chemscore.Lipo>
101.0759

> <Gold.Chemscore.Internal_Hbond>
0.0000

> <Gold.Chemscore.DEClash>
0.3461

> <Gold.Chemscore.DEInternal>
0.0429

> <Gold.Chemscore.Rot>
1.4410

> <Gold.Chemscore.Internal.Correction>
   9.000000E+99

> <Gold.Chemscore.Hbonds>
donor molecule, donor type, donor heavy atom, donor atom, acceptor molecule, acceptor atom, score
      L1  H     9    24       P1  8028  0.88
      P1  H  7989  7998       L1     1  0.34

> <Gold.Chemscore.Hbond.Weighted>
-5.3805

> <Gold.Chemscore.Metal.Weighted>
-0.0000

> <Gold.Chemscore.Lipo.Weighted>
-11.8259

> <Gold.Chemscore.Internal_Hbond.Weighted>
0.0000

> <Gold.Chemscore.DEClash.Weighted>
0.3461

> <Gold.Chemscore.DEInternal.Weighted>
0.0429

> <Gold.Chemscore.Rot.Weighted>
3.6889

> <Gold.Chemscore.Internal.Correction.Weighted>
   9.000000E+99

> <Gold.Protein.RotatedTorsions>
[ 6907 6896 6895 6894 ] final  150.88 input  -60.11 | X-H torsion
[ 7974 7965 7964 7962 ] final  -47.51 input  175.53 | X-H torsion
[ 8008 7997 7996 7995 ] final   42.22 input   59.86 | X-H torsion
[ 10167 10162 10161 10158 ] final  102.28 input  -65.29 | X-H torsion
[ 10718 10713 10712 10709 ] final   88.17 input   66.30 | X-H torsion
[ 10763 10752 10751 10750 ] final   77.95 input  -60.55 | X-H torsion
[ 11005 11000 10999 10996 ] final   80.22 input  -57.11 | X-H torsion

> <Gold.Protein.ActiveResidues>
 VAL166  LYS551  ARG553  GLY616  TRP617  ASP618  TYR619  PRO620  LYS621  CYS622 
 ASP623  PHE694  ASN695  SER759  ASP760  ASP761  ALA762  ILE779  LEU786  VAL792 
 PHE793  MET794  SER795  GLU796  ALA797  LYS798  CYS799  TRP800  GLU811  SER814 

> <Gold.Protein.RotatedAtoms>
  152.1084  133.4287  159.4619 H   0  0  0  0  0  0  0  0  0  0  0  0  # atno 6907 bound_to 6896
  150.6866  134.2678  159.4585 H   0  0  0  0  0  0  0  0  0  0  0  0  # atno 6908 bound_to 6896
  152.0544  134.9633  160.0625 H   0  0  0  0  0  0  0  0  0  0  0  0  # atno 6909 bound_to 6896
  145.9608  140.7481  142.9458 H   0  0  0  0  0  0  0  0  0  0  0  0  # atno 7974 bound_to 7965
  155.2826  140.3373  155.4257 H   0  0  0  0  0  0  0  0  0  0  0  0  # atno 8008 bound_to 7997
  156.2083  140.1759  156.7792 H   0  0  0  0  0  0  0  0  0  0  0  0  # atno 8009 bound_to 7997
  154.5650  140.0680  156.8863 H   0  0  0  0  0  0  0  0  0  0  0  0  # atno 8010 bound_to 7997
  139.7364  144.7023  151.0642 H   0  0  0  0  0  0  0  0  0  0  0  0  # atno 10167 bound_to 10162
  157.6947  131.0284  150.3234 H   0  0  0  0  0  0  0  0  0  0  0  0  # atno 10718 bound_to 10713
  153.0837  135.4895  154.8555 H   0  0  0  0  0  0  0  0  0  0  0  0  # atno 10763 bound_to 10752
  154.7184  135.3034  154.9089 H   0  0  0  0  0  0  0  0  0  0  0  0  # atno 10764 bound_to 10752
  153.9761  135.6795  153.4801 H   0  0  0  0  0  0  0  0  0  0  0  0  # atno 10765 bound_to 10752
  139.9143  134.7903  156.1881 H   0  0  0  0  0  0  0  0  0  0  0  0  # atno 11005 bound_to 11000
  144.6814  140.2588  143.7322 LP  0  0  0  0  0  0  0  0  0  0  0  0  # atno 17320 bound_to 7965
  145.8042  139.1977  143.2030 LP  0  0  0  0  0  0  0  0  0  0  0  0  # atno 17321 bound_to 7965
  140.7779  143.4979  150.9809 LP  0  0  0  0  0  0  0  0  0  0  0  0  # atno 17342 bound_to 10162
  139.8667  143.7245  152.3169 LP  0  0  0  0  0  0  0  0  0  0  0  0  # atno 17343 bound_to 10162
  156.3718  130.3865  149.7170 LP  0  0  0  0  0  0  0  0  0  0  0  0  # atno 17370 bound_to 10713
  156.4581  130.7939  151.2959 LP  0  0  0  0  0  0  0  0  0  0  0  0  # atno 17371 bound_to 10713
  141.0601  133.6846  156.1936 LP  0  0  0  0  0  0  0  0  0  0  0  0  # atno 17394 bound_to 11000
  140.6675  134.4903  157.5586 LP  0  0  0  0  0  0  0  0  0  0  0  0  # atno 17395 bound_to 11000

$$$$
