AV-unprocessed.smi:1705|AV-procd|sdf|6882|dock6
  -GOLD-   22720 8 83D 1   1.00000     0.00000
 Structure written by MMmdl.
 38 39  0  0  0  0  0  0  0  0  1 V2000
  150.2515  141.5473  157.3200 C   0  0  0  0  0  0  0  0  0  0  0  0
  151.2925  140.6170  157.9618 C   0  0  2  0  0  0  0  0  0  0  0  0
  150.6632  139.3597  158.3377 N   0  0  0  0  0  0  0  0  0  0  0  0
  150.6579  138.1809  157.5987 C   0  0  0  0  0  0  0  0  0  0  0  0
  151.2735  138.0887  156.3862 C   0  0  0  0  0  0  0  0  0  0  0  0
  151.9329  139.1840  155.7477 C   0  0  0  0  0  0  0  0  0  0  0  0
  152.4521  140.0643  155.2027 N   0  0  0  0  0  0  0  0  0  0  0  0
  151.2793  136.8489  155.6127 C   0  0  0  0  0  0  0  0  0  0  0  0
  151.8303  136.7259  154.5160 O   0  0  0  0  0  0  0  0  0  0  0  0
  150.6026  135.7708  156.2177 N   0  0  0  0  0  0  0  0  0  0  0  0
  150.6016  134.5200  155.4846 C   0  0  0  0  0  0  0  0  0  0  0  0
  149.9607  135.8374  157.4718 C   0  0  0  0  0  0  0  0  0  0  0  0
  149.3997  134.8553  157.9672 O   0  0  0  0  0  0  0  0  0  0  0  0
  149.9897  137.0821  158.1478 N   0  0  0  0  0  0  0  0  0  0  0  0
  149.3205  137.0847  159.4334 C   0  0  0  0  0  0  0  0  0  0  0  0
  151.9548  141.2487  159.2001 C   0  0  2  0  0  0  0  0  0  0  0  0
  152.6686  142.5747  158.9418 C   0  0  0  0  0  0  0  0  0  0  0  0
  153.6761  142.6536  160.0761 C   0  0  0  0  0  0  0  0  0  0  0  0
  153.8221  141.2022  160.5428 C   0  0  0  0  0  0  0  0  0  0  0  0
  153.0272  140.4338  159.6495 O   0  0  0  0  0  0  0  0  0  0  0  0
  150.7113  142.4643  156.9516 H   0  0  0  0  0  0  0  0  0  0  0  0
  149.4768  141.8261  158.0349 H   0  0  0  0  0  0  0  0  0  0  0  0
  149.7602  141.0689  156.4730 H   0  0  0  0  0  0  0  0  0  0  0  0
  152.0775  140.4193  157.2325 H   0  0  0  0  0  0  0  0  0  0  0  0
  150.6878  139.2140  159.3368 H   0  0  0  0  0  0  0  0  0  0  0  0
  149.9767  133.7713  155.9697 H   0  0  0  0  0  0  0  0  0  0  0  0
  151.6361  134.1753  155.4391 H   0  0  0  0  0  0  0  0  0  0  0  0
  150.2055  134.7232  154.4880 H   0  0  0  0  0  0  0  0  0  0  0  0
  149.8882  136.4272  160.0939 H   0  0  0  0  0  0  0  0  0  0  0  0
  148.3001  136.7274  159.2815 H   0  0  0  0  0  0  0  0  0  0  0  0
  149.2844  138.0897  159.8474 H   0  0  0  0  0  0  0  0  0  0  0  0
  151.2311  141.3657  160.0094 H   0  0  0  0  0  0  0  0  0  0  0  0
  153.1946  142.5380  157.9867 H   0  0  0  0  0  0  0  0  0  0  0  0
  151.9886  143.4266  158.9213 H   0  0  0  0  0  0  0  0  0  0  0  0
  154.6234  143.0762  159.7399 H   0  0  0  0  0  0  0  0  0  0  0  0
  153.2998  143.2758  160.8890 H   0  0  0  0  0  0  0  0  0  0  0  0
  154.8575  140.8612  160.5247 H   0  0  0  0  0  0  0  0  0  0  0  0
  153.4425  141.0846  161.5586 H   0  0  0  0  0  0  0  0  0  0  0  0
  1  2  1  0  0  0  0
  1 21  1  0  0  0  0
  1 22  1  0  0  0  0
  1 23  1  0  0  0  0
  2  3  1  0  0  0  0
  2 16  1  0  0  0  0
  2 24  1  0  0  0  0
  3  4  1  0  0  0  0
  3 25  1  0  0  0  0
  4 14  1  0  0  0  0
  4  5  2  0  0  0  0
  5  6  1  0  0  0  0
  5  8  1  0  0  0  0
  6  7  3  0  0  0  0
  8  9  2  0  0  0  0
  8 10  1  0  0  0  0
 10 11  1  0  0  0  0
 10 12  1  0  0  0  0
 11 26  1  0  0  0  0
 11 27  1  0  0  0  0
 11 28  1  0  0  0  0
 12 13  2  0  0  0  0
 12 14  1  0  0  0  0
 14 15  1  0  0  0  0
 15 29  1  0  0  0  0
 15 30  1  0  0  0  0
 15 31  1  0  0  0  0
 16 20  1  0  0  0  0
 16 17  1  0  0  0  0
 16 32  1  0  0  0  0
 17 18  1  0  0  0  0
 17 33  1  0  0  0  0
 17 34  1  0  0  0  0
 18 19  1  0  0  0  0
 18 35  1  0  0  0  0
 18 36  1  0  0  0  0
 19 20  1  0  0  0  0
 19 37  1  0  0  0  0
 19 38  1  0  0  0  0
M  END
> <s_m_source_file>
AV-unprocessed.smi

> <i_m_source_file_index>
1705

> <i_lp_mmshare_version>
43012

> <i_f3d_flags>
0

> <s_epik_input>
TzFbQ0gyXVtDSDJdW0NIMl1bQ0BIXTFbQ0BIXShbQ0gzXSlbTkhdYzJjKEMjTiljKD1PKW4oW0NIM10pYyg9TyluMltDSDNd

> <s_epik_cmdline>
J2VwaWtfcHl0aG9uJywgJy1waCcsICc3LjAnLCAnLXRuJywgJzgnLCAnLW1hJywgJzIwMCcsICctbWV0YWxfYmluZGluZycsICctaW1hZScsICc8aW5maWxlLm1hZT4nLCAnLW9tYWUnLCAnPG91dGZpbGUubWFlPic=

> <r_epik_Ionization_Penalty>
0.000446268

> <r_epik_Ionization_Penalty_Charging>
9.41922e-10

> <r_epik_Ionization_Penalty_Neutral>
0.000446267

> <r_epik_State_Penalty>
0.000275531

> <r_epik_Charging_Adjusted_Penalty>
0.000275532

> <i_epik_Tot_Q>
0

> <i_epik_Tot_abs_Q>
0

> <r_epik_Metal_State_Penalty>
-0

> <b_epik_Metal_Only>
0

> <s_lp_Force_Field>
OPLS_2005

> <r_lp_Energy>
37.8394

> <b_lp_Chiralities_Consistent>
1

> <s_lp_Variant>
AV-unprocessed.smi:1705-1

> <Gold.Version>
5.8.1

> <Gold.Id.Protein>
6NUR|6NUR_protein|mol2

> <Gold.PLP.Fitness>
40.6927

> <Gold.PLP.PLP>
-31.0505

> <Gold.PLP.part.hbond>
-3.6862

> <Gold.PLP.part.metal>
0.0000

> <Gold.PLP.part.buried>
-4.3370

> <Gold.PLP.part.nonpolar>
-24.0736

> <Gold.PLP.part.repulsive>
0.3024

> <Gold.PLP.ligand.clash>
9.0766

> <Gold.PLP.ligand.torsion>
0.3268

> <Gold.PLP.Chemscore.Hbond>
3.4222

> <Gold.PLP.Chemscore.CHOScore>
0.0000

> <Gold.PLP.Chemscore.Metal>
0.0000

> <Gold.Chemscore.Hbonds>
donor molecule, donor type, donor heavy atom, donor atom, acceptor molecule, acceptor atom, score
      P1  H  6896  6908       L1    13  1.00
      P1  H  7989  7998       L1     7  0.59
      P1  H  7997  8010       L1     7  0.81
      P1  H 10752 10763       L1     9  1.00

> <Gold.PLP.Chemscore.Internal.Correction>
9.1059

> <Gold.Rescore>
     Score         DG    S(hbond)    S(metal)    S(lipo)     H(rot)  DE(clash)    DE(int)     intcor
     16.35     -18.88       2.73        0.00      64.51       1.28       0.01       2.52       ----

> <Gold.Chemscore.Fitness>
16.3472

> <Gold.Chemscore.DG>
-18.8785

> <Gold.Chemscore.ZeroCoef>
-5.4800

> <Gold.Chemscore.Hbond>
2.7312

> <Gold.Chemscore.Metal>
0.0000

> <Gold.Chemscore.Lipo>
64.5114

> <Gold.Chemscore.Internal_Hbond>
0.0000

> <Gold.Chemscore.DEClash>
0.0064

> <Gold.Chemscore.DEInternal>
2.5249

> <Gold.Chemscore.Rot>
1.2780

> <Gold.Chemscore.Internal.Correction>
   9.000000E+99

> <Gold.Chemscore.Hbonds>
donor molecule, donor type, donor heavy atom, donor atom, acceptor molecule, acceptor atom, score
      P1  H  6896  6908       L1    13  0.52
      P1  H  7989  7998       L1     7  0.55
      P1  H  7997  8010       L1     7  0.48
      P1  H 10752 10763       L1     9  0.95

> <Gold.Chemscore.Hbond.Weighted>
-9.1223

> <Gold.Chemscore.Metal.Weighted>
-0.0000

> <Gold.Chemscore.Lipo.Weighted>
-7.5478

> <Gold.Chemscore.Internal_Hbond.Weighted>
0.0000

> <Gold.Chemscore.DEClash.Weighted>
0.0064

> <Gold.Chemscore.DEInternal.Weighted>
2.5249

> <Gold.Chemscore.Rot.Weighted>
3.2717

> <Gold.Chemscore.Internal.Correction.Weighted>
   9.000000E+99

> <Gold.Protein.RotatedTorsions>
[ 6907 6896 6895 6894 ] final  140.69 input  -60.11 | X-H torsion
[ 7974 7965 7964 7962 ] final  -45.92 input  175.53 | X-H torsion
[ 8008 7997 7996 7995 ] final  100.08 input   59.86 | X-H torsion
[ 10167 10162 10161 10158 ] final  115.34 input  -65.29 | X-H torsion
[ 10718 10713 10712 10709 ] final    9.56 input   66.30 | X-H torsion
[ 10763 10752 10751 10750 ] final   36.90 input  -60.55 | X-H torsion
[ 11005 11000 10999 10996 ] final   14.95 input  -57.11 | X-H torsion

> <Gold.Protein.ActiveResidues>
 VAL166  LYS551  ARG553  GLY616  TRP617  ASP618  TYR619  PRO620  LYS621  CYS622 
 ASP623  PHE694  ASN695  SER759  ASP760  ASP761  ALA762  ILE779  LEU786  VAL792 
 PHE793  MET794  SER795  GLU796  ALA797  LYS798  CYS799  TRP800  GLU811  SER814 

> <Gold.Protein.RotatedAtoms>
  152.2400  133.5128  159.5264 H   0  0  0  0  0  0  0  0  0  0  0  0  # atno 6907 bound_to 6896
  150.7062  134.1101  159.4006 H   0  0  0  0  0  0  0  0  0  0  0  0  # atno 6908 bound_to 6896
  151.9022  135.0373  160.0558 H   0  0  0  0  0  0  0  0  0  0  0  0  # atno 6909 bound_to 6896
  145.9772  140.7322  142.9381 H   0  0  0  0  0  0  0  0  0  0  0  0  # atno 7974 bound_to 7965
  156.1168  140.3219  155.8151 H   0  0  0  0  0  0  0  0  0  0  0  0  # atno 8008 bound_to 7997
  155.4576  140.0537  157.3011 H   0  0  0  0  0  0  0  0  0  0  0  0  # atno 8009 bound_to 7997
  154.4799  140.2048  155.9803 H   0  0  0  0  0  0  0  0  0  0  0  0  # atno 8010 bound_to 7997
  139.6324  144.7116  151.2404 H   0  0  0  0  0  0  0  0  0  0  0  0  # atno 10167 bound_to 10162
  156.9680  130.5958  149.5667 H   0  0  0  0  0  0  0  0  0  0  0  0  # atno 10718 bound_to 10713
  153.0058  135.6293  154.2060 H   0  0  0  0  0  0  0  0  0  0  0  0  # atno 10763 bound_to 10752
  154.1803  135.2814  155.3056 H   0  0  0  0  0  0  0  0  0  0  0  0  # atno 10764 bound_to 10752
  154.5840  135.5638  153.7272 H   0  0  0  0  0  0  0  0  0  0  0  0  # atno 10765 bound_to 10752
  140.4638  134.1100  155.7721 H   0  0  0  0  0  0  0  0  0  0  0  0  # atno 11005 bound_to 11000
  144.6852  140.2847  143.7287 LP  0  0  0  0  0  0  0  0  0  0  0  0  # atno 17320 bound_to 7965
  145.7822  139.1895  143.2151 LP  0  0  0  0  0  0  0  0  0  0  0  0  # atno 17321 bound_to 7965
  140.7447  143.6456  150.8295 LP  0  0  0  0  0  0  0  0  0  0  0  0  # atno 17342 bound_to 10162
  140.0082  143.5670  152.2849 LP  0  0  0  0  0  0  0  0  0  0  0  0  # atno 17343 bound_to 10162
  156.0294  130.5386  150.8494 LP  0  0  0  0  0  0  0  0  0  0  0  0  # atno 17370 bound_to 10713
  157.5612  131.0946  150.9556 LP  0  0  0  0  0  0  0  0  0  0  0  0  # atno 17371 bound_to 10713
  141.1609  133.8795  157.1851 LP  0  0  0  0  0  0  0  0  0  0  0  0  # atno 17394 bound_to 11000
  139.9928  135.0058  157.0015 LP  0  0  0  0  0  0  0  0  0  0  0  0  # atno 17395 bound_to 11000

$$$$
