AV-unprocessed.smi:95|AV-procd|sdf|857|dock2
  -GOLD-   2262017303D 1   1.00000     0.00000
 Structure written by MMmdl.
 42 45  0  0  0  0  0  0  0  0  2 V2000
  146.8750  142.9474  154.0881 O   0  0  0  0  0  0  0  0  0  0  0  0
  146.4599  142.6522  155.2100 C   0  0  0  0  0  0  0  0  0  0  0  0
  145.1936  143.1357  155.7498 C   0  0  0  0  0  0  0  0  0  0  0  0
  144.4310  143.9630  155.0155 F   0  0  0  0  0  0  0  0  0  0  0  0
  144.7699  142.7598  156.9757 C   0  0  0  0  0  0  0  0  0  0  0  0
  145.4883  141.9059  157.7946 N   0  0  0  0  0  0  0  0  0  0  0  0
  144.9525  141.5121  159.1508 C   0  0  2  0  0  0  0  0  0  0  0  0
  143.5804  142.1543  159.3932 C   0  0  0  0  0  0  0  0  0  0  0  0
  143.9194  143.3001  160.3242 C   0  0  0  0  0  0  0  0  0  0  0  0
  145.1028  142.7316  161.0972 C   0  0  0  0  0  0  0  0  0  0  0  0
  145.8309  141.9845  160.1302 O   0  0  0  0  0  0  0  0  0  0  0  0
  146.7196  141.3774  157.3499 C   0  0  0  0  0  0  0  0  0  0  0  0
  147.3565  140.5761  158.0378 O   0  0  0  0  0  0  0  0  0  0  0  0
  147.1762  141.7886  156.0756 N   0  0  0  0  0  0  0  0  0  0  0  0
  148.4437  141.2490  155.6099 C   0  0  0  0  0  0  0  0  0  0  0  0
  149.6129  141.3504  156.5825 C   0  0  0  0  0  0  0  0  0  0  0  0
  150.1777  140.2431  157.2579 C   0  0  0  0  0  0  0  0  0  0  0  0
  151.2604  140.4477  158.1374 C   0  0  0  0  0  0  0  0  0  0  0  0
  151.7597  141.7537  158.3251 C   0  0  0  0  0  0  0  0  0  0  0  0
  152.8408  142.0008  159.1959 C   0  0  0  0  0  0  0  0  0  0  0  0
  153.3213  143.3150  159.3643 C   0  0  0  0  0  0  0  0  0  0  0  0
  152.7250  144.3837  158.6650 C   0  0  0  0  0  0  0  0  0  0  0  0
  151.6441  144.1435  157.7936 C   0  0  0  0  0  0  0  0  0  0  0  0
  151.1617  142.8307  157.6244 C   0  0  0  0  0  0  0  0  0  0  0  0
  150.1257  142.5839  156.7926 N   0  3  0  0  0  0  0  0  0  0  0  0
  143.8226  143.1448  157.3227 H   0  0  0  0  0  0  0  0  0  0  0  0
  144.9341  140.4222  159.1865 H   0  0  0  0  0  0  0  0  0  0  0  0
  143.0968  142.4651  158.4662 H   0  0  0  0  0  0  0  0  0  0  0  0
  142.9420  141.4281  159.8979 H   0  0  0  0  0  0  0  0  0  0  0  0
  144.2268  144.1756  159.7513 H   0  0  0  0  0  0  0  0  0  0  0  0
  143.0884  143.5883  160.9685 H   0  0  0  0  0  0  0  0  0  0  0  0
  145.7201  143.5048  161.5548 H   0  0  0  0  0  0  0  0  0  0  0  0
  144.7585  142.0575  161.8828 H   0  0  0  0  0  0  0  0  0  0  0  0
  148.2870  140.2089  155.3212 H   0  0  0  0  0  0  0  0  0  0  0  0
  148.6828  141.7562  154.6730 H   0  0  0  0  0  0  0  0  0  0  0  0
  149.7945  139.2441  157.1115 H   0  0  0  0  0  0  0  0  0  0  0  0
  151.6995  139.6091  158.6581 H   0  0  0  0  0  0  0  0  0  0  0  0
  153.3050  141.1886  159.7363 H   0  0  0  0  0  0  0  0  0  0  0  0
  154.1500  143.5044  160.0311 H   0  0  0  0  0  0  0  0  0  0  0  0
  153.0981  145.3887  158.7971 H   0  0  0  0  0  0  0  0  0  0  0  0
  151.1925  144.9677  157.2604 H   0  0  0  0  0  0  0  0  0  0  0  0
  149.7076  143.3707  156.2964 H   0  0  0  0  0  0  0  0  0  0  0  0
  1  2  2  0  0  0  0
  2 14  1  0  0  0  0
  2  3  1  0  0  0  0
  3  4  1  0  0  0  0
  3  5  2  0  0  0  0
  5  6  1  0  0  0  0
  5 26  1  0  0  0  0
  6  7  1  0  0  0  0
  6 12  1  0  0  0  0
  7 11  1  0  0  0  0
  7  8  1  0  0  0  0
  7 27  1  0  0  0  0
  8  9  1  0  0  0  0
  8 28  1  0  0  0  0
  8 29  1  0  0  0  0
  9 10  1  0  0  0  0
  9 30  1  0  0  0  0
  9 31  1  0  0  0  0
 10 11  1  0  0  0  0
 10 32  1  0  0  0  0
 10 33  1  0  0  0  0
 12 13  2  0  0  0  0
 12 14  1  0  0  0  0
 14 15  1  0  0  0  0
 15 16  1  0  0  0  0
 15 34  1  0  0  0  0
 15 35  1  0  0  0  0
 16 25  1  0  0  0  0
 16 17  2  0  0  0  0
 17 18  1  0  0  0  0
 17 36  1  0  0  0  0
 18 19  2  0  0  0  0
 18 37  1  0  0  0  0
 19 24  1  0  0  0  0
 19 20  1  0  0  0  0
 20 21  2  0  0  0  0
 20 38  1  0  0  0  0
 21 22  1  0  0  0  0
 21 39  1  0  0  0  0
 22 23  2  0  0  0  0
 22 40  1  0  0  0  0
 23 24  1  0  0  0  0
 23 41  1  0  0  0  0
 24 25  2  0  0  0  0
 25 42  1  0  0  0  0
M  CHG  1  25   1
M  END
> <s_m_source_file>
AV-unprocessed.smi

> <i_m_source_file_index>
95

> <i_lp_mmshare_version>
43012

> <i_f3d_flags>
0

> <s_epik_input>
TzFbQ0gyXVtDSDJdW0NIMl1bQ0BIXTFuKFtjSF1jKEYpYzI9TyljKD1PKW4yW0NIMl1jKFtjSF1bY0hdMyluYyhjMzQpW2NIXVtjSF1bY0hdW2NIXTQ=

> <s_epik_cmdline>
J2VwaWtfcHl0aG9uJywgJy1waCcsICc3LjAnLCAnLXRuJywgJzgnLCAnLW1hJywgJzIwMCcsICctbWV0YWxfYmluZGluZycsICctaW1hZScsICc8aW5maWxlLm1hZT4nLCAnLW9tYWUnLCAnPG91dGZpbGUubWFlPic=

> <r_lp_tautomer_probability>
1

> <r_epik_Ionization_Penalty>
1.83445

> <r_epik_Ionization_Penalty_Charging>
1.83445

> <r_epik_Ionization_Penalty_Neutral>
6.33322e-12

> <r_epik_State_Penalty>
1.95069

> <r_epik_Charging_Adjusted_Penalty>
3.78513

> <i_epik_Tot_Q>
1

> <i_epik_Tot_abs_Q>
1

> <r_epik_Metal_State_Penalty>
6.02102

> <b_epik_Metal_Only>
0

> <s_epik_Chemistry_Notes>
This compound contains an acetal/aminal-like group ( X-CH(R)-Y where X, Y are N, S, or O) that may be acid/base labile, releasing an aldehyde.

> <s_lp_Force_Field>
OPLS_2005

> <r_lp_Energy>
36.4977

> <b_lp_Chiralities_Consistent>
1

> <s_lp_Variant>
AV-unprocessed.smi:95-3

> <Gold.Version>
5.8.1

> <Gold.Id.Protein>
6NUR|6NUR_protein|mol2

> <Gold.PLP.Fitness>
51.8038

> <Gold.PLP.PLP>
-43.2863

> <Gold.PLP.part.hbond>
-3.1786

> <Gold.PLP.part.metal>
0.0000

> <Gold.PLP.part.buried>
-7.5258

> <Gold.PLP.part.nonpolar>
-33.9276

> <Gold.PLP.part.repulsive>
0.2241

> <Gold.PLP.ligand.clash>
0.0000

> <Gold.PLP.ligand.torsion>
0.2454

> <Gold.PLP.Chemscore.Hbond>
3.0000

> <Gold.PLP.Chemscore.CHOScore>
0.0000

> <Gold.PLP.Chemscore.Metal>
0.0000

> <Gold.Chemscore.Hbonds>
donor molecule, donor type, donor heavy atom, donor atom, acceptor molecule, acceptor atom, score
      L1  H    25    42       P1  8028  2.00
      P1  H  6934  6946       L1    11  1.00

> <Gold.PLP.Chemscore.Internal.Correction>
0.0084

> <Gold.Rescore>
     Score         DG    S(hbond)    S(metal)    S(lipo)     H(rot)  DE(clash)    DE(int)     intcor
     14.70     -21.44       2.59        0.00      96.22       1.54       2.99       3.75       ----

> <Gold.Chemscore.Fitness>
14.6990

> <Gold.Chemscore.DG>
-21.4360

> <Gold.Chemscore.ZeroCoef>
-5.4800

> <Gold.Chemscore.Hbond>
2.5875

> <Gold.Chemscore.Metal>
0.0000

> <Gold.Chemscore.Lipo>
96.2219

> <Gold.Chemscore.Internal_Hbond>
0.0000

> <Gold.Chemscore.DEClash>
2.9916

> <Gold.Chemscore.DEInternal>
3.7454

> <Gold.Chemscore.Rot>
1.5407

> <Gold.Chemscore.Internal.Correction>
   9.000000E+99

> <Gold.Chemscore.Hbonds>
donor molecule, donor type, donor heavy atom, donor atom, acceptor molecule, acceptor atom, score
      L1  H    25    42       P1  8028  1.00
      P1  H  6934  6946       L1    11  0.84

> <Gold.Chemscore.Hbond.Weighted>
-8.6423

> <Gold.Chemscore.Metal.Weighted>
-0.0000

> <Gold.Chemscore.Lipo.Weighted>
-11.2580

> <Gold.Chemscore.Internal_Hbond.Weighted>
0.0000

> <Gold.Chemscore.DEClash.Weighted>
2.9916

> <Gold.Chemscore.DEInternal.Weighted>
3.7454

> <Gold.Chemscore.Rot.Weighted>
3.9443

> <Gold.Chemscore.Internal.Correction.Weighted>
   9.000000E+99

> <Gold.Protein.RotatedTorsions>
[ 6907 6896 6895 6894 ] final  124.03 input  -60.11 | X-H torsion
[ 7974 7965 7964 7962 ] final  -60.87 input  175.53 | X-H torsion
[ 8008 7997 7996 7995 ] final   -3.81 input   59.86 | X-H torsion
[ 10167 10162 10161 10158 ] final   98.50 input  -65.29 | X-H torsion
[ 10718 10713 10712 10709 ] final   88.31 input   66.30 | X-H torsion
[ 10763 10752 10751 10750 ] final -144.59 input  -60.55 | X-H torsion
[ 11005 11000 10999 10996 ] final   60.74 input  -57.11 | X-H torsion

> <Gold.Protein.ActiveResidues>
 VAL166  LYS551  ARG553  GLY616  TRP617  ASP618  TYR619  PRO620  LYS621  CYS622 
 ASP623  PHE694  ASN695  SER759  ASP760  ASP761  ALA762  ILE779  LEU786  VAL792 
 PHE793  MET794  SER795  GLU796  ALA797  LYS798  CYS799  TRP800  GLU811  SER814 

> <Gold.Protein.RotatedAtoms>
  152.4112  133.6966  159.6399 H   0  0  0  0  0  0  0  0  0  0  0  0  # atno 6907 bound_to 6896
  150.7992  133.8620  159.3243 H   0  0  0  0  0  0  0  0  0  0  0  0  # atno 6908 bound_to 6896
  151.6362  135.1019  160.0183 H   0  0  0  0  0  0  0  0  0  0  0  0  # atno 6909 bound_to 6896
  145.8103  140.8602  143.0185 H   0  0  0  0  0  0  0  0  0  0  0  0  # atno 7974 bound_to 7965
  154.6210  140.2500  155.7550 H   0  0  0  0  0  0  0  0  0  0  0  0  # atno 8008 bound_to 7997
  156.2426  140.2926  156.0437 H   0  0  0  0  0  0  0  0  0  0  0  0  # atno 8009 bound_to 7997
  155.1897  140.0391  157.2888 H   0  0  0  0  0  0  0  0  0  0  0  0  # atno 8010 bound_to 7997
  139.7703  144.6925  151.0165 H   0  0  0  0  0  0  0  0  0  0  0  0  # atno 10167 bound_to 10162
  157.6948  131.0289  150.3255 H   0  0  0  0  0  0  0  0  0  0  0  0  # atno 10718 bound_to 10713
  154.8421  135.3436  154.6369 H   0  0  0  0  0  0  0  0  0  0  0  0  # atno 10763 bound_to 10752
  153.6980  135.6971  153.5076 H   0  0  0  0  0  0  0  0  0  0  0  0  # atno 10764 bound_to 10752
  153.2544  135.4343  155.0786 H   0  0  0  0  0  0  0  0  0  0  0  0  # atno 10765 bound_to 10752
  140.0210  134.6153  155.9639 H   0  0  0  0  0  0  0  0  0  0  0  0  # atno 11005 bound_to 11000
  144.6758  140.0387  143.7481 LP  0  0  0  0  0  0  0  0  0  0  0  0  # atno 17320 bound_to 7965
  145.9784  139.2922  143.1057 LP  0  0  0  0  0  0  0  0  0  0  0  0  # atno 17321 bound_to 7965
  140.7813  143.4596  151.0296 LP  0  0  0  0  0  0  0  0  0  0  0  0  # atno 17342 bound_to 10162
  139.8280  143.7730  152.3179 LP  0  0  0  0  0  0  0  0  0  0  0  0  # atno 17343 bound_to 10162
  156.3736  130.3868  149.7156 LP  0  0  0  0  0  0  0  0  0  0  0  0  # atno 17370 bound_to 10713
  156.4562  130.7930  151.2951 LP  0  0  0  0  0  0  0  0  0  0  0  0  # atno 17371 bound_to 10713
  141.1774  133.6542  156.4881 LP  0  0  0  0  0  0  0  0  0  0  0  0  # atno 17394 bound_to 11000
  140.4387  134.7035  157.4980 LP  0  0  0  0  0  0  0  0  0  0  0  0  # atno 17395 bound_to 11000

$$$$
