AV-unprocessed.smi:2708|AV-procd|sdf|10458|dock9
  -GOLD-   2272014493D 1   1.00000     0.00000
 Structure written by MMmdl.
 35 35  0  0  0  0  0  0  0  0  2 V2000
  147.8865  135.3568  158.6802 C   0  0  0  0  0  0  0  0  0  0  0  0
  147.9615  136.5893  159.5970 C   0  0  2  0  0  0  0  0  0  0  0  0
  149.2313  137.2886  159.4240 N   0  0  0  0  0  0  0  0  0  0  0  0
  149.5562  138.0927  158.3994 C   0  0  0  0  0  0  0  0  0  0  0  0
  148.7989  138.3405  157.4610 O   0  0  0  0  0  0  0  0  0  0  0  0
  150.9533  138.7136  158.4399 C   0  0  0  0  0  0  0  0  0  0  0  0
  150.8759  140.1855  158.1544 C   0  0  0  0  0  0  0  0  0  0  0  0
  150.1460  140.7953  157.1651 C   0  0  0  0  0  0  0  0  0  0  0  0
  150.3331  142.5256  157.1941 S   0  0  0  0  0  0  0  0  0  0  0  0
  151.4265  142.3648  158.5736 C   0  0  0  0  0  0  0  0  0  0  0  0
  152.1009  143.5146  159.2829 C   0  0  0  0  0  0  0  0  0  0  0  0
  151.0467  144.3713  160.0106 C   0  0  0  0  0  0  0  0  0  0  0  0
  152.8858  144.3668  158.2667 C   0  0  0  0  0  0  0  0  0  0  0  0
  153.1044  143.0096  160.3423 C   0  0  0  0  0  0  0  0  0  0  0  0
  151.6005  141.0891  158.9377 N   0  0  0  0  0  0  0  0  0  0  0  0
  147.7335  136.2694  161.0773 C   0  0  0  0  0  0  0  0  0  0  0  0
  147.6410  137.2375  161.8647 O   0  0  0  0  0  0  0  0  0  0  0  0
  147.6538  135.0636  161.3991 O   0  5  0  0  0  0  0  0  0  0  0  0
  147.1602  137.2686  159.2987 H   0  0  0  0  0  0  0  0  0  0  0  0
  146.9419  134.8277  158.8113 H   0  0  0  0  0  0  0  0  0  0  0  0
  148.6934  134.6542  158.8911 H   0  0  0  0  0  0  0  0  0  0  0  0
  147.9591  135.6405  157.6299 H   0  0  0  0  0  0  0  0  0  0  0  0
  149.9151  137.1489  160.1539 H   0  0  0  0  0  0  0  0  0  0  0  0
  151.4022  138.5310  159.4173 H   0  0  0  0  0  0  0  0  0  0  0  0
  151.5906  138.2121  157.7105 H   0  0  0  0  0  0  0  0  0  0  0  0
  149.5049  140.3328  156.4292 H   0  0  0  0  0  0  0  0  0  0  0  0
  151.5085  145.2020  160.5453 H   0  0  0  0  0  0  0  0  0  0  0  0
  150.4887  143.7800  160.7376 H   0  0  0  0  0  0  0  0  0  0  0  0
  150.3261  144.7972  159.3116 H   0  0  0  0  0  0  0  0  0  0  0  0
  152.2273  144.7911  157.5079 H   0  0  0  0  0  0  0  0  0  0  0  0
  153.6412  143.7728  157.7506 H   0  0  0  0  0  0  0  0  0  0  0  0
  153.3962  145.1983  158.7542 H   0  0  0  0  0  0  0  0  0  0  0  0
  153.5905  143.8410  160.8543 H   0  0  0  0  0  0  0  0  0  0  0  0
  153.8928  142.4040  159.8938 H   0  0  0  0  0  0  0  0  0  0  0  0
  152.6136  142.4055  161.1064 H   0  0  0  0  0  0  0  0  0  0  0  0
  1  2  1  0  0  0  0
  1 20  1  0  0  0  0
  1 21  1  0  0  0  0
  1 22  1  0  0  0  0
  2 19  1  0  0  0  0
  2  3  1  0  0  0  0
  2 16  1  0  0  0  0
  3  4  1  0  0  0  0
  3 23  1  0  0  0  0
  4  5  2  0  0  0  0
  4  6  1  0  0  0  0
  6  7  1  0  0  0  0
  6 24  1  0  0  0  0
  6 25  1  0  0  0  0
  7 15  1  0  0  0  0
  7  8  2  0  0  0  0
  8  9  1  0  0  0  0
  8 26  1  0  0  0  0
  9 10  1  0  0  0  0
 10 11  1  0  0  0  0
 10 15  2  0  0  0  0
 11 12  1  0  0  0  0
 11 13  1  0  0  0  0
 11 14  1  0  0  0  0
 12 27  1  0  0  0  0
 12 28  1  0  0  0  0
 12 29  1  0  0  0  0
 13 30  1  0  0  0  0
 13 31  1  0  0  0  0
 13 32  1  0  0  0  0
 14 33  1  0  0  0  0
 14 34  1  0  0  0  0
 14 35  1  0  0  0  0
 16 17  2  0  0  0  0
 16 18  1  0  0  0  0
M  CHG  1  18  -1
M  END
> <s_m_source_file>
AV-unprocessed.smi

> <i_m_source_file_index>
2708

> <i_lp_mmshare_version>
43012

> <i_f3d_flags>
0

> <s_epik_input>
Tz1DKFtPSF0pW0NASF0oW0NIM10pW05IXUMoPU8pW0NIMl1jMVtjSF1zYyhuMSlDKFtDSDNdKShbQ0gzXSlbQ0gzXQ==

> <s_epik_cmdline>
J2VwaWtfcHl0aG9uJywgJy1waCcsICc3LjAnLCAnLXRuJywgJzgnLCAnLW1hJywgJzIwMCcsICctbWV0YWxfYmluZGluZycsICctaW1hZScsICc8aW5maWxlLm1hZT4nLCAnLW9tYWUnLCAnPG91dGZpbGUubWFlPic=

> <r_lp_tautomer_probability>
1

> <r_epik_Ionization_Penalty>
0.000214174

> <r_epik_Ionization_Penalty_Charging>
0.000167453

> <r_epik_Ionization_Penalty_Neutral>
4.67216e-05

> <r_epik_State_Penalty>
-0

> <r_epik_Charging_Adjusted_Penalty>
0.000167453

> <i_epik_Tot_Q>
-1

> <i_epik_Tot_abs_Q>
1

> <r_epik_Metal_State_Penalty>
-0

> <b_epik_Metal_Only>
0

> <s_lp_Force_Field>
OPLS_2005

> <r_lp_Energy>
-5.26793

> <b_lp_Chiralities_Consistent>
1

> <s_lp_Variant>
AV-unprocessed.smi:2708-1

> <Gold.Version>
5.8.1

> <Gold.Id.Protein>
6NUR|6NUR_protein|mol2

> <Gold.PLP.Fitness>
40.1154

> <Gold.PLP.PLP>
-30.7345

> <Gold.PLP.part.hbond>
-2.0000

> <Gold.PLP.part.metal>
0.0000

> <Gold.PLP.part.buried>
-4.1961

> <Gold.PLP.part.nonpolar>
-25.2222

> <Gold.PLP.part.repulsive>
0.2193

> <Gold.PLP.ligand.clash>
0.0000

> <Gold.PLP.ligand.torsion>
0.7711

> <Gold.PLP.Chemscore.Hbond>
3.6160

> <Gold.PLP.Chemscore.CHOScore>
0.0000

> <Gold.PLP.Chemscore.Metal>
0.0000

> <Gold.Chemscore.Hbonds>
donor molecule, donor type, donor heavy atom, donor atom, acceptor molecule, acceptor atom, score
      P1  H  6931  6943       L1    17  1.95
      P1  H  6934  6947       L1    17  1.27

> <Gold.PLP.Chemscore.Internal.Correction>
0.0752

> <Gold.Rescore>
     Score         DG    S(hbond)    S(metal)    S(lipo)     H(rot)  DE(clash)    DE(int)     intcor
     12.91     -15.20       1.74        0.00      82.64       2.25       0.08       2.21       ----

> <Gold.Chemscore.Fitness>
12.9078

> <Gold.Chemscore.DG>
-15.2005

> <Gold.Chemscore.ZeroCoef>
-5.4800

> <Gold.Chemscore.Hbond>
1.7382

> <Gold.Chemscore.Metal>
0.0000

> <Gold.Chemscore.Lipo>
82.6448

> <Gold.Chemscore.Internal_Hbond>
0.0000

> <Gold.Chemscore.DEClash>
0.0840

> <Gold.Chemscore.DEInternal>
2.2088

> <Gold.Chemscore.Rot>
2.2478

> <Gold.Chemscore.Internal.Correction>
   9.000000E+99

> <Gold.Chemscore.Hbonds>
donor molecule, donor type, donor heavy atom, donor atom, acceptor molecule, acceptor atom, score
      P1  H  6931  6943       L1    17  0.85
      P1  H  6934  6947       L1    17  0.54

> <Gold.Chemscore.Hbond.Weighted>
-5.8055

> <Gold.Chemscore.Metal.Weighted>
-0.0000

> <Gold.Chemscore.Lipo.Weighted>
-9.6694

> <Gold.Chemscore.Internal_Hbond.Weighted>
0.0000

> <Gold.Chemscore.DEClash.Weighted>
0.0840

> <Gold.Chemscore.DEInternal.Weighted>
2.2088

> <Gold.Chemscore.Rot.Weighted>
5.7544

> <Gold.Chemscore.Internal.Correction.Weighted>
   9.000000E+99

> <Gold.Protein.RotatedTorsions>
[ 6907 6896 6895 6894 ] final   -7.34 input  -60.11 | X-H torsion
[ 7974 7965 7964 7962 ] final  -21.20 input  175.53 | X-H torsion
[ 8008 7997 7996 7995 ] final  172.23 input   59.86 | X-H torsion
[ 10167 10162 10161 10158 ] final  -17.64 input  -65.29 | X-H torsion
[ 10718 10713 10712 10709 ] final -148.21 input   66.30 | X-H torsion
[ 10763 10752 10751 10750 ] final  -95.40 input  -60.55 | X-H torsion
[ 11005 11000 10999 10996 ] final  -62.28 input  -57.11 | X-H torsion

> <Gold.Protein.ActiveResidues>
 VAL166  LYS551  ARG553  GLY616  TRP617  ASP618  TYR619  PRO620  LYS621  CYS622 
 ASP623  PHE694  ASN695  SER759  ASP760  ASP761  ALA762  ILE779  LEU786  VAL792 
 PHE793  MET794  SER795  GLU796  ALA797  LYS798  CYS799  TRP800  GLU811  SER814 

> <Gold.Protein.RotatedAtoms>
  151.4511  135.1030  159.9697 H   0  0  0  0  0  0  0  0  0  0  0  0  # atno 6907 bound_to 6896
  152.4888  133.8439  159.7177 H   0  0  0  0  0  0  0  0  0  0  0  0  # atno 6908 bound_to 6896
  150.9021  133.7045  159.2903 H   0  0  0  0  0  0  0  0  0  0  0  0  # atno 6909 bound_to 6896
  146.1746  140.4307  142.8518 H   0  0  0  0  0  0  0  0  0  0  0  0  # atno 7974 bound_to 7965
  156.1194  140.1491  156.9226 H   0  0  0  0  0  0  0  0  0  0  0  0  # atno 8008 bound_to 7997
  154.4825  140.0875  156.7451 H   0  0  0  0  0  0  0  0  0  0  0  0  # atno 8009 bound_to 7997
  155.4455  140.3432  155.4297 H   0  0  0  0  0  0  0  0  0  0  0  0  # atno 8010 bound_to 7997
  140.7249  143.4995  150.9887 H   0  0  0  0  0  0  0  0  0  0  0  0  # atno 10167 bound_to 10162
  156.4174  130.8012  151.2233 H   0  0  0  0  0  0  0  0  0  0  0  0  # atno 10718 bound_to 10713
  154.7145  135.5122  153.8716 H   0  0  0  0  0  0  0  0  0  0  0  0  # atno 10763 bound_to 10752
  153.0808  135.6631  154.0058 H   0  0  0  0  0  0  0  0  0  0  0  0  # atno 10764 bound_to 10752
  153.9893  135.3021  155.3393 H   0  0  0  0  0  0  0  0  0  0  0  0  # atno 10765 bound_to 10752
  141.1354  133.6638  156.5504 H   0  0  0  0  0  0  0  0  0  0  0  0  # atno 11005 bound_to 11000
  144.8216  140.6560  143.6349 LP  0  0  0  0  0  0  0  0  0  0  0  0  # atno 17320 bound_to 7965
  145.4246  139.1558  143.4055 LP  0  0  0  0  0  0  0  0  0  0  0  0  # atno 17321 bound_to 7965
  139.8704  143.7200  152.3167 LP  0  0  0  0  0  0  0  0  0  0  0  0  # atno 17342 bound_to 10162
  139.7446  144.7550  151.0599 LP  0  0  0  0  0  0  0  0  0  0  0  0  # atno 17343 bound_to 10162
  157.7508  131.0239  150.3852 LP  0  0  0  0  0  0  0  0  0  0  0  0  # atno 17370 bound_to 10713
  156.4163  130.3944  149.6856 LP  0  0  0  0  0  0  0  0  0  0  0  0  # atno 17371 bound_to 10713
  140.4068  134.7307  157.4812 LP  0  0  0  0  0  0  0  0  0  0  0  0  # atno 17394 bound_to 11000
  140.0456  134.6205  155.8926 LP  0  0  0  0  0  0  0  0  0  0  0  0  # atno 17395 bound_to 11000

$$$$
