#       Name:                AV-unprocessed.smi:1024
#       Creating user name   scv26
#       Creation time:       Fri Mar 27 02:44:07 2020


#       File generated by GOLD software.
#

@<TRIPOS>MOLECULE
AV-unprocessed.smi:1024
    50    52     1
SMALL
NO_CHARGES


@<TRIPOS>ATOM
      1 ****         1.8613   1.8259  -0.5452 O.2            1 S1                 0.0000
      2 ****         1.5950   0.9171   0.2428 C.2            1 S1                 0.0000
      3 ****         2.4324  -0.1133   0.4501 N.am           1 S1                 0.0000
      4 ****         3.7126  -0.3078  -0.2196 C.3            1 S1                 0.0000
      5 ****         3.5280  -0.8940  -1.6286 C.3            1 S1                 0.0000
      6 ****         4.8022  -1.1249  -2.2778 N.pl3          1 S1                 0.0000
      7 ****         5.5615  -2.2869  -2.2435 C.2            1 S1                 0.0000
      8 ****         6.6873  -2.0424  -2.9972 C.2            1 S1                 0.0000
      9 ****         6.6421  -0.7442  -3.5003 N.2            1 S1                 0.0000
     10 ****         5.4977  -0.2629  -3.0321 C.2            1 S1                 0.0000
     11 ****         0.4612   0.8872   0.9888 N.am           1 S1                 0.0000
     12 ****        -0.0345  -0.2530   1.7752 C.3            1 S1                 0.0000
     13 ****        -1.2298  -0.8823   1.0334 C.3            1 S1                 0.0000
     14 ****        -2.3804   0.1272   0.7619 C.3            1 S1                 0.0000
     15 ****        -3.3793  -0.5300  -0.2266 C.3            1 S1                 0.0000
     16 ****        -4.6658   0.2887  -0.4357 C.3            1 S1                 0.0000
     17 ****        -5.3754   0.5560   0.8980 C.3            1 S1                 0.0000
     18 ****        -4.4318   1.2378   1.8973 C.3            1 S1                 0.0000
     19 ****        -3.1362   0.4276   2.0886 C.3            1 S1                 0.0000
     20 ****        -1.7713   1.4170   0.1351 C.3            1 S1                 0.0000
     21 ****        -0.5489   1.9472   0.9098 C.3            1 S1                 0.0000
     22 ****         2.1572  -0.8165   1.1203 H              1 S1                 0.0000
     23 ****         4.2606   0.6350  -0.2636 H              1 S1                 0.0000
     24 ****         4.3109  -0.9860   0.3894 H              1 S1                 0.0000
     25 ****         2.9872  -1.8402  -1.5808 H              1 S1                 0.0000
     26 ****         2.9386  -0.2220  -2.2540 H              1 S1                 0.0000
     27 ****         5.2472  -3.1663  -1.7007 H              1 S1                 0.0000
     28 ****         7.5199  -2.6955  -3.2137 H              1 S1                 0.0000
     29 ****         5.1577   0.7408  -3.2419 H              1 S1                 0.0000
     30 ****         0.7177  -1.0185   1.9644 H              1 S1                 0.0000
     31 ****        -0.3354   0.0943   2.7640 H              1 S1                 0.0000
     32 ****        -0.8683  -1.2849   0.0857 H              1 S1                 0.0000
     33 ****        -1.6007  -1.7399   1.5959 H              1 S1                 0.0000
     34 ****        -2.8991  -0.7013  -1.1908 H              1 S1                 0.0000
     35 ****        -3.6577  -1.5174   0.1450 H              1 S1                 0.0000
     36 ****        -4.4353   1.2334  -0.9288 H              1 S1                 0.0000
     37 ****        -5.3372  -0.2477  -1.1068 H              1 S1                 0.0000
     38 ****        -6.2581   1.1750   0.7348 H              1 S1                 0.0000
     39 ****        -5.7309  -0.3864   1.3165 H              1 S1                 0.0000
     40 ****        -4.2008   2.2478   1.5595 H              1 S1                 0.0000
     41 ****        -4.9368   1.3516   2.8568 H              1 S1                 0.0000
     42 ****        -3.3976  -0.5150   2.5714 H              1 S1                 0.0000
     43 ****        -2.4947   0.9487   2.7977 H              1 S1                 0.0000
     44 ****        -1.4570   1.2053  -0.8880 H              1 S1                 0.0000
     45 ****        -2.5149   2.2080   0.0511 H              1 S1                 0.0000
     46 ****        -0.8315   2.2584   1.9156 H              1 S1                 0.0000
     47 ****        -0.1709   2.8492   0.4265 H              1 S1                 0.0000
     48 ****         2.7225   1.8108  -1.0533 LP             1 S1                 0.0000
     49 ****         1.2164   2.5787  -0.6767 LP             1 S1                 0.0000
     50 ****         7.3148  -0.2829  -4.0789 LP             1 S1                 0.0000
@<TRIPOS>BOND
    1    1    2 2     
    2    2    3 am    
    3    2   11 am    
    4    3    4 1     
    5    3   22 1     
    6    4    5 1     
    7    4   23 1     
    8    4   24 1     
    9    5    6 1     
   10    5   25 1     
   11    5   26 1     
   12    6   10 1     
   13    6    7 1     
   14    7    8 2     
   15    7   27 1     
   16    8    9 1     
   17    8   28 1     
   18    9   10 2     
   19   10   29 1     
   20   11   21 1     
   21   11   12 1     
   22   12   13 1     
   23   12   30 1     
   24   12   31 1     
   25   13   14 1     
   26   13   32 1     
   27   13   33 1     
   28   14   19 1     
   29   14   15 1     
   30   14   20 1     
   31   15   16 1     
   32   15   34 1     
   33   15   35 1     
   34   16   17 1     
   35   16   36 1     
   36   16   37 1     
   37   17   18 1     
   38   17   38 1     
   39   17   39 1     
   40   18   19 1     
   41   18   40 1     
   42   18   41 1     
   43   19   42 1     
   44   19   43 1     
   45   20   21 1     
   46   20   44 1     
   47   20   45 1     
   48   21   46 1     
   49   21   47 1     
   50    1   48 1     
   51    1   49 1     
   52    9   50 1     
@<TRIPOS>SUBSTRUCTURE
      1 S1             1
@<TRIPOS>SET
LONE_PAIRS      STATIC     ATOMS    <user>   **** ""
3 48 49 50
DONOR_HYDROGENS      STATIC     ATOMS    <user>   **** ""
1 22
ATOM$BLUE        STATIC     ATOMS    COLORGROUP SYSTEM
3 48 49 50
ATOM$RED        STATIC     ATOMS    COLORGROUP SYSTEM
1 22
