AV-unprocessed.smi:3163|AV-procd|sdf|12073|dock2
  -GOLD-   2272017503D 1   1.00000     0.00000
 Structure written by MMmdl.
 36 37  0  0  0  0  0  0  0  0  2 V2000
  144.2054  133.0134  149.9411 C   0  0  0  0  0  0  0  0  0  0  0  0
  143.7762  134.2731  150.5839 N   0  3  1  0  0  0  0  0  0  0  0  0
  143.4419  134.1384  152.0181 C   0  0  0  0  0  0  0  0  0  0  0  0
  143.8018  135.4825  152.6459 C   0  0  0  0  0  0  0  0  0  0  0  0
  145.0460  135.8940  151.8633 C   0  0  2  0  0  0  0  0  0  0  0  0
  145.3816  137.3939  151.9746 C   0  0  0  0  0  0  0  0  0  0  0  0
  146.7815  137.6248  152.3199 N   0  0  0  0  0  0  0  0  0  0  0  0
  147.2326  138.5728  153.1547 C   0  0  0  0  0  0  0  0  0  0  0  0
  146.4984  139.3965  153.6991 O   0  0  0  0  0  0  0  0  0  0  0  0
  148.5685  138.5014  153.2919 N   0  0  0  0  0  0  0  0  0  0  0  0
  149.4378  139.2921  154.0945 C   0  0  0  0  0  0  0  0  0  0  0  0
  148.9977  140.5853  154.4462 C   0  0  0  0  0  0  0  0  0  0  0  0
  149.8375  141.4014  155.2300 C   0  0  0  0  0  0  0  0  0  0  0  0
  151.0544  141.0127  155.6639 N   0  0  0  0  0  0  0  0  0  0  0  0
  151.4794  139.7789  155.3198 C   0  0  0  0  0  0  0  0  0  0  0  0
  150.7191  138.8841  154.5402 C   0  0  0  0  0  0  0  0  0  0  0  0
  144.7372  135.3921  150.4433 C   0  0  0  0  0  0  0  0  0  0  0  0
  145.1269  132.6378  150.3884 H   0  0  0  0  0  0  0  0  0  0  0  0
  144.3796  133.1692  148.8760 H   0  0  0  0  0  0  0  0  0  0  0  0
  143.4347  132.2494  150.0483 H   0  0  0  0  0  0  0  0  0  0  0  0
  142.3937  133.8748  152.1621 H   0  0  0  0  0  0  0  0  0  0  0  0
  144.0504  133.3538  152.4713 H   0  0  0  0  0  0  0  0  0  0  0  0
  142.9949  136.1987  152.4818 H   0  0  0  0  0  0  0  0  0  0  0  0
  143.9786  135.4128  153.7196 H   0  0  0  0  0  0  0  0  0  0  0  0
  145.8860  135.3159  152.2525 H   0  0  0  0  0  0  0  0  0  0  0  0
  145.1187  137.9181  151.0539 H   0  0  0  0  0  0  0  0  0  0  0  0
  144.7740  137.8423  152.7612 H   0  0  0  0  0  0  0  0  0  0  0  0
  147.4569  136.9935  151.9135 H   0  0  0  0  0  0  0  0  0  0  0  0
  149.0292  137.7972  152.7345 H   0  0  0  0  0  0  0  0  0  0  0  0
  148.0334  140.9508  154.1242 H   0  0  0  0  0  0  0  0  0  0  0  0
  149.5232  142.3951  155.5137 H   0  0  0  0  0  0  0  0  0  0  0  0
  152.4601  139.4959  155.6721 H   0  0  0  0  0  0  0  0  0  0  0  0
  151.1417  137.9221  154.2990 H   0  0  0  0  0  0  0  0  0  0  0  0
  145.6474  135.1051  149.9141 H   0  0  0  0  0  0  0  0  0  0  0  0
  144.2471  136.1684  149.8554 H   0  0  0  0  0  0  0  0  0  0  0  0
  142.9315  134.5717  150.1171 H   0  0  0  0  0  0  0  0  0  0  0  0
  1  2  1  0  0  0  0
  1 18  1  0  0  0  0
  1 19  1  0  0  0  0
  1 20  1  0  0  0  0
  2 17  1  0  0  0  0
  2  3  1  0  0  0  0
  2 36  1  0  0  0  0
  3  4  1  0  0  0  0
  3 21  1  0  0  0  0
  3 22  1  0  0  0  0
  4  5  1  0  0  0  0
  4 23  1  0  0  0  0
  4 24  1  0  0  0  0
  5  6  1  0  0  0  0
  5 17  1  0  0  0  0
  5 25  1  0  0  0  0
  6  7  1  0  0  0  0
  6 26  1  0  0  0  0
  6 27  1  0  0  0  0
  7  8  1  0  0  0  0
  7 28  1  0  0  0  0
  8  9  2  0  0  0  0
  8 10  1  0  0  0  0
 10 11  1  0  0  0  0
 10 29  1  0  0  0  0
 11 16  1  0  0  0  0
 11 12  2  0  0  0  0
 12 13  1  0  0  0  0
 12 30  1  0  0  0  0
 13 14  2  0  0  0  0
 13 31  1  0  0  0  0
 14 15  1  0  0  0  0
 15 16  2  0  0  0  0
 15 32  1  0  0  0  0
 16 33  1  0  0  0  0
 17 34  1  0  0  0  0
 17 35  1  0  0  0  0
M  CHG  1   2   1
M  END
> <s_m_source_file>
AV-unprocessed.smi

> <i_m_source_file_index>
3163

> <i_lp_mmshare_version>
43012

> <i_f3d_flags>
0

> <s_epik_input>
W0NIM11OMVtDSDJdW0NIMl1bQ0BIXShbQ0gyXTEpW0NIMl1bTkhdQyg9TylbTkhdYzJbY0hdW2NIXW5bY0hdW2NIXTI=

> <s_epik_cmdline>
J2VwaWtfcHl0aG9uJywgJy1waCcsICc3LjAnLCAnLXRuJywgJzgnLCAnLW1hJywgJzIwMCcsICctbWV0YWxfYmluZGluZycsICctaW1hZScsICc8aW5maWxlLm1hZT4nLCAnLW9tYWUnLCAnPG91dGZpbGUubWFlPic=

> <r_epik_Ionization_Penalty>
0.103936

> <r_epik_Ionization_Penalty_Charging>
0.0012301

> <r_epik_Ionization_Penalty_Neutral>
0.102706

> <r_epik_State_Penalty>
0.0926275

> <r_epik_Charging_Adjusted_Penalty>
0.0938576

> <i_epik_Tot_Q>
1

> <i_epik_Tot_abs_Q>
1

> <r_epik_Metal_State_Penalty>
0.0788376

> <b_epik_Metal_Only>
0

> <s_lp_Force_Field>
OPLS_2005

> <r_lp_Energy>
32.204

> <b_lp_Chiralities_Consistent>
1

> <s_lp_Variant>
AV-unprocessed.smi:3163-3

> <Gold.Version>
5.8.1

> <Gold.Id.Protein>
6NUR|6NUR_protein|mol2

> <Gold.PLP.Fitness>
46.4819

> <Gold.PLP.PLP>
-33.4254

> <Gold.PLP.part.hbond>
-5.0000

> <Gold.PLP.part.metal>
0.0000

> <Gold.PLP.part.buried>
1.0215

> <Gold.PLP.part.nonpolar>
-29.3798

> <Gold.PLP.part.repulsive>
0.3504

> <Gold.PLP.ligand.clash>
0.0000

> <Gold.PLP.ligand.torsion>
0.9726

> <Gold.PLP.Chemscore.Hbond>
4.0000

> <Gold.PLP.Chemscore.CHOScore>
1.0000

> <Gold.PLP.Chemscore.Metal>
0.0000

> <Gold.Chemscore.Hbonds>
donor molecule, donor type, donor heavy atom, donor atom, acceptor molecule, acceptor atom, score
      L1  H     2    36       P1 10186  2.00
      L1  H     7    28       P1  7948  1.00
      L1  H    10    29       P1  7948  1.00
      L1  C    13    31       P1  8028  1.00

> <Gold.PLP.Chemscore.Internal.Correction>
0.0017

> <Gold.Rescore>
     Score         DG    S(hbond)    S(metal)    S(lipo)     H(rot)  DE(clash)    DE(int)     intcor
     17.47     -19.77       2.80        0.00      69.85       1.26       0.05       2.26       ----

> <Gold.Chemscore.Fitness>
17.4659

> <Gold.Chemscore.DG>
-19.7750

> <Gold.Chemscore.ZeroCoef>
-5.4800

> <Gold.Chemscore.Hbond>
2.7957

> <Gold.Chemscore.Metal>
0.0000

> <Gold.Chemscore.Lipo>
69.8499

> <Gold.Chemscore.Internal_Hbond>
0.0000

> <Gold.Chemscore.DEClash>
0.0505

> <Gold.Chemscore.DEInternal>
2.2586

> <Gold.Chemscore.Rot>
1.2559

> <Gold.Chemscore.Internal.Correction>
   9.000000E+99

> <Gold.Chemscore.Hbonds>
donor molecule, donor type, donor heavy atom, donor atom, acceptor molecule, acceptor atom, score
      L1  H     2    36       P1 10186  0.70
      L1  H     7    28       P1  7948  0.97
      L1  H    10    29       P1  7948  0.95

> <Gold.Chemscore.Hbond.Weighted>
-9.3376

> <Gold.Chemscore.Metal.Weighted>
-0.0000

> <Gold.Chemscore.Lipo.Weighted>
-8.1724

> <Gold.Chemscore.Internal_Hbond.Weighted>
0.0000

> <Gold.Chemscore.DEClash.Weighted>
0.0505

> <Gold.Chemscore.DEInternal.Weighted>
2.2586

> <Gold.Chemscore.Rot.Weighted>
3.2151

> <Gold.Chemscore.Internal.Correction.Weighted>
   9.000000E+99

> <Gold.Protein.RotatedTorsions>
[ 6907 6896 6895 6894 ] final   62.26 input  -60.11 | X-H torsion
[ 7974 7965 7964 7962 ] final   10.60 input  175.53 | X-H torsion
[ 8008 7997 7996 7995 ] final   95.93 input   59.86 | X-H torsion
[ 10167 10162 10161 10158 ] final   12.88 input  -65.29 | X-H torsion
[ 10718 10713 10712 10709 ] final   -3.15 input   66.30 | X-H torsion
[ 10763 10752 10751 10750 ] final  -93.52 input  -60.55 | X-H torsion
[ 11005 11000 10999 10996 ] final  141.86 input  -57.11 | X-H torsion

> <Gold.Protein.ActiveResidues>
 VAL166  LYS551  ARG553  GLY616  TRP617  ASP618  TYR619  PRO620  LYS621  CYS622 
 ASP623  PHE694  ASN695  SER759  ASP760  ASP761  ALA762  ILE779  LEU786  VAL792 
 PHE793  MET794  SER795  GLU796  ALA797  LYS798  CYS799  TRP800  GLU811  SER814 

> <Gold.Protein.RotatedAtoms>
  152.4158  134.6044  160.0008 H   0  0  0  0  0  0  0  0  0  0  0  0  # atno 6907 bound_to 6896
  151.6209  133.3333  159.3095 H   0  0  0  0  0  0  0  0  0  0  0  0  # atno 6908 bound_to 6896
  150.8046  134.7203  159.6699 H   0  0  0  0  0  0  0  0  0  0  0  0  # atno 6909 bound_to 6896
  146.2385  139.9609  142.8458 H   0  0  0  0  0  0  0  0  0  0  0  0  # atno 7974 bound_to 7965
  156.0742  140.3279  155.7613 H   0  0  0  0  0  0  0  0  0  0  0  0  # atno 8008 bound_to 7997
  155.5257  140.0589  157.2916 H   0  0  0  0  0  0  0  0  0  0  0  0  # atno 8009 bound_to 7997
  154.4546  140.1936  156.0434 H   0  0  0  0  0  0  0  0  0  0  0  0  # atno 8010 bound_to 7997
  140.6039  143.8548  150.6994 H   0  0  0  0  0  0  0  0  0  0  0  0  # atno 10167 bound_to 10162
  156.7803  130.5328  149.5752 H   0  0  0  0  0  0  0  0  0  0  0  0  # atno 10718 bound_to 10713
  154.6967  135.5191  153.8468 H   0  0  0  0  0  0  0  0  0  0  0  0  # atno 10763 bound_to 10752
  153.0672  135.6589  154.0336 H   0  0  0  0  0  0  0  0  0  0  0  0  # atno 10764 bound_to 10752
  154.0202  135.2994  155.3361 H   0  0  0  0  0  0  0  0  0  0  0  0  # atno 10765 bound_to 10752
  140.0433  134.9293  157.0884 H   0  0  0  0  0  0  0  0  0  0  0  0  # atno 11005 bound_to 11000
  145.1772  140.9749  143.4287 LP  0  0  0  0  0  0  0  0  0  0  0  0  # atno 17320 bound_to 7965
  144.9975  139.3630  143.6184 LP  0  0  0  0  0  0  0  0  0  0  0  0  # atno 17321 bound_to 7965
  140.2100  143.3891  152.1725 LP  0  0  0  0  0  0  0  0  0  0  0  0  # atno 17342 bound_to 10162
  139.5311  144.7159  151.5054 LP  0  0  0  0  0  0  0  0  0  0  0  0  # atno 17343 bound_to 10162
  156.1222  130.6118  151.0210 LP  0  0  0  0  0  0  0  0  0  0  0  0  # atno 17370 bound_to 10713
  157.6649  131.0873  150.7751 LP  0  0  0  0  0  0  0  0  0  0  0  0  # atno 17371 bound_to 10713
  140.4034  134.2059  155.7163 LP  0  0  0  0  0  0  0  0  0  0  0  0  # atno 17394 bound_to 11000
  141.1894  133.8239  157.0957 LP  0  0  0  0  0  0  0  0  0  0  0  0  # atno 17395 bound_to 11000

$$$$
