AV-unprocessed.smi:1786|AV-procd|sdf|7203|dock7
  -GOLD-   22720 8443D 1   1.00000     0.00000
 Structure written by MMmdl.
 44 45  0  0  0  0  0  0  0  0  2 V2000
  149.3457  132.1803  154.5940 C   0  0  0  0  0  0  0  0  0  0  0  0
  149.1607  133.2717  153.5175 C   0  0  1  0  0  0  0  0  0  0  0  0
  148.1811  132.8400  152.4059 C   0  0  0  0  0  0  0  0  0  0  0  0
  146.7231  132.8413  152.8881 C   0  0  0  0  0  0  0  0  0  0  0  0
  146.3669  134.2098  153.4812 C   0  0  0  0  0  0  0  0  0  0  0  0
  147.3586  134.6135  154.5846 C   0  0  0  0  0  0  0  0  0  0  0  0
  148.7585  134.5967  154.0787 N   0  3  1  0  0  0  0  0  0  0  0  0
  149.7444  135.1652  155.0335 C   0  0  0  0  0  0  0  0  0  0  0  0
  149.2456  136.4742  155.6740 C   0  0  0  0  0  0  0  0  0  0  0  0
  150.2655  137.5153  155.6306 N   0  0  0  0  0  0  0  0  0  0  0  0
  151.5674  137.3265  155.8945 C   0  0  0  0  0  0  0  0  0  0  0  0
  152.0329  136.2370  156.2309 O   0  0  0  0  0  0  0  0  0  0  0  0
  152.4663  138.5660  155.7802 C   0  0  0  0  0  0  0  0  0  0  0  0
  151.8577  139.7807  156.3478 N   0  0  0  0  0  0  0  0  0  0  0  0
  152.2395  140.1400  157.6559 C   0  0  0  0  0  0  0  0  0  0  0  0
  151.7444  141.2282  158.2663 C   0  0  0  0  0  0  0  0  0  0  0  0
  150.7938  142.0416  157.5460 C   0  0  0  0  0  0  0  0  0  0  0  0
  150.4246  141.7095  156.2930 C   0  0  0  0  0  0  0  0  0  0  0  0
  150.9656  140.5224  155.6209 C   0  0  0  0  0  0  0  0  0  0  0  0
  150.6381  140.2133  154.4748 O   0  0  0  0  0  0  0  0  0  0  0  0
  149.6610  131.2418  154.1376 H   0  0  0  0  0  0  0  0  0  0  0  0
  148.4277  131.9787  155.1445 H   0  0  0  0  0  0  0  0  0  0  0  0
  150.1128  132.4524  155.3186 H   0  0  0  0  0  0  0  0  0  0  0  0
  150.1311  133.4115  153.0386 H   0  0  0  0  0  0  0  0  0  0  0  0
  148.2751  133.5240  151.5612 H   0  0  0  0  0  0  0  0  0  0  0  0
  148.4491  131.8536  152.0255 H   0  0  0  0  0  0  0  0  0  0  0  0
  146.0539  132.6062  152.0599 H   0  0  0  0  0  0  0  0  0  0  0  0
  146.5733  132.0620  153.6356 H   0  0  0  0  0  0  0  0  0  0  0  0
  146.3731  134.9627  152.6919 H   0  0  0  0  0  0  0  0  0  0  0  0
  145.3525  134.1900  153.8807 H   0  0  0  0  0  0  0  0  0  0  0  0
  147.0976  135.6110  154.9367 H   0  0  0  0  0  0  0  0  0  0  0  0
  147.2611  133.9500  155.4443 H   0  0  0  0  0  0  0  0  0  0  0  0
  149.9891  134.4287  155.8003 H   0  0  0  0  0  0  0  0  0  0  0  0
  150.6724  135.3761  154.5002 H   0  0  0  0  0  0  0  0  0  0  0  0
  148.3387  136.8221  155.1759 H   0  0  0  0  0  0  0  0  0  0  0  0
  148.9846  136.3201  156.7202 H   0  0  0  0  0  0  0  0  0  0  0  0
  149.9645  138.4422  155.3651 H   0  0  0  0  0  0  0  0  0  0  0  0
  153.4239  138.3681  156.2658 H   0  0  0  0  0  0  0  0  0  0  0  0
  152.7067  138.7141  154.7267 H   0  0  0  0  0  0  0  0  0  0  0  0
  152.9590  139.4834  158.1232 H   0  0  0  0  0  0  0  0  0  0  0  0
  152.0517  141.4902  159.2681 H   0  0  0  0  0  0  0  0  0  0  0  0
  150.3772  142.9215  158.0138 H   0  0  0  0  0  0  0  0  0  0  0  0
  149.7131  142.3307  155.7692 H   0  0  0  0  0  0  0  0  0  0  0  0
  148.7695  135.2225  153.2858 H   0  0  0  0  0  0  0  0  0  0  0  0
  1  2  1  0  0  0  0
  1 21  1  0  0  0  0
  1 22  1  0  0  0  0
  1 23  1  0  0  0  0
  2  7  1  0  0  0  0
  2  3  1  0  0  0  0
  2 24  1  0  0  0  0
  3  4  1  0  0  0  0
  3 25  1  0  0  0  0
  3 26  1  0  0  0  0
  4  5  1  0  0  0  0
  4 27  1  0  0  0  0
  4 28  1  0  0  0  0
  5  6  1  0  0  0  0
  5 29  1  0  0  0  0
  5 30  1  0  0  0  0
  6  7  1  0  0  0  0
  6 31  1  0  0  0  0
  6 32  1  0  0  0  0
  7  8  1  0  0  0  0
  7 44  1  0  0  0  0
  8  9  1  0  0  0  0
  8 33  1  0  0  0  0
  8 34  1  0  0  0  0
  9 10  1  0  0  0  0
  9 35  1  0  0  0  0
  9 36  1  0  0  0  0
 10 11  1  0  0  0  0
 10 37  1  0  0  0  0
 11 12  2  0  0  0  0
 11 13  1  0  0  0  0
 13 14  1  0  0  0  0
 13 38  1  0  0  0  0
 13 39  1  0  0  0  0
 14 19  1  0  0  0  0
 14 15  1  0  0  0  0
 15 16  2  0  0  0  0
 15 40  1  0  0  0  0
 16 17  1  0  0  0  0
 16 41  1  0  0  0  0
 17 18  2  0  0  0  0
 17 42  1  0  0  0  0
 18 19  1  0  0  0  0
 18 43  1  0  0  0  0
 19 20  2  0  0  0  0
M  CHG  1   7   1
M  END
> <s_m_source_file>
AV-unprocessed.smi

> <i_m_source_file_index>
1786

> <i_lp_mmshare_version>
43012

> <i_f3d_flags>
0

> <s_epik_input>
W0NIM11bQ0BASF0xW0NIMl1bQ0gyXVtDSDJdW0NIMl1OMVtDSDJdW0NIMl1bTkhdQyg9TylbQ0gyXW4yW2NIXVtjSF1bY0hdW2NIXWMyPU8=

> <s_epik_cmdline>
J2VwaWtfcHl0aG9uJywgJy1waCcsICc3LjAnLCAnLXRuJywgJzgnLCAnLW1hJywgJzIwMCcsICctbWV0YWxfYmluZGluZycsICctaW1hZScsICc8aW5maWxlLm1hZT4nLCAnLW9tYWUnLCAnPG91dGZpbGUubWFlPic=

> <r_lp_tautomer_probability>
1

> <r_epik_Ionization_Penalty>
0.00237247

> <r_epik_Ionization_Penalty_Charging>
0.00237238

> <r_epik_Ionization_Penalty_Neutral>
8.2065e-08

> <r_epik_State_Penalty>
0.00163922

> <r_epik_Charging_Adjusted_Penalty>
0.0040116

> <i_epik_Tot_Q>
1

> <i_epik_Tot_abs_Q>
1

> <r_epik_Metal_State_Penalty>
-0

> <b_epik_Metal_Only>
0

> <s_lp_Force_Field>
OPLS_2005

> <r_lp_Energy>
28.482

> <b_lp_Chiralities_Consistent>
1

> <s_lp_Variant>
AV-unprocessed.smi:1786-2

> <Gold.Version>
5.8.1

> <Gold.Id.Protein>
6NUR|6NUR_protein|mol2

> <Gold.PLP.Fitness>
43.7613

> <Gold.PLP.PLP>
-33.8580

> <Gold.PLP.part.hbond>
-3.0000

> <Gold.PLP.part.metal>
0.0000

> <Gold.PLP.part.buried>
-2.3073

> <Gold.PLP.part.nonpolar>
-29.1622

> <Gold.PLP.part.repulsive>
0.1448

> <Gold.PLP.ligand.clash>
0.0000

> <Gold.PLP.ligand.torsion>
1.0774

> <Gold.PLP.Chemscore.Hbond>
4.0000

> <Gold.PLP.Chemscore.CHOScore>
0.0000

> <Gold.PLP.Chemscore.Metal>
0.0000

> <Gold.Chemscore.Hbonds>
donor molecule, donor type, donor heavy atom, donor atom, acceptor molecule, acceptor atom, score
      L1  H     7    44       P1  7948  2.00
      P1  H  7989  7998       L1    20  1.00
      P1  H 10752 10765       L1    12  1.00

> <Gold.PLP.Chemscore.Internal.Correction>
0.0580

> <Gold.Rescore>
     Score         DG    S(hbond)    S(metal)    S(lipo)     H(rot)  DE(clash)    DE(int)     intcor
     15.85     -18.23       2.86        0.00      67.96       1.86       0.08       2.31       ----

> <Gold.Chemscore.Fitness>
15.8477

> <Gold.Chemscore.DG>
-18.2345

> <Gold.Chemscore.ZeroCoef>
-5.4800

> <Gold.Chemscore.Hbond>
2.8628

> <Gold.Chemscore.Metal>
0.0000

> <Gold.Chemscore.Lipo>
67.9574

> <Gold.Chemscore.Internal_Hbond>
0.0000

> <Gold.Chemscore.DEClash>
0.0754

> <Gold.Chemscore.DEInternal>
2.3115

> <Gold.Chemscore.Rot>
1.8586

> <Gold.Chemscore.Internal.Correction>
   9.000000E+99

> <Gold.Chemscore.Hbonds>
donor molecule, donor type, donor heavy atom, donor atom, acceptor molecule, acceptor atom, score
      L1  H     7    44       P1  7948  0.70
      P1  H  7989  7998       L1    20  0.66
      P1  H 10752 10765       L1    12  0.88

> <Gold.Chemscore.Hbond.Weighted>
-9.5616

> <Gold.Chemscore.Metal.Weighted>
-0.0000

> <Gold.Chemscore.Lipo.Weighted>
-7.9510

> <Gold.Chemscore.Internal_Hbond.Weighted>
0.0000

> <Gold.Chemscore.DEClash.Weighted>
0.0754

> <Gold.Chemscore.DEInternal.Weighted>
2.3115

> <Gold.Chemscore.Rot.Weighted>
4.7581

> <Gold.Chemscore.Internal.Correction.Weighted>
   9.000000E+99

> <Gold.Protein.RotatedTorsions>
[ 6907 6896 6895 6894 ] final  135.86 input  -60.11 | X-H torsion
[ 7974 7965 7964 7962 ] final   36.88 input  175.53 | X-H torsion
[ 8008 7997 7996 7995 ] final  156.32 input   59.86 | X-H torsion
[ 10167 10162 10161 10158 ] final   18.27 input  -65.29 | X-H torsion
[ 10718 10713 10712 10709 ] final   37.66 input   66.30 | X-H torsion
[ 10763 10752 10751 10750 ] final -153.21 input  -60.55 | X-H torsion
[ 11005 11000 10999 10996 ] final  -94.71 input  -57.11 | X-H torsion

> <Gold.Protein.ActiveResidues>
 VAL166  LYS551  ARG553  GLY616  TRP617  ASP618  TYR619  PRO620  LYS621  CYS622 
 ASP623  PHE694  ASN695  SER759  ASP760  ASP761  ALA762  ILE779  LEU786  VAL792 
 PHE793  MET794  SER795  GLU796  ALA797  LYS798  CYS799  TRP800  GLU811  SER814 

> <Gold.Protein.RotatedAtoms>
  152.2958  133.5606  159.5586 H   0  0  0  0  0  0  0  0  0  0  0  0  # atno 6907 bound_to 6896
  150.7255  134.0363  159.3759 H   0  0  0  0  0  0  0  0  0  0  0  0  # atno 6908 bound_to 6896
  151.8266  135.0635  160.0482 H   0  0  0  0  0  0  0  0  0  0  0  0  # atno 6909 bound_to 6896
  146.1179  139.5963  142.9309 H   0  0  0  0  0  0  0  0  0  0  0  0  # atno 7974 bound_to 7965
  156.2429  140.1915  156.6937 H   0  0  0  0  0  0  0  0  0  0  0  0  # atno 8008 bound_to 7997
  154.6232  140.0605  156.9668 H   0  0  0  0  0  0  0  0  0  0  0  0  # atno 8009 bound_to 7997
  155.1828  140.3278  155.4375 H   0  0  0  0  0  0  0  0  0  0  0  0  # atno 8010 bound_to 7997
  140.5666  143.9240  150.6681 H   0  0  0  0  0  0  0  0  0  0  0  0  # atno 10167 bound_to 10162
  157.3496  130.7591  149.6969 H   0  0  0  0  0  0  0  0  0  0  0  0  # atno 10718 bound_to 10713
  154.7943  135.3218  154.7704 H   0  0  0  0  0  0  0  0  0  0  0  0  # atno 10763 bound_to 10752
  153.8386  135.6873  153.4810 H   0  0  0  0  0  0  0  0  0  0  0  0  # atno 10764 bound_to 10752
  153.1627  135.4654  154.9736 H   0  0  0  0  0  0  0  0  0  0  0  0  # atno 10765 bound_to 10752
  141.1463  133.7975  157.0335 H   0  0  0  0  0  0  0  0  0  0  0  0  # atno 11005 bound_to 11000
  145.5528  141.0411  143.2269 LP  0  0  0  0  0  0  0  0  0  0  0  0  # atno 17320 bound_to 7965
  144.7570  139.7051  143.7250 LP  0  0  0  0  0  0  0  0  0  0  0  0  # atno 17321 bound_to 7965
  140.2704  143.3460  152.1243 LP  0  0  0  0  0  0  0  0  0  0  0  0  # atno 17342 bound_to 10162
  139.5096  144.6869  151.5862 LP  0  0  0  0  0  0  0  0  0  0  0  0  # atno 17343 bound_to 10162
  155.9719  130.4144  150.4131 LP  0  0  0  0  0  0  0  0  0  0  0  0  # atno 17370 bound_to 10713
  157.2192  131.0478  151.2556 LP  0  0  0  0  0  0  0  0  0  0  0  0  # atno 17371 bound_to 10713
  140.0739  134.9687  157.1512 LP  0  0  0  0  0  0  0  0  0  0  0  0  # atno 17394 bound_to 11000
  140.3672  134.2429  155.7181 LP  0  0  0  0  0  0  0  0  0  0  0  0  # atno 17395 bound_to 11000

$$$$
