AV-unprocessed.smi:3110|AV-procd|sdf|11831|dock1
  -GOLD-   2272017203D 1   1.00000     0.00000
 Structure written by MMmdl.
 33 34  0  0  0  0  0  0  0  0  1 V2000
  151.4800  140.9396  156.6115 O   0  0  0  0  0  0  0  0  0  0  0  0
  150.8864  141.9991  156.4100 C   0  0  0  0  0  0  0  0  0  0  0  0
  151.3383  143.2855  157.1091 C   0  0  0  0  0  0  0  0  0  0  0  0
  151.1787  143.2346  158.6428 C   0  0  1  0  0  0  0  0  0  0  0  0
  152.3967  142.6663  159.3240 C   0  0  0  0  0  0  0  0  0  0  0  0
  152.8455  143.4416  160.3085 C   0  0  0  0  0  0  0  0  0  0  0  0
  152.0192  144.6853  160.4836 C   0  0  0  0  0  0  0  0  0  0  0  0
  151.0068  144.6217  159.3187 C   0  0  0  0  0  0  0  0  0  0  0  0
  149.8310  142.1062  155.5884 N   0  0  0  0  0  0  0  0  0  0  0  0
  149.2398  141.0047  154.8385 C   0  0  0  0  0  0  0  0  0  0  0  0
  147.9770  141.4495  154.0819 C   0  0  0  0  0  0  0  0  0  0  0  0
  147.3218  140.3287  153.4394 N   0  0  0  0  0  0  0  0  0  0  0  0
  147.0732  140.1672  152.0828 C   0  0  0  0  0  0  0  0  0  0  0  0
  146.4358  138.9550  151.9424 C   0  0  0  0  0  0  0  0  0  0  0  0
  146.2843  138.3570  153.1912 N   0  0  0  0  0  0  0  0  0  0  0  0
  146.8317  139.2292  154.0281 C   0  0  0  0  0  0  0  0  0  0  0  0
  152.3851  143.4537  156.8537 H   0  0  0  0  0  0  0  0  0  0  0  0
  150.7833  144.1362  156.7095 H   0  0  0  0  0  0  0  0  0  0  0  0
  150.3396  142.5894  158.9074 H   0  0  0  0  0  0  0  0  0  0  0  0
  152.8285  141.7197  159.0338 H   0  0  0  0  0  0  0  0  0  0  0  0
  153.6955  143.2209  160.9374 H   0  0  0  0  0  0  0  0  0  0  0  0
  151.5209  144.6643  161.4532 H   0  0  0  0  0  0  0  0  0  0  0  0
  152.6446  145.5768  160.4307 H   0  0  0  0  0  0  0  0  0  0  0  0
  151.2220  145.4258  158.6135 H   0  0  0  0  0  0  0  0  0  0  0  0
  149.9844  144.7705  159.6679 H   0  0  0  0  0  0  0  0  0  0  0  0
  149.4043  143.0149  155.4788 H   0  0  0  0  0  0  0  0  0  0  0  0
  149.9856  140.6377  154.1327 H   0  0  0  0  0  0  0  0  0  0  0  0
  149.0134  140.1750  155.5107 H   0  0  0  0  0  0  0  0  0  0  0  0
  147.2641  141.9215  154.7596 H   0  0  0  0  0  0  0  0  0  0  0  0
  148.2288  142.1890  153.3206 H   0  0  0  0  0  0  0  0  0  0  0  0
  147.3626  140.9063  151.3503 H   0  0  0  0  0  0  0  0  0  0  0  0
  146.0784  138.4703  151.0456 H   0  0  0  0  0  0  0  0  0  0  0  0
  146.8808  139.0631  155.0945 H   0  0  0  0  0  0  0  0  0  0  0  0
  1  2  2  0  0  0  0
  2  3  1  0  0  0  0
  2  9  1  0  0  0  0
  3  4  1  0  0  0  0
  3 17  1  0  0  0  0
  3 18  1  0  0  0  0
  4  8  1  0  0  0  0
  4  5  1  0  0  0  0
  4 19  1  0  0  0  0
  5  6  2  0  0  0  0
  5 20  1  0  0  0  0
  6  7  1  0  0  0  0
  6 21  1  0  0  0  0
  7  8  1  0  0  0  0
  7 22  1  0  0  0  0
  7 23  1  0  0  0  0
  8 24  1  0  0  0  0
  8 25  1  0  0  0  0
  9 10  1  0  0  0  0
  9 26  1  0  0  0  0
 10 11  1  0  0  0  0
 10 27  1  0  0  0  0
 10 28  1  0  0  0  0
 11 12  1  0  0  0  0
 11 29  1  0  0  0  0
 11 30  1  0  0  0  0
 12 16  1  0  0  0  0
 12 13  1  0  0  0  0
 13 14  2  0  0  0  0
 13 31  1  0  0  0  0
 14 15  1  0  0  0  0
 14 32  1  0  0  0  0
 15 16  2  0  0  0  0
 16 33  1  0  0  0  0
M  END
> <s_m_source_file>
AV-unprocessed.smi

> <i_m_source_file_index>
3110

> <i_lp_mmshare_version>
43012

> <i_f3d_flags>
0

> <s_epik_input>
W0NIMl0xW0NIMl1bQ0hdPVtDSF1bQ0BIXTFbQ0gyXUMoPU8pW05IXVtDSDJdW0NIMl1uMltjSF1bY0hdbltjSF0y

> <s_epik_cmdline>
J2VwaWtfcHl0aG9uJywgJy1waCcsICc3LjAnLCAnLXRuJywgJzgnLCAnLW1hJywgJzIwMCcsICctbWV0YWxfYmluZGluZycsICctaW1hZScsICc8aW5maWxlLm1hZT4nLCAnLW9tYWUnLCAnPG91dGZpbGUubWFlPic=

> <r_lp_tautomer_probability>
1

> <r_epik_Ionization_Penalty>
0.593629

> <r_epik_Ionization_Penalty_Charging>
0.593629

> <r_epik_Ionization_Penalty_Neutral>
1.57355e-08

> <r_epik_State_Penalty>
0.607413

> <r_epik_Charging_Adjusted_Penalty>
1.20104

> <i_epik_Tot_Q>
0

> <i_epik_Tot_abs_Q>
0

> <r_epik_Metal_State_Penalty>
0.299385

> <b_epik_Metal_Only>
0

> <s_lp_Force_Field>
OPLS_2005

> <r_lp_Energy>
16.9466

> <b_lp_Chiralities_Consistent>
1

> <s_lp_Variant>
AV-unprocessed.smi:3110-4

> <Gold.Version>
5.8.1

> <Gold.Id.Protein>
6NUR|6NUR_protein|mol2

> <Gold.PLP.Fitness>
42.2929

> <Gold.PLP.PLP>
-36.0676

> <Gold.PLP.part.hbond>
-1.0000

> <Gold.PLP.part.metal>
0.0000

> <Gold.PLP.part.buried>
0.0112

> <Gold.PLP.part.nonpolar>
-35.7904

> <Gold.PLP.part.repulsive>
0.4228

> <Gold.PLP.ligand.clash>
0.0000

> <Gold.PLP.ligand.torsion>
0.3585

> <Gold.PLP.Chemscore.Hbond>
1.0000

> <Gold.PLP.Chemscore.CHOScore>
1.2926

> <Gold.PLP.Chemscore.Metal>
0.0000

> <Gold.Chemscore.Hbonds>
donor molecule, donor type, donor heavy atom, donor atom, acceptor molecule, acceptor atom, score
      L1  H     9    26       P1  8028  1.00
      L1  C    13    31       P1  7957  0.29
      L1  C    14    32       P1 10171  1.00

> <Gold.PLP.Chemscore.Internal.Correction>
0.0645

> <Gold.Rescore>
     Score         DG    S(hbond)    S(metal)    S(lipo)     H(rot)  DE(clash)    DE(int)     intcor
     13.80     -15.52       1.00        0.00     101.28       2.01       1.38       0.33       ----

> <Gold.Chemscore.Fitness>
13.8049

> <Gold.Chemscore.DG>
-15.5217

> <Gold.Chemscore.ZeroCoef>
-5.4800

> <Gold.Chemscore.Hbond>
0.9999

> <Gold.Chemscore.Metal>
0.0000

> <Gold.Chemscore.Lipo>
101.2790

> <Gold.Chemscore.Internal_Hbond>
0.0000

> <Gold.Chemscore.DEClash>
1.3841

> <Gold.Chemscore.DEInternal>
0.3328

> <Gold.Chemscore.Rot>
2.0108

> <Gold.Chemscore.Internal.Correction>
   9.000000E+99

> <Gold.Chemscore.Hbonds>
donor molecule, donor type, donor heavy atom, donor atom, acceptor molecule, acceptor atom, score
      L1  H     9    26       P1  8028  1.00

> <Gold.Chemscore.Hbond.Weighted>
-3.3398

> <Gold.Chemscore.Metal.Weighted>
-0.0000

> <Gold.Chemscore.Lipo.Weighted>
-11.8496

> <Gold.Chemscore.Internal_Hbond.Weighted>
0.0000

> <Gold.Chemscore.DEClash.Weighted>
1.3841

> <Gold.Chemscore.DEInternal.Weighted>
0.3328

> <Gold.Chemscore.Rot.Weighted>
5.1477

> <Gold.Chemscore.Internal.Correction.Weighted>
   9.000000E+99

> <Gold.Protein.RotatedTorsions>
[ 6907 6896 6895 6894 ] final  -23.90 input  -60.11 | X-H torsion
[ 7974 7965 7964 7962 ] final  178.00 input  175.53 | X-H torsion
[ 8008 7997 7996 7995 ] final  157.42 input   59.86 | X-H torsion
[ 10167 10162 10161 10158 ] final   76.84 input  -65.29 | X-H torsion
[ 10718 10713 10712 10709 ] final   50.62 input   66.30 | X-H torsion
[ 10763 10752 10751 10750 ] final  -57.37 input  -60.55 | X-H torsion
[ 11005 11000 10999 10996 ] final  -86.84 input  -57.11 | X-H torsion

> <Gold.Protein.ActiveResidues>
 VAL166  LYS551  ARG553  GLY616  TRP617  ASP618  TYR619  PRO620  LYS621  CYS622 
 ASP623  PHE694  ASN695  SER759  ASP760  ASP761  ALA762  ILE779  LEU786  VAL792 
 PHE793  MET794  SER795  GLU796  ALA797  LYS798  CYS799  TRP800  GLU811  SER814 

> <Gold.Protein.RotatedAtoms>
  151.1973  135.0428  159.8857 H   0  0  0  0  0  0  0  0  0  0  0  0  # atno 6907 bound_to 6896
  152.5435  134.0889  159.8278 H   0  0  0  0  0  0  0  0  0  0  0  0  # atno 6908 bound_to 6896
  151.1025  133.5185  159.2641 H   0  0  0  0  0  0  0  0  0  0  0  0  # atno 6909 bound_to 6896
  144.7161  140.0332  143.6438 H   0  0  0  0  0  0  0  0  0  0  0  0  # atno 7974 bound_to 7965
  156.2365  140.1886  156.7106 H   0  0  0  0  0  0  0  0  0  0  0  0  # atno 8008 bound_to 7997
  154.6116  140.0621  156.9527 H   0  0  0  0  0  0  0  0  0  0  0  0  # atno 8009 bound_to 7997
  155.2008  140.3292  155.4346 H   0  0  0  0  0  0  0  0  0  0  0  0  # atno 8010 bound_to 7997
  139.9880  144.5778  150.7843 H   0  0  0  0  0  0  0  0  0  0  0  0  # atno 10167 bound_to 10162
  157.4902  130.8371  149.8194 H   0  0  0  0  0  0  0  0  0  0  0  0  # atno 10718 bound_to 10713
  154.2214  135.6377  153.5146 H   0  0  0  0  0  0  0  0  0  0  0  0  # atno 10763 bound_to 10752
  152.9968  135.5497  154.6110 H   0  0  0  0  0  0  0  0  0  0  0  0  # atno 10764 bound_to 10752
  154.5571  135.2906  155.0928 H   0  0  0  0  0  0  0  0  0  0  0  0  # atno 10765 bound_to 10752
  141.1625  133.7477  156.9219 H   0  0  0  0  0  0  0  0  0  0  0  0  # atno 11005 bound_to 11000
  146.0085  139.3150  143.0884 LP  0  0  0  0  0  0  0  0  0  0  0  0  # atno 17320 bound_to 7965
  145.8710  140.9420  143.0651 LP  0  0  0  0  0  0  0  0  0  0  0  0  # atno 17321 bound_to 7965
  140.7465  143.2892  151.3378 LP  0  0  0  0  0  0  0  0  0  0  0  0  # atno 17342 bound_to 10162
  139.6361  144.0628  152.2517 LP  0  0  0  0  0  0  0  0  0  0  0  0  # atno 17343 bound_to 10162
  156.0169  130.3810  150.2082 LP  0  0  0  0  0  0  0  0  0  0  0  0  # atno 17370 bound_to 10713
  157.0270  130.9996  151.3323 LP  0  0  0  0  0  0  0  0  0  0  0  0  # atno 17371 bound_to 10713
  140.1445  134.9271  157.2511 LP  0  0  0  0  0  0  0  0  0  0  0  0  # atno 17394 bound_to 11000
  140.2796  134.3365  155.7347 LP  0  0  0  0  0  0  0  0  0  0  0  0  # atno 17395 bound_to 11000

$$$$
