AV-unprocessed.smi:2526|AV-procd|sdf|9939|dock8
  -GOLD-   2272013583D 1   1.00000     0.00000
 Structure written by MMmdl.
 28 29  0  0  0  0  0  0  0  0  1 V2000
  140.6465  137.5197  153.5014 C   0  0  0  0  0  0  0  0  0  0  0  0
  141.8564  136.7579  153.2776 N   0  0  0  0  0  0  0  0  0  0  0  0
  143.0115  137.1468  152.6357 C   0  0  0  0  0  0  0  0  0  0  0  0
  143.8842  136.0930  152.6752 C   0  0  0  0  0  0  0  0  0  0  0  0
  145.2933  135.9824  152.1246 C   0  0  1  0  0  0  0  0  0  0  0  0
  146.1933  135.3954  153.1212 N   0  0  0  0  0  0  0  0  0  0  0  0
  146.5879  134.1097  153.1887 C   0  0  0  0  0  0  0  0  0  0  0  0
  147.2526  133.6937  154.1347 O   0  0  0  0  0  0  0  0  0  0  0  0
  146.2431  133.1542  152.0332 C   0  0  0  0  0  0  0  0  0  0  0  0
  145.1650  133.6851  151.0714 C   0  0  0  0  0  0  0  0  0  0  0  0
  145.3665  135.1814  150.8012 C   0  0  1  0  0  0  0  0  0  0  0  0
  144.4232  135.6603  149.8067 N   0  0  0  0  0  0  0  0  0  0  0  0
  143.1464  135.0916  153.3710 C   0  0  0  0  0  0  0  0  0  0  0  0
  141.9372  135.4907  153.7295 N   0  0  0  0  0  0  0  0  0  0  0  0
  140.7583  138.5263  153.0974 H   0  0  0  0  0  0  0  0  0  0  0  0
  140.4457  137.5881  154.5710 H   0  0  0  0  0  0  0  0  0  0  0  0
  139.8057  137.0310  153.0083 H   0  0  0  0  0  0  0  0  0  0  0  0
  143.1195  138.1343  152.2115 H   0  0  0  0  0  0  0  0  0  0  0  0
  145.6771  136.9837  151.9259 H   0  0  0  0  0  0  0  0  0  0  0  0
  146.4774  136.0034  153.8759 H   0  0  0  0  0  0  0  0  0  0  0  0
  147.1642  132.9812  151.4759 H   0  0  0  0  0  0  0  0  0  0  0  0
  145.9401  132.1877  152.4366 H   0  0  0  0  0  0  0  0  0  0  0  0
  145.2078  133.1240  150.1373 H   0  0  0  0  0  0  0  0  0  0  0  0
  144.1742  133.5039  151.4905 H   0  0  0  0  0  0  0  0  0  0  0  0
  146.3621  135.3134  150.3750 H   0  0  0  0  0  0  0  0  0  0  0  0
  144.4356  136.6699  149.7825 H   0  0  0  0  0  0  0  0  0  0  0  0
  144.7050  135.3449  148.8894 H   0  0  0  0  0  0  0  0  0  0  0  0
  143.4563  134.0891  153.6266 H   0  0  0  0  0  0  0  0  0  0  0  0
  1  2  1  0  0  0  0
  1 15  1  0  0  0  0
  1 16  1  0  0  0  0
  1 17  1  0  0  0  0
  2 14  1  0  0  0  0
  2  3  1  0  0  0  0
  3  4  2  0  0  0  0
  3 18  1  0  0  0  0
  4  5  1  0  0  0  0
  4 13  1  0  0  0  0
  5 11  1  0  0  0  0
  5  6  1  0  0  0  0
  5 19  1  0  0  0  0
  6  7  1  0  0  0  0
  6 20  1  0  0  0  0
  7  8  2  0  0  0  0
  7  9  1  0  0  0  0
  9 10  1  0  0  0  0
  9 21  1  0  0  0  0
  9 22  1  0  0  0  0
 10 11  1  0  0  0  0
 10 23  1  0  0  0  0
 10 24  1  0  0  0  0
 11 12  1  0  0  0  0
 11 25  1  0  0  0  0
 12 26  1  0  0  0  0
 12 27  1  0  0  0  0
 13 14  2  0  0  0  0
 13 28  1  0  0  0  0
M  END
> <s_m_source_file>
AV-unprocessed.smi

> <i_m_source_file_index>
2526

> <i_lp_mmshare_version>
43012

> <i_f3d_flags>
0

> <s_epik_input>
W0NIM11uMVtjSF1jKFtjSF1uMSlbQ0BASF0yW05IXUMoPU8pW0NIMl1bQ0gyXVtDQEhdMltOSDJd

> <s_epik_cmdline>
J2VwaWtfcHl0aG9uJywgJy1waCcsICc3LjAnLCAnLXRuJywgJzgnLCAnLW1hJywgJzIwMCcsICctbWV0YWxfYmluZGluZycsICctaW1hZScsICc8aW5maWxlLm1hZT4nLCAnLW9tYWUnLCAnPG91dGZpbGUubWFlPic=

> <r_lp_tautomer_probability>
1

> <r_epik_Ionization_Penalty>
2.50279

> <r_epik_Ionization_Penalty_Charging>
0

> <r_epik_Ionization_Penalty_Neutral>
2.50279

> <r_epik_State_Penalty>
2.66754

> <r_epik_Charging_Adjusted_Penalty>
2.66754

> <i_epik_Tot_Q>
0

> <i_epik_Tot_abs_Q>
0

> <r_epik_Metal_State_Penalty>
2.66721

> <b_epik_Metal_Only>
0

> <s_lp_Force_Field>
OPLS_2005

> <r_lp_Energy>
9.07018

> <b_lp_Chiralities_Consistent>
1

> <s_lp_Variant>
AV-unprocessed.smi:2526-6

> <Gold.Version>
5.8.1

> <Gold.Id.Protein>
6NUR|6NUR_protein|mol2

> <Gold.PLP.Fitness>
35.2229

> <Gold.PLP.PLP>
-22.6734

> <Gold.PLP.part.hbond>
-2.6613

> <Gold.PLP.part.metal>
0.0000

> <Gold.PLP.part.buried>
-5.3366

> <Gold.PLP.part.nonpolar>
-15.8914

> <Gold.PLP.part.repulsive>
0.2013

> <Gold.PLP.ligand.clash>
0.0000

> <Gold.PLP.ligand.torsion>
0.3896

> <Gold.PLP.Chemscore.Hbond>
2.0000

> <Gold.PLP.Chemscore.CHOScore>
2.4370

> <Gold.PLP.Chemscore.Metal>
0.0000

> <Gold.Chemscore.Hbonds>
donor molecule, donor type, donor heavy atom, donor atom, acceptor molecule, acceptor atom, score
      L1  H    12    26       P1 10171  1.00
      L1  H    12    27       P1  7921  1.00
      L1  C     3    18       P1 10171  0.89
      L1  C     3    18       P1 10175  1.00
      L1  C    13    28       P1 10957  0.54

> <Gold.PLP.Chemscore.Internal.Correction>
0.0176

> <Gold.Rescore>
     Score         DG    S(hbond)    S(metal)    S(lipo)     H(rot)  DE(clash)    DE(int)     intcor
     14.45     -14.46       1.99        0.00      41.78       1.00       0.00       0.01       ----

> <Gold.Chemscore.Fitness>
14.4468

> <Gold.Chemscore.DG>
-14.4584

> <Gold.Chemscore.ZeroCoef>
-5.4800

> <Gold.Chemscore.Hbond>
1.9911

> <Gold.Chemscore.Metal>
0.0000

> <Gold.Chemscore.Lipo>
41.7786

> <Gold.Chemscore.Internal_Hbond>
0.0000

> <Gold.Chemscore.DEClash>
0.0015

> <Gold.Chemscore.DEInternal>
0.0101

> <Gold.Chemscore.Rot>
1.0000

> <Gold.Chemscore.Internal.Correction>
   9.000000E+99

> <Gold.Chemscore.Hbonds>
donor molecule, donor type, donor heavy atom, donor atom, acceptor molecule, acceptor atom, score
      L1  H    12    26       P1 10171  0.98
      L1  H    12    27       P1  7921  0.93

> <Gold.Chemscore.Hbond.Weighted>
-6.6503

> <Gold.Chemscore.Metal.Weighted>
-0.0000

> <Gold.Chemscore.Lipo.Weighted>
-4.8881

> <Gold.Chemscore.Internal_Hbond.Weighted>
0.0000

> <Gold.Chemscore.DEClash.Weighted>
0.0015

> <Gold.Chemscore.DEInternal.Weighted>
0.0101

> <Gold.Chemscore.Rot.Weighted>
2.5600

> <Gold.Chemscore.Internal.Correction.Weighted>
   9.000000E+99

> <Gold.Protein.RotatedTorsions>
[ 6907 6896 6895 6894 ] final  -99.20 input  -60.11 | X-H torsion
[ 7974 7965 7964 7962 ] final -126.32 input  175.53 | X-H torsion
[ 8008 7997 7996 7995 ] final -132.17 input   59.86 | X-H torsion
[ 10167 10162 10161 10158 ] final   65.30 input  -65.29 | X-H torsion
[ 10718 10713 10712 10709 ] final  100.39 input   66.30 | X-H torsion
[ 10763 10752 10751 10750 ] final   54.10 input  -60.55 | X-H torsion
[ 11005 11000 10999 10996 ] final  -56.93 input  -57.11 | X-H torsion

> <Gold.Protein.ActiveResidues>
 VAL166  LYS551  ARG553  GLY616  TRP617  ASP618  TYR619  PRO620  LYS621  CYS622 
 ASP623  PHE694  ASN695  SER759  ASP760  ASP761  ALA762  ILE779  LEU786  VAL792 
 PHE793  MET794  SER795  GLU796  ALA797  LYS798  CYS799  TRP800  GLU811  SER814 

> <Gold.Protein.RotatedAtoms>
  150.7072  134.1077  159.3988 H   0  0  0  0  0  0  0  0  0  0  0  0  # atno 6907 bound_to 6896
  151.9064  135.0355  160.0520 H   0  0  0  0  0  0  0  0  0  0  0  0  # atno 6908 bound_to 6896
  152.2372  133.5070  159.5286 H   0  0  0  0  0  0  0  0  0  0  0  0  # atno 6909 bound_to 6896
  144.9885  140.7709  143.4569 H   0  0  0  0  0  0  0  0  0  0  0  0  # atno 7974 bound_to 7965
  155.3245  140.0464  157.3040 H   0  0  0  0  0  0  0  0  0  0  0  0  # atno 8008 bound_to 7997
  154.5362  140.2273  155.8685 H   0  0  0  0  0  0  0  0  0  0  0  0  # atno 8009 bound_to 7997
  156.1837  140.3068  155.9203 H   0  0  0  0  0  0  0  0  0  0  0  0  # atno 8010 bound_to 7997
  140.1128  144.4802  150.6967 H   0  0  0  0  0  0  0  0  0  0  0  0  # atno 10167 bound_to 10162
  157.6855  131.0697  150.5093 H   0  0  0  0  0  0  0  0  0  0  0  0  # atno 10718 bound_to 10713
  152.9801  135.5756  154.4850 H   0  0  0  0  0  0  0  0  0  0  0  0  # atno 10763 bound_to 10752
  154.4393  135.2775  155.1861 H   0  0  0  0  0  0  0  0  0  0  0  0  # atno 10764 bound_to 10752
  154.3536  135.6204  153.5708 H   0  0  0  0  0  0  0  0  0  0  0  0  # atno 10765 bound_to 10752
  141.1142  133.6610  156.4693 H   0  0  0  0  0  0  0  0  0  0  0  0  # atno 11005 bound_to 11000
  145.2319  139.2111  143.5038 LP  0  0  0  0  0  0  0  0  0  0  0  0  # atno 17320 bound_to 7965
  146.3426  140.2198  142.8591 LP  0  0  0  0  0  0  0  0  0  0  0  0  # atno 17321 bound_to 7965
  140.6916  143.2379  151.5115 LP  0  0  0  0  0  0  0  0  0  0  0  0  # atno 17342 bound_to 10162
  139.5610  144.2157  152.1691 LP  0  0  0  0  0  0  0  0  0  0  0  0  # atno 17343 bound_to 10162
  156.5411  130.4208  149.6153 LP  0  0  0  0  0  0  0  0  0  0  0  0  # atno 17370 bound_to 10713
  156.2984  130.7163  151.2029 LP  0  0  0  0  0  0  0  0  0  0  0  0  # atno 17371 bound_to 10713
  140.4691  134.6769  157.5121 LP  0  0  0  0  0  0  0  0  0  0  0  0  # atno 17394 bound_to 11000
  140.0054  134.6772  155.9464 LP  0  0  0  0  0  0  0  0  0  0  0  0  # atno 17395 bound_to 11000

$$$$
