AV-unprocessed.smi:2135|AV-procd|sdf|8701|dock2
  -GOLD-   2272011463D 1   1.00000     0.00000
 Structure written by MMmdl.
 43 44  0  0  0  0  0  0  0  0  2 V2000
  152.9682  137.9161  156.5457 C   0  0  0  0  0  0  0  0  0  0  0  0
  152.1328  138.5529  155.0357 S   0  0  0  0  0  0  0  0  0  0  0  0
  152.9052  139.6999  154.5341 O   0  0  0  0  0  0  0  0  0  0  0  0
  151.8612  137.4122  154.1477 O   0  0  0  0  0  0  0  0  0  0  0  0
  150.6040  139.1514  155.6132 N   0  0  0  0  0  0  0  0  0  0  0  0
  150.3046  140.5964  155.5501 C   0  0  0  0  0  0  0  0  0  0  0  0
  149.3754  140.9331  154.3706 C   0  0  0  0  0  0  0  0  0  0  0  0
  148.1063  140.0737  154.4003 C   0  0  0  0  0  0  0  0  0  0  0  0
  148.4882  138.5825  154.4063 C   0  0  2  0  0  0  0  0  0  0  0  0
  147.2416  137.6887  154.4462 C   0  0  0  0  0  0  0  0  0  0  0  0
  146.4290  137.7945  155.3656 O   0  0  0  0  0  0  0  0  0  0  0  0
  147.1041  136.8064  153.4442 N   0  0  0  0  0  0  0  0  0  0  0  0
  146.0018  135.8622  153.3084 C   0  0  0  0  0  0  0  0  0  0  0  0
  146.5033  134.4558  152.9412 C   0  0  0  0  0  0  0  0  0  0  0  0
  145.5712  133.7533  151.9740 C   0  0  0  0  0  0  0  0  0  0  0  0
  145.8576  132.4487  151.5149 C   0  0  0  0  0  0  0  0  0  0  0  0
  144.9726  131.8243  150.6112 C   0  0  0  0  0  0  0  0  0  0  0  0
  143.8217  132.5193  150.1864 C   0  0  0  0  0  0  0  0  0  0  0  0
  143.5808  133.7664  150.6473 N   0  3  0  0  0  0  0  0  0  0  0  0
  144.4029  134.3983  151.5135 C   0  0  0  0  0  0  0  0  0  0  0  0
  149.4150  138.2748  155.6031 C   0  0  0  0  0  0  0  0  0  0  0  0
  153.9362  137.5003  156.2669 H   0  0  0  0  0  0  0  0  0  0  0  0
  152.3652  137.1320  157.0001 H   0  0  0  0  0  0  0  0  0  0  0  0
  153.1244  138.7270  157.2545 H   0  0  0  0  0  0  0  0  0  0  0  0
  149.8255  140.8885  156.4853 H   0  0  0  0  0  0  0  0  0  0  0  0
  151.2264  141.1735  155.4840 H   0  0  0  0  0  0  0  0  0  0  0  0
  149.1069  141.9893  154.4055 H   0  0  0  0  0  0  0  0  0  0  0  0
  149.8966  140.7841  153.4258 H   0  0  0  0  0  0  0  0  0  0  0  0
  147.5195  140.3233  155.2860 H   0  0  0  0  0  0  0  0  0  0  0  0
  147.4833  140.3050  153.5354 H   0  0  0  0  0  0  0  0  0  0  0  0
  149.0249  138.3693  153.4820 H   0  0  0  0  0  0  0  0  0  0  0  0
  147.8160  136.7857  152.7283 H   0  0  0  0  0  0  0  0  0  0  0  0
  145.4216  135.8337  154.2324 H   0  0  0  0  0  0  0  0  0  0  0  0
  145.3313  136.2326  152.5324 H   0  0  0  0  0  0  0  0  0  0  0  0
  147.5002  134.5161  152.5019 H   0  0  0  0  0  0  0  0  0  0  0  0
  146.6003  133.8410  153.8370 H   0  0  0  0  0  0  0  0  0  0  0  0
  146.7450  131.9311  151.8493 H   0  0  0  0  0  0  0  0  0  0  0  0
  145.1741  130.8268  150.2487 H   0  0  0  0  0  0  0  0  0  0  0  0
  143.0922  132.1185  149.4973 H   0  0  0  0  0  0  0  0  0  0  0  0
  144.1045  135.3941  151.8083 H   0  0  0  0  0  0  0  0  0  0  0  0
  149.7215  137.2288  155.5908 H   0  0  0  0  0  0  0  0  0  0  0  0
  148.8781  138.4233  156.5411 H   0  0  0  0  0  0  0  0  0  0  0  0
  142.7424  134.2522  150.3274 H   0  0  0  0  0  0  0  0  0  0  0  0
  1  2  1  0  0  0  0
  1 22  1  0  0  0  0
  1 23  1  0  0  0  0
  1 24  1  0  0  0  0
  2  3  2  0  0  0  0
  2  4  2  0  0  0  0
  2  5  1  0  0  0  0
  5 21  1  0  0  0  0
  5  6  1  0  0  0  0
  6  7  1  0  0  0  0
  6 25  1  0  0  0  0
  6 26  1  0  0  0  0
  7  8  1  0  0  0  0
  7 27  1  0  0  0  0
  7 28  1  0  0  0  0
  8  9  1  0  0  0  0
  8 29  1  0  0  0  0
  8 30  1  0  0  0  0
  9 10  1  0  0  0  0
  9 21  1  0  0  0  0
  9 31  1  0  0  0  0
 10 11  2  0  0  0  0
 10 12  1  0  0  0  0
 12 13  1  0  0  0  0
 12 32  1  0  0  0  0
 13 14  1  0  0  0  0
 13 33  1  0  0  0  0
 13 34  1  0  0  0  0
 14 15  1  0  0  0  0
 14 35  1  0  0  0  0
 14 36  1  0  0  0  0
 15 20  1  0  0  0  0
 15 16  2  0  0  0  0
 16 17  1  0  0  0  0
 16 37  1  0  0  0  0
 17 18  2  0  0  0  0
 17 38  1  0  0  0  0
 18 19  1  0  0  0  0
 18 39  1  0  0  0  0
 19 20  2  0  0  0  0
 19 43  1  0  0  0  0
 20 40  1  0  0  0  0
 21 41  1  0  0  0  0
 21 42  1  0  0  0  0
M  CHG  1  19   1
M  END
> <s_m_source_file>
AV-unprocessed.smi

> <i_m_source_file_index>
2135

> <i_lp_mmshare_version>
43012

> <i_f3d_flags>
0

> <s_epik_input>
W0NIM11TKD1PKSg9TylOMVtDSDJdW0NIMl1bQ0gyXVtDQEhdKFtDSDJdMSlDKD1PKVtOSF1bQ0gyXVtDSDJdYzJbY0hdW2NIXVtjSF1uW2NIXTI=

> <s_epik_cmdline>
J2VwaWtfcHl0aG9uJywgJy1waCcsICc3LjAnLCAnLXRuJywgJzgnLCAnLW1hJywgJzIwMCcsICctbWV0YWxfYmluZGluZycsICctaW1hZScsICc8aW5maWxlLm1hZT4nLCAnLW9tYWUnLCAnPG91dGZpbGUubWFlPic=

> <r_epik_Ionization_Penalty>
2.24912

> <r_epik_Ionization_Penalty_Charging>
2.24912

> <r_epik_Ionization_Penalty_Neutral>
2.62834e-08

> <r_epik_State_Penalty>
2.39611

> <r_epik_Charging_Adjusted_Penalty>
4.64523

> <i_epik_Tot_Q>
1

> <i_epik_Tot_abs_Q>
1

> <r_epik_Metal_State_Penalty>
2.40934

> <b_epik_Metal_Only>
0

> <s_lp_Force_Field>
OPLS_2005

> <r_lp_Energy>
6.9467

> <b_lp_Chiralities_Consistent>
1

> <s_lp_Variant>
AV-unprocessed.smi:2135-4

> <Gold.Version>
5.8.1

> <Gold.Id.Protein>
6NUR|6NUR_protein|mol2

> <Gold.PLP.Fitness>
49.1958

> <Gold.PLP.PLP>
-33.9135

> <Gold.PLP.part.hbond>
-4.8813

> <Gold.PLP.part.metal>
0.0000

> <Gold.PLP.part.buried>
-5.0095

> <Gold.PLP.part.nonpolar>
-25.3355

> <Gold.PLP.part.repulsive>
0.2521

> <Gold.PLP.ligand.clash>
0.0000

> <Gold.PLP.ligand.torsion>
1.4082

> <Gold.PLP.Chemscore.Hbond>
5.3422

> <Gold.PLP.Chemscore.CHOScore>
0.0000

> <Gold.PLP.Chemscore.Metal>
0.0000

> <Gold.Chemscore.Hbonds>
donor molecule, donor type, donor heavy atom, donor atom, acceptor molecule, acceptor atom, score
      L1  H    12    32       P1  7948  1.00
      L1  H    19    43       P1 10186  2.00
      P1  H  7989  7998       L1     3  0.37
      P1  H  7997  8009       L1     3  0.81
      P1  H 10752 10765       L1     4  0.96

> <Gold.PLP.Chemscore.Internal.Correction>
2.0719

> <Gold.Rescore>
     Score         DG    S(hbond)    S(metal)    S(lipo)     H(rot)  DE(clash)    DE(int)     intcor
     21.59     -23.03       3.97        0.00      72.72       1.65       0.06       1.38       ----

> <Gold.Chemscore.Fitness>
21.5897

> <Gold.Chemscore.DG>
-23.0276

> <Gold.Chemscore.ZeroCoef>
-5.4800

> <Gold.Chemscore.Hbond>
3.9739

> <Gold.Chemscore.Metal>
0.0000

> <Gold.Chemscore.Lipo>
72.7214

> <Gold.Chemscore.Internal_Hbond>
0.0000

> <Gold.Chemscore.DEClash>
0.0580

> <Gold.Chemscore.DEInternal>
1.3799

> <Gold.Chemscore.Rot>
1.6538

> <Gold.Chemscore.Internal.Correction>
   9.000000E+99

> <Gold.Chemscore.Hbonds>
donor molecule, donor type, donor heavy atom, donor atom, acceptor molecule, acceptor atom, score
      L1  H    12    32       P1  7948  0.93
      L1  H    19    43       P1 10186  0.81
      P1  H  7989  7998       L1     3  0.25
      P1  H  7997  8009       L1     3  0.71
      P1  H 10752 10765       L1     4  0.86

> <Gold.Chemscore.Hbond.Weighted>
-13.2728

> <Gold.Chemscore.Metal.Weighted>
-0.0000

> <Gold.Chemscore.Lipo.Weighted>
-8.5084

> <Gold.Chemscore.Internal_Hbond.Weighted>
0.0000

> <Gold.Chemscore.DEClash.Weighted>
0.0580

> <Gold.Chemscore.DEInternal.Weighted>
1.3799

> <Gold.Chemscore.Rot.Weighted>
4.2337

> <Gold.Chemscore.Internal.Correction.Weighted>
   9.000000E+99

> <Gold.Protein.RotatedTorsions>
[ 6907 6896 6895 6894 ] final  -87.95 input  -60.11 | X-H torsion
[ 7974 7965 7964 7962 ] final  -98.97 input  175.53 | X-H torsion
[ 8008 7997 7996 7995 ] final -125.07 input   59.86 | X-H torsion
[ 10167 10162 10161 10158 ] final -171.51 input  -65.29 | X-H torsion
[ 10718 10713 10712 10709 ] final -101.78 input   66.30 | X-H torsion
[ 10763 10752 10751 10750 ] final  156.46 input  -60.55 | X-H torsion
[ 11005 11000 10999 10996 ] final  135.74 input  -57.11 | X-H torsion

> <Gold.Protein.ActiveResidues>
 VAL166  LYS551  ARG553  GLY616  TRP617  ASP618  TYR619  PRO620  LYS621  CYS622 
 ASP623  PHE694  ASN695  SER759  ASP760  ASP761  ALA762  ILE779  LEU786  VAL792 
 PHE793  MET794  SER795  GLU796  ALA797  LYS798  CYS799  TRP800  GLU811  SER814 

> <Gold.Protein.RotatedAtoms>
  150.6867  134.2818  159.4629 H   0  0  0  0  0  0  0  0  0  0  0  0  # atno 6907 bound_to 6896
  152.0731  134.9518  160.0583 H   0  0  0  0  0  0  0  0  0  0  0  0  # atno 6908 bound_to 6896
  152.0900  133.4161  159.4576 H   0  0  0  0  0  0  0  0  0  0  0  0  # atno 6909 bound_to 6896
  145.3136  140.9406  143.2755 H   0  0  0  0  0  0  0  0  0  0  0  0  # atno 7974 bound_to 7965
  155.2073  140.0418  157.2927 H   0  0  0  0  0  0  0  0  0  0  0  0  # atno 8008 bound_to 7997
  154.6035  140.2458  155.7733 H   0  0  0  0  0  0  0  0  0  0  0  0  # atno 8009 bound_to 7997
  156.2336  140.2929  156.0261 H   0  0  0  0  0  0  0  0  0  0  0  0  # atno 8010 bound_to 7997
  139.5798  144.1448  152.1500 H   0  0  0  0  0  0  0  0  0  0  0  0  # atno 10167 bound_to 10162
  156.0206  130.5389  150.7012 H   0  0  0  0  0  0  0  0  0  0  0  0  # atno 10718 bound_to 10713
  154.1847  135.2798  155.3041 H   0  0  0  0  0  0  0  0  0  0  0  0  # atno 10763 bound_to 10752
  154.5975  135.5540  153.7344 H   0  0  0  0  0  0  0  0  0  0  0  0  # atno 10764 bound_to 10752
  153.0128  135.6383  154.1986 H   0  0  0  0  0  0  0  0  0  0  0  0  # atno 10765 bound_to 10752
  139.9999  134.9482  157.0049 H   0  0  0  0  0  0  0  0  0  0  0  0  # atno 11005 bound_to 11000
  144.8996  139.4667  143.6639 LP  0  0  0  0  0  0  0  0  0  0  0  0  # atno 17320 bound_to 7965
  146.3109  139.7742  142.9021 LP  0  0  0  0  0  0  0  0  0  0  0  0  # atno 17321 bound_to 7965
  140.0999  144.5548  150.6996 LP  0  0  0  0  0  0  0  0  0  0  0  0  # atno 17342 bound_to 10162
  140.7078  143.2481  151.4674 LP  0  0  0  0  0  0  0  0  0  0  0  0  # atno 17343 bound_to 10162
  157.4672  131.0889  151.0682 LP  0  0  0  0  0  0  0  0  0  0  0  0  # atno 17370 bound_to 10713
  157.1153  130.6038  149.5491 LP  0  0  0  0  0  0  0  0  0  0  0  0  # atno 17371 bound_to 10713
  140.4747  134.1350  155.7208 LP  0  0  0  0  0  0  0  0  0  0  0  0  # atno 17394 bound_to 11000
  141.1634  133.8750  157.1784 LP  0  0  0  0  0  0  0  0  0  0  0  0  # atno 17395 bound_to 11000

$$$$
