AV-unprocessed.smi:1934|AV-procd|sdf|7824|dock5
  -GOLD-   22720 9573D 1   1.00000     0.00000
 Structure written by MMmdl.
 46 47  0  0  0  0  0  0  0  0  2 V2000
  137.6696  137.3410  154.3870 C   0  0  0  0  0  0  0  0  0  0  0  0
  139.1682  137.3922  154.3348 C   0  0  0  0  0  0  0  0  0  0  0  0
  139.9956  137.8571  153.2710 C   0  0  0  0  0  0  0  0  0  0  0  0
  141.2567  137.6741  153.7689 C   0  0  0  0  0  0  0  0  0  0  0  0
  142.4544  137.9523  153.1886 N   0  0  0  0  0  0  0  0  0  0  0  0
  143.5309  137.1573  153.0596 C   0  0  0  0  0  0  0  0  0  0  0  0
  143.6195  135.9994  153.4687 O   0  0  0  0  0  0  0  0  0  0  0  0
  144.5273  137.7903  152.4237 N   0  0  0  0  0  0  0  0  0  0  0  0
  145.8308  137.2088  152.1247 C   0  0  0  0  0  0  0  0  0  0  0  0
  145.7311  136.1313  151.0274 C   0  0  0  0  0  0  0  0  0  0  0  0
  146.3212  134.8368  151.4517 N   0  3  2  0  0  0  0  0  0  0  0  0
  145.9715  133.7286  150.5255 C   0  0  0  0  0  0  0  0  0  0  0  0
  146.7195  132.4384  150.8966 C   0  0  0  0  0  0  0  0  0  0  0  0
  146.4472  132.0436  152.3547 C   0  0  0  0  0  0  0  0  0  0  0  0
  146.7503  133.2090  153.3147 C   0  0  1  0  0  0  0  0  0  0  0  0
  148.2583  133.4477  153.5077 C   0  0  0  0  0  0  0  0  0  0  0  0
  146.0115  134.4865  152.8649 C   0  0  0  0  0  0  0  0  0  0  0  0
  141.1624  137.1397  155.0345 N   0  0  0  0  0  0  0  0  0  0  0  0
  142.2152  136.7755  155.9625 C   0  0  0  0  0  0  0  0  0  0  0  0
  139.8685  136.9674  155.3804 N   0  0  0  0  0  0  0  0  0  0  0  0
  137.2297  137.7225  153.4654 H   0  0  0  0  0  0  0  0  0  0  0  0
  137.2847  137.9413  155.2114 H   0  0  0  0  0  0  0  0  0  0  0  0
  137.3164  136.3186  154.5248 H   0  0  0  0  0  0  0  0  0  0  0  0
  139.6928  138.2561  152.3147 H   0  0  0  0  0  0  0  0  0  0  0  0
  142.5417  138.8849  152.8124 H   0  0  0  0  0  0  0  0  0  0  0  0
  144.3704  138.7403  152.1191 H   0  0  0  0  0  0  0  0  0  0  0  0
  146.5299  137.9929  151.8282 H   0  0  0  0  0  0  0  0  0  0  0  0
  146.2147  136.7865  153.0523 H   0  0  0  0  0  0  0  0  0  0  0  0
  144.6946  135.9840  150.7196 H   0  0  0  0  0  0  0  0  0  0  0  0
  146.2637  136.4912  150.1460 H   0  0  0  0  0  0  0  0  0  0  0  0
  144.8935  133.5607  150.5473 H   0  0  0  0  0  0  0  0  0  0  0  0
  146.2293  134.0050  149.5023 H   0  0  0  0  0  0  0  0  0  0  0  0
  146.4151  131.6297  150.2314 H   0  0  0  0  0  0  0  0  0  0  0  0
  147.7899  132.5744  150.7400 H   0  0  0  0  0  0  0  0  0  0  0  0
  145.3989  131.7596  152.4556 H   0  0  0  0  0  0  0  0  0  0  0  0
  147.0292  131.1617  152.6247 H   0  0  0  0  0  0  0  0  0  0  0  0
  146.3568  132.9320  154.2936 H   0  0  0  0  0  0  0  0  0  0  0  0
  148.7434  133.7632  152.5840 H   0  0  0  0  0  0  0  0  0  0  0  0
  148.7571  132.5412  153.8515 H   0  0  0  0  0  0  0  0  0  0  0  0
  148.4381  134.2220  154.2539 H   0  0  0  0  0  0  0  0  0  0  0  0
  146.2764  135.3060  153.5320 H   0  0  0  0  0  0  0  0  0  0  0  0
  144.9344  134.3431  152.9664 H   0  0  0  0  0  0  0  0  0  0  0  0
  142.9672  136.1753  155.4497 H   0  0  0  0  0  0  0  0  0  0  0  0
  141.8103  136.1959  156.7933 H   0  0  0  0  0  0  0  0  0  0  0  0
  142.6844  137.6782  156.3539 H   0  0  0  0  0  0  0  0  0  0  0  0
  147.3231  134.9472  151.3876 H   0  0  0  0  0  0  0  0  0  0  0  0
  1  2  1  0  0  0  0
  1 21  1  0  0  0  0
  1 22  1  0  0  0  0
  1 23  1  0  0  0  0
  2 20  2  0  0  0  0
  2  3  1  0  0  0  0
  3  4  2  0  0  0  0
  3 24  1  0  0  0  0
  4  5  1  0  0  0  0
  4 18  1  0  0  0  0
  5  6  1  0  0  0  0
  5 25  1  0  0  0  0
  6  7  2  0  0  0  0
  6  8  1  0  0  0  0
  8  9  1  0  0  0  0
  8 26  1  0  0  0  0
  9 10  1  0  0  0  0
  9 27  1  0  0  0  0
  9 28  1  0  0  0  0
 10 11  1  0  0  0  0
 10 29  1  0  0  0  0
 10 30  1  0  0  0  0
 11 17  1  0  0  0  0
 11 12  1  0  0  0  0
 11 46  1  0  0  0  0
 12 13  1  0  0  0  0
 12 31  1  0  0  0  0
 12 32  1  0  0  0  0
 13 14  1  0  0  0  0
 13 33  1  0  0  0  0
 13 34  1  0  0  0  0
 14 15  1  0  0  0  0
 14 35  1  0  0  0  0
 14 36  1  0  0  0  0
 15 16  1  0  0  0  0
 15 17  1  0  0  0  0
 15 37  1  0  0  0  0
 16 38  1  0  0  0  0
 16 39  1  0  0  0  0
 16 40  1  0  0  0  0
 17 41  1  0  0  0  0
 17 42  1  0  0  0  0
 18 19  1  0  0  0  0
 18 20  1  0  0  0  0
 19 43  1  0  0  0  0
 19 44  1  0  0  0  0
 19 45  1  0  0  0  0
M  CHG  1  11   1
M  END
> <s_m_source_file>
AV-unprocessed.smi

> <i_m_source_file_index>
1934

> <i_lp_mmshare_version>
43012

> <i_f3d_flags>
0

> <s_epik_input>
W0NIM11jMVtjSF1jKG4objEpW0NIM10pW05IXUMoPU8pW05IXVtDSDJdW0NIMl1OMltDSDJdW0NIMl1bQ0gyXVtDQEBIXShbQ0gzXSlbQ0gyXTI=

> <s_epik_cmdline>
J2VwaWtfcHl0aG9uJywgJy1waCcsICc3LjAnLCAnLXRuJywgJzgnLCAnLW1hJywgJzIwMCcsICctbWV0YWxfYmluZGluZycsICctaW1hZScsICc8aW5maWxlLm1hZT4nLCAnLW9tYWUnLCAnPG91dGZpbGUubWFlPic=

> <r_lp_tautomer_probability>
1

> <r_epik_Ionization_Penalty>
0.00202955

> <r_epik_Ionization_Penalty_Charging>
0.00195276

> <r_epik_Ionization_Penalty_Neutral>
7.67968e-05

> <r_epik_State_Penalty>
0.00133177

> <r_epik_Charging_Adjusted_Penalty>
0.00328452

> <i_epik_Tot_Q>
1

> <i_epik_Tot_abs_Q>
1

> <r_epik_Metal_State_Penalty>
-0

> <b_epik_Metal_Only>
0

> <s_lp_Force_Field>
OPLS_2005

> <r_lp_Energy>
20.6023

> <b_lp_Chiralities_Consistent>
1

> <s_lp_Variant>
AV-unprocessed.smi:1934-2

> <Gold.Version>
5.8.1

> <Gold.Id.Protein>
6NUR|6NUR_protein|mol2

> <Gold.PLP.Fitness>
42.5195

> <Gold.PLP.PLP>
-31.2415

> <Gold.PLP.part.hbond>
-4.8144

> <Gold.PLP.part.metal>
0.0000

> <Gold.PLP.part.buried>
0.5029

> <Gold.PLP.part.nonpolar>
-27.6576

> <Gold.PLP.part.repulsive>
0.2089

> <Gold.PLP.ligand.clash>
0.0000

> <Gold.PLP.ligand.torsion>
0.9945

> <Gold.PLP.Chemscore.Hbond>
4.4083

> <Gold.PLP.Chemscore.CHOScore>
0.0000

> <Gold.PLP.Chemscore.Metal>
0.0000

> <Gold.Chemscore.Hbonds>
donor molecule, donor type, donor heavy atom, donor atom, acceptor molecule, acceptor atom, score
      L1  H     5    25       P1 10175  1.00
      L1  H     8    26       P1 10175  0.99
      L1  H    11    46       P1  7948  1.63
      P1  H 11000 11005       L1    20  0.44

> <Gold.PLP.Chemscore.Internal.Correction>
0.0423

> <Gold.Rescore>
     Score         DG    S(hbond)    S(metal)    S(lipo)     H(rot)  DE(clash)    DE(int)     intcor
     16.26     -18.97       2.81        0.00      67.40       1.48       0.16       2.55       ----

> <Gold.Chemscore.Fitness>
16.2593

> <Gold.Chemscore.DG>
-18.9683

> <Gold.Chemscore.ZeroCoef>
-5.4800

> <Gold.Chemscore.Hbond>
2.8148

> <Gold.Chemscore.Metal>
0.0000

> <Gold.Chemscore.Lipo>
67.3953

> <Gold.Chemscore.Internal_Hbond>
0.0000

> <Gold.Chemscore.DEClash>
0.1574

> <Gold.Chemscore.DEInternal>
2.5517

> <Gold.Chemscore.Rot>
1.4838

> <Gold.Chemscore.Internal.Correction>
   9.000000E+99

> <Gold.Chemscore.Hbonds>
donor molecule, donor type, donor heavy atom, donor atom, acceptor molecule, acceptor atom, score
      L1  H     5    25       P1 10175  0.95
      L1  H     8    26       P1 10175  0.94
      L1  H    11    46       P1  7948  0.47
      P1  H 11000 11005       L1    20  0.12

> <Gold.Chemscore.Hbond.Weighted>
-9.4016

> <Gold.Chemscore.Metal.Weighted>
-0.0000

> <Gold.Chemscore.Lipo.Weighted>
-7.8852

> <Gold.Chemscore.Internal_Hbond.Weighted>
0.0000

> <Gold.Chemscore.DEClash.Weighted>
0.1574

> <Gold.Chemscore.DEInternal.Weighted>
2.5517

> <Gold.Chemscore.Rot.Weighted>
3.7985

> <Gold.Chemscore.Internal.Correction.Weighted>
   9.000000E+99

> <Gold.Protein.RotatedTorsions>
[ 6907 6896 6895 6894 ] final -174.34 input  -60.11 | X-H torsion
[ 7974 7965 7964 7962 ] final -123.34 input  175.53 | X-H torsion
[ 8008 7997 7996 7995 ] final  -61.43 input   59.86 | X-H torsion
[ 10167 10162 10161 10158 ] final  -25.52 input  -65.29 | X-H torsion
[ 10718 10713 10712 10709 ] final    6.57 input   66.30 | X-H torsion
[ 10763 10752 10751 10750 ] final   38.23 input  -60.55 | X-H torsion
[ 11005 11000 10999 10996 ] final   79.18 input  -57.11 | X-H torsion

> <Gold.Protein.ActiveResidues>
 VAL166  LYS551  ARG553  GLY616  TRP617  ASP618  TYR619  PRO620  LYS621  CYS622 
 ASP623  PHE694  ASN695  SER759  ASP760  ASP761  ALA762  ILE779  LEU786  VAL792 
 PHE793  MET794  SER795  GLU796  ALA797  LYS798  CYS799  TRP800  GLU811  SER814 

> <Gold.Protein.RotatedAtoms>
  151.5708  133.3390  159.2989 H   0  0  0  0  0  0  0  0  0  0  0  0  # atno 6907 bound_to 6896
  150.8368  134.7648  159.6911 H   0  0  0  0  0  0  0  0  0  0  0  0  # atno 6908 bound_to 6896
  152.4443  134.5533  159.9925 H   0  0  0  0  0  0  0  0  0  0  0  0  # atno 6909 bound_to 6896
  145.0197  140.7977  143.4388 H   0  0  0  0  0  0  0  0  0  0  0  0  # atno 7974 bound_to 7965
  154.4448  140.1018  156.6430 H   0  0  0  0  0  0  0  0  0  0  0  0  # atno 8008 bound_to 7997
  155.5480  140.3485  155.4443 H   0  0  0  0  0  0  0  0  0  0  0  0  # atno 8009 bound_to 7997
  156.0549  140.1312  156.9997 H   0  0  0  0  0  0  0  0  0  0  0  0  # atno 8010 bound_to 7997
  140.7286  143.4258  151.0880 H   0  0  0  0  0  0  0  0  0  0  0  0  # atno 10167 bound_to 10162
  156.9241  130.5802  149.5648 H   0  0  0  0  0  0  0  0  0  0  0  0  # atno 10718 bound_to 10713
  153.0008  135.6255  154.2272 H   0  0  0  0  0  0  0  0  0  0  0  0  # atno 10763 bound_to 10752
  154.2014  135.2804  155.2991 H   0  0  0  0  0  0  0  0  0  0  0  0  # atno 10764 bound_to 10752
  154.5680  135.5685  153.7128 H   0  0  0  0  0  0  0  0  0  0  0  0  # atno 10765 bound_to 10752
  139.9183  134.7822  156.1746 H   0  0  0  0  0  0  0  0  0  0  0  0  # atno 11005 bound_to 11000
  145.1912  139.2300  143.5241 LP  0  0  0  0  0  0  0  0  0  0  0  0  # atno 17320 bound_to 7965
  146.3483  140.1709  142.8589 LP  0  0  0  0  0  0  0  0  0  0  0  0  # atno 17321 bound_to 7965
  139.7909  143.8220  152.3151 LP  0  0  0  0  0  0  0  0  0  0  0  0  # atno 17342 bound_to 10162
  139.8204  144.7298  150.9580 LP  0  0  0  0  0  0  0  0  0  0  0  0  # atno 17343 bound_to 10162
  156.0477  130.5551  150.8918 LP  0  0  0  0  0  0  0  0  0  0  0  0  # atno 17370 bound_to 10713
  157.5889  131.0945  150.9152 LP  0  0  0  0  0  0  0  0  0  0  0  0  # atno 17371 bound_to 10713
  141.0679  133.6810  156.2082 LP  0  0  0  0  0  0  0  0  0  0  0  0  # atno 17394 bound_to 11000
  140.6554  134.5023  157.5580 LP  0  0  0  0  0  0  0  0  0  0  0  0  # atno 17395 bound_to 11000

$$$$
