#       Name:                AV-unprocessed.smi:160
#       Creating user name   scv26
#       Creation time:       Thu Mar 26 19:06:34 2020


#       File generated by GOLD software.
#

@<TRIPOS>MOLECULE
AV-unprocessed.smi:160
    41    42     1
SMALL
NO_CHARGES


@<TRIPOS>ATOM
      1 ****        -3.8800   0.9407   0.3210 N.am           1 S1                 0.0000
      2 ****        -3.9292   0.1367  -0.7462 C.2            1 S1                 0.0000
      3 ****        -4.9688  -0.0636  -1.3722 O.2            1 S1                 0.0000
      4 ****        -2.6359  -0.5193  -1.1439 C.2            1 S1                 0.0000
      5 ****        -2.5775  -1.3803  -2.2028 N.2            1 S1                 0.0000
      6 ****        -1.2842  -1.6744  -2.1616 C.2            1 S1                 0.0000
      7 ****        -0.6169  -1.0689  -1.1743 N.pl3          1 S1                 0.0000
      8 ****         0.8354  -1.1166  -0.8269 C.3            1 S1                 0.0000
      9 ****         1.3397   0.1769  -0.9847 O.3            1 S1                 0.0000
     10 ****         1.9811   0.6219   0.2084 C.3            1 S1                 0.0000
     11 ****         1.8113   2.1427   0.3475 C.3            1 S1                 0.0000
     12 ****         2.7904   2.8132  -0.4166 O.3            1 S1                 0.0000
     13 ****         1.2759  -0.1737   1.3080 C.3            1 S1                 0.0000
     14 ****         2.0309  -0.2760   2.5011 O.3            1 S1                 0.0000
     15 ****         1.0342  -1.5222   0.6412 C.3            1 S1                 0.0000
     16 ****         2.1353  -2.4024   0.7733 O.3            1 S1                 0.0000
     17 ****        -1.4936  -0.2882  -0.4944 N.2            1 S1                 0.0000
     18 ****         1.2684  -1.8142  -1.5455 H              1 S1                 0.0000
     19 ****         3.0350   0.3389   0.1723 H              1 S1                 0.0000
     20 ****         0.3169   0.2918   1.5397 H              1 S1                 0.0000
     21 ****         0.1499  -2.0237   1.0375 H              1 S1                 0.0000
     22 ****        -4.7157   1.4117   0.6352 H              1 S1                 0.0000
     23 ****        -3.0038   1.0731   0.8047 H              1 S1                 0.0000
     24 ****        -0.8136  -2.3437  -2.8669 H              1 S1                 0.0000
     25 ****         0.8115   2.4584   0.0473 H              1 S1                 0.0000
     26 ****         1.9474   2.4432   1.3868 H              1 S1                 0.0000
     27 ****         2.6628   3.7446  -0.3192 H              1 S1                 0.0000
     28 ****         2.1818   0.5942   2.8371 H              1 S1                 0.0000
     29 ****         2.3112  -2.5195   1.6947 H              1 S1                 0.0000
     30 ****        -5.8176   0.3821  -1.0877 LP             1 S1                 0.0000
     31 ****        -4.9653  -0.6722  -2.1657 LP             1 S1                 0.0000
     32 ****        -3.2953  -1.6951  -2.8238 LP             1 S1                 0.0000
     33 ****         0.5866   0.7976  -1.2026 LP             1 S1                 0.0000
     34 ****         2.0023   0.1808  -1.7337 LP             1 S1                 0.0000
     35 ****         2.6986   2.5593  -1.3795 LP             1 S1                 0.0000
     36 ****         3.7020   2.5621  -0.0912 LP             1 S1                 0.0000
     37 ****         2.9063  -0.7197   2.3090 LP             1 S1                 0.0000
     38 ****         1.5250  -0.8146   3.1750 LP             1 S1                 0.0000
     39 ****         2.9376  -2.0109   0.3226 LP             1 S1                 0.0000
     40 ****         1.9157  -3.2842   0.3559 LP             1 S1                 0.0000
     41 ****        -1.3266   0.3072   0.2914 LP             1 S1                 0.0000
@<TRIPOS>BOND
    1    1    2 am    
    2    1   22 1     
    3    1   23 1     
    4    2    3 2     
    5    2    4 1     
    6    4   17 2     
    7    4    5 1     
    8    5    6 2     
    9    6    7 1     
   10    6   24 1     
   11    7    8 1     
   12    7   17 1     
   13    8   18 1     
   14    8   15 1     
   15    8    9 1     
   16    9   10 1     
   17   10   19 1     
   18   10   11 1     
   19   10   13 1     
   20   11   12 1     
   21   11   25 1     
   22   11   26 1     
   23   12   27 1     
   24   13   20 1     
   25   13   14 1     
   26   13   15 1     
   27   14   28 1     
   28   15   21 1     
   29   15   16 1     
   30   16   29 1     
   31    3   30 1     
   32    3   31 1     
   33    5   32 1     
   34    9   33 1     
   35    9   34 1     
   36   12   35 1     
   37   12   36 1     
   38   14   37 1     
   39   14   38 1     
   40   16   39 1     
   41   16   40 1     
   42   17   41 1     
@<TRIPOS>SUBSTRUCTURE
      1 S1             1
@<TRIPOS>SET
LONE_PAIRS      STATIC     ATOMS    <user>   **** ""
12 30 31 32 33 34 35 36 37 38 39 40 41
DONOR_HYDROGENS      STATIC     ATOMS    <user>   **** ""
5 22 23 27 28 29
ATOM$BLUE        STATIC     ATOMS    COLORGROUP SYSTEM
12 30 31 32 33 34 35 36 37 38 39 40 41
ATOM$RED        STATIC     ATOMS    COLORGROUP SYSTEM
5 22 23 27 28 29
