#       Name:                AV-unprocessed.smi:1639
#       Creating user name   scv26
#       Creation time:       Fri Mar 27 07:23:27 2020


#       File generated by GOLD software.
#

@<TRIPOS>MOLECULE
AV-unprocessed.smi:1639
    42    43     1
SMALL
NO_CHARGES


@<TRIPOS>ATOM
      1 ****        -4.7697   2.7628   0.4598 C.3            1 S1                 0.0000
      2 ****        -3.3432   2.8022  -0.0927 C.3            1 S1                 0.0000
      3 ****        -2.6073   1.7247   0.4674 O.3            1 S1                 0.0000
      4 ****        -1.2657   1.6241   0.0070 C.3            1 S1                 0.0000
      5 ****        -0.3521   2.6312   0.7327 C.3            1 S1                 0.0000
      6 ****         1.1116   2.4023   0.3286 C.3            1 S1                 0.0000
      7 ****         1.5366   0.9467   0.5818 C.3            1 S1                 0.0000
      8 ****         0.6190   0.0092  -0.0676 N.3            1 S1                 0.0000
      9 ****         1.0994  -1.3112  -0.2052 C.ar           1 S1                 0.0000
     10 ****         2.3595  -1.5670  -0.7979 C.ar           1 S1                 0.0000
     11 ****         2.7578  -2.9171  -0.8927 C.ar           1 S1                 0.0000
     12 ****         4.0844  -3.3080  -1.5089 C.3            1 S1                 0.0000
     13 ****         1.9796  -3.9235  -0.4396 N.ar           1 S1                 0.0000
     14 ****         0.8099  -3.5755   0.0974 C.ar           1 S1                 0.0000
     15 ****         0.0144  -4.5976   0.5538 N.pl3          1 S1                 0.0000
     16 ****         0.3306  -2.3383   0.2366 N.ar           1 S1                 0.0000
     17 ****        -0.7947   0.1833   0.2753 C.3            1 S1                 0.0000
     18 ****        -5.3702   3.5733   0.0465 H              1 S1                 0.0000
     19 ****        -4.7714   2.8647   1.5451 H              1 S1                 0.0000
     20 ****        -5.2602   1.8217   0.2099 H              1 S1                 0.0000
     21 ****        -3.3670   2.7169  -1.1801 H              1 S1                 0.0000
     22 ****        -2.8818   3.7582   0.1540 H              1 S1                 0.0000
     23 ****        -1.2272   1.7998  -1.0698 H              1 S1                 0.0000
     24 ****        -0.6364   3.6566   0.4987 H              1 S1                 0.0000
     25 ****        -0.4574   2.5144   1.8120 H              1 S1                 0.0000
     26 ****         1.2397   2.6408  -0.7281 H              1 S1                 0.0000
     27 ****         1.7623   3.0810   0.8804 H              1 S1                 0.0000
     28 ****         2.5613   0.8152   0.2374 H              1 S1                 0.0000
     29 ****         1.5396   0.7422   1.6533 H              1 S1                 0.0000
     30 ****         2.9880  -0.7751  -1.1770 H              1 S1                 0.0000
     31 ****         4.5139  -2.4794  -2.0725 H              1 S1                 0.0000
     32 ****         3.9589  -4.1511  -2.1889 H              1 S1                 0.0000
     33 ****         4.7913  -3.5957  -0.7304 H              1 S1                 0.0000
     34 ****         0.3224  -5.5557   0.4751 H              1 S1                 0.0000
     35 ****        -0.8352  -4.3942   1.0596 H              1 S1                 0.0000
     36 ****        -0.9380  -0.0681   1.3273 H              1 S1                 0.0000
     37 ****        -1.4110  -0.5029  -0.3070 H              1 S1                 0.0000
     38 ****        -3.0798   0.8728   0.2411 LP             1 S1                 0.0000
     39 ****        -2.5887   1.8419   1.4603 LP             1 S1                 0.0000
     40 ****         0.6153   0.2994  -1.0246 LP             1 S1                 0.0000
     41 ****         2.2656  -4.8796  -0.5035 LP             1 S1                 0.0000
     42 ****        -0.5640  -2.1737   0.6520 LP             1 S1                 0.0000
@<TRIPOS>BOND
    1    1    2 1     
    2    1   18 1     
    3    1   19 1     
    4    1   20 1     
    5    2    3 1     
    6    2   21 1     
    7    2   22 1     
    8    3    4 1     
    9    4   17 1     
   10    4    5 1     
   11    4   23 1     
   12    5    6 1     
   13    5   24 1     
   14    5   25 1     
   15    6    7 1     
   16    6   26 1     
   17    6   27 1     
   18    7    8 1     
   19    7   28 1     
   20    7   29 1     
   21    8    9 1     
   22    8   17 1     
   23    9   16 ar    
   24    9   10 ar    
   25   10   11 ar    
   26   10   30 1     
   27   11   12 1     
   28   11   13 ar    
   29   12   31 1     
   30   12   32 1     
   31   12   33 1     
   32   13   14 ar    
   33   14   15 1     
   34   14   16 ar    
   35   15   34 1     
   36   15   35 1     
   37   17   36 1     
   38   17   37 1     
   39    3   38 1     
   40    3   39 1     
   41    8   40 1     
   42   13   41 1     
   43   16   42 1     
@<TRIPOS>SUBSTRUCTURE
      1 S1             1
@<TRIPOS>SET
LONE_PAIRS      STATIC     ATOMS    <user>   **** ""
5 38 39 40 41 42
DONOR_HYDROGENS      STATIC     ATOMS    <user>   **** ""
2 34 35
ATOM$BLUE        STATIC     ATOMS    COLORGROUP SYSTEM
5 38 39 40 41 42
ATOM$RED        STATIC     ATOMS    COLORGROUP SYSTEM
2 34 35
