AV-unprocessed.smi:1144|AV-procd|sdf|4877|dock4
  -GOLD-   22720 3453D 1   1.00000     0.00000
 Structure written by MMmdl.
 35 36  0  0  0  0  0  0  0  0  2 V2000
  143.8102  132.7573  148.5716 C   0  0  0  0  0  0  0  0  0  0  0  0
  143.6455  133.1635  149.9863 N   0  3  2  0  0  0  0  0  0  0  0  0
  144.3629  134.4123  150.3353 C   0  0  0  0  0  0  0  0  0  0  0  0
  145.8645  134.1525  150.5538 C   0  0  0  0  0  0  0  0  0  0  0  0
  146.0325  133.1420  151.5405 O   0  0  0  0  0  0  0  0  0  0  0  0
  145.4660  131.8944  151.1500 C   0  0  1  0  0  0  0  0  0  0  0  0
  145.7681  130.8682  152.2503 C   0  0  0  0  0  0  0  0  0  0  0  0
  146.9275  130.0513  151.9242 N   0  0  0  0  0  0  0  0  0  0  0  0
  147.1713  128.8054  152.4701 C   0  0  0  0  0  0  0  0  0  0  0  0
  146.7039  128.5498  153.6975 N   0  0  0  0  0  0  0  0  0  0  0  0
  146.9576  127.3255  154.2083 C   0  0  0  0  0  0  0  0  0  0  0  0
  147.6817  126.3570  153.4856 C   0  0  0  0  0  0  0  0  0  0  0  0
  148.1267  126.7365  152.2008 C   0  0  0  0  0  0  0  0  0  0  0  0
  148.9176  125.7693  151.3333 C   0  0  0  0  0  0  0  0  0  0  0  0
  149.3216  126.3932  150.2269 F   0  0  0  0  0  0  0  0  0  0  0  0
  149.9893  125.3466  152.0034 F   0  0  0  0  0  0  0  0  0  0  0  0
  148.1904  124.7074  150.9806 F   0  0  0  0  0  0  0  0  0  0  0  0
  147.8652  127.9665  151.6984 N   0  0  0  0  0  0  0  0  0  0  0  0
  143.9453  132.0843  150.9580 C   0  0  0  0  0  0  0  0  0  0  0  0
  144.8464  132.5188  148.3325 H   0  0  0  0  0  0  0  0  0  0  0  0
  143.4850  133.5574  147.9057 H   0  0  0  0  0  0  0  0  0  0  0  0
  143.2012  131.8798  148.3526 H   0  0  0  0  0  0  0  0  0  0  0  0
  144.2064  135.1695  149.5662 H   0  0  0  0  0  0  0  0  0  0  0  0
  143.9297  134.8100  151.2539 H   0  0  0  0  0  0  0  0  0  0  0  0
  146.3585  133.8614  149.6258 H   0  0  0  0  0  0  0  0  0  0  0  0
  146.3542  135.0635  150.8982 H   0  0  0  0  0  0  0  0  0  0  0  0
  145.9191  131.5573  150.2160 H   0  0  0  0  0  0  0  0  0  0  0  0
  145.9326  131.3721  153.2035 H   0  0  0  0  0  0  0  0  0  0  0  0
  144.9101  130.2076  152.3808 H   0  0  0  0  0  0  0  0  0  0  0  0
  147.6467  130.4469  151.3363 H   0  0  0  0  0  0  0  0  0  0  0  0
  146.5808  127.1178  155.1987 H   0  0  0  0  0  0  0  0  0  0  0  0
  147.8845  125.3777  153.8930 H   0  0  0  0  0  0  0  0  0  0  0  0
  143.4891  132.3524  151.9121 H   0  0  0  0  0  0  0  0  0  0  0  0
  143.4737  131.1530  150.6412 H   0  0  0  0  0  0  0  0  0  0  0  0
  142.6610  133.3666  150.0862 H   0  0  0  0  0  0  0  0  0  0  0  0
  1  2  1  0  0  0  0
  1 20  1  0  0  0  0
  1 21  1  0  0  0  0
  1 22  1  0  0  0  0
  2 19  1  0  0  0  0
  2  3  1  0  0  0  0
  2 35  1  0  0  0  0
  3  4  1  0  0  0  0
  3 23  1  0  0  0  0
  3 24  1  0  0  0  0
  4  5  1  0  0  0  0
  4 25  1  0  0  0  0
  4 26  1  0  0  0  0
  5  6  1  0  0  0  0
  6  7  1  0  0  0  0
  6 19  1  0  0  0  0
  6 27  1  0  0  0  0
  7  8  1  0  0  0  0
  7 28  1  0  0  0  0
  7 29  1  0  0  0  0
  8  9  1  0  0  0  0
  8 30  1  0  0  0  0
  9 18  1  0  0  0  0
  9 10  2  0  0  0  0
 10 11  1  0  0  0  0
 11 12  2  0  0  0  0
 11 31  1  0  0  0  0
 12 13  1  0  0  0  0
 12 32  1  0  0  0  0
 13 14  1  0  0  0  0
 13 18  2  0  0  0  0
 14 15  1  0  0  0  0
 14 16  1  0  0  0  0
 14 17  1  0  0  0  0
 19 33  1  0  0  0  0
 19 34  1  0  0  0  0
M  CHG  1   2   1
M  END
> <s_m_source_file>
AV-unprocessed.smi

> <i_m_source_file_index>
1144

> <i_lp_mmshare_version>
43012

> <i_f3d_flags>
0

> <s_epik_input>
W0NIM11OMVtDSDJdW0NIMl1PW0NASF0oW0NIMl0xKVtDSDJdW05IXWMybltjSF1bY0hdYyhuMilDKEYpKEYpRg==

> <s_epik_cmdline>
J2VwaWtfcHl0aG9uJywgJy1waCcsICc3LjAnLCAnLXRuJywgJzgnLCAnLW1hJywgJzIwMCcsICctbWV0YWxfYmluZGluZycsICctaW1hZScsICc8aW5maWxlLm1hZT4nLCAnLW9tYWUnLCAnPG91dGZpbGUubWFlPic=

> <r_lp_tautomer_probability>
1

> <r_epik_Ionization_Penalty>
0.178506

> <r_epik_Ionization_Penalty_Charging>
0.178504

> <r_epik_Ionization_Penalty_Neutral>
2.47225e-06

> <r_epik_State_Penalty>
0.167974

> <r_epik_Charging_Adjusted_Penalty>
0.346478

> <i_epik_Tot_Q>
1

> <i_epik_Tot_abs_Q>
1

> <r_epik_Metal_State_Penalty>
0.167974

> <b_epik_Metal_Only>
0

> <s_lp_Force_Field>
OPLS_2005

> <r_lp_Energy>
13.0579

> <b_lp_Chiralities_Consistent>
1

> <s_lp_Variant>
AV-unprocessed.smi:1144-2

> <Gold.Version>
5.8.1

> <Gold.Id.Protein>
6NUR|6NUR_protein|mol2

> <Gold.PLP.Fitness>
40.8130

> <Gold.PLP.PLP>
-33.6560

> <Gold.PLP.part.hbond>
-2.0000

> <Gold.PLP.part.metal>
0.0000

> <Gold.PLP.part.buried>
-2.3338

> <Gold.PLP.part.nonpolar>
-28.9081

> <Gold.PLP.part.repulsive>
0.4249

> <Gold.PLP.ligand.clash>
0.0000

> <Gold.PLP.ligand.torsion>
0.9243

> <Gold.PLP.Chemscore.Hbond>
3.0000

> <Gold.PLP.Chemscore.CHOScore>
0.0000

> <Gold.PLP.Chemscore.Metal>
0.0000

> <Gold.Chemscore.Hbonds>
donor molecule, donor type, donor heavy atom, donor atom, acceptor molecule, acceptor atom, score
      L1  H     2    35       P1 10186  1.98
      L1  H     8    30       P1 10747  1.00

> <Gold.PLP.Chemscore.Internal.Correction>
0.0055

> <Gold.Rescore>
     Score         DG    S(hbond)    S(metal)    S(lipo)     H(rot)  DE(clash)    DE(int)     intcor
     15.80     -16.73       1.93        0.00      70.46       1.34       0.02       0.91       ----

> <Gold.Chemscore.Fitness>
15.8029

> <Gold.Chemscore.DG>
-16.7339

> <Gold.Chemscore.ZeroCoef>
-5.4800

> <Gold.Chemscore.Hbond>
1.9268

> <Gold.Chemscore.Metal>
0.0000

> <Gold.Chemscore.Lipo>
70.4553

> <Gold.Chemscore.Internal_Hbond>
0.0000

> <Gold.Chemscore.DEClash>
0.0249

> <Gold.Chemscore.DEInternal>
0.9060

> <Gold.Chemscore.Rot>
1.3379

> <Gold.Chemscore.Internal.Correction>
   9.000000E+99

> <Gold.Chemscore.Hbonds>
donor molecule, donor type, donor heavy atom, donor atom, acceptor molecule, acceptor atom, score
      L1  H     2    35       P1 10186  0.88
      L1  H     8    30       P1 10747  1.00

> <Gold.Chemscore.Hbond.Weighted>
-6.4356

> <Gold.Chemscore.Metal.Weighted>
-0.0000

> <Gold.Chemscore.Lipo.Weighted>
-8.2433

> <Gold.Chemscore.Internal_Hbond.Weighted>
0.0000

> <Gold.Chemscore.DEClash.Weighted>
0.0249

> <Gold.Chemscore.DEInternal.Weighted>
0.9060

> <Gold.Chemscore.Rot.Weighted>
3.4250

> <Gold.Chemscore.Internal.Correction.Weighted>
   9.000000E+99

> <Gold.Protein.RotatedTorsions>
[ 6907 6896 6895 6894 ] final   -7.80 input  -60.11 | X-H torsion
[ 7974 7965 7964 7962 ] final   81.04 input  175.53 | X-H torsion
[ 8008 7997 7996 7995 ] final   -8.05 input   59.86 | X-H torsion
[ 10167 10162 10161 10158 ] final -146.23 input  -65.29 | X-H torsion
[ 10718 10713 10712 10709 ] final   69.05 input   66.30 | X-H torsion
[ 10763 10752 10751 10750 ] final  116.50 input  -60.55 | X-H torsion
[ 11005 11000 10999 10996 ] final   15.64 input  -57.11 | X-H torsion

> <Gold.Protein.ActiveResidues>
 VAL166  LYS551  ARG553  GLY616  TRP617  ASP618  TYR619  PRO620  LYS621  CYS622 
 ASP623  PHE694  ASN695  SER759  ASP760  ASP761  ALA762  ILE779  LEU786  VAL792 
 PHE793  MET794  SER795  GLU796  ALA797  LYS798  CYS799  TRP800  GLU811  SER814 

> <Gold.Protein.RotatedAtoms>
  151.4438  135.1023  159.9677 H   0  0  0  0  0  0  0  0  0  0  0  0  # atno 6907 bound_to 6896
  152.4913  133.8503  159.7209 H   0  0  0  0  0  0  0  0  0  0  0  0  # atno 6908 bound_to 6896
  150.9069  133.6987  159.2892 H   0  0  0  0  0  0  0  0  0  0  0  0  # atno 6909 bound_to 6896
  145.6434  139.2430  143.2018 H   0  0  0  0  0  0  0  0  0  0  0  0  # atno 7974 bound_to 7965
  154.5779  140.2391  155.8096 H   0  0  0  0  0  0  0  0  0  0  0  0  # atno 8008 bound_to 7997
  156.2157  140.3013  155.9790 H   0  0  0  0  0  0  0  0  0  0  0  0  # atno 8009 bound_to 7997
  155.2594  140.0414  157.2986 H   0  0  0  0  0  0  0  0  0  0  0  0  # atno 8010 bound_to 7997
  139.7732  143.8207  152.2628 H   0  0  0  0  0  0  0  0  0  0  0  0  # atno 10167 bound_to 10162
  157.6324  130.9406  150.0461 H   0  0  0  0  0  0  0  0  0  0  0  0  # atno 10718 bound_to 10713
  153.5382  135.3564  155.2706 H   0  0  0  0  0  0  0  0  0  0  0  0  # atno 10763 bound_to 10752
  154.8720  135.4084  154.3074 H   0  0  0  0  0  0  0  0  0  0  0  0  # atno 10764 bound_to 10752
  153.3776  135.7067  153.6658 H   0  0  0  0  0  0  0  0  0  0  0  0  # atno 10765 bound_to 10752
  140.4560  134.1175  155.7709 H   0  0  0  0  0  0  0  0  0  0  0  0  # atno 11005 bound_to 11000
  146.1262  140.7244  142.9434 LP  0  0  0  0  0  0  0  0  0  0  0  0  # atno 17320 bound_to 7965
  144.7149  140.4173  143.7052 LP  0  0  0  0  0  0  0  0  0  0  0  0  # atno 17321 bound_to 7965
  139.8248  144.7280  150.9526 LP  0  0  0  0  0  0  0  0  0  0  0  0  # atno 17342 bound_to 10162
  140.7815  143.4125  151.0970 LP  0  0  0  0  0  0  0  0  0  0  0  0  # atno 17343 bound_to 10162
  156.1537  130.3643  149.9400 LP  0  0  0  0  0  0  0  0  0  0  0  0  # atno 17370 bound_to 10713
  156.7413  130.9080  151.3632 LP  0  0  0  0  0  0  0  0  0  0  0  0  # atno 17371 bound_to 10713
  141.1643  133.8734  157.1761 LP  0  0  0  0  0  0  0  0  0  0  0  0  # atno 17394 bound_to 11000
  139.9976  135.0041  157.0117 LP  0  0  0  0  0  0  0  0  0  0  0  0  # atno 17395 bound_to 11000

$$$$
