#       Name:                AV-unprocessed.smi:2270
#       Creating user name   scv26
#       Creation time:       Fri Mar 27 12:36:41 2020


#       File generated by GOLD software.
#

@<TRIPOS>MOLECULE
AV-unprocessed.smi:2270
    57    58     1
SMALL
NO_CHARGES


@<TRIPOS>ATOM
      1 ****        -3.0646   5.3622  -0.4103 C.3            1 S1                 0.0000
      2 ****        -3.5225   3.9238  -0.2901 C.ar           1 S1                 0.0000
      3 ****        -4.7656   3.5133  -0.8105 C.ar           1 S1                 0.0000
      4 ****        -5.1339   2.1642  -0.6622 C.ar           1 S1                 0.0000
      5 ****        -4.2477   1.2850  -0.0107 C.ar           1 S1                 0.0000
      6 ****        -3.0076   1.7783   0.4671 C.ar           1 S1                 0.0000
      7 ****        -2.1098   0.9164   1.1466 N.am           1 S1                 0.0000
      8 ****        -1.7839  -0.3445   0.8165 C.2            1 S1                 0.0000
      9 ****        -2.3342  -1.0135  -0.0582 O.2            1 S1                 0.0000
     10 ****        -0.7447  -0.7806   1.5429 N.am           1 S1                 0.0000
     11 ****        -0.0657  -2.0634   1.3811 C.3            1 S1                 0.0000
     12 ****         1.4699  -1.9205   1.1652 C.3            1 S1                 0.0000
     13 ****         2.2001  -3.2946   1.0989 C.3            1 S1                 0.0000
     14 ****         1.9207  -4.1881   2.3227 C.3            1 S1                 0.0000
     15 ****         3.7253  -3.1278   0.9457 C.3            1 S1                 0.0000
     16 ****         1.8463  -1.0889  -0.0228 N.4            1 S1                 1.0000
     17 ****         1.9380   0.3728   0.2239 C.3            1 S1                 0.0000
     18 ****         2.5763   1.0814  -0.9884 C.3            1 S1                 0.0000
     19 ****         1.8493   0.8131  -2.2306 N.3            1 S1                 0.0000
     20 ****         0.5474   1.4703  -2.2885 C.3            1 S1                 0.0000
     21 ****         1.7784  -0.6307  -2.4642 C.3            1 S1                 0.0000
     22 ****         1.1201  -1.3775  -1.2863 C.3            1 S1                 0.0000
     23 ****        -2.6713   3.0820   0.3357 N.ar           1 S1                 0.0000
     24 ****        -3.8654   6.0014  -0.7833 H              1 S1                 0.0000
     25 ****        -2.2218   5.4344  -1.0982 H              1 S1                 0.0000
     26 ****        -2.7502   5.7458   0.5608 H              1 S1                 0.0000
     27 ****        -5.4245   4.2117  -1.3051 H              1 S1                 0.0000
     28 ****        -6.0828   1.8097  -1.0371 H              1 S1                 0.0000
     29 ****        -4.5334   0.2521   0.1228 H              1 S1                 0.0000
     30 ****        -1.5211   1.3628   1.8342 H              1 S1                 0.0000
     31 ****        -0.3737  -0.1611   2.2486 H              1 S1                 0.0000
     32 ****        -0.2677  -2.6103   2.3006 H              1 S1                 0.0000
     33 ****        -0.5071  -2.6575   0.5795 H              1 S1                 0.0000
     34 ****         1.8671  -1.4138   2.0464 H              1 S1                 0.0000
     35 ****         1.8425  -3.8372   0.2234 H              1 S1                 0.0000
     36 ****         2.1627  -3.6749   3.2538 H              1 S1                 0.0000
     37 ****         2.5164  -5.1007   2.2859 H              1 S1                 0.0000
     38 ****         0.8790  -4.5039   2.3701 H              1 S1                 0.0000
     39 ****         4.1478  -2.5627   1.7774 H              1 S1                 0.0000
     40 ****         3.9911  -2.6127   0.0225 H              1 S1                 0.0000
     41 ****         4.2250  -4.0967   0.9187 H              1 S1                 0.0000
     42 ****         0.9623   0.8035   0.4378 H              1 S1                 0.0000
     43 ****         2.5570   0.5549   1.1028 H              1 S1                 0.0000
     44 ****         2.6244   2.1575  -0.8175 H              1 S1                 0.0000
     45 ****         3.6061   0.7418  -1.1088 H              1 S1                 0.0000
     46 ****         0.0777   1.2907  -3.2562 H              1 S1                 0.0000
     47 ****         0.6644   2.5482  -2.1740 H              1 S1                 0.0000
     48 ****        -0.1361   1.1233  -1.5143 H              1 S1                 0.0000
     49 ****         1.2345  -0.8260  -3.3892 H              1 S1                 0.0000
     50 ****         2.7905  -1.0082  -2.6153 H              1 S1                 0.0000
     51 ****         1.1425  -2.4479  -1.4883 H              1 S1                 0.0000
     52 ****         0.0716  -1.1003  -1.2099 H              1 S1                 0.0000
     53 ****         2.8016  -1.3584  -0.2095 H              1 S1                 0.0000
     54 ****        -3.0876  -0.6225  -0.5869 LP             1 S1                 0.0000
     55 ****        -2.0278  -1.9478  -0.2401 LP             1 S1                 0.0000
     56 ****         2.3643   1.2221  -2.9840 LP             1 S1                 0.0000
     57 ****        -1.8022   3.4189   0.6978 LP             1 S1                 0.0000
@<TRIPOS>BOND
    1    1    2 1     
    2    1   24 1     
    3    1   25 1     
    4    1   26 1     
    5    2   23 ar    
    6    2    3 ar    
    7    3    4 ar    
    8    3   27 1     
    9    4    5 ar    
   10    4   28 1     
   11    5    6 ar    
   12    5   29 1     
   13    6    7 1     
   14    6   23 ar    
   15    7    8 am    
   16    7   30 1     
   17    8    9 2     
   18    8   10 am    
   19   10   11 1     
   20   10   31 1     
   21   11   12 1     
   22   11   32 1     
   23   11   33 1     
   24   12   13 1     
   25   12   16 1     
   26   12   34 1     
   27   13   14 1     
   28   13   15 1     
   29   13   35 1     
   30   14   36 1     
   31   14   37 1     
   32   14   38 1     
   33   15   39 1     
   34   15   40 1     
   35   15   41 1     
   36   16   22 1     
   37   16   17 1     
   38   16   53 1     
   39   17   18 1     
   40   17   42 1     
   41   17   43 1     
   42   18   19 1     
   43   18   44 1     
   44   18   45 1     
   45   19   20 1     
   46   19   21 1     
   47   20   46 1     
   48   20   47 1     
   49   20   48 1     
   50   21   22 1     
   51   21   49 1     
   52   21   50 1     
   53   22   51 1     
   54   22   52 1     
   55    9   54 1     
   56    9   55 1     
   57   19   56 1     
   58   23   57 1     
@<TRIPOS>SUBSTRUCTURE
      1 S1             1
@<TRIPOS>SET
LONE_PAIRS      STATIC     ATOMS    <user>   **** ""
4 54 55 56 57
DONOR_HYDROGENS      STATIC     ATOMS    <user>   **** ""
3 30 31 53
ATOM$BLUE        STATIC     ATOMS    COLORGROUP SYSTEM
4 54 55 56 57
ATOM$RED        STATIC     ATOMS    COLORGROUP SYSTEM
3 30 31 53
