AV-unprocessed.smi:1738|AV-procd|sdf|7002|dock7
  -GOLD-   22720 8213D 1   1.00000     0.00000
 Structure written by MMmdl.
 46 48  0  0  0  0  0  0  0  0  2 V2000
  154.6042  135.8451  157.4028 C   0  0  0  0  0  0  0  0  0  0  0  0
  153.2618  136.9221  158.0506 S   0  0  0  0  0  0  0  0  0  0  0  0
  152.9495  136.4955  159.4236 O   0  0  0  0  0  0  0  0  0  0  0  0
  153.6408  138.3202  157.7931 O   0  0  0  0  0  0  0  0  0  0  0  0
  151.8581  136.5203  157.0163 C   0  0  0  0  0  0  0  0  0  0  0  0
  150.5529  136.5335  157.5475 C   0  0  0  0  0  0  0  0  0  0  0  0
  149.4804  136.2447  156.6822 C   0  0  0  0  0  0  0  0  0  0  0  0
  149.7540  135.9720  155.3185 C   0  0  0  0  0  0  0  0  0  0  0  0
  148.7700  135.6502  154.3434 N   0  0  0  0  0  0  0  0  0  0  0  0
  147.6509  134.9174  154.4762 C   0  0  0  0  0  0  0  0  0  0  0  0
  147.2547  134.3974  155.5185 O   0  0  0  0  0  0  0  0  0  0  0  0
  146.9937  134.8237  153.3116 N   0  0  0  0  0  0  0  0  0  0  0  0
  145.7447  134.0953  153.1074 C   0  0  1  0  0  0  0  0  0  0  0  0
  144.7193  134.8842  152.2740 C   0  0  0  0  0  0  0  0  0  0  0  0
  144.0179  133.8352  151.3885 C   0  0  0  0  0  0  0  0  0  0  0  0
  144.5813  132.5352  151.8003 N   0  3  1  0  0  0  0  0  0  0  0  0
  144.5406  131.4381  150.8090 C   0  0  0  0  0  0  0  0  0  0  0  0
  145.0914  130.1502  151.4534 C   0  0  0  0  0  0  0  0  0  0  0  0
  146.4864  130.3715  152.0723 C   0  0  0  0  0  0  0  0  0  0  0  0
  146.4880  131.5842  153.0230 C   0  0  0  0  0  0  0  0  0  0  0  0
  145.9402  132.8183  152.2860 C   0  0  2  0  0  0  0  0  0  0  0  0
  151.1025  135.9937  154.9010 C   0  0  0  0  0  0  0  0  0  0  0  0
  152.1383  136.2704  155.7200 N   0  0  0  0  0  0  0  0  0  0  0  0
  155.5157  136.0193  157.9738 H   0  0  0  0  0  0  0  0  0  0  0  0
  154.7825  136.0777  156.3532 H   0  0  0  0  0  0  0  0  0  0  0  0
  154.3101  134.8001  157.4985 H   0  0  0  0  0  0  0  0  0  0  0  0
  150.3725  136.7520  158.5895 H   0  0  0  0  0  0  0  0  0  0  0  0
  148.4814  136.2307  157.0874 H   0  0  0  0  0  0  0  0  0  0  0  0
  148.9238  136.0580  153.4326 H   0  0  0  0  0  0  0  0  0  0  0  0
  147.3881  135.2880  152.5063 H   0  0  0  0  0  0  0  0  0  0  0  0
  145.2847  133.8450  154.0659 H   0  0  0  0  0  0  0  0  0  0  0  0
  144.0131  135.4102  152.9168 H   0  0  0  0  0  0  0  0  0  0  0  0
  145.2067  135.6300  151.6441 H   0  0  0  0  0  0  0  0  0  0  0  0
  142.9350  133.8427  151.5139 H   0  0  0  0  0  0  0  0  0  0  0  0
  144.2389  134.0256  150.3369 H   0  0  0  0  0  0  0  0  0  0  0  0
  143.5140  131.2830  150.4757 H   0  0  0  0  0  0  0  0  0  0  0  0
  145.1289  131.7083  149.9306 H   0  0  0  0  0  0  0  0  0  0  0  0
  144.4039  129.8143  152.2309 H   0  0  0  0  0  0  0  0  0  0  0  0
  145.1332  129.3500  150.7140 H   0  0  0  0  0  0  0  0  0  0  0  0
  146.8071  129.4760  152.6052 H   0  0  0  0  0  0  0  0  0  0  0  0
  147.2133  130.5344  151.2757 H   0  0  0  0  0  0  0  0  0  0  0  0
  145.8794  131.3698  153.9026 H   0  0  0  0  0  0  0  0  0  0  0  0
  147.5006  131.7721  153.3798 H   0  0  0  0  0  0  0  0  0  0  0  0
  146.5774  133.0398  151.4263 H   0  0  0  0  0  0  0  0  0  0  0  0
  151.3602  135.7857  153.8728 H   0  0  0  0  0  0  0  0  0  0  0  0
  144.0489  132.2339  152.6042 H   0  0  0  0  0  0  0  0  0  0  0  0
  1  2  1  0  0  0  0
  1 24  1  0  0  0  0
  1 25  1  0  0  0  0
  1 26  1  0  0  0  0
  2  3  2  0  0  0  0
  2  4  2  0  0  0  0
  2  5  1  0  0  0  0
  5 23  1  0  0  0  0
  5  6  2  0  0  0  0
  6  7  1  0  0  0  0
  6 27  1  0  0  0  0
  7  8  2  0  0  0  0
  7 28  1  0  0  0  0
  8  9  1  0  0  0  0
  8 22  1  0  0  0  0
  9 10  1  0  0  0  0
  9 29  1  0  0  0  0
 10 11  2  0  0  0  0
 10 12  1  0  0  0  0
 12 13  1  0  0  0  0
 12 30  1  0  0  0  0
 13 21  1  0  0  0  0
 13 14  1  0  0  0  0
 13 31  1  0  0  0  0
 14 15  1  0  0  0  0
 14 32  1  0  0  0  0
 14 33  1  0  0  0  0
 15 16  1  0  0  0  0
 15 34  1  0  0  0  0
 15 35  1  0  0  0  0
 16 21  1  0  0  0  0
 16 17  1  0  0  0  0
 16 46  1  0  0  0  0
 17 18  1  0  0  0  0
 17 36  1  0  0  0  0
 17 37  1  0  0  0  0
 18 19  1  0  0  0  0
 18 38  1  0  0  0  0
 18 39  1  0  0  0  0
 19 20  1  0  0  0  0
 19 40  1  0  0  0  0
 19 41  1  0  0  0  0
 20 21  1  0  0  0  0
 20 42  1  0  0  0  0
 20 43  1  0  0  0  0
 21 44  1  0  0  0  0
 22 23  2  0  0  0  0
 22 45  1  0  0  0  0
M  CHG  1  16   1
M  END
> <s_m_source_file>
AV-unprocessed.smi

> <i_m_source_file_index>
1738

> <i_lp_mmshare_version>
43012

> <i_f3d_flags>
0

> <s_epik_input>
W0NIM11TKD1PKSg9TyljMVtjSF1bY0hdYyhbY0hdbjEpW05IXUMoPU8pW05IXVtDQEhdKFtDSDJdW0NIMl0yKVtDQEBIXShOMjMpW0NIMl1bQ0gyXVtDSDJdW0NIMl0z

> <s_epik_cmdline>
J2VwaWtfcHl0aG9uJywgJy1waCcsICc3LjAnLCAnLXRuJywgJzgnLCAnLW1hJywgJzIwMCcsICctbWV0YWxfYmluZGluZycsICctaW1hZScsICc8aW5maWxlLm1hZT4nLCAnLW9tYWUnLCAnPG91dGZpbGUubWFlPic=

> <r_epik_Ionization_Penalty>
0.00100042

> <r_epik_Ionization_Penalty_Charging>
0.000974069

> <r_epik_Ionization_Penalty_Neutral>
2.63543e-05

> <r_epik_State_Penalty>
0.000633842

> <r_epik_Charging_Adjusted_Penalty>
0.00160791

> <i_epik_Tot_Q>
1

> <i_epik_Tot_abs_Q>
1

> <r_epik_Metal_State_Penalty>
-0

> <b_epik_Metal_Only>
0

> <s_lp_Force_Field>
OPLS_2005

> <r_lp_Energy>
37.3337

> <b_lp_Chiralities_Consistent>
1

> <s_lp_Variant>
AV-unprocessed.smi:1738-6

> <Gold.Version>
5.8.1

> <Gold.Id.Protein>
6NUR|6NUR_protein|mol2

> <Gold.PLP.Fitness>
41.9220

> <Gold.PLP.PLP>
-25.5620

> <Gold.PLP.part.hbond>
-5.0000

> <Gold.PLP.part.metal>
0.0000

> <Gold.PLP.part.buried>
-4.1478

> <Gold.PLP.part.nonpolar>
-16.8130

> <Gold.PLP.part.repulsive>
0.0555

> <Gold.PLP.ligand.clash>
0.0000

> <Gold.PLP.ligand.torsion>
1.5922

> <Gold.PLP.Chemscore.Hbond>
4.8384

> <Gold.PLP.Chemscore.CHOScore>
1.0000

> <Gold.PLP.Chemscore.Metal>
0.0000

> <Gold.Chemscore.Hbonds>
donor molecule, donor type, donor heavy atom, donor atom, acceptor molecule, acceptor atom, score
      L1  H     9    29       P1  7948  1.00
      L1  H    12    30       P1  7948  0.88
      P1  H  6896  6909       L1     3  0.88
      P1  H  7997  8009       L1     4  0.83
      P1  H 10752 10765       L1    23  0.90
      L1  C    22    45       P1  7949  1.00

> <Gold.PLP.Chemscore.Internal.Correction>
2.0293

> <Gold.Rescore>
     Score         DG    S(hbond)    S(metal)    S(lipo)     H(rot)  DE(clash)    DE(int)     intcor
     22.65     -24.32       4.05        0.00      67.39       1.00       0.12       1.56       ----

> <Gold.Chemscore.Fitness>
22.6459

> <Gold.Chemscore.DG>
-24.3188

> <Gold.Chemscore.ZeroCoef>
-5.4800

> <Gold.Chemscore.Hbond>
4.0461

> <Gold.Chemscore.Metal>
0.0000

> <Gold.Chemscore.Lipo>
67.3914

> <Gold.Chemscore.Internal_Hbond>
0.0000

> <Gold.Chemscore.DEClash>
0.1173

> <Gold.Chemscore.DEInternal>
1.5556

> <Gold.Chemscore.Rot>
1.0000

> <Gold.Chemscore.Internal.Correction>
   9.000000E+99

> <Gold.Chemscore.Hbonds>
donor molecule, donor type, donor heavy atom, donor atom, acceptor molecule, acceptor atom, score
      L1  H     9    29       P1  7948  0.94
      L1  H    12    30       P1  7948  0.86
      P1  H  6896  6909       L1     3  0.86
      P1  H  7997  8009       L1     4  0.77
      P1  H 10752 10765       L1    23  0.37

> <Gold.Chemscore.Hbond.Weighted>
-13.5140

> <Gold.Chemscore.Metal.Weighted>
-0.0000

> <Gold.Chemscore.Lipo.Weighted>
-7.8848

> <Gold.Chemscore.Internal_Hbond.Weighted>
0.0000

> <Gold.Chemscore.DEClash.Weighted>
0.1173

> <Gold.Chemscore.DEInternal.Weighted>
1.5556

> <Gold.Chemscore.Rot.Weighted>
2.5600

> <Gold.Chemscore.Internal.Correction.Weighted>
   9.000000E+99

> <Gold.Protein.RotatedTorsions>
[ 6907 6896 6895 6894 ] final  131.38 input  -60.11 | X-H torsion
[ 7974 7965 7964 7962 ] final   -9.84 input  175.53 | X-H torsion
[ 8008 7997 7996 7995 ] final  161.10 input   59.86 | X-H torsion
[ 10167 10162 10161 10158 ] final  -73.71 input  -65.29 | X-H torsion
[ 10718 10713 10712 10709 ] final -140.25 input   66.30 | X-H torsion
[ 10763 10752 10751 10750 ] final -139.43 input  -60.55 | X-H torsion
[ 11005 11000 10999 10996 ] final -157.16 input  -57.11 | X-H torsion

> <Gold.Protein.ActiveResidues>
 VAL166  LYS551  ARG553  GLY616  TRP617  ASP618  TYR619  PRO620  LYS621  CYS622 
 ASP623  PHE694  ASN695  SER759  ASP760  ASP761  ALA762  ILE779  LEU786  VAL792 
 PHE793  MET794  SER795  GLU796  ALA797  LYS798  CYS799  TRP800  GLU811  SER814 

> <Gold.Protein.RotatedAtoms>
  152.3431  133.6091  159.5890 H   0  0  0  0  0  0  0  0  0  0  0  0  # atno 6907 bound_to 6896
  150.7491  133.9691  159.3549 H   0  0  0  0  0  0  0  0  0  0  0  0  # atno 6908 bound_to 6896
  151.7552  135.0824  160.0388 H   0  0  0  0  0  0  0  0  0  0  0  0  # atno 6909 bound_to 6896
  146.2239  140.2675  142.8355 H   0  0  0  0  0  0  0  0  0  0  0  0  # atno 7974 bound_to 7965
  156.2126  140.1786  156.7660 H   0  0  0  0  0  0  0  0  0  0  0  0  # atno 8008 bound_to 7997
  154.5745  140.0677  156.9043 H   0  0  0  0  0  0  0  0  0  0  0  0  # atno 8009 bound_to 7997
  155.2613  140.3336  155.4275 H   0  0  0  0  0  0  0  0  0  0  0  0  # atno 8010 bound_to 7997
  140.5087  143.2348  151.7630 H   0  0  0  0  0  0  0  0  0  0  0  0  # atno 10167 bound_to 10162
  156.3202  130.7530  151.1626 H   0  0  0  0  0  0  0  0  0  0  0  0  # atno 10718 bound_to 10713
  154.8609  135.3582  154.5545 H   0  0  0  0  0  0  0  0  0  0  0  0  # atno 10763 bound_to 10752
  153.6162  135.7007  153.5332 H   0  0  0  0  0  0  0  0  0  0  0  0  # atno 10764 bound_to 10752
  153.3167  135.4163  155.1342 H   0  0  0  0  0  0  0  0  0  0  0  0  # atno 10765 bound_to 10752
  140.6677  134.4281  157.5232 H   0  0  0  0  0  0  0  0  0  0  0  0  # atno 11005 bound_to 11000
  144.9293  140.7957  143.5699 LP  0  0  0  0  0  0  0  0  0  0  0  0  # atno 17320 bound_to 7965
  145.2617  139.1989  143.4888 LP  0  0  0  0  0  0  0  0  0  0  0  0  # atno 17321 bound_to 7965
  139.4890  144.4421  151.9753 LP  0  0  0  0  0  0  0  0  0  0  0  0  # atno 17342 bound_to 10162
  140.3512  144.3086  150.5949 LP  0  0  0  0  0  0  0  0  0  0  0  0  # atno 17343 bound_to 10162
  157.7410  131.0509  150.5127 LP  0  0  0  0  0  0  0  0  0  0  0  0  # atno 17370 bound_to 10713
  156.5278  130.4177  149.6217 LP  0  0  0  0  0  0  0  0  0  0  0  0  # atno 17371 bound_to 10713
  139.8992  134.8597  156.1971 LP  0  0  0  0  0  0  0  0  0  0  0  0  # atno 17394 bound_to 11000
  141.0416  133.6935  156.1608 LP  0  0  0  0  0  0  0  0  0  0  0  0  # atno 17395 bound_to 11000

$$$$
