AV-unprocessed.smi:1684|AV-procd|sdf|6756|dock1
  -GOLD-   22720 7513D 1   1.00000     0.00000
 Structure written by MMmdl.
 43 44  0  0  0  0  0  0  0  0  2 V2000
  147.3725  132.6450  152.6181 C   0  0  0  0  0  0  0  0  0  0  0  0
  146.2466  132.9428  151.6407 C   0  0  0  0  0  0  0  0  0  0  0  0
  145.6396  131.8772  150.9425 C   0  0  0  0  0  0  0  0  0  0  0  0
  144.6009  132.1536  150.0371 C   0  0  0  0  0  0  0  0  0  0  0  0
  144.2108  133.4927  149.8665 C   0  0  0  0  0  0  0  0  0  0  0  0
  144.7853  134.5173  150.5295 N   0  0  0  0  0  0  0  0  0  0  0  0
  145.7874  134.2673  151.4097 C   0  0  0  0  0  0  0  0  0  0  0  0
  146.4394  135.2993  152.1426 N   0  0  0  0  0  0  0  0  0  0  0  0
  145.9362  136.0748  153.1190 C   0  0  0  0  0  0  0  0  0  0  0  0
  144.8011  135.9849  153.5874 O   0  0  0  0  0  0  0  0  0  0  0  0
  146.8288  136.9924  153.5217 N   0  0  0  0  0  0  0  0  0  0  0  0
  146.6161  138.0006  154.5619 C   0  0  1  0  0  0  0  0  0  0  0  0
  147.1168  137.4472  155.9030 C   0  0  0  0  0  0  0  0  0  0  0  0
  147.3167  139.3340  154.2101 C   0  0  0  0  0  0  0  0  0  0  0  0
  148.6516  139.4764  154.8449 N   0  3  0  0  0  0  0  0  0  0  0  0
  149.7089  138.6655  154.1940 C   0  0  0  0  0  0  0  0  0  0  0  0
  151.0299  138.8003  154.9693 C   0  0  0  0  0  0  0  0  0  0  0  0
  151.4018  140.1719  155.0403 O   0  0  0  0  0  0  0  0  0  0  0  0
  150.4312  140.9537  155.7264 C   0  0  0  0  0  0  0  0  0  0  0  0
  149.0887  140.8853  154.9783 C   0  0  0  0  0  0  0  0  0  0  0  0
  147.6034  131.5796  152.6442 H   0  0  0  0  0  0  0  0  0  0  0  0
  147.0943  132.9528  153.6265 H   0  0  0  0  0  0  0  0  0  0  0  0
  148.2801  133.1765  152.3301 H   0  0  0  0  0  0  0  0  0  0  0  0
  145.9646  130.8585  151.0961 H   0  0  0  0  0  0  0  0  0  0  0  0
  144.1160  131.3600  149.4880 H   0  0  0  0  0  0  0  0  0  0  0  0
  143.4179  133.7496  149.1798 H   0  0  0  0  0  0  0  0  0  0  0  0
  147.3952  135.4800  151.8737 H   0  0  0  0  0  0  0  0  0  0  0  0
  147.7375  136.9882  153.0811 H   0  0  0  0  0  0  0  0  0  0  0  0
  145.5454  138.1765  154.6740 H   0  0  0  0  0  0  0  0  0  0  0  0
  146.9447  138.1602  156.7099 H   0  0  0  0  0  0  0  0  0  0  0  0
  148.1855  137.2319  155.8719 H   0  0  0  0  0  0  0  0  0  0  0  0
  146.5989  136.5242  156.1658 H   0  0  0  0  0  0  0  0  0  0  0  0
  147.4123  139.4478  153.1292 H   0  0  0  0  0  0  0  0  0  0  0  0
  146.6742  140.1506  154.5439 H   0  0  0  0  0  0  0  0  0  0  0  0
  149.4162  137.6166  154.1568 H   0  0  0  0  0  0  0  0  0  0  0  0
  149.8453  138.9957  153.1630 H   0  0  0  0  0  0  0  0  0  0  0  0
  150.9368  138.3828  155.9733 H   0  0  0  0  0  0  0  0  0  0  0  0
  151.8206  138.2449  154.4650 H   0  0  0  0  0  0  0  0  0  0  0  0
  150.3225  140.6002  156.7532 H   0  0  0  0  0  0  0  0  0  0  0  0
  150.7802  141.9850  155.7800 H   0  0  0  0  0  0  0  0  0  0  0  0
  149.1840  141.3358  153.9890 H   0  0  0  0  0  0  0  0  0  0  0  0
  148.3378  141.4581  155.5236 H   0  0  0  0  0  0  0  0  0  0  0  0
  148.5544  139.1234  155.7867 H   0  0  0  0  0  0  0  0  0  0  0  0
  1  2  1  0  0  0  0
  1 21  1  0  0  0  0
  1 22  1  0  0  0  0
  1 23  1  0  0  0  0
  2  7  1  0  0  0  0
  2  3  2  0  0  0  0
  3  4  1  0  0  0  0
  3 24  1  0  0  0  0
  4  5  2  0  0  0  0
  4 25  1  0  0  0  0
  5  6  1  0  0  0  0
  5 26  1  0  0  0  0
  6  7  2  0  0  0  0
  7  8  1  0  0  0  0
  8  9  1  0  0  0  0
  8 27  1  0  0  0  0
  9 10  2  0  0  0  0
  9 11  1  0  0  0  0
 11 12  1  0  0  0  0
 11 28  1  0  0  0  0
 12 13  1  0  0  0  0
 12 14  1  0  0  0  0
 12 29  1  0  0  0  0
 13 30  1  0  0  0  0
 13 31  1  0  0  0  0
 13 32  1  0  0  0  0
 14 15  1  0  0  0  0
 14 33  1  0  0  0  0
 14 34  1  0  0  0  0
 15 20  1  0  0  0  0
 15 16  1  0  0  0  0
 15 43  1  0  0  0  0
 16 17  1  0  0  0  0
 16 35  1  0  0  0  0
 16 36  1  0  0  0  0
 17 18  1  0  0  0  0
 17 37  1  0  0  0  0
 17 38  1  0  0  0  0
 18 19  1  0  0  0  0
 19 20  1  0  0  0  0
 19 39  1  0  0  0  0
 19 40  1  0  0  0  0
 20 41  1  0  0  0  0
 20 42  1  0  0  0  0
M  CHG  1  15   1
M  END
> <s_m_source_file>
AV-unprocessed.smi

> <i_m_source_file_index>
1684

> <i_lp_mmshare_version>
43012

> <i_f3d_flags>
0

> <s_epik_input>
W0NIM11jMVtjSF1bY0hdW2NIXW5jMVtOSF1DKD1PKVtOSF1bQ0BIXShbQ0gzXSlbQ0gyXU4yW0NIMl1bQ0gyXU9bQ0gyXVtDSDJdMg==

> <s_epik_cmdline>
J2VwaWtfcHl0aG9uJywgJy1waCcsICc3LjAnLCAnLXRuJywgJzgnLCAnLW1hJywgJzIwMCcsICctbWV0YWxfYmluZGluZycsICctaW1hZScsICc8aW5maWxlLm1hZT4nLCAnLW9tYWUnLCAnPG91dGZpbGUubWFlPic=

> <r_epik_Ionization_Penalty>
0.602571

> <r_epik_Ionization_Penalty_Charging>
0.602531

> <r_epik_Ionization_Penalty_Neutral>
4.09763e-05

> <r_epik_State_Penalty>
0.617039

> <r_epik_Charging_Adjusted_Penalty>
1.21957

> <i_epik_Tot_Q>
1

> <i_epik_Tot_abs_Q>
1

> <r_epik_Metal_State_Penalty>
0.617043

> <b_epik_Metal_Only>
0

> <s_lp_Force_Field>
OPLS_2005

> <r_lp_Energy>
24.8229

> <b_lp_Chiralities_Consistent>
1

> <s_lp_Variant>
AV-unprocessed.smi:1684-4

> <Gold.Version>
5.8.1

> <Gold.Id.Protein>
6NUR|6NUR_protein|mol2

> <Gold.PLP.Fitness>
41.0258

> <Gold.PLP.PLP>
-32.0648

> <Gold.PLP.part.hbond>
-2.8956

> <Gold.PLP.part.metal>
0.0000

> <Gold.PLP.part.buried>
-4.2583

> <Gold.PLP.part.nonpolar>
-25.1130

> <Gold.PLP.part.repulsive>
0.3739

> <Gold.PLP.ligand.clash>
0.0000

> <Gold.PLP.ligand.torsion>
1.6576

> <Gold.PLP.Chemscore.Hbond>
3.0000

> <Gold.PLP.Chemscore.CHOScore>
1.0000

> <Gold.PLP.Chemscore.Metal>
0.0000

> <Gold.Chemscore.Hbonds>
donor molecule, donor type, donor heavy atom, donor atom, acceptor molecule, acceptor atom, score
      L1  H     8    27       P1  7948  1.00
      L1  H    11    28       P1  7948  1.00
      P1  H  7989  7998       L1    18  1.00
      L1  C     5    26       P1 10186  1.00

> <Gold.PLP.Chemscore.Internal.Correction>
0.2763

> <Gold.Rescore>
     Score         DG    S(hbond)    S(metal)    S(lipo)     H(rot)  DE(clash)    DE(int)     intcor
     17.90     -19.61       2.70        0.00      76.70       1.51       0.07       1.63       ----

> <Gold.Chemscore.Fitness>
17.9011

> <Gold.Chemscore.DG>
-19.6060

> <Gold.Chemscore.ZeroCoef>
-5.4800

> <Gold.Chemscore.Hbond>
2.6968

> <Gold.Chemscore.Metal>
0.0000

> <Gold.Chemscore.Lipo>
76.7037

> <Gold.Chemscore.Internal_Hbond>
0.0000

> <Gold.Chemscore.DEClash>
0.0701

> <Gold.Chemscore.DEInternal>
1.6348

> <Gold.Chemscore.Rot>
1.5061

> <Gold.Chemscore.Internal.Correction>
   9.000000E+99

> <Gold.Chemscore.Hbonds>
donor molecule, donor type, donor heavy atom, donor atom, acceptor molecule, acceptor atom, score
      L1  H     8    27       P1  7948  0.99
      L1  H    11    28       P1  7948  0.94
      P1  H  7989  7998       L1    18  0.54

> <Gold.Chemscore.Hbond.Weighted>
-9.0074

> <Gold.Chemscore.Metal.Weighted>
-0.0000

> <Gold.Chemscore.Lipo.Weighted>
-8.9743

> <Gold.Chemscore.Internal_Hbond.Weighted>
0.0000

> <Gold.Chemscore.DEClash.Weighted>
0.0701

> <Gold.Chemscore.DEInternal.Weighted>
1.6348

> <Gold.Chemscore.Rot.Weighted>
3.8557

> <Gold.Chemscore.Internal.Correction.Weighted>
   9.000000E+99

> <Gold.Protein.RotatedTorsions>
[ 6907 6896 6895 6894 ] final   63.44 input  -60.11 | X-H torsion
[ 7974 7965 7964 7962 ] final  137.21 input  175.53 | X-H torsion
[ 8008 7997 7996 7995 ] final -132.71 input   59.86 | X-H torsion
[ 10167 10162 10161 10158 ] final  109.64 input  -65.29 | X-H torsion
[ 10718 10713 10712 10709 ] final  -97.99 input   66.30 | X-H torsion
[ 10763 10752 10751 10750 ] final -112.23 input  -60.55 | X-H torsion
[ 11005 11000 10999 10996 ] final   88.63 input  -57.11 | X-H torsion

> <Gold.Protein.ActiveResidues>
 VAL166  LYS551  ARG553  GLY616  TRP617  ASP618  TYR619  PRO620  LYS621  CYS622 
 ASP623  PHE694  ASN695  SER759  ASP760  ASP761  ALA762  ILE779  LEU786  VAL792 
 PHE793  MET794  SER795  GLU796  ALA797  LYS798  CYS799  TRP800  GLU811  SER814 

> <Gold.Protein.RotatedAtoms>
  152.4253  134.5879  159.9965 H   0  0  0  0  0  0  0  0  0  0  0  0  # atno 6907 bound_to 6896
  151.6017  133.3350  159.3057 H   0  0  0  0  0  0  0  0  0  0  0  0  # atno 6908 bound_to 6896
  150.8143  134.7352  159.6781 H   0  0  0  0  0  0  0  0  0  0  0  0  # atno 6909 bound_to 6896
  144.9490  139.4841  143.5535 H   0  0  0  0  0  0  0  0  0  0  0  0  # atno 7974 bound_to 7965
  155.3335  140.0468  157.3043 H   0  0  0  0  0  0  0  0  0  0  0  0  # atno 8008 bound_to 7997
  154.5315  140.2258  155.8761 H   0  0  0  0  0  0  0  0  0  0  0  0  # atno 8009 bound_to 7997
  156.1793  140.3077  155.9125 H   0  0  0  0  0  0  0  0  0  0  0  0  # atno 8010 bound_to 7997
  139.6750  144.7123  151.1618 H   0  0  0  0  0  0  0  0  0  0  0  0  # atno 10167 bound_to 10162
  156.0096  130.5218  150.6457 H   0  0  0  0  0  0  0  0  0  0  0  0  # atno 10718 bound_to 10713
  154.8339  135.4498  154.1161 H   0  0  0  0  0  0  0  0  0  0  0  0  # atno 10763 bound_to 10752
  153.2410  135.6916  153.7790 H   0  0  0  0  0  0  0  0  0  0  0  0  # atno 10764 bound_to 10752
  153.7137  135.3352  155.3228 H   0  0  0  0  0  0  0  0  0  0  0  0  # atno 10765 bound_to 10752
  139.8892  134.8500  156.3028 H   0  0  0  0  0  0  0  0  0  0  0  0  # atno 11005 bound_to 11000
  146.3314  139.8562  142.8864 LP  0  0  0  0  0  0  0  0  0  0  0  0  # atno 17320 bound_to 7965
  145.2873  141.0157  143.3683 LP  0  0  0  0  0  0  0  0  0  0  0  0  # atno 17321 bound_to 7965
  140.7632  143.5785  150.8920 LP  0  0  0  0  0  0  0  0  0  0  0  0  # atno 17342 bound_to 10162
  139.9453  143.6334  152.3043 LP  0  0  0  0  0  0  0  0  0  0  0  0  # atno 17343 bound_to 10162
  157.4228  131.0839  151.1114 LP  0  0  0  0  0  0  0  0  0  0  0  0  # atno 17370 bound_to 10713
  157.1711  130.6268  149.5641 LP  0  0  0  0  0  0  0  0  0  0  0  0  # atno 17371 bound_to 10713
  140.9902  133.7213  156.0802 LP  0  0  0  0  0  0  0  0  0  0  0  0  # atno 17394 bound_to 11000
  140.7635  134.3913  157.5521 LP  0  0  0  0  0  0  0  0  0  0  0  0  # atno 17395 bound_to 11000

$$$$
