AV-unprocessed.smi:388|AV-procd|sdf|2475|dock5
  -GOLD-   2262022413D 1   1.00000     0.00000
 Structure written by MMmdl.
 34 35  0  0  0  0  0  0  0  0  1 V2000
  145.4792  143.1588  154.3261 C   0  0  0  0  0  0  0  0  0  0  0  0
  146.8180  143.0609  154.8869 N   0  0  0  0  0  0  0  0  0  0  0  0
  147.2903  141.9819  155.5257 C   0  0  0  0  0  0  0  0  0  0  0  0
  146.5744  141.0501  155.8988 O   0  0  0  0  0  0  0  0  0  0  0  0
  148.6229  142.0675  155.6969 N   0  0  0  0  0  0  0  0  0  0  0  0
  149.4362  141.1730  156.2948 C   0  0  0  0  0  0  0  0  0  0  0  0
  149.0780  140.0968  156.7766 O   0  0  0  0  0  0  0  0  0  0  0  0
  150.9165  141.5675  156.3618 C   0  0  0  0  0  0  0  0  0  0  0  0
  151.5608  141.1495  157.5992 N   0  0  0  0  0  0  0  0  0  0  0  0
  151.6885  139.7581  157.8478 C   0  0  0  0  0  0  0  0  0  0  0  0
  151.2832  138.9126  157.0476 O   0  0  0  0  0  0  0  0  0  0  0  0
  152.3390  139.4262  159.1135 C   0  0  0  0  0  0  0  0  0  0  0  0
  152.4526  138.0439  159.4422 C   0  0  0  0  0  0  0  0  0  0  0  0
  152.5421  136.9268  159.7311 N   0  0  0  0  0  0  0  0  0  0  0  0
  152.8073  140.3927  159.9322 C   0  0  0  0  0  0  0  0  0  0  0  0
  152.7207  141.7359  159.6294 N   0  0  0  0  0  0  0  0  0  0  0  0
  153.1056  142.7430  160.5777 C   0  0  0  0  0  0  0  0  0  0  0  0
  152.6084  142.6784  162.0092 C   0  0  0  0  0  0  0  0  0  0  0  0
  152.0636  143.7247  161.0682 C   0  0  0  0  0  0  0  0  0  0  0  0
  152.0461  142.1613  158.4640 C   0  0  0  0  0  0  0  0  0  0  0  0
  151.8896  143.3599  158.2168 O   0  0  0  0  0  0  0  0  0  0  0  0
  145.3477  144.1281  153.8451 H   0  0  0  0  0  0  0  0  0  0  0  0
  144.7240  143.0602  155.1069 H   0  0  0  0  0  0  0  0  0  0  0  0
  145.3120  142.3819  153.5790 H   0  0  0  0  0  0  0  0  0  0  0  0
  147.4202  143.8650  154.7848 H   0  0  0  0  0  0  0  0  0  0  0  0
  149.0663  142.9037  155.3456 H   0  0  0  0  0  0  0  0  0  0  0  0
  151.4756  141.1370  155.5292 H   0  0  0  0  0  0  0  0  0  0  0  0
  151.0443  142.6456  156.2535 H   0  0  0  0  0  0  0  0  0  0  0  0
  153.2788  140.1045  160.8609 H   0  0  0  0  0  0  0  0  0  0  0  0
  154.1078  143.1462  160.4434 H   0  0  0  0  0  0  0  0  0  0  0  0
  151.9399  141.8659  162.2878 H   0  0  0  0  0  0  0  0  0  0  0  0
  153.2892  143.0091  162.7906 H   0  0  0  0  0  0  0  0  0  0  0  0
  152.3789  144.7542  161.2249 H   0  0  0  0  0  0  0  0  0  0  0  0
  151.0381  143.5991  160.7256 H   0  0  0  0  0  0  0  0  0  0  0  0
  1  2  1  0  0  0  0
  1 22  1  0  0  0  0
  1 23  1  0  0  0  0
  1 24  1  0  0  0  0
  2  3  1  0  0  0  0
  2 25  1  0  0  0  0
  3  4  2  0  0  0  0
  3  5  1  0  0  0  0
  5  6  1  0  0  0  0
  5 26  1  0  0  0  0
  6  7  2  0  0  0  0
  6  8  1  0  0  0  0
  8  9  1  0  0  0  0
  8 27  1  0  0  0  0
  8 28  1  0  0  0  0
  9 20  1  0  0  0  0
  9 10  1  0  0  0  0
 10 11  2  0  0  0  0
 10 12  1  0  0  0  0
 12 13  1  0  0  0  0
 12 15  2  0  0  0  0
 13 14  3  0  0  0  0
 15 16  1  0  0  0  0
 15 29  1  0  0  0  0
 16 17  1  0  0  0  0
 16 20  1  0  0  0  0
 17 19  1  0  0  0  0
 17 18  1  0  0  0  0
 17 30  1  0  0  0  0
 18 19  1  0  0  0  0
 18 31  1  0  0  0  0
 18 32  1  0  0  0  0
 19 33  1  0  0  0  0
 19 34  1  0  0  0  0
 20 21  2  0  0  0  0
M  END
> <s_m_source_file>
AV-unprocessed.smi

> <i_m_source_file_index>
388

> <i_lp_mmshare_version>
43012

> <i_f3d_flags>
0

> <s_epik_input>
W0NIM11bTkhdQyg9TylbTkhdQyg9TylbQ0gyXW4xYyg9TyljKEMjTilbY0hdbihjMT1PKVtDSF0yW0NIMl1bQ0gyXTI=

> <s_epik_cmdline>
J2VwaWtfcHl0aG9uJywgJy1waCcsICc3LjAnLCAnLXRuJywgJzgnLCAnLW1hJywgJzIwMCcsICctbWV0YWxfYmluZGluZycsICctaW1hZScsICc8aW5maWxlLm1hZT4nLCAnLW9tYWUnLCAnPG91dGZpbGUubWFlPic=

> <r_lp_tautomer_probability>
1

> <r_epik_Ionization_Penalty>
2.95777e-05

> <r_epik_Ionization_Penalty_Charging>
6.31124e-11

> <r_epik_Ionization_Penalty_Neutral>
2.95776e-05

> <r_epik_State_Penalty>
-0

> <r_epik_Charging_Adjusted_Penalty>
6.31124e-11

> <i_epik_Tot_Q>
0

> <i_epik_Tot_abs_Q>
0

> <r_epik_Metal_State_Penalty>
-0

> <b_epik_Metal_Only>
0

> <s_lp_Force_Field>
OPLS_2005

> <r_lp_Energy>
33.5858

> <b_lp_Chiralities_Consistent>
1

> <s_lp_Variant>
AV-unprocessed.smi:388-1

> <Gold.Version>
5.8.1

> <Gold.Id.Protein>
6NUR|6NUR_protein|mol2

> <Gold.PLP.Fitness>
45.4701

> <Gold.PLP.PLP>
-39.4042

> <Gold.PLP.part.hbond>
-3.0000

> <Gold.PLP.part.metal>
0.0000

> <Gold.PLP.part.buried>
-5.8740

> <Gold.PLP.part.nonpolar>
-31.2725

> <Gold.PLP.part.repulsive>
0.3629

> <Gold.PLP.ligand.clash>
0.0000

> <Gold.PLP.ligand.torsion>
0.4874

> <Gold.PLP.Chemscore.Hbond>
2.2800

> <Gold.PLP.Chemscore.CHOScore>
0.0000

> <Gold.PLP.Chemscore.Metal>
0.0000

> <Gold.Chemscore.Hbonds>
donor molecule, donor type, donor heavy atom, donor atom, acceptor molecule, acceptor atom, score
      L1  H     2    25       P1  8028  0.37
      L1  H     5    26       P1  8028  0.70
      P1  H  6896  6909       L1    14  1.00

> <Gold.PLP.Chemscore.Internal.Correction>
0.2008

> <Gold.Rescore>
     Score         DG    S(hbond)    S(metal)    S(lipo)     H(rot)  DE(clash)    DE(int)     intcor
      7.79     -14.01       1.92        0.00      58.86       1.87       0.00       6.22       ----

> <Gold.Chemscore.Fitness>
7.7875

> <Gold.Chemscore.DG>
-14.0072

> <Gold.Chemscore.ZeroCoef>
-5.4800

> <Gold.Chemscore.Hbond>
1.9218

> <Gold.Chemscore.Metal>
0.0000

> <Gold.Chemscore.Lipo>
58.8649

> <Gold.Chemscore.Internal_Hbond>
0.0000

> <Gold.Chemscore.DEClash>
0.0000

> <Gold.Chemscore.DEInternal>
6.2197

> <Gold.Chemscore.Rot>
1.8667

> <Gold.Chemscore.Internal.Correction>
   9.000000E+99

> <Gold.Chemscore.Hbonds>
donor molecule, donor type, donor heavy atom, donor atom, acceptor molecule, acceptor atom, score
      L1  H     2    25       P1  8028  0.01
      L1  H     5    26       P1  8028  0.70
      P1  H  6896  6909       L1    14  0.97

> <Gold.Chemscore.Hbond.Weighted>
-6.4187

> <Gold.Chemscore.Metal.Weighted>
-0.0000

> <Gold.Chemscore.Lipo.Weighted>
-6.8872

> <Gold.Chemscore.Internal_Hbond.Weighted>
0.0000

> <Gold.Chemscore.DEClash.Weighted>
0.0000

> <Gold.Chemscore.DEInternal.Weighted>
6.2197

> <Gold.Chemscore.Rot.Weighted>
4.7787

> <Gold.Chemscore.Internal.Correction.Weighted>
   9.000000E+99

> <Gold.Protein.RotatedTorsions>
[ 6907 6896 6895 6894 ] final  126.37 input  -60.11 | X-H torsion
[ 7974 7965 7964 7962 ] final  -52.92 input  175.53 | X-H torsion
[ 8008 7997 7996 7995 ] final  -56.50 input   59.86 | X-H torsion
[ 10167 10162 10161 10158 ] final  -16.51 input  -65.29 | X-H torsion
[ 10718 10713 10712 10709 ] final -159.76 input   66.30 | X-H torsion
[ 10763 10752 10751 10750 ] final   11.36 input  -60.55 | X-H torsion
[ 11005 11000 10999 10996 ] final   97.24 input  -57.11 | X-H torsion

> <Gold.Protein.ActiveResidues>
 VAL166  LYS551  ARG553  GLY616  TRP617  ASP618  TYR619  PRO620  LYS621  CYS622 
 ASP623  PHE694  ASN695  SER759  ASP760  ASP761  ALA762  ILE779  LEU786  VAL792 
 PHE793  MET794  SER795  GLU796  ALA797  LYS798  CYS799  TRP800  GLU811  SER814 

> <Gold.Protein.RotatedAtoms>
  152.3909  133.6677  159.6236 H   0  0  0  0  0  0  0  0  0  0  0  0  # atno 6907 bound_to 6896
  150.7817  133.8956  159.3335 H   0  0  0  0  0  0  0  0  0  0  0  0  # atno 6908 bound_to 6896
  151.6743  135.0973  160.0255 H   0  0  0  0  0  0  0  0  0  0  0  0  # atno 6909 bound_to 6896
  145.9025  140.7982  142.9736 H   0  0  0  0  0  0  0  0  0  0  0  0  # atno 7974 bound_to 7965
  154.4233  140.1128  156.5648 H   0  0  0  0  0  0  0  0  0  0  0  0  # atno 8008 bound_to 7997
  155.6273  140.3495  155.4652 H   0  0  0  0  0  0  0  0  0  0  0  0  # atno 8009 bound_to 7997
  155.9976  140.1192  157.0568 H   0  0  0  0  0  0  0  0  0  0  0  0  # atno 8010 bound_to 7997
  140.7234  143.5109  150.9751 H   0  0  0  0  0  0  0  0  0  0  0  0  # atno 10167 bound_to 10162
  156.5726  130.8695  151.2842 H   0  0  0  0  0  0  0  0  0  0  0  0  # atno 10718 bound_to 10713
  153.1934  135.6845  153.8323 H   0  0  0  0  0  0  0  0  0  0  0  0  # atno 10763 bound_to 10752
  153.7614  135.3209  155.3338 H   0  0  0  0  0  0  0  0  0  0  0  0  # atno 10764 bound_to 10752
  154.8131  135.4704  154.0668 H   0  0  0  0  0  0  0  0  0  0  0  0  # atno 10765 bound_to 10752
  139.8777  134.8991  156.4277 H   0  0  0  0  0  0  0  0  0  0  0  0  # atno 11005 bound_to 11000
  144.6737  140.1700  143.7415 LP  0  0  0  0  0  0  0  0  0  0  0  0  # atno 17320 bound_to 7965
  145.8772  139.2303  143.1626 LP  0  0  0  0  0  0  0  0  0  0  0  0  # atno 17321 bound_to 7965
  139.8823  143.7057  152.3155 LP  0  0  0  0  0  0  0  0  0  0  0  0  # atno 17342 bound_to 10162
  139.7343  144.7575  151.0752 LP  0  0  0  0  0  0  0  0  0  0  0  0  # atno 17343 bound_to 10162
  157.7344  130.9746  150.2030 LP  0  0  0  0  0  0  0  0  0  0  0  0  # atno 17370 bound_to 10713
  156.2701  130.3721  149.8040 LP  0  0  0  0  0  0  0  0  0  0  0  0  # atno 17371 bound_to 10713
  140.9089  133.7726  155.9767 LP  0  0  0  0  0  0  0  0  0  0  0  0  # atno 17394 bound_to 11000
  140.8569  134.2887  157.5251 LP  0  0  0  0  0  0  0  0  0  0  0  0  # atno 17395 bound_to 11000

$$$$
