AV-unprocessed.smi:125|AV-procd|sdf|1149|dock7
  -GOLD-   2262018283D 1   1.00000     0.00000
 Structure written by MMmdl.
 59 62  0  0  0  0  0  0  0  0  1 V2000
  148.3002  131.9727  156.8455 C   0  0  0  0  0  0  0  0  0  0  0  0
  149.1285  133.2466  156.8195 C   0  0  0  0  0  0  0  0  0  0  0  0
  150.2705  133.2864  155.9925 C   0  0  0  0  0  0  0  0  0  0  0  0
  151.0766  134.4380  155.9287 C   0  0  0  0  0  0  0  0  0  0  0  0
  150.7570  135.5749  156.7065 C   0  0  0  0  0  0  0  0  0  0  0  0
  151.5072  136.7819  156.6854 N   0  0  0  0  0  0  0  0  0  0  0  0
  152.1382  137.3664  155.6505 C   0  0  0  0  0  0  0  0  0  0  0  0
  152.2226  136.8841  154.5206 O   0  0  0  0  0  0  0  0  0  0  0  0
  152.8278  138.7007  155.9734 C   0  0  0  0  0  0  0  0  0  0  0  0
  151.8754  139.7698  156.3454 N   0  0  0  0  0  0  0  0  0  0  0  0
  150.7686  140.0099  155.4935 C   0  0  0  0  0  0  0  0  0  0  0  0
  150.5945  139.3448  154.4710 O   0  0  0  0  0  0  0  0  0  0  0  0
  149.8733  141.0832  155.9101 C   0  0  0  0  0  0  0  0  0  0  0  0
  148.7858  141.3666  155.1734 F   0  0  0  0  0  0  0  0  0  0  0  0
  150.1173  141.7955  157.0289 C   0  0  0  0  0  0  0  0  0  0  0  0
  151.2127  141.5639  157.8404 N   0  0  0  0  0  0  0  0  0  0  0  0
  151.4523  142.3833  159.0891 C   0  0  2  0  0  0  0  0  0  0  0  0
  150.3518  143.4381  159.2493 C   0  0  0  0  0  0  0  0  0  0  0  0
  150.9846  144.6499  158.6004 C   0  0  0  0  0  0  0  0  0  0  0  0
  152.4500  144.4680  158.9779 C   0  0  0  0  0  0  0  0  0  0  0  0
  152.6703  143.0599  158.9643 O   0  0  0  0  0  0  0  0  0  0  0  0
  152.1167  140.5291  157.5156 C   0  0  0  0  0  0  0  0  0  0  0  0
  153.0896  140.2944  158.2353 O   0  0  0  0  0  0  0  0  0  0  0  0
  149.6084  135.5466  157.5215 C   0  0  0  0  0  0  0  0  0  0  0  0
  148.7970  134.3939  157.5864 C   0  0  0  0  0  0  0  0  0  0  0  0
  147.3664  134.4419  158.6799 S   0  0  0  0  0  0  0  0  0  0  0  0
  147.0182  135.8425  158.9665 O   0  0  0  0  0  0  0  0  0  0  0  0
  146.3477  133.5314  158.1343 O   0  0  0  0  0  0  0  0  0  0  0  0
  147.9847  133.7573  160.1453 N   0  0  0  0  0  0  0  0  0  0  0  0
  148.0793  134.5885  161.3559 C   0  0  0  0  0  0  0  0  0  0  0  0
  148.2325  133.7151  162.6123 C   0  0  0  0  0  0  0  0  0  0  0  0
  149.3030  132.7967  162.4495 O   0  0  0  0  0  0  0  0  0  0  0  0
  149.0561  131.8957  161.3805 C   0  0  0  0  0  0  0  0  0  0  0  0
  148.9640  132.6645  160.0533 C   0  0  0  0  0  0  0  0  0  0  0  0
  148.6654  131.2526  156.1126 H   0  0  0  0  0  0  0  0  0  0  0  0
  147.2574  132.1733  156.6052 H   0  0  0  0  0  0  0  0  0  0  0  0
  148.3542  131.4945  157.8221 H   0  0  0  0  0  0  0  0  0  0  0  0
  150.5357  132.4284  155.3923 H   0  0  0  0  0  0  0  0  0  0  0  0
  151.9265  134.4277  155.2642 H   0  0  0  0  0  0  0  0  0  0  0  0
  151.6100  137.2416  157.5785 H   0  0  0  0  0  0  0  0  0  0  0  0
  153.5563  138.5474  156.7718 H   0  0  0  0  0  0  0  0  0  0  0  0
  153.4360  138.9836  155.1132 H   0  0  0  0  0  0  0  0  0  0  0  0
  149.4174  142.5748  157.2913 H   0  0  0  0  0  0  0  0  0  0  0  0
  151.5114  141.6744  159.9163 H   0  0  0  0  0  0  0  0  0  0  0  0
  149.4091  143.1298  158.7959 H   0  0  0  0  0  0  0  0  0  0  0  0
  150.1918  143.6149  160.3136 H   0  0  0  0  0  0  0  0  0  0  0  0
  150.8634  144.6062  157.5176 H   0  0  0  0  0  0  0  0  0  0  0  0
  150.5666  145.5928  158.9537 H   0  0  0  0  0  0  0  0  0  0  0  0
  153.1271  144.9855  158.2981 H   0  0  0  0  0  0  0  0  0  0  0  0
  152.6305  144.8405  159.9870 H   0  0  0  0  0  0  0  0  0  0  0  0
  149.3565  136.4201  158.1045 H   0  0  0  0  0  0  0  0  0  0  0  0
  148.9338  135.2581  161.2539 H   0  0  0  0  0  0  0  0  0  0  0  0
  147.1908  135.2118  161.4533 H   0  0  0  0  0  0  0  0  0  0  0  0
  148.4338  134.3428  163.4805 H   0  0  0  0  0  0  0  0  0  0  0  0
  147.3073  133.1760  162.8223 H   0  0  0  0  0  0  0  0  0  0  0  0
  149.8681  131.1700  161.3349 H   0  0  0  0  0  0  0  0  0  0  0  0
  148.1398  131.3331  161.5665 H   0  0  0  0  0  0  0  0  0  0  0  0
  148.6839  131.9861  159.2472 H   0  0  0  0  0  0  0  0  0  0  0  0
  149.9361  133.0858  159.7952 H   0  0  0  0  0  0  0  0  0  0  0  0
  1  2  1  0  0  0  0
  1 35  1  0  0  0  0
  1 36  1  0  0  0  0
  1 37  1  0  0  0  0
  2 25  1  0  0  0  0
  2  3  2  0  0  0  0
  3  4  1  0  0  0  0
  3 38  1  0  0  0  0
  4  5  2  0  0  0  0
  4 39  1  0  0  0  0
  5  6  1  0  0  0  0
  5 24  1  0  0  0  0
  6  7  1  0  0  0  0
  6 40  1  0  0  0  0
  7  8  2  0  0  0  0
  7  9  1  0  0  0  0
  9 10  1  0  0  0  0
  9 41  1  0  0  0  0
  9 42  1  0  0  0  0
 10 22  1  0  0  0  0
 10 11  1  0  0  0  0
 11 12  2  0  0  0  0
 11 13  1  0  0  0  0
 13 14  1  0  0  0  0
 13 15  2  0  0  0  0
 15 16  1  0  0  0  0
 15 43  1  0  0  0  0
 16 17  1  0  0  0  0
 16 22  1  0  0  0  0
 17 21  1  0  0  0  0
 17 18  1  0  0  0  0
 17 44  1  0  0  0  0
 18 19  1  0  0  0  0
 18 45  1  0  0  0  0
 18 46  1  0  0  0  0
 19 20  1  0  0  0  0
 19 47  1  0  0  0  0
 19 48  1  0  0  0  0
 20 21  1  0  0  0  0
 20 49  1  0  0  0  0
 20 50  1  0  0  0  0
 22 23  2  0  0  0  0
 24 25  2  0  0  0  0
 24 51  1  0  0  0  0
 25 26  1  0  0  0  0
 26 27  2  0  0  0  0
 26 28  2  0  0  0  0
 26 29  1  0  0  0  0
 29 34  1  0  0  0  0
 29 30  1  0  0  0  0
 30 31  1  0  0  0  0
 30 52  1  0  0  0  0
 30 53  1  0  0  0  0
 31 32  1  0  0  0  0
 31 54  1  0  0  0  0
 31 55  1  0  0  0  0
 32 33  1  0  0  0  0
 33 34  1  0  0  0  0
 33 56  1  0  0  0  0
 33 57  1  0  0  0  0
 34 58  1  0  0  0  0
 34 59  1  0  0  0  0
M  END
> <s_m_source_file>
AV-unprocessed.smi

> <i_m_source_file_index>
125

> <i_lp_mmshare_version>
43012

> <i_f3d_flags>
0

> <s_epik_input>
W0NIMl0xW0NIMl1PW0NIMl1bQ0gyXU4xUyg9TykoPU8pYzJbY0hdYyhbY0hdW2NIXWMyW0NIM10pW05IXUMoPU8pW0NIMl1uM2MoPU8pYyhGKVtjSF1uKGMzPU8pW0NAQEhdNFtDSDJdW0NIMl1bQ0gyXU80

> <s_epik_cmdline>
J2VwaWtfcHl0aG9uJywgJy1waCcsICc3LjAnLCAnLXRuJywgJzgnLCAnLW1hJywgJzIwMCcsICctbWV0YWxfYmluZGluZycsICctaW1hZScsICc8aW5maWxlLm1hZT4nLCAnLW9tYWUnLCAnPG91dGZpbGUubWFlPic=

> <r_lp_tautomer_probability>
1

> <r_epik_Ionization_Penalty>
4.12263e-06

> <r_epik_Ionization_Penalty_Charging>
3.88729e-08

> <r_epik_Ionization_Penalty_Neutral>
4.08376e-06

> <r_epik_State_Penalty>
-0

> <r_epik_Charging_Adjusted_Penalty>
3.88729e-08

> <i_epik_Tot_Q>
0

> <i_epik_Tot_abs_Q>
0

> <r_epik_Metal_State_Penalty>
-0

> <b_epik_Metal_Only>
0

> <s_epik_Chemistry_Notes>
This compound contains an acetal/aminal-like group ( X-CH(R)-Y where X, Y are N, S, or O) that may be acid/base labile, releasing an aldehyde.

> <s_lp_Force_Field>
OPLS_2005

> <r_lp_Energy>
38.613

> <b_lp_Chiralities_Consistent>
1

> <s_lp_Variant>
AV-unprocessed.smi:125-1

> <Gold.Version>
5.8.1

> <Gold.Id.Protein>
6NUR|6NUR_protein|mol2

> <Gold.PLP.Fitness>
56.9416

> <Gold.PLP.PLP>
-48.2545

> <Gold.PLP.part.hbond>
-2.9770

> <Gold.PLP.part.metal>
0.0000

> <Gold.PLP.part.buried>
-2.6392

> <Gold.PLP.part.nonpolar>
-42.3696

> <Gold.PLP.part.repulsive>
0.4291

> <Gold.PLP.ligand.clash>
0.0000

> <Gold.PLP.ligand.torsion>
2.4810

> <Gold.PLP.Chemscore.Hbond>
2.1920

> <Gold.PLP.Chemscore.CHOScore>
1.0000

> <Gold.PLP.Chemscore.Metal>
0.0000

> <Gold.Chemscore.Hbonds>
donor molecule, donor type, donor heavy atom, donor atom, acceptor molecule, acceptor atom, score
      P1  H  7989  7998       L1    12  0.26
      P1  H  7997  8010       L1    23  0.90
      P1  H 10752 10764       L1     8  0.67
      L1  C    15    43       P1  8028  0.41

> <Gold.PLP.Chemscore.Internal.Correction>
4.0732

> <Gold.Rescore>
     Score         DG    S(hbond)    S(metal)    S(lipo)     H(rot)  DE(clash)    DE(int)     intcor
      9.82     -17.78       1.67        0.00      93.52       1.65       0.30       7.67       ----

> <Gold.Chemscore.Fitness>
9.8183

> <Gold.Chemscore.DG>
-17.7838

> <Gold.Chemscore.ZeroCoef>
-5.4800

> <Gold.Chemscore.Hbond>
1.6730

> <Gold.Chemscore.Metal>
0.0000

> <Gold.Chemscore.Lipo>
93.5248

> <Gold.Chemscore.Internal_Hbond>
0.0000

> <Gold.Chemscore.DEClash>
0.3004

> <Gold.Chemscore.DEInternal>
7.6651

> <Gold.Chemscore.Rot>
1.6510

> <Gold.Chemscore.Internal.Correction>
   9.000000E+99

> <Gold.Chemscore.Hbonds>
donor molecule, donor type, donor heavy atom, donor atom, acceptor molecule, acceptor atom, score
      P1  H  7997  8010       L1    23  0.30
      P1  H 10752 10764       L1     8  0.66

> <Gold.Chemscore.Hbond.Weighted>
-5.5879

> <Gold.Chemscore.Metal.Weighted>
-0.0000

> <Gold.Chemscore.Lipo.Weighted>
-10.9424

> <Gold.Chemscore.Internal_Hbond.Weighted>
0.0000

> <Gold.Chemscore.DEClash.Weighted>
0.3004

> <Gold.Chemscore.DEInternal.Weighted>
7.6651

> <Gold.Chemscore.Rot.Weighted>
4.2265

> <Gold.Chemscore.Internal.Correction.Weighted>
   9.000000E+99

> <Gold.Protein.RotatedTorsions>
[ 6907 6896 6895 6894 ] final   41.73 input  -60.11 | X-H torsion
[ 7974 7965 7964 7962 ] final -107.27 input  175.53 | X-H torsion
[ 8008 7997 7996 7995 ] final   42.94 input   59.86 | X-H torsion
[ 10167 10162 10161 10158 ] final   22.72 input  -65.29 | X-H torsion
[ 10718 10713 10712 10709 ] final   81.41 input   66.30 | X-H torsion
[ 10763 10752 10751 10750 ] final  -83.56 input  -60.55 | X-H torsion
[ 11005 11000 10999 10996 ] final   -5.28 input  -57.11 | X-H torsion

> <Gold.Protein.ActiveResidues>
 VAL166  LYS551  ARG553  GLY616  TRP617  ASP618  TYR619  PRO620  LYS621  CYS622 
 ASP623  PHE694  ASN695  SER759  ASP760  ASP761  ALA762  ILE779  LEU786  VAL792 
 PHE793  MET794  SER795  GLU796  ALA797  LYS798  CYS799  TRP800  GLU811  SER814 

> <Gold.Protein.RotatedAtoms>
  152.1989  134.8605  160.0509 H   0  0  0  0  0  0  0  0  0  0  0  0  # atno 6907 bound_to 6896
  151.9466  133.3648  159.3993 H   0  0  0  0  0  0  0  0  0  0  0  0  # atno 6908 bound_to 6896
  150.6950  134.4308  159.5291 H   0  0  0  0  0  0  0  0  0  0  0  0  # atno 6909 bound_to 6896
  145.2075  140.9082  143.3334 H   0  0  0  0  0  0  0  0  0  0  0  0  # atno 7974 bound_to 7965
  155.2944  140.3381  155.4251 H   0  0  0  0  0  0  0  0  0  0  0  0  # atno 8008 bound_to 7997
  156.2031  140.1740  156.7897 H   0  0  0  0  0  0  0  0  0  0  0  0  # atno 8009 bound_to 7997
  154.5585  140.0692  156.8765 H   0  0  0  0  0  0  0  0  0  0  0  0  # atno 8010 bound_to 7997
  140.5326  143.9815  150.6474 H   0  0  0  0  0  0  0  0  0  0  0  0  # atno 10167 bound_to 10162
  157.6832  131.0003  150.2222 H   0  0  0  0  0  0  0  0  0  0  0  0  # atno 10718 bound_to 10713
  154.5892  135.5551  153.7261 H   0  0  0  0  0  0  0  0  0  0  0  0  # atno 10763 bound_to 10752
  153.0110  135.6339  154.1873 H   0  0  0  0  0  0  0  0  0  0  0  0  # atno 10764 bound_to 10752
  154.1814  135.2887  155.3031 H   0  0  0  0  0  0  0  0  0  0  0  0  # atno 10765 bound_to 10752
  140.6894  133.9084  155.8608 H   0  0  0  0  0  0  0  0  0  0  0  0  # atno 11005 bound_to 11000
  144.9888  139.3710  143.6225 LP  0  0  0  0  0  0  0  0  0  0  0  0  # atno 17320 bound_to 7965
  146.3405  139.9062  142.8787 LP  0  0  0  0  0  0  0  0  0  0  0  0  # atno 17321 bound_to 7965
  140.3194  143.3147  152.0799 LP  0  0  0  0  0  0  0  0  0  0  0  0  # atno 17342 bound_to 10162
  139.4959  144.6584  151.6521 LP  0  0  0  0  0  0  0  0  0  0  0  0  # atno 17343 bound_to 10162
  156.2871  130.3741  149.7877 LP  0  0  0  0  0  0  0  0  0  0  0  0  # atno 17370 bound_to 10713
  156.5548  130.8357  151.3311 LP  0  0  0  0  0  0  0  0  0  0  0  0  # atno 17371 bound_to 10713
  141.0253  134.0832  157.4075 LP  0  0  0  0  0  0  0  0  0  0  0  0  # atno 17394 bound_to 11000
  139.8928  135.0126  156.6864 LP  0  0  0  0  0  0  0  0  0  0  0  0  # atno 17395 bound_to 11000

$$$$
