AV-unprocessed.smi:1244|AV-procd|sdf|5237|dock9
  -GOLD-   22720 4343D 1   1.00000     0.00000
 Structure written by MMmdl.
 55 57  0  0  0  0  0  0  0  0  4 V2000
  145.1599  131.7501  151.8938 C   0  0  0  0  0  0  0  0  0  0  0  0
  146.2613  132.3152  152.7974 C   0  0  2  0  0  0  0  0  0  0  0  0
  146.8777  133.6061  152.2230 C   0  0  0  0  0  0  0  0  0  0  0  0
  147.9846  134.0963  153.0805 N   0  3  1  0  0  0  0  0  0  0  0  0
  147.5269  134.7854  154.3194 C   0  0  0  0  0  0  0  0  0  0  0  0
  148.6871  135.4918  155.0507 C   0  0  0  0  0  0  0  0  0  0  0  0
  148.1675  136.5090  155.9637 N   0  5  0  0  0  0  0  0  0  0  0  0
  148.9223  137.4556  156.5829 C   0  0  0  0  0  0  0  0  0  0  0  0
  149.6190  137.3251  157.5964 O   0  0  0  0  0  0  0  0  0  0  0  0
  148.8598  138.6414  155.9543 N   0  0  0  0  0  0  0  0  0  0  0  0
  149.5965  139.8227  156.2400 C   0  0  0  0  0  0  0  0  0  0  0  0
  150.8570  139.7487  156.8836 C   0  0  0  0  0  0  0  0  0  0  0  0
  151.5382  140.9307  157.2305 C   0  0  0  0  0  0  0  0  0  0  0  0
  150.9386  142.1690  156.9433 C   0  0  0  0  0  0  0  0  0  0  0  0
  149.7315  142.2053  156.3417 N   0  3  0  0  0  0  0  0  0  0  0  0
  149.0330  141.1030  155.9694 C   0  0  0  0  0  0  0  0  0  0  0  0
  147.7832  141.2960  155.3368 N   0  0  0  0  0  0  0  0  0  0  0  0
  146.6711  141.8975  156.0628 C   0  0  0  0  0  0  0  0  0  0  0  0
  145.6403  142.2426  154.9914 C   0  0  0  0  0  0  0  0  0  0  0  0
  146.5166  142.6342  153.8053 C   0  0  0  0  0  0  0  0  0  0  0  0
  147.7422  141.7247  153.9419 C   0  0  0  0  0  0  0  0  0  0  0  0
  148.9851  133.0159  153.2961 C   0  0  0  0  0  0  0  0  0  0  0  0
  148.3220  131.7194  153.8103 C   0  0  2  0  0  0  0  0  0  0  0  0
  149.3230  130.5629  153.9065 C   0  0  0  0  0  0  0  0  0  0  0  0
  147.2850  131.3327  152.9144 O   0  0  0  0  0  0  0  0  0  0  0  0
  144.3434  132.4633  151.7773 H   0  0  0  0  0  0  0  0  0  0  0  0
  144.7429  130.8346  152.3144 H   0  0  0  0  0  0  0  0  0  0  0  0
  145.5447  131.5154  150.9009 H   0  0  0  0  0  0  0  0  0  0  0  0
  145.8325  132.5105  153.7820 H   0  0  0  0  0  0  0  0  0  0  0  0
  147.2786  133.4079  151.2278 H   0  0  0  0  0  0  0  0  0  0  0  0
  146.1205  134.3810  152.0964 H   0  0  0  0  0  0  0  0  0  0  0  0
  146.7836  135.5422  154.0639 H   0  0  0  0  0  0  0  0  0  0  0  0
  147.0202  134.0836  154.9820 H   0  0  0  0  0  0  0  0  0  0  0  0
  149.2937  134.7483  155.5694 H   0  0  0  0  0  0  0  0  0  0  0  0
  149.3498  135.9363  154.3077 H   0  0  0  0  0  0  0  0  0  0  0  0
  148.3454  138.6434  155.0856 H   0  0  0  0  0  0  0  0  0  0  0  0
  151.2989  138.7956  157.1340 H   0  0  0  0  0  0  0  0  0  0  0  0
  152.4995  140.8865  157.7211 H   0  0  0  0  0  0  0  0  0  0  0  0
  151.3817  143.1257  157.1788 H   0  0  0  0  0  0  0  0  0  0  0  0
  146.2656  141.2145  156.8098 H   0  0  0  0  0  0  0  0  0  0  0  0
  146.9960  142.8088  156.5670 H   0  0  0  0  0  0  0  0  0  0  0  0
  145.0506  141.3593  154.7420 H   0  0  0  0  0  0  0  0  0  0  0  0
  144.9554  143.0335  155.2985 H   0  0  0  0  0  0  0  0  0  0  0  0
  146.0110  142.5209  152.8459 H   0  0  0  0  0  0  0  0  0  0  0  0
  146.8213  143.6769  153.9037 H   0  0  0  0  0  0  0  0  0  0  0  0
  148.6545  142.2428  153.6432 H   0  0  0  0  0  0  0  0  0  0  0  0
  147.6270  140.8458  153.3067 H   0  0  0  0  0  0  0  0  0  0  0  0
  149.4762  132.8184  152.3423 H   0  0  0  0  0  0  0  0  0  0  0  0
  149.7690  133.3438  153.9800 H   0  0  0  0  0  0  0  0  0  0  0  0
  147.8943  131.8793  154.8008 H   0  0  0  0  0  0  0  0  0  0  0  0
  150.1353  130.8034  154.5927 H   0  0  0  0  0  0  0  0  0  0  0  0
  149.7616  130.3367  152.9342 H   0  0  0  0  0  0  0  0  0  0  0  0
  148.8376  129.6573  154.2712 H   0  0  0  0  0  0  0  0  0  0  0  0
  148.4470  134.8181  152.5459 H   0  0  0  0  0  0  0  0  0  0  0  0
  149.3222  143.1190  156.1480 H   0  0  0  0  0  0  0  0  0  0  0  0
  1  2  1  0  0  0  0
  1 26  1  0  0  0  0
  1 27  1  0  0  0  0
  1 28  1  0  0  0  0
  2 25  1  0  0  0  0
  2  3  1  0  0  0  0
  2 29  1  0  0  0  0
  3  4  1  0  0  0  0
  3 30  1  0  0  0  0
  3 31  1  0  0  0  0
  4  5  1  0  0  0  0
  4 22  1  0  0  0  0
  4 54  1  0  0  0  0
  5  6  1  0  0  0  0
  5 32  1  0  0  0  0
  5 33  1  0  0  0  0
  6  7  1  0  0  0  0
  6 34  1  0  0  0  0
  6 35  1  0  0  0  0
  7  8  1  0  0  0  0
  8  9  2  0  0  0  0
  8 10  1  0  0  0  0
 10 11  1  0  0  0  0
 10 36  1  0  0  0  0
 11 16  1  0  0  0  0
 11 12  2  0  0  0  0
 12 13  1  0  0  0  0
 12 37  1  0  0  0  0
 13 14  2  0  0  0  0
 13 38  1  0  0  0  0
 14 15  1  0  0  0  0
 14 39  1  0  0  0  0
 15 16  2  0  0  0  0
 15 55  1  0  0  0  0
 16 17  1  0  0  0  0
 17 21  1  0  0  0  0
 17 18  1  0  0  0  0
 18 19  1  0  0  0  0
 18 40  1  0  0  0  0
 18 41  1  0  0  0  0
 19 20  1  0  0  0  0
 19 42  1  0  0  0  0
 19 43  1  0  0  0  0
 20 21  1  0  0  0  0
 20 44  1  0  0  0  0
 20 45  1  0  0  0  0
 21 46  1  0  0  0  0
 21 47  1  0  0  0  0
 22 23  1  0  0  0  0
 22 48  1  0  0  0  0
 22 49  1  0  0  0  0
 23 24  1  0  0  0  0
 23 25  1  0  0  0  0
 23 50  1  0  0  0  0
 24 51  1  0  0  0  0
 24 52  1  0  0  0  0
 24 53  1  0  0  0  0
M  CHG  1   4   1
M  CHG  1   7  -1
M  CHG  1  15   1
M  END
> <s_m_source_file>
AV-unprocessed.smi

> <i_m_source_file_index>
1244

> <i_lp_mmshare_version>
43012

> <i_f3d_flags>
0

> <s_epik_input>
W0NIM11bQ0BASF0xW0NIMl1OKFtDSDJdW0NASF0oTzEpW0NIM10pW0NIMl1bQ0gyXVtOSF1DKD1PKVtOSF1jMltjSF1bY0hdW2NIXW5jMk4zW0NIMl1bQ0gyXVtDSDJdW0NIMl0z

> <s_epik_cmdline>
J2VwaWtfcHl0aG9uJywgJy1waCcsICc3LjAnLCAnLXRuJywgJzgnLCAnLW1hJywgJzIwMCcsICctbWV0YWxfYmluZGluZycsICctaW1hZScsICc8aW5maWxlLm1hZT4nLCAnLW9tYWUnLCAnPG91dGZpbGUubWFlPic=

> <r_lp_tautomer_probability>
0.999994

> <r_epik_Ionization_Penalty>
8.60539

> <r_epik_Ionization_Penalty_Charging>
8.60539

> <r_epik_Ionization_Penalty_Neutral>
3.60441e-06

> <r_epik_State_Penalty>
8.59967

> <r_epik_Charging_Adjusted_Penalty>
17.2051

> <i_epik_Tot_Q>
1

> <i_epik_Tot_abs_Q>
3

> <r_epik_Metal_State_Penalty>
4.59489

> <b_epik_Metal_Only>
1

> <s_lp_Force_Field>
OPLS_2005

> <r_lp_Energy>
45.4407

> <b_lp_Chiralities_Consistent>
1

> <s_lp_Variant>
AV-unprocessed.smi:1244-17

> <Gold.Version>
5.8.1

> <Gold.Id.Protein>
6NUR|6NUR_protein|mol2

> <Gold.PLP.Fitness>
44.1753

> <Gold.PLP.PLP>
-34.0838

> <Gold.PLP.part.hbond>
-2.0000

> <Gold.PLP.part.metal>
0.0000

> <Gold.PLP.part.buried>
-4.9088

> <Gold.PLP.part.nonpolar>
-26.2476

> <Gold.PLP.part.repulsive>
0.3184

> <Gold.PLP.ligand.clash>
0.0000

> <Gold.PLP.ligand.torsion>
1.2961

> <Gold.PLP.Chemscore.Hbond>
4.0000

> <Gold.PLP.Chemscore.CHOScore>
0.0000

> <Gold.PLP.Chemscore.Metal>
0.0000

> <Gold.Chemscore.Hbonds>
donor molecule, donor type, donor heavy atom, donor atom, acceptor molecule, acceptor atom, score
      L1  H     4    54       P1  7948  2.00
      L1  H    15    55       P1  8028  2.00

> <Gold.PLP.Chemscore.Internal.Correction>
0.6837

> <Gold.Rescore>
     Score         DG    S(hbond)    S(metal)    S(lipo)     H(rot)  DE(clash)    DE(int)     intcor
     14.76     -17.52       1.92        0.00      83.15       1.60       0.08       2.69       ----

> <Gold.Chemscore.Fitness>
14.7555

> <Gold.Chemscore.DG>
-17.5247

> <Gold.Chemscore.ZeroCoef>
-5.4800

> <Gold.Chemscore.Hbond>
1.9181

> <Gold.Chemscore.Metal>
0.0000

> <Gold.Chemscore.Lipo>
83.1523

> <Gold.Chemscore.Internal_Hbond>
0.0000

> <Gold.Chemscore.DEClash>
0.0817

> <Gold.Chemscore.DEInternal>
2.6876

> <Gold.Chemscore.Rot>
1.5978

> <Gold.Chemscore.Internal.Correction>
   9.000000E+99

> <Gold.Chemscore.Hbonds>
donor molecule, donor type, donor heavy atom, donor atom, acceptor molecule, acceptor atom, score
      L1  H     4    54       P1  7948  0.25
      L1  H    15    55       P1  8028  1.00

> <Gold.Chemscore.Hbond.Weighted>
-6.4064

> <Gold.Chemscore.Metal.Weighted>
-0.0000

> <Gold.Chemscore.Lipo.Weighted>
-9.7288

> <Gold.Chemscore.Internal_Hbond.Weighted>
0.0000

> <Gold.Chemscore.DEClash.Weighted>
0.0817

> <Gold.Chemscore.DEInternal.Weighted>
2.6876

> <Gold.Chemscore.Rot.Weighted>
4.0905

> <Gold.Chemscore.Internal.Correction.Weighted>
   9.000000E+99

> <Gold.Protein.RotatedTorsions>
[ 6907 6896 6895 6894 ] final  -28.08 input  -60.11 | X-H torsion
[ 7974 7965 7964 7962 ] final   68.90 input  175.53 | X-H torsion
[ 8008 7997 7996 7995 ] final  106.76 input   59.86 | X-H torsion
[ 10167 10162 10161 10158 ] final -149.32 input  -65.29 | X-H torsion
[ 10718 10713 10712 10709 ] final   30.11 input   66.30 | X-H torsion
[ 10763 10752 10751 10750 ] final    6.88 input  -60.55 | X-H torsion
[ 11005 11000 10999 10996 ] final   67.62 input  -57.11 | X-H torsion

> <Gold.Protein.ActiveResidues>
 VAL166  LYS551  ARG553  GLY616  TRP617  ASP618  TYR619  PRO620  LYS621  CYS622 
 ASP623  PHE694  ASN695  SER759  ASP760  ASP761  ALA762  ILE779  LEU786  VAL792 
 PHE793  MET794  SER795  GLU796  ALA797  LYS798  CYS799  TRP800  GLU811  SER814 

> <Gold.Protein.RotatedAtoms>
  151.1380  135.0164  159.8612 H   0  0  0  0  0  0  0  0  0  0  0  0  # atno 6907 bound_to 6896
  152.5452  134.1533  159.8537 H   0  0  0  0  0  0  0  0  0  0  0  0  # atno 6908 bound_to 6896
  151.1606  133.4802  159.2627 H   0  0  0  0  0  0  0  0  0  0  0  0  # atno 6909 bound_to 6896
  145.7970  139.2962  143.1177 H   0  0  0  0  0  0  0  0  0  0  0  0  # atno 7974 bound_to 7965
  156.1769  140.3107  155.9077 H   0  0  0  0  0  0  0  0  0  0  0  0  # atno 8008 bound_to 7997
  155.3467  140.0469  157.3062 H   0  0  0  0  0  0  0  0  0  0  0  0  # atno 8009 bound_to 7997
  154.5300  140.2227  155.8831 H   0  0  0  0  0  0  0  0  0  0  0  0  # atno 8010 bound_to 7997
  139.7453  143.8600  152.2573 H   0  0  0  0  0  0  0  0  0  0  0  0  # atno 10167 bound_to 10162
  157.2553  130.7135  149.6426 H   0  0  0  0  0  0  0  0  0  0  0  0  # atno 10718 bound_to 10713
  153.2427  135.6905  153.7765 H   0  0  0  0  0  0  0  0  0  0  0  0  # atno 10763 bound_to 10752
  153.6889  135.3316  155.3198 H   0  0  0  0  0  0  0  0  0  0  0  0  # atno 10764 bound_to 10752
  154.8362  135.4540  154.1355 H   0  0  0  0  0  0  0  0  0  0  0  0  # atno 10765 bound_to 10752
  139.9759  134.6822  156.0354 H   0  0  0  0  0  0  0  0  0  0  0  0  # atno 11005 bound_to 11000
  145.9918  140.8596  143.0063 LP  0  0  0  0  0  0  0  0  0  0  0  0  # atno 17320 bound_to 7965
  144.6774  140.2226  143.7364 LP  0  0  0  0  0  0  0  0  0  0  0  0  # atno 17321 bound_to 7965
  139.8563  144.7140  150.9153 LP  0  0  0  0  0  0  0  0  0  0  0  0  # atno 17342 bound_to 10162
  140.7791  143.3856  151.1400 LP  0  0  0  0  0  0  0  0  0  0  0  0  # atno 17343 bound_to 10162
  155.9665  130.4414  150.5341 LP  0  0  0  0  0  0  0  0  0  0  0  0  # atno 17370 bound_to 10713
  157.3234  131.0686  151.1915 LP  0  0  0  0  0  0  0  0  0  0  0  0  # atno 17371 bound_to 10713
  141.1436  133.6560  156.3803 LP  0  0  0  0  0  0  0  0  0  0  0  0  # atno 17394 bound_to 11000
  140.5195  134.6318  157.5313 LP  0  0  0  0  0  0  0  0  0  0  0  0  # atno 17395 bound_to 11000

$$$$
