AV-unprocessed.smi:1554|AV-procd|sdf|6249|dock2
  -GOLD-   22720 6433D 1   1.00000     0.00000
 Structure written by MMmdl.
 48 50  0  0  0  0  0  0  0  0  2 V2000
  147.4810  128.8095  152.4759 C   0  0  0  0  0  0  0  0  0  0  0  0
  146.6982  130.0907  152.2485 C   0  0  0  0  0  0  0  0  0  0  0  0
  145.6164  130.0826  151.3392 C   0  0  0  0  0  0  0  0  0  0  0  0
  144.8658  131.2536  151.0960 C   0  0  0  0  0  0  0  0  0  0  0  0
  143.7846  131.4726  150.2595 N   0  0  0  0  0  0  0  0  0  0  0  0
  143.5355  132.7612  150.4734 C   0  0  0  0  0  0  0  0  0  0  0  0
  144.3330  133.4057  151.3472 N   0  0  0  0  0  0  0  0  0  0  0  0
  144.2645  134.8021  151.7375 C   0  0  0  0  0  0  0  0  0  0  0  0
  145.3719  135.6460  151.0786 C   0  0  1  0  0  0  0  0  0  0  0  0
  144.9835  135.9719  149.7579 O   0  0  0  0  0  0  0  0  0  0  0  0
  145.6387  136.9500  151.8562 C   0  0  0  0  0  0  0  0  0  0  0  0
  146.5521  136.7506  153.0140 N   0  3  1  0  0  0  0  0  0  0  0  0
  146.7740  137.9802  153.8135 C   0  0  0  0  0  0  0  0  0  0  0  0
  145.5792  138.2619  154.7422 C   0  0  0  0  0  0  0  0  0  0  0  0
  145.3599  137.1366  155.5842 O   0  0  0  0  0  0  0  0  0  0  0  0
  145.0338  135.9612  154.8502 C   0  0  2  0  0  0  0  0  0  0  0  0
  144.7522  134.8354  155.8514 C   0  0  0  0  0  0  0  0  0  0  0  0
  146.2023  135.6115  153.9023 C   0  0  0  0  0  0  0  0  0  0  0  0
  145.2309  132.4423  151.7929 C   0  0  0  0  0  0  0  0  0  0  0  0
  146.3032  132.4627  152.7023 C   0  0  0  0  0  0  0  0  0  0  0  0
  147.0422  131.2838  152.9337 C   0  0  0  0  0  0  0  0  0  0  0  0
  148.2001  131.3163  153.9156 C   0  0  0  0  0  0  0  0  0  0  0  0
  147.0955  127.9931  151.8646 H   0  0  0  0  0  0  0  0  0  0  0  0
  147.4184  128.5032  153.5204 H   0  0  0  0  0  0  0  0  0  0  0  0
  148.5306  128.9532  152.2186 H   0  0  0  0  0  0  0  0  0  0  0  0
  145.3538  129.1737  150.8182 H   0  0  0  0  0  0  0  0  0  0  0  0
  142.7304  133.2676  149.9608 H   0  0  0  0  0  0  0  0  0  0  0  0
  143.2780  135.1922  151.4817 H   0  0  0  0  0  0  0  0  0  0  0  0
  144.3482  134.8518  152.8240 H   0  0  0  0  0  0  0  0  0  0  0  0
  146.2778  135.0438  151.0260 H   0  0  0  0  0  0  0  0  0  0  0  0
  145.3909  135.3580  149.1648 H   0  0  0  0  0  0  0  0  0  0  0  0
  146.0757  137.6751  151.1676 H   0  0  0  0  0  0  0  0  0  0  0  0
  144.6990  137.3869  152.1936 H   0  0  0  0  0  0  0  0  0  0  0  0
  147.6725  137.8403  154.4161 H   0  0  0  0  0  0  0  0  0  0  0  0
  146.9731  138.8337  153.1643 H   0  0  0  0  0  0  0  0  0  0  0  0
  145.7869  139.1316  155.3658 H   0  0  0  0  0  0  0  0  0  0  0  0
  144.6777  138.4901  154.1716 H   0  0  0  0  0  0  0  0  0  0  0  0
  144.1227  136.1395  154.2779 H   0  0  0  0  0  0  0  0  0  0  0  0
  144.4791  133.9133  155.3377 H   0  0  0  0  0  0  0  0  0  0  0  0
  143.9296  135.1005  156.5159 H   0  0  0  0  0  0  0  0  0  0  0  0
  145.6255  134.6273  156.4703 H   0  0  0  0  0  0  0  0  0  0  0  0
  145.9731  134.7157  153.3271 H   0  0  0  0  0  0  0  0  0  0  0  0
  147.0858  135.3689  154.4945 H   0  0  0  0  0  0  0  0  0  0  0  0
  146.5552  133.3781  153.2164 H   0  0  0  0  0  0  0  0  0  0  0  0
  148.2867  132.2912  154.3964 H   0  0  0  0  0  0  0  0  0  0  0  0
  149.1398  131.1102  153.4028 H   0  0  0  0  0  0  0  0  0  0  0  0
  148.0615  130.5705  154.6984 H   0  0  0  0  0  0  0  0  0  0  0  0
  147.4457  136.5285  152.5977 H   0  0  0  0  0  0  0  0  0  0  0  0
  1  2  1  0  0  0  0
  1 23  1  0  0  0  0
  1 24  1  0  0  0  0
  1 25  1  0  0  0  0
  2 21  1  0  0  0  0
  2  3  2  0  0  0  0
  3  4  1  0  0  0  0
  3 26  1  0  0  0  0
  4 19  2  0  0  0  0
  4  5  1  0  0  0  0
  5  6  2  0  0  0  0
  6  7  1  0  0  0  0
  6 27  1  0  0  0  0
  7  8  1  0  0  0  0
  7 19  1  0  0  0  0
  8  9  1  0  0  0  0
  8 28  1  0  0  0  0
  8 29  1  0  0  0  0
  9 10  1  0  0  0  0
  9 11  1  0  0  0  0
  9 30  1  0  0  0  0
 10 31  1  0  0  0  0
 11 12  1  0  0  0  0
 11 32  1  0  0  0  0
 11 33  1  0  0  0  0
 12 18  1  0  0  0  0
 12 13  1  0  0  0  0
 12 48  1  0  0  0  0
 13 14  1  0  0  0  0
 13 34  1  0  0  0  0
 13 35  1  0  0  0  0
 14 15  1  0  0  0  0
 14 36  1  0  0  0  0
 14 37  1  0  0  0  0
 15 16  1  0  0  0  0
 16 17  1  0  0  0  0
 16 18  1  0  0  0  0
 16 38  1  0  0  0  0
 17 39  1  0  0  0  0
 17 40  1  0  0  0  0
 17 41  1  0  0  0  0
 18 42  1  0  0  0  0
 18 43  1  0  0  0  0
 19 20  1  0  0  0  0
 20 21  2  0  0  0  0
 20 44  1  0  0  0  0
 21 22  1  0  0  0  0
 22 45  1  0  0  0  0
 22 46  1  0  0  0  0
 22 47  1  0  0  0  0
M  CHG  1  12   1
M  END
> <s_m_source_file>
AV-unprocessed.smi

> <i_m_source_file_index>
1554

> <i_lp_mmshare_version>
43012

> <i_f3d_flags>
0

> <s_epik_input>
W0NIM11jKFtjSF0xKWMoW0NIM10pW2NIXWMoYzEyKW4oW2NIXW4yKVtDSDJdW0NASF0oW09IXSlbQ0gyXU4zW0NIMl1bQ0gyXU9bQ0BASF0oW0NIM10pW0NIMl0z

> <s_epik_cmdline>
J2VwaWtfcHl0aG9uJywgJy1waCcsICc3LjAnLCAnLXRuJywgJzgnLCAnLW1hJywgJzIwMCcsICctbWV0YWxfYmluZGluZycsICctaW1hZScsICc8aW5maWxlLm1hZT4nLCAnLW9tYWUnLCAnPG91dGZpbGUubWFlPic=

> <r_epik_Ionization_Penalty>
0.695251

> <r_epik_Ionization_Penalty_Charging>
0.608065

> <r_epik_Ionization_Penalty_Neutral>
0.0871863

> <r_epik_State_Penalty>
0.731955

> <r_epik_Charging_Adjusted_Penalty>
1.34002

> <i_epik_Tot_Q>
1

> <i_epik_Tot_abs_Q>
1

> <r_epik_Metal_State_Penalty>
0.652186

> <b_epik_Metal_Only>
0

> <s_lp_Force_Field>
OPLS_2005

> <r_lp_Energy>
22.2934

> <b_lp_Chiralities_Consistent>
1

> <s_lp_Variant>
AV-unprocessed.smi:1554-10

> <Gold.Version>
5.8.1

> <Gold.Id.Protein>
6NUR|6NUR_protein|mol2

> <Gold.PLP.Fitness>
47.7684

> <Gold.PLP.PLP>
-34.6078

> <Gold.PLP.part.hbond>
-4.0000

> <Gold.PLP.part.metal>
0.0000

> <Gold.PLP.part.buried>
-5.9633

> <Gold.PLP.part.nonpolar>
-25.5833

> <Gold.PLP.part.repulsive>
0.1799

> <Gold.PLP.ligand.clash>
0.0000

> <Gold.PLP.ligand.torsion>
0.6831

> <Gold.PLP.Chemscore.Hbond>
3.8089

> <Gold.PLP.Chemscore.CHOScore>
1.0000

> <Gold.PLP.Chemscore.Metal>
0.0000

> <Gold.Chemscore.Hbonds>
donor molecule, donor type, donor heavy atom, donor atom, acceptor molecule, acceptor atom, score
      L1  H    10    31       P1  7921  1.00
      L1  H    12    48       P1  7948  2.00
      P1  H 10785 10796       L1     5  0.66
      L1  C     6    27       P1 10186  1.00

> <Gold.PLP.Chemscore.Internal.Correction>
0.1002

> <Gold.Rescore>
     Score         DG    S(hbond)    S(metal)    S(lipo)     H(rot)  DE(clash)    DE(int)     intcor
     18.01     -18.87       2.71        0.00      81.95       2.05       0.13       0.73       ----

> <Gold.Chemscore.Fitness>
18.0058

> <Gold.Chemscore.DG>
-18.8696

> <Gold.Chemscore.ZeroCoef>
-5.4800

> <Gold.Chemscore.Hbond>
2.7130

> <Gold.Chemscore.Metal>
0.0000

> <Gold.Chemscore.Lipo>
81.9467

> <Gold.Chemscore.Internal_Hbond>
0.0000

> <Gold.Chemscore.DEClash>
0.1329

> <Gold.Chemscore.DEInternal>
0.7309

> <Gold.Chemscore.Rot>
2.0546

> <Gold.Chemscore.Internal.Correction>
   9.000000E+99

> <Gold.Chemscore.Hbonds>
donor molecule, donor type, donor heavy atom, donor atom, acceptor molecule, acceptor atom, score
      L1  H    10    31       P1  7921  0.98
      L1  H    12    48       P1  7948  1.00
      P1  H 10785 10796       L1     5  0.63

> <Gold.Chemscore.Hbond.Weighted>
-9.0615

> <Gold.Chemscore.Metal.Weighted>
-0.0000

> <Gold.Chemscore.Lipo.Weighted>
-9.5878

> <Gold.Chemscore.Internal_Hbond.Weighted>
0.0000

> <Gold.Chemscore.DEClash.Weighted>
0.1329

> <Gold.Chemscore.DEInternal.Weighted>
0.7309

> <Gold.Chemscore.Rot.Weighted>
5.2597

> <Gold.Chemscore.Internal.Correction.Weighted>
   9.000000E+99

> <Gold.Protein.RotatedTorsions>
[ 6907 6896 6895 6894 ] final -149.27 input  -60.11 | X-H torsion
[ 7974 7965 7964 7962 ] final    1.61 input  175.53 | X-H torsion
[ 8008 7997 7996 7995 ] final  100.61 input   59.86 | X-H torsion
[ 10167 10162 10161 10158 ] final  -56.45 input  -65.29 | X-H torsion
[ 10718 10713 10712 10709 ] final  172.31 input   66.30 | X-H torsion
[ 10763 10752 10751 10750 ] final  -67.11 input  -60.55 | X-H torsion
[ 11005 11000 10999 10996 ] final  -88.83 input  -57.11 | X-H torsion

> <Gold.Protein.ActiveResidues>
 VAL166  LYS551  ARG553  GLY616  TRP617  ASP618  TYR619  PRO620  LYS621  CYS622 
 ASP623  PHE694  ASN695  SER759  ASP760  ASP761  ALA762  ILE779  LEU786  VAL792 
 PHE793  MET794  SER795  GLU796  ALA797  LYS798  CYS799  TRP800  GLU811  SER814 

> <Gold.Protein.RotatedAtoms>
  151.1818  133.4720  159.2593 H   0  0  0  0  0  0  0  0  0  0  0  0  # atno 6907 bound_to 6896
  151.1252  135.0100  159.8567 H   0  0  0  0  0  0  0  0  0  0  0  0  # atno 6908 bound_to 6896
  152.5458  134.1726  159.8656 H   0  0  0  0  0  0  0  0  0  0  0  0  # atno 6909 bound_to 6896
  146.2441  140.0961  142.8350 H   0  0  0  0  0  0  0  0  0  0  0  0  # atno 7974 bound_to 7965
  156.1220  140.3210  155.8222 H   0  0  0  0  0  0  0  0  0  0  0  0  # atno 8008 bound_to 7997
  155.4488  140.0531  157.3020 H   0  0  0  0  0  0  0  0  0  0  0  0  # atno 8009 bound_to 7997
  154.4834  140.2062  155.9724 H   0  0  0  0  0  0  0  0  0  0  0  0  # atno 8010 bound_to 7997
  140.6316  143.2462  151.5225 H   0  0  0  0  0  0  0  0  0  0  0  0  # atno 10167 bound_to 10162
  156.9808  131.0118  151.2882 H   0  0  0  0  0  0  0  0  0  0  0  0  # atno 10718 bound_to 10713
  154.3696  135.6098  153.5733 H   0  0  0  0  0  0  0  0  0  0  0  0  # atno 10763 bound_to 10752
  152.9790  135.5835  154.4537 H   0  0  0  0  0  0  0  0  0  0  0  0  # atno 10764 bound_to 10752
  154.4289  135.2847  155.1903 H   0  0  0  0  0  0  0  0  0  0  0  0  # atno 10765 bound_to 10752
  141.1595  133.7593  156.9508 H   0  0  0  0  0  0  0  0  0  0  0  0  # atno 11005 bound_to 11000
  145.0608  140.9086  143.4939 LP  0  0  0  0  0  0  0  0  0  0  0  0  # atno 17320 bound_to 7965
  145.1076  139.2779  143.5654 LP  0  0  0  0  0  0  0  0  0  0  0  0  # atno 17321 bound_to 7965
  139.5530  144.2347  152.1564 LP  0  0  0  0  0  0  0  0  0  0  0  0  # atno 17342 bound_to 10162
  140.1592  144.5042  150.6642 LP  0  0  0  0  0  0  0  0  0  0  0  0  # atno 17343 bound_to 10162
  157.5527  130.8193  149.8166 LP  0  0  0  0  0  0  0  0  0  0  0  0  # atno 17370 bound_to 10713
  156.0245  130.3784  150.1863 LP  0  0  0  0  0  0  0  0  0  0  0  0  # atno 17371 bound_to 10713
  140.1258  134.9387  157.2268 LP  0  0  0  0  0  0  0  0  0  0  0  0  # atno 17394 bound_to 11000
  140.3014  134.3127  155.7289 LP  0  0  0  0  0  0  0  0  0  0  0  0  # atno 17395 bound_to 11000

$$$$
