AV-unprocessed.smi:1135|AV-procd|sdf|4858|dock6
  -GOLD-   22720 3433D 1   1.00000     0.00000
 Structure written by MMmdl.
 45 46  0  0  0  0  0  0  0  0  1 V2000
  150.3555  141.9015  157.3520 C   0  0  0  0  0  0  0  0  0  0  0  0
  149.3199  141.1551  156.4992 C   0  0  2  0  0  0  0  0  0  0  0  0
  149.5205  141.4344  155.0008 C   0  0  0  0  0  0  0  0  0  0  0  0
  148.4794  140.6975  154.1398 C   0  0  0  0  0  0  0  0  0  0  0  0
  147.0109  140.9951  154.5366 C   0  0  1  0  0  0  0  0  0  0  0  0
  146.6234  142.4346  154.1192 C   0  0  0  0  0  0  0  0  0  0  0  0
  146.1901  140.0258  153.7978 N   0  0  0  0  0  0  0  0  0  0  0  0
  146.2740  138.6847  153.8024 C   0  0  0  0  0  0  0  0  0  0  0  0
  147.0888  138.0351  154.4578 O   0  0  0  0  0  0  0  0  0  0  0  0
  145.3509  138.1322  153.0033 N   0  0  0  0  0  0  0  0  0  0  0  0
  145.1656  136.6986  152.8100 C   0  0  0  0  0  0  0  0  0  0  0  0
  145.7254  136.2371  151.4543 C   0  0  0  0  0  0  0  0  0  0  0  0
  145.5136  134.7535  151.2180 C   0  0  0  0  0  0  0  0  0  0  0  0
  144.2110  134.2139  151.1540 C   0  0  0  0  0  0  0  0  0  0  0  0
  144.0681  132.8299  150.9357 C   0  0  0  0  0  0  0  0  0  0  0  0
  145.2268  132.0426  150.7930 C   0  0  0  0  0  0  0  0  0  0  0  0
  146.4824  132.6772  150.8752 C   0  0  0  0  0  0  0  0  0  0  0  0
  146.6307  134.0037  151.0822 N   0  0  0  0  0  0  0  0  0  0  0  0
  146.8376  140.7724  156.0639 C   0  0  0  0  0  0  0  0  0  0  0  0
  147.8836  141.5132  156.9154 C   0  0  0  0  0  0  0  0  0  0  0  0
  150.2649  142.9814  157.2298 H   0  0  0  0  0  0  0  0  0  0  0  0
  151.3708  141.6190  157.0724 H   0  0  0  0  0  0  0  0  0  0  0  0
  150.2305  141.6749  158.4111 H   0  0  0  0  0  0  0  0  0  0  0  0
  149.4634  140.0864  156.6664 H   0  0  0  0  0  0  0  0  0  0  0  0
  149.4692  142.5069  154.8115 H   0  0  0  0  0  0  0  0  0  0  0  0
  150.5213  141.1235  154.6989 H   0  0  0  0  0  0  0  0  0  0  0  0
  148.6408  140.9385  153.0881 H   0  0  0  0  0  0  0  0  0  0  0  0
  148.6687  139.6264  154.2312 H   0  0  0  0  0  0  0  0  0  0  0  0
  147.2672  143.1819  154.5810 H   0  0  0  0  0  0  0  0  0  0  0  0
  145.6025  142.6834  154.4084 H   0  0  0  0  0  0  0  0  0  0  0  0
  146.6995  142.5664  153.0393 H   0  0  0  0  0  0  0  0  0  0  0  0
  145.4727  140.4286  153.2128 H   0  0  0  0  0  0  0  0  0  0  0  0
  144.7253  138.7450  152.5010 H   0  0  0  0  0  0  0  0  0  0  0  0
  145.6773  136.1799  153.6212 H   0  0  0  0  0  0  0  0  0  0  0  0
  144.1084  136.4409  152.8944 H   0  0  0  0  0  0  0  0  0  0  0  0
  145.2556  136.7956  150.6436 H   0  0  0  0  0  0  0  0  0  0  0  0
  146.7929  136.4549  151.3976 H   0  0  0  0  0  0  0  0  0  0  0  0
  143.3412  134.8440  151.2698 H   0  0  0  0  0  0  0  0  0  0  0  0
  143.0876  132.3805  150.8802 H   0  0  0  0  0  0  0  0  0  0  0  0
  145.1550  130.9780  150.6259 H   0  0  0  0  0  0  0  0  0  0  0  0
  147.3916  132.1036  150.7728 H   0  0  0  0  0  0  0  0  0  0  0  0
  145.8411  141.0752  156.3865 H   0  0  0  0  0  0  0  0  0  0  0  0
  146.9123  139.7061  156.2839 H   0  0  0  0  0  0  0  0  0  0  0  0
  147.7312  141.2662  157.9664 H   0  0  0  0  0  0  0  0  0  0  0  0
  147.7303  142.5895  156.8334 H   0  0  0  0  0  0  0  0  0  0  0  0
  1  2  1  0  0  0  0
  1 21  1  0  0  0  0
  1 22  1  0  0  0  0
  1 23  1  0  0  0  0
  2 20  1  0  0  0  0
  2  3  1  0  0  0  0
  2 24  1  0  0  0  0
  3  4  1  0  0  0  0
  3 25  1  0  0  0  0
  3 26  1  0  0  0  0
  4  5  1  0  0  0  0
  4 27  1  0  0  0  0
  4 28  1  0  0  0  0
  5  6  1  0  0  0  0
  5  7  1  0  0  0  0
  5 19  1  0  0  0  0
  6 29  1  0  0  0  0
  6 30  1  0  0  0  0
  6 31  1  0  0  0  0
  7  8  1  0  0  0  0
  7 32  1  0  0  0  0
  8  9  2  0  0  0  0
  8 10  1  0  0  0  0
 10 11  1  0  0  0  0
 10 33  1  0  0  0  0
 11 12  1  0  0  0  0
 11 34  1  0  0  0  0
 11 35  1  0  0  0  0
 12 13  1  0  0  0  0
 12 36  1  0  0  0  0
 12 37  1  0  0  0  0
 13 18  1  0  0  0  0
 13 14  2  0  0  0  0
 14 15  1  0  0  0  0
 14 38  1  0  0  0  0
 15 16  2  0  0  0  0
 15 39  1  0  0  0  0
 16 17  1  0  0  0  0
 16 40  1  0  0  0  0
 17 18  2  0  0  0  0
 17 41  1  0  0  0  0
 19 20  1  0  0  0  0
 19 42  1  0  0  0  0
 19 43  1  0  0  0  0
 20 44  1  0  0  0  0
 20 45  1  0  0  0  0
M  END
> <s_m_source_file>
AV-unprocessed.smi

> <i_m_source_file_index>
1135

> <i_lp_mmshare_version>
43012

> <i_f3d_flags>
0

> <s_epik_input>
W0NIMl0xW0NIMl1bQ0BIXShbQ0gzXSlbQ0gyXVtDSDJdW0NAQF0xKFtDSDNdKVtOSF1DKD1PKVtOSF1bQ0gyXVtDSDJdYzJbY0hdW2NIXVtjSF1bY0hdbjI=

> <s_epik_cmdline>
J2VwaWtfcHl0aG9uJywgJy1waCcsICc3LjAnLCAnLXRuJywgJzgnLCAnLW1hJywgJzIwMCcsICctbWV0YWxfYmluZGluZycsICctaW1hZScsICc8aW5maWxlLm1hZT4nLCAnLW9tYWUnLCAnPG91dGZpbGUubWFlPic=

> <r_epik_Ionization_Penalty>
0.0448679

> <r_epik_Ionization_Penalty_Charging>
0

> <r_epik_Ionization_Penalty_Neutral>
0.0448679

> <r_epik_State_Penalty>
0.0379931

> <r_epik_Charging_Adjusted_Penalty>
0.0379931

> <i_epik_Tot_Q>
0

> <i_epik_Tot_abs_Q>
0

> <r_epik_Metal_State_Penalty>
0.0353093

> <b_epik_Metal_Only>
0

> <s_lp_Force_Field>
OPLS_2005

> <r_lp_Energy>
8.69074

> <b_lp_Chiralities_Consistent>
1

> <s_lp_Variant>
AV-unprocessed.smi:1135-1

> <Gold.Version>
5.8.1

> <Gold.Id.Protein>
6NUR|6NUR_protein|mol2

> <Gold.PLP.Fitness>
44.6173

> <Gold.PLP.PLP>
-35.8700

> <Gold.PLP.part.hbond>
-2.0000

> <Gold.PLP.part.metal>
0.0000

> <Gold.PLP.part.buried>
-5.5094

> <Gold.PLP.part.nonpolar>
-29.2137

> <Gold.PLP.part.repulsive>
0.3249

> <Gold.PLP.ligand.clash>
0.0000

> <Gold.PLP.ligand.torsion>
0.1240

> <Gold.PLP.Chemscore.Hbond>
1.9920

> <Gold.PLP.Chemscore.CHOScore>
1.0000

> <Gold.PLP.Chemscore.Metal>
0.0000

> <Gold.Chemscore.Hbonds>
donor molecule, donor type, donor heavy atom, donor atom, acceptor molecule, acceptor atom, score
      L1  H     7    32       P1 10175  1.00
      L1  H    10    33       P1 10175  0.98
      L1  C    17    41       P1 10747  1.00

> <Gold.PLP.Chemscore.Internal.Correction>
0.0193

> <Gold.Rescore>
     Score         DG    S(hbond)    S(metal)    S(lipo)     H(rot)  DE(clash)    DE(int)     intcor
     18.56     -18.70       1.95        0.00      88.35       1.42       0.02       0.12       ----

> <Gold.Chemscore.Fitness>
18.5611

> <Gold.Chemscore.DG>
-18.7034

> <Gold.Chemscore.ZeroCoef>
-5.4800

> <Gold.Chemscore.Hbond>
1.9536

> <Gold.Chemscore.Metal>
0.0000

> <Gold.Chemscore.Lipo>
88.3480

> <Gold.Chemscore.Internal_Hbond>
0.0000

> <Gold.Chemscore.DEClash>
0.0222

> <Gold.Chemscore.DEInternal>
0.1200

> <Gold.Chemscore.Rot>
1.4213

> <Gold.Chemscore.Internal.Correction>
   9.000000E+99

> <Gold.Chemscore.Hbonds>
donor molecule, donor type, donor heavy atom, donor atom, acceptor molecule, acceptor atom, score
      L1  H     7    32       P1 10175  0.92
      L1  H    10    33       P1 10175  0.90

> <Gold.Chemscore.Hbond.Weighted>
-6.5251

> <Gold.Chemscore.Metal.Weighted>
-0.0000

> <Gold.Chemscore.Lipo.Weighted>
-10.3367

> <Gold.Chemscore.Internal_Hbond.Weighted>
0.0000

> <Gold.Chemscore.DEClash.Weighted>
0.0222

> <Gold.Chemscore.DEInternal.Weighted>
0.1200

> <Gold.Chemscore.Rot.Weighted>
3.6385

> <Gold.Chemscore.Internal.Correction.Weighted>
   9.000000E+99

> <Gold.Protein.RotatedTorsions>
[ 6907 6896 6895 6894 ] final   50.34 input  -60.11 | X-H torsion
[ 7974 7965 7964 7962 ] final -165.06 input  175.53 | X-H torsion
[ 8008 7997 7996 7995 ] final  139.46 input   59.86 | X-H torsion
[ 10167 10162 10161 10158 ] final  -55.71 input  -65.29 | X-H torsion
[ 10718 10713 10712 10709 ] final  -53.16 input   66.30 | X-H torsion
[ 10763 10752 10751 10750 ] final   37.89 input  -60.55 | X-H torsion
[ 11005 11000 10999 10996 ] final   82.01 input  -57.11 | X-H torsion

> <Gold.Protein.ActiveResidues>
 VAL166  LYS551  ARG553  GLY616  TRP617  ASP618  TYR619  PRO620  LYS621  CYS622 
 ASP623  PHE694  ASN695  SER759  ASP760  ASP761  ALA762  ILE779  LEU786  VAL792 
 PHE793  MET794  SER795  GLU796  ALA797  LYS798  CYS799  TRP800  GLU811  SER814 

> <Gold.Protein.RotatedAtoms>
  152.3007  134.7614  160.0358 H   0  0  0  0  0  0  0  0  0  0  0  0  # atno 6907 bound_to 6896
  151.8129  133.3379  159.3569 H   0  0  0  0  0  0  0  0  0  0  0  0  # atno 6908 bound_to 6896
  150.7272  134.5577  159.5870 H   0  0  0  0  0  0  0  0  0  0  0  0  # atno 6909 bound_to 6896
  144.7280  140.2869  143.6227 H   0  0  0  0  0  0  0  0  0  0  0  0  # atno 7974 bound_to 7965
  156.2989  140.2367  156.4241 H   0  0  0  0  0  0  0  0  0  0  0  0  # atno 8008 bound_to 7997
  154.8329  140.0432  157.1509 H   0  0  0  0  0  0  0  0  0  0  0  0  # atno 8009 bound_to 7997
  154.9188  140.3000  155.5231 H   0  0  0  0  0  0  0  0  0  0  0  0  # atno 8010 bound_to 7997
  140.6359  143.2482  151.5120 H   0  0  0  0  0  0  0  0  0  0  0  0  # atno 10167 bound_to 10162
  156.1558  130.4150  149.9871 H   0  0  0  0  0  0  0  0  0  0  0  0  # atno 10718 bound_to 10713
  153.0020  135.6265  154.2218 H   0  0  0  0  0  0  0  0  0  0  0  0  # atno 10763 bound_to 10752
  154.1960  135.2806  155.3008 H   0  0  0  0  0  0  0  0  0  0  0  0  # atno 10764 bound_to 10752
  154.5721  135.5673  153.7164 H   0  0  0  0  0  0  0  0  0  0  0  0  # atno 10765 bound_to 10752
  139.9078  134.8040  156.2118 H   0  0  0  0  0  0  0  0  0  0  0  0  # atno 11005 bound_to 11000
  145.7894  139.1921  143.2112 LP  0  0  0  0  0  0  0  0  0  0  0  0  # atno 17320 bound_to 7965
  146.0769  140.7808  142.9661 LP  0  0  0  0  0  0  0  0  0  0  0  0  # atno 17321 bound_to 7965
  139.5569  144.2252  152.1628 LP  0  0  0  0  0  0  0  0  0  0  0  0  # atno 17342 bound_to 10162
  140.1509  144.5116  150.6688 LP  0  0  0  0  0  0  0  0  0  0  0  0  # atno 17343 bound_to 10162
  156.7715  130.9188  151.3644 LP  0  0  0  0  0  0  0  0  0  0  0  0  # atno 17370 bound_to 10713
  157.6694  130.9037  150.0006 LP  0  0  0  0  0  0  0  0  0  0  0  0  # atno 17371 bound_to 10713
  141.0461  133.6913  156.1685 LP  0  0  0  0  0  0  0  0  0  0  0  0  # atno 17394 bound_to 11000
  140.6882  134.4694  157.5589 LP  0  0  0  0  0  0  0  0  0  0  0  0  # atno 17395 bound_to 11000

$$$$
