AV-unprocessed.smi:218|AV-procd|sdf|1666|dock10
  -GOLD-   2262020 73D 1   1.00000     0.00000
 Structure written by MMmdl.
 54 57  0  0  0  0  0  0  0  0  1 V2000
  152.1020  142.1545  159.7879 C   0  0  0  0  0  0  0  0  0  0  0  0
  151.8467  143.1300  158.6328 C   0  0  0  0  0  0  0  0  0  0  0  0
  151.5751  144.5514  159.1547 C   0  0  0  0  0  0  0  0  0  0  0  0
  150.7119  142.6382  157.9166 O   0  0  0  0  0  0  0  0  0  0  0  0
  150.8039  141.4679  157.1875 C   0  0  0  0  0  0  0  0  0  0  0  0
  149.7223  141.1126  156.3555 C   0  0  0  0  0  0  0  0  0  0  0  0
  149.7939  139.9130  155.6174 C   0  0  0  0  0  0  0  0  0  0  0  0
  148.6459  139.4766  154.7238 C   0  0  0  0  0  0  0  0  0  0  0  0
  148.0547  138.1870  155.0645 N   0  0  0  0  0  0  0  0  0  0  0  0
  147.1250  137.6171  154.2661 C   0  0  0  0  0  0  0  0  0  0  0  0
  146.4116  138.3571  153.3776 N   0  0  0  0  0  0  0  0  0  0  0  0
  145.5091  137.7669  152.5889 C   0  0  0  0  0  0  0  0  0  0  0  0
  145.1776  136.4760  152.5219 N   0  0  0  0  0  0  0  0  0  0  0  0
  145.8924  135.7265  153.4100 C   0  0  0  0  0  0  0  0  0  0  0  0
  146.8759  136.2206  154.3120 C   0  0  0  0  0  0  0  0  0  0  0  0
  147.3962  135.1732  155.0609 N   0  0  0  0  0  0  0  0  0  0  0  0
  146.7593  134.1221  154.6189 C   0  0  0  0  0  0  0  0  0  0  0  0
  145.8375  134.3638  153.6245 N   0  0  0  0  0  0  0  0  0  0  0  0
  144.9702  133.3673  152.9262 C   0  0  2  0  0  0  0  0  0  0  0  0
  145.7749  132.6015  152.0875 O   0  0  0  0  0  0  0  0  0  0  0  0
  145.0350  132.2625  150.9241 C   0  0  2  0  0  0  0  0  0  0  0  0
  145.9715  131.8302  149.7825 C   0  0  0  0  0  0  0  0  0  0  0  0
  147.1135  132.6590  149.7549 O   0  0  0  0  0  0  0  0  0  0  0  0
  144.1979  133.5238  150.6583 C   0  0  2  0  0  0  0  0  0  0  0  0
  144.9153  134.4774  149.8972 O   0  0  0  0  0  0  0  0  0  0  0  0
  143.9093  134.0656  152.0568 C   0  0  1  0  0  0  0  0  0  0  0  0
  142.6044  133.6861  152.4470 O   0  0  0  0  0  0  0  0  0  0  0  0
  150.9484  139.1146  155.7400 C   0  0  0  0  0  0  0  0  0  0  0  0
  151.9797  139.5541  156.5920 C   0  0  0  0  0  0  0  0  0  0  0  0
  151.9151  140.6989  157.3047 N   0  0  0  0  0  0  0  0  0  0  0  0
  144.5505  132.7485  153.7210 H   0  0  0  0  0  0  0  0  0  0  0  0
  144.3510  131.4497  151.1775 H   0  0  0  0  0  0  0  0  0  0  0  0
  143.2883  133.2849  150.1048 H   0  0  0  0  0  0  0  0  0  0  0  0
  143.9994  135.1522  152.1117 H   0  0  0  0  0  0  0  0  0  0  0  0
  152.9644  142.4630  160.3796 H   0  0  0  0  0  0  0  0  0  0  0  0
  152.3005  141.1503  159.4128 H   0  0  0  0  0  0  0  0  0  0  0  0
  151.2415  142.0967  160.4552 H   0  0  0  0  0  0  0  0  0  0  0  0
  152.7400  143.1269  158.0063 H   0  0  0  0  0  0  0  0  0  0  0  0
  152.4219  144.9224  159.7326 H   0  0  0  0  0  0  0  0  0  0  0  0
  150.6964  144.5712  159.8003 H   0  0  0  0  0  0  0  0  0  0  0  0
  151.4023  145.2554  158.3414 H   0  0  0  0  0  0  0  0  0  0  0  0
  148.8518  141.7488  156.2912 H   0  0  0  0  0  0  0  0  0  0  0  0
  147.8682  140.2416  154.7159 H   0  0  0  0  0  0  0  0  0  0  0  0
  149.0199  139.4145  153.7020 H   0  0  0  0  0  0  0  0  0  0  0  0
  148.3624  137.7752  155.9337 H   0  0  0  0  0  0  0  0  0  0  0  0
  144.9795  138.4217  151.9126 H   0  0  0  0  0  0  0  0  0  0  0  0
  146.9474  133.1324  155.0088 H   0  0  0  0  0  0  0  0  0  0  0  0
  146.3155  130.8083  149.9449 H   0  0  0  0  0  0  0  0  0  0  0  0
  145.4628  131.8553  148.8180 H   0  0  0  0  0  0  0  0  0  0  0  0
  147.8732  132.1254  149.9333 H   0  0  0  0  0  0  0  0  0  0  0  0
  145.3307  134.0353  149.1729 H   0  0  0  0  0  0  0  0  0  0  0  0
  142.6681  132.9333  153.0145 H   0  0  0  0  0  0  0  0  0  0  0  0
  151.0456  138.1880  155.1938 H   0  0  0  0  0  0  0  0  0  0  0  0
  152.8793  138.9679  156.7083 H   0  0  0  0  0  0  0  0  0  0  0  0
  1  2  1  0  0  0  0
  1 35  1  0  0  0  0
  1 36  1  0  0  0  0
  1 37  1  0  0  0  0
  2  3  1  0  0  0  0
  2  4  1  0  0  0  0
  2 38  1  0  0  0  0
  3 39  1  0  0  0  0
  3 40  1  0  0  0  0
  3 41  1  0  0  0  0
  4  5  1  0  0  0  0
  5 30  1  0  0  0  0
  5  6  2  0  0  0  0
  6  7  1  0  0  0  0
  6 42  1  0  0  0  0
  7  8  1  0  0  0  0
  7 28  2  0  0  0  0
  8  9  1  0  0  0  0
  8 43  1  0  0  0  0
  8 44  1  0  0  0  0
  9 10  1  0  0  0  0
  9 45  1  0  0  0  0
 10 15  1  0  0  0  0
 10 11  2  0  0  0  0
 11 12  1  0  0  0  0
 12 13  2  0  0  0  0
 12 46  1  0  0  0  0
 13 14  1  0  0  0  0
 14 18  1  0  0  0  0
 14 15  2  0  0  0  0
 15 16  1  0  0  0  0
 16 17  2  0  0  0  0
 17 18  1  0  0  0  0
 17 47  1  0  0  0  0
 18 19  1  0  0  0  0
 19 31  1  0  0  0  0
 19 26  1  0  0  0  0
 19 20  1  0  0  0  0
 20 21  1  0  0  0  0
 21 32  1  0  0  0  0
 21 22  1  0  0  0  0
 21 24  1  0  0  0  0
 22 23  1  0  0  0  0
 22 48  1  0  0  0  0
 22 49  1  0  0  0  0
 23 50  1  0  0  0  0
 24 33  1  0  0  0  0
 24 25  1  0  0  0  0
 24 26  1  0  0  0  0
 25 51  1  0  0  0  0
 26 34  1  0  0  0  0
 26 27  1  0  0  0  0
 27 52  1  0  0  0  0
 28 29  1  0  0  0  0
 28 53  1  0  0  0  0
 29 30  2  0  0  0  0
 29 54  1  0  0  0  0
M  END
> <s_m_source_file>
AV-unprocessed.smi

> <i_m_source_file_index>
218

> <i_lp_mmshare_version>
43012

> <i_f3d_flags>
0

> <s_epik_input>
W0NIM11bQ0hdKFtDSDNdKU9jMVtjSF1jKFtjSF1bY0hdbjEpW0NIMl1bTkhdYyhuW2NIXW4yKWMoYzIzKW5bY0hdbjNbQ0BASF00T1tDQEhdKFtDSDJdW09IXSlbQ0BASF0oW09IXSlbQ0BIXTRbT0hd

> <s_epik_cmdline>
J2VwaWtfcHl0aG9uJywgJy1waCcsICc3LjAnLCAnLXRuJywgJzgnLCAnLW1hJywgJzIwMCcsICctbWV0YWxfYmluZGluZycsICctaW1hZScsICc8aW5maWxlLm1hZT4nLCAnLW9tYWUnLCAnPG91dGZpbGUubWFlPic=

> <r_lp_tautomer_probability>
1

> <r_epik_Ionization_Penalty>
0.00457014

> <r_epik_Ionization_Penalty_Charging>
0

> <r_epik_Ionization_Penalty_Neutral>
0.00457014

> <r_epik_State_Penalty>
-0

> <r_epik_Charging_Adjusted_Penalty>
0

> <i_epik_Tot_Q>
0

> <i_epik_Tot_abs_Q>
0

> <r_epik_Metal_State_Penalty>
-0

> <b_epik_Metal_Only>
0

> <s_epik_Chemistry_Notes>
This compound contains an acetal/aminal-like group ( X-CH(R)-Y where X, Y are N, S, or O) that may be acid/base labile, releasing an aldehyde.

> <s_lp_Force_Field>
OPLS_2005

> <r_lp_Energy>
40.0122

> <b_lp_Chiralities_Consistent>
1

> <s_lp_Variant>
AV-unprocessed.smi:218-5

> <Gold.Version>
5.8.1

> <Gold.Id.Protein>
6NUR|6NUR_protein|mol2

> <Gold.PLP.Fitness>
53.6818

> <Gold.PLP.PLP>
-41.0835

> <Gold.PLP.part.hbond>
-5.6050

> <Gold.PLP.part.metal>
0.0000

> <Gold.PLP.part.buried>
0.6687

> <Gold.PLP.part.nonpolar>
-36.0250

> <Gold.PLP.part.repulsive>
0.6992

> <Gold.PLP.ligand.clash>
0.0000

> <Gold.PLP.ligand.torsion>
0.6144

> <Gold.PLP.Chemscore.Hbond>
2.5920

> <Gold.PLP.Chemscore.CHOScore>
1.9952

> <Gold.PLP.Chemscore.Metal>
0.0000

> <Gold.Chemscore.Hbonds>
donor molecule, donor type, donor heavy atom, donor atom, acceptor molecule, acceptor atom, score
      L1  H    23    50       P1 10747  1.00
      L1  H    25    51       P1  7921  0.58
      L1  H    27    52       P1 10957  0.83
      L1  C    12    46       P1 10171  1.00
      L1  C    12    46       P1 10175  0.98

> <Gold.PLP.Chemscore.Internal.Correction>
0.0654

> <Gold.Rescore>
     Score         DG    S(hbond)    S(metal)    S(lipo)     H(rot)  DE(clash)    DE(int)     intcor
      7.51     -11.28       2.15        0.00      95.49       4.90       0.53       3.24       ----

> <Gold.Chemscore.Fitness>
7.5072

> <Gold.Chemscore.DG>
-11.2753

> <Gold.Chemscore.ZeroCoef>
-5.4800

> <Gold.Chemscore.Hbond>
2.1480

> <Gold.Chemscore.Metal>
0.0000

> <Gold.Chemscore.Lipo>
95.4927

> <Gold.Chemscore.Internal_Hbond>
0.0000

> <Gold.Chemscore.DEClash>
0.5312

> <Gold.Chemscore.DEInternal>
3.2369

> <Gold.Chemscore.Rot>
4.9029

> <Gold.Chemscore.Internal.Correction>
   9.000000E+99

> <Gold.Chemscore.Hbonds>
donor molecule, donor type, donor heavy atom, donor atom, acceptor molecule, acceptor atom, score
      L1  H    23    50       P1 10747  1.00
      L1  H    25    51       P1  7921  0.49
      L1  H    27    52       P1 10957  0.36

> <Gold.Chemscore.Hbond.Weighted>
-7.1742

> <Gold.Chemscore.Metal.Weighted>
-0.0000

> <Gold.Chemscore.Lipo.Weighted>
-11.1727

> <Gold.Chemscore.Internal_Hbond.Weighted>
0.0000

> <Gold.Chemscore.DEClash.Weighted>
0.5312

> <Gold.Chemscore.DEInternal.Weighted>
3.2369

> <Gold.Chemscore.Rot.Weighted>
12.5515

> <Gold.Chemscore.Internal.Correction.Weighted>
   9.000000E+99

> <Gold.Protein.RotatedTorsions>
[ 6907 6896 6895 6894 ] final -111.16 input  -60.11 | X-H torsion
[ 7974 7965 7964 7962 ] final   68.97 input  175.53 | X-H torsion
[ 8008 7997 7996 7995 ] final  -45.06 input   59.86 | X-H torsion
[ 10167 10162 10161 10158 ] final   20.43 input  -65.29 | X-H torsion
[ 10718 10713 10712 10709 ] final   26.20 input   66.30 | X-H torsion
[ 10763 10752 10751 10750 ] final  158.68 input  -60.55 | X-H torsion
[ 11005 11000 10999 10996 ] final  119.99 input  -57.11 | X-H torsion

> <Gold.Protein.ActiveResidues>
 VAL166  LYS551  ARG553  GLY616  TRP617  ASP618  TYR619  PRO620  LYS621  CYS622 
 ASP623  PHE694  ASN695  SER759  ASP760  ASP761  ALA762  ILE779  LEU786  VAL792 
 PHE793  MET794  SER795  GLU796  ALA797  LYS798  CYS799  TRP800  GLU811  SER814 

> <Gold.Protein.RotatedAtoms>
  150.7672  133.9276  159.3416 H   0  0  0  0  0  0  0  0  0  0  0  0  # atno 6907 bound_to 6896
  151.7171  135.0899  160.0287 H   0  0  0  0  0  0  0  0  0  0  0  0  # atno 6908 bound_to 6896
  152.3673  133.6335  159.6096 H   0  0  0  0  0  0  0  0  0  0  0  0  # atno 6909 bound_to 6896
  145.7961  139.2958  143.1182 H   0  0  0  0  0  0  0  0  0  0  0  0  # atno 7974 bound_to 7965
  154.3999  140.1406  156.3785 H   0  0  0  0  0  0  0  0  0  0  0  0  # atno 8008 bound_to 7997
  155.8026  140.3475  155.5391 H   0  0  0  0  0  0  0  0  0  0  0  0  # atno 8009 bound_to 7997
  155.8468  140.0935  157.1690 H   0  0  0  0  0  0  0  0  0  0  0  0  # atno 8010 bound_to 7997
  140.5504  143.9519  150.6575 H   0  0  0  0  0  0  0  0  0  0  0  0  # atno 10167 bound_to 10162
  157.2036  130.6901  149.6198 H   0  0  0  0  0  0  0  0  0  0  0  0  # atno 10718 bound_to 10713
  154.2198  135.2782  155.2928 H   0  0  0  0  0  0  0  0  0  0  0  0  # atno 10763 bound_to 10752
  154.5711  135.5618  153.7099 H   0  0  0  0  0  0  0  0  0  0  0  0  # atno 10764 bound_to 10752
  153.0044  135.6321  154.2338 H   0  0  0  0  0  0  0  0  0  0  0  0  # atno 10765 bound_to 10752
  139.9168  134.9632  156.7739 H   0  0  0  0  0  0  0  0  0  0  0  0  # atno 11005 bound_to 11000
  145.9926  140.8589  143.0058 LP  0  0  0  0  0  0  0  0  0  0  0  0  # atno 17320 bound_to 7965
  144.6775  140.2238  143.7363 LP  0  0  0  0  0  0  0  0  0  0  0  0  # atno 17321 bound_to 7965
  140.2943  143.3303  152.1033 LP  0  0  0  0  0  0  0  0  0  0  0  0  # atno 17342 bound_to 10162
  139.5025  144.6736  151.6183 LP  0  0  0  0  0  0  0  0  0  0  0  0  # atno 17343 bound_to 10162
  155.9698  130.4574  150.5962 LP  0  0  0  0  0  0  0  0  0  0  0  0  # atno 17370 bound_to 10713
  157.3743  131.0770  151.1531 LP  0  0  0  0  0  0  0  0  0  0  0  0  # atno 17371 bound_to 10713
  140.6598  133.9655  155.7799 LP  0  0  0  0  0  0  0  0  0  0  0  0  # atno 17394 bound_to 11000
  141.0651  134.0289  157.3605 LP  0  0  0  0  0  0  0  0  0  0  0  0  # atno 17395 bound_to 11000

$$$$
