AV-unprocessed.smi:2141|AV-procd|sdf|8719|dock5
  -GOLD-   2272011483D 1   1.00000     0.00000
 Structure written by MMmdl.
 41 42  0  0  0  0  0  0  0  0  2 V2000
  152.4075  131.6277  156.8771 C   0  0  0  0  0  0  0  0  0  0  0  0
  150.5859  131.8805  156.7434 S   0  0  0  0  0  0  0  0  0  0  0  0
  150.3041  131.8469  155.3004 O   0  0  0  0  0  0  0  0  0  0  0  0
  149.9630  130.8296  157.5660 O   0  0  0  0  0  0  0  0  0  0  0  0
  150.4026  133.3827  157.3402 N   0  5  0  0  0  0  0  0  0  0  0  0
  149.4685  134.3248  156.7395 C   0  0  0  0  0  0  0  0  0  0  0  0
  150.0139  134.8025  155.3757 C   0  0  0  0  0  0  0  0  0  0  0  0
  150.6713  136.1906  155.4276 C   0  0  0  0  0  0  0  0  0  0  0  0
  151.3955  136.5635  154.5024 O   0  0  0  0  0  0  0  0  0  0  0  0
  150.4527  136.8991  156.5530 N   0  0  0  0  0  0  0  0  0  0  0  0
  150.8935  138.2092  156.8828 C   0  0  0  0  0  0  0  0  0  0  0  0
  151.3438  139.1631  155.9409 C   0  0  0  0  0  0  0  0  0  0  0  0
  151.7343  140.4378  156.3941 C   0  0  0  0  0  0  0  0  0  0  0  0
  151.6571  140.7371  157.7749 C   0  0  0  0  0  0  0  0  0  0  0  0
  152.0421  142.0100  158.2509 N   0  0  0  0  0  0  0  0  0  0  0  0
  151.3239  143.1474  157.6803 C   0  0  0  0  0  0  0  0  0  0  0  0
  152.0367  144.4642  158.0347 C   0  0  0  0  0  0  0  0  0  0  0  0
  152.1960  144.5628  159.4459 O   0  0  0  0  0  0  0  0  0  0  0  0
  152.9953  143.5044  159.9629 C   0  0  0  0  0  0  0  0  0  0  0  0
  152.3140  142.1550  159.6800 C   0  0  0  0  0  0  0  0  0  0  0  0
  151.2192  139.8214  158.6734 N   0  0  0  0  0  0  0  0  0  0  0  0
  150.8451  138.6014  158.2349 C   0  0  0  0  0  0  0  0  0  0  0  0
  152.6702  130.6770  156.4147 H   0  0  0  0  0  0  0  0  0  0  0  0
  152.7077  131.6092  157.9241 H   0  0  0  0  0  0  0  0  0  0  0  0
  152.9257  132.4352  156.3606 H   0  0  0  0  0  0  0  0  0  0  0  0
  148.4842  133.8766  156.6000 H   0  0  0  0  0  0  0  0  0  0  0  0
  149.3118  135.1947  157.3784 H   0  0  0  0  0  0  0  0  0  0  0  0
  150.7337  134.0781  154.9902 H   0  0  0  0  0  0  0  0  0  0  0  0
  149.2026  134.8404  154.6472 H   0  0  0  0  0  0  0  0  0  0  0  0
  149.9268  136.4262  157.2738 H   0  0  0  0  0  0  0  0  0  0  0  0
  151.3883  138.9512  154.8842 H   0  0  0  0  0  0  0  0  0  0  0  0
  152.0960  141.1618  155.6796 H   0  0  0  0  0  0  0  0  0  0  0  0
  151.2403  143.0726  156.5973 H   0  0  0  0  0  0  0  0  0  0  0  0
  150.3078  143.1556  158.0770 H   0  0  0  0  0  0  0  0  0  0  0  0
  153.0090  144.5243  157.5427 H   0  0  0  0  0  0  0  0  0  0  0  0
  151.4507  145.3137  157.6839 H   0  0  0  0  0  0  0  0  0  0  0  0
  153.9924  143.5369  159.5205 H   0  0  0  0  0  0  0  0  0  0  0  0
  153.1193  143.6443  161.0368 H   0  0  0  0  0  0  0  0  0  0  0  0
  151.3771  142.0868  160.2348 H   0  0  0  0  0  0  0  0  0  0  0  0
  152.9592  141.3467  160.0268 H   0  0  0  0  0  0  0  0  0  0  0  0
  150.4989  137.9143  158.9931 H   0  0  0  0  0  0  0  0  0  0  0  0
  1  2  1  0  0  0  0
  1 23  1  0  0  0  0
  1 24  1  0  0  0  0
  1 25  1  0  0  0  0
  2  3  2  0  0  0  0
  2  4  2  0  0  0  0
  2  5  1  0  0  0  0
  5  6  1  0  0  0  0
  6  7  1  0  0  0  0
  6 26  1  0  0  0  0
  6 27  1  0  0  0  0
  7  8  1  0  0  0  0
  7 28  1  0  0  0  0
  7 29  1  0  0  0  0
  8  9  2  0  0  0  0
  8 10  1  0  0  0  0
 10 11  1  0  0  0  0
 10 30  1  0  0  0  0
 11 22  1  0  0  0  0
 11 12  2  0  0  0  0
 12 13  1  0  0  0  0
 12 31  1  0  0  0  0
 13 14  2  0  0  0  0
 13 32  1  0  0  0  0
 14 15  1  0  0  0  0
 14 21  1  0  0  0  0
 15 20  1  0  0  0  0
 15 16  1  0  0  0  0
 16 17  1  0  0  0  0
 16 33  1  0  0  0  0
 16 34  1  0  0  0  0
 17 18  1  0  0  0  0
 17 35  1  0  0  0  0
 17 36  1  0  0  0  0
 18 19  1  0  0  0  0
 19 20  1  0  0  0  0
 19 37  1  0  0  0  0
 19 38  1  0  0  0  0
 20 39  1  0  0  0  0
 20 40  1  0  0  0  0
 21 22  2  0  0  0  0
 22 41  1  0  0  0  0
M  CHG  1   5  -1
M  END
> <s_m_source_file>
AV-unprocessed.smi

> <i_m_source_file_index>
2141

> <i_lp_mmshare_version>
43012

> <i_f3d_flags>
0

> <s_epik_input>
W0NIM11TKD1PKSg9TylbTkhdW0NIMl1bQ0gyXUMoPU8pW05IXWMxW2NIXVtjSF1jKG5bY0hdMSlOMltDSDJdW0NIMl1PW0NIMl1bQ0gyXTI=

> <s_epik_cmdline>
J2VwaWtfcHl0aG9uJywgJy1waCcsICc3LjAnLCAnLXRuJywgJzgnLCAnLW1hJywgJzIwMCcsICctbWV0YWxfYmluZGluZycsICctaW1hZScsICc8aW5maWxlLm1hZT4nLCAnLW9tYWUnLCAnPG91dGZpbGUubWFlPic=

> <r_lp_tautomer_probability>
1

> <r_epik_Ionization_Penalty>
6.16997

> <r_epik_Ionization_Penalty_Charging>
6.16921

> <r_epik_Ionization_Penalty_Neutral>
0.000766965

> <r_epik_State_Penalty>
6.16956

> <r_epik_Charging_Adjusted_Penalty>
12.3388

> <i_epik_Tot_Q>
-1

> <i_epik_Tot_abs_Q>
1

> <r_epik_Metal_State_Penalty>
2.11159

> <b_epik_Metal_Only>
1

> <s_lp_Force_Field>
OPLS_2005

> <r_lp_Energy>
18.4771

> <b_lp_Chiralities_Consistent>
1

> <s_lp_Variant>
AV-unprocessed.smi:2141-2

> <Gold.Version>
5.8.1

> <Gold.Id.Protein>
6NUR|6NUR_protein|mol2

> <Gold.PLP.Fitness>
40.3230

> <Gold.PLP.PLP>
-32.9189

> <Gold.PLP.part.hbond>
-2.0000

> <Gold.PLP.part.metal>
0.0000

> <Gold.PLP.part.buried>
-6.6480

> <Gold.PLP.part.nonpolar>
-25.8060

> <Gold.PLP.part.repulsive>
0.7000

> <Gold.PLP.ligand.clash>
0.0000

> <Gold.PLP.ligand.torsion>
1.4084

> <Gold.PLP.Chemscore.Hbond>
2.9520

> <Gold.PLP.Chemscore.CHOScore>
0.0000

> <Gold.PLP.Chemscore.Metal>
0.0000

> <Gold.Chemscore.Hbonds>
donor molecule, donor type, donor heavy atom, donor atom, acceptor molecule, acceptor atom, score
      P1  H  6896  6907       L1     5  1.98
      P1  H 10752 10765       L1     9  1.00

> <Gold.PLP.Chemscore.Internal.Correction>
1.3650

> <Gold.Rescore>
     Score         DG    S(hbond)    S(metal)    S(lipo)     H(rot)  DE(clash)    DE(int)     intcor
     13.40     -16.05       1.88        0.00      78.74       1.93       0.00       2.66       ----

> <Gold.Chemscore.Fitness>
13.3979

> <Gold.Chemscore.DG>
-16.0537

> <Gold.Chemscore.ZeroCoef>
-5.4800

> <Gold.Chemscore.Hbond>
1.8835

> <Gold.Chemscore.Metal>
0.0000

> <Gold.Chemscore.Lipo>
78.7365

> <Gold.Chemscore.Internal_Hbond>
0.0000

> <Gold.Chemscore.DEClash>
0.0000

> <Gold.Chemscore.DEInternal>
2.6559

> <Gold.Chemscore.Rot>
1.9255

> <Gold.Chemscore.Internal.Correction>
   9.000000E+99

> <Gold.Chemscore.Hbonds>
donor molecule, donor type, donor heavy atom, donor atom, acceptor molecule, acceptor atom, score
      P1  H  6896  6907       L1     5  0.84
      P1  H 10752 10765       L1     9  0.78

> <Gold.Chemscore.Hbond.Weighted>
-6.2908

> <Gold.Chemscore.Metal.Weighted>
-0.0000

> <Gold.Chemscore.Lipo.Weighted>
-9.2122

> <Gold.Chemscore.Internal_Hbond.Weighted>
0.0000

> <Gold.Chemscore.DEClash.Weighted>
0.0000

> <Gold.Chemscore.DEInternal.Weighted>
2.6559

> <Gold.Chemscore.Rot.Weighted>
4.9292

> <Gold.Chemscore.Internal.Correction.Weighted>
   9.000000E+99

> <Gold.Protein.RotatedTorsions>
[ 6907 6896 6895 6894 ] final -129.00 input  -60.11 | X-H torsion
[ 7974 7965 7964 7962 ] final  -60.81 input  175.53 | X-H torsion
[ 8008 7997 7996 7995 ] final -115.98 input   59.86 | X-H torsion
[ 10167 10162 10161 10158 ] final  128.66 input  -65.29 | X-H torsion
[ 10718 10713 10712 10709 ] final   48.93 input   66.30 | X-H torsion
[ 10763 10752 10751 10750 ] final  173.34 input  -60.55 | X-H torsion
[ 11005 11000 10999 10996 ] final  154.55 input  -57.11 | X-H torsion

> <Gold.Protein.ActiveResidues>
 VAL166  LYS551  ARG553  GLY616  TRP617  ASP618  TYR619  PRO620  LYS621  CYS622 
 ASP623  PHE694  ASN695  SER759  ASP760  ASP761  ALA762  ILE779  LEU786  VAL792 
 PHE793  MET794  SER795  GLU796  ALA797  LYS798  CYS799  TRP800  GLU811  SER814 

> <Gold.Protein.RotatedAtoms>
  150.9239  133.6847  159.2825 H   0  0  0  0  0  0  0  0  0  0  0  0  # atno 6907 bound_to 6896
  151.4292  135.1006  159.9647 H   0  0  0  0  0  0  0  0  0  0  0  0  # atno 6908 bound_to 6896
  152.4993  133.8673  159.7336 H   0  0  0  0  0  0  0  0  0  0  0  0  # atno 6909 bound_to 6896
  145.8111  140.8598  143.0181 H   0  0  0  0  0  0  0  0  0  0  0  0  # atno 7974 bound_to 7965
  155.0605  140.0393  157.2575 H   0  0  0  0  0  0  0  0  0  0  0  0  # atno 8008 bound_to 7997
  154.7063  140.2683  155.6647 H   0  0  0  0  0  0  0  0  0  0  0  0  # atno 8009 bound_to 7997
  156.2776  140.2730  156.1690 H   0  0  0  0  0  0  0  0  0  0  0  0  # atno 8010 bound_to 7997
  139.5516  144.6817  151.4306 H   0  0  0  0  0  0  0  0  0  0  0  0  # atno 10167 bound_to 10162
  157.4736  130.8271  149.8015 H   0  0  0  0  0  0  0  0  0  0  0  0  # atno 10718 bound_to 10713
  154.4387  135.2761  155.1862 H   0  0  0  0  0  0  0  0  0  0  0  0  # atno 10763 bound_to 10752
  154.3737  135.6103  153.5757 H   0  0  0  0  0  0  0  0  0  0  0  0  # atno 10764 bound_to 10752
  152.9840  135.5863  154.4711 H   0  0  0  0  0  0  0  0  0  0  0  0  # atno 10765 bound_to 10752
  140.1499  134.8682  157.2441 H   0  0  0  0  0  0  0  0  0  0  0  0  # atno 11005 bound_to 11000
  144.6757  140.0396  143.7481 LP  0  0  0  0  0  0  0  0  0  0  0  0  # atno 17320 bound_to 7965
  145.9777  139.2917  143.1061 LP  0  0  0  0  0  0  0  0  0  0  0  0  # atno 17321 bound_to 7965
  140.6780  143.8146  150.7084 LP  0  0  0  0  0  0  0  0  0  0  0  0  # atno 17342 bound_to 10162
  140.1591  143.4291  152.2079 LP  0  0  0  0  0  0  0  0  0  0  0  0  # atno 17343 bound_to 10162
  156.0086  130.3844  150.2344 LP  0  0  0  0  0  0  0  0  0  0  0  0  # atno 17370 bound_to 10713
  157.0528  131.0067  151.3248 LP  0  0  0  0  0  0  0  0  0  0  0  0  # atno 17371 bound_to 10713
  140.2617  134.3563  155.7404 LP  0  0  0  0  0  0  0  0  0  0  0  0  # atno 17394 bound_to 11000
  141.2197  133.7373  156.9091 LP  0  0  0  0  0  0  0  0  0  0  0  0  # atno 17395 bound_to 11000

$$$$
