AV-unprocessed.smi:276|AV-procd|sdf|2070|dock8
  -GOLD-   2262021323D 1   1.00000     0.00000
 Structure written by MMmdl.
 57 61  0  0  0  0  0  0  0  0  1 V2000
  153.4383  142.2129  161.8319 C   0  0  0  0  0  0  0  0  0  0  0  0
  153.1704  142.8444  160.5924 O   0  0  0  0  0  0  0  0  0  0  0  0
  152.2867  142.0925  159.7755 C   0  0  2  0  0  0  0  0  0  0  0  0
  152.9435  141.4558  158.5446 C   0  0  0  0  0  0  0  0  0  0  0  0
  151.7020  141.8591  157.7244 C   0  0  1  0  0  0  0  0  0  0  0  0
  150.7096  140.7755  157.6741 N   0  0  0  0  0  0  0  0  0  0  0  0
  151.2420  139.4195  157.5824 C   0  0  0  0  0  0  0  0  0  0  0  0
  149.7084  140.9327  156.7794 C   0  0  0  0  0  0  0  0  0  0  0  0
  150.0655  141.1661  155.4919 N   0  0  0  0  0  0  0  0  0  0  0  0
  149.1255  141.3178  154.5543 C   0  0  0  0  0  0  0  0  0  0  0  0
  147.7980  141.2790  154.6880 N   0  0  0  0  0  0  0  0  0  0  0  0
  147.4366  141.0603  155.9851 C   0  0  0  0  0  0  0  0  0  0  0  0
  148.3184  140.8837  157.0884 C   0  0  0  0  0  0  0  0  0  0  0  0
  147.5843  140.6926  158.2535 N   0  0  0  0  0  0  0  0  0  0  0  0
  146.3414  140.7369  157.8591 C   0  0  0  0  0  0  0  0  0  0  0  0
  146.1621  140.9518  156.5119 N   0  0  0  0  0  0  0  0  0  0  0  0
  144.8930  141.0374  155.8096 C   0  0  0  0  0  0  0  0  0  0  0  0
  143.9484  142.0991  156.4190 C   0  0  2  0  0  0  0  0  0  0  0  0
  142.6926  141.9781  155.7764 O   0  0  0  0  0  0  0  0  0  0  0  0
  144.4235  143.5588  156.2235 C   0  0  2  0  0  0  0  0  0  0  0  0
  143.4239  144.6439  156.6627 C   0  0  0  0  0  0  0  0  0  0  0  0
  142.6682  144.9608  155.3935 C   0  0  0  0  0  0  0  0  0  0  0  0
  143.7804  144.8541  154.3639 C   0  0  0  0  0  0  0  0  0  0  0  0
  144.5768  143.7666  154.8156 O   0  0  0  0  0  0  0  0  0  0  0  0
  151.4548  142.9486  158.8035 C   0  0  0  0  0  0  0  0  0  0  0  0
  151.8701  144.4032  158.5157 C   0  0  0  0  0  0  0  0  0  0  0  0
  150.7770  144.8505  159.4900 C   0  0  0  0  0  0  0  0  0  0  0  0
  150.0826  143.5139  159.2187 C   0  0  0  0  0  0  0  0  0  0  0  0
  154.1083  142.8375  162.4227 H   0  0  0  0  0  0  0  0  0  0  0  0
  153.9199  141.2449  161.6888 H   0  0  0  0  0  0  0  0  0  0  0  0
  152.5218  142.0666  162.4045 H   0  0  0  0  0  0  0  0  0  0  0  0
  151.6634  141.3917  160.3352 H   0  0  0  0  0  0  0  0  0  0  0  0
  153.8406  141.9897  158.2264 H   0  0  0  0  0  0  0  0  0  0  0  0
  153.1401  140.3889  158.6457 H   0  0  0  0  0  0  0  0  0  0  0  0
  151.9721  142.2623  156.7485 H   0  0  0  0  0  0  0  0  0  0  0  0
  150.4798  138.6969  157.2851 H   0  0  0  0  0  0  0  0  0  0  0  0
  151.6315  139.0958  158.5470 H   0  0  0  0  0  0  0  0  0  0  0  0
  152.0526  139.3739  156.8542 H   0  0  0  0  0  0  0  0  0  0  0  0
  149.4894  141.4925  153.5525 H   0  0  0  0  0  0  0  0  0  0  0  0
  145.5153  140.6095  158.5435 H   0  0  0  0  0  0  0  0  0  0  0  0
  145.1182  141.2639  154.7685 H   0  0  0  0  0  0  0  0  0  0  0  0
  144.4198  140.0546  155.8199 H   0  0  0  0  0  0  0  0  0  0  0  0
  143.8137  141.8927  157.4815 H   0  0  0  0  0  0  0  0  0  0  0  0
  142.8396  141.8170  154.8569 H   0  0  0  0  0  0  0  0  0  0  0  0
  145.3763  143.7152  156.7314 H   0  0  0  0  0  0  0  0  0  0  0  0
  142.7680  144.3670  157.4851 H   0  0  0  0  0  0  0  0  0  0  0  0
  143.9734  145.5314  156.9803 H   0  0  0  0  0  0  0  0  0  0  0  0
  141.9028  144.2060  155.2082 H   0  0  0  0  0  0  0  0  0  0  0  0
  142.1921  145.9414  155.4087 H   0  0  0  0  0  0  0  0  0  0  0  0
  143.4067  144.6861  153.3536 H   0  0  0  0  0  0  0  0  0  0  0  0
  144.3873  145.7605  154.3596 H   0  0  0  0  0  0  0  0  0  0  0  0
  152.8853  144.6723  158.8077 H   0  0  0  0  0  0  0  0  0  0  0  0
  151.6602  144.7025  157.4874 H   0  0  0  0  0  0  0  0  0  0  0  0
  151.1357  144.9402  160.5166 H   0  0  0  0  0  0  0  0  0  0  0  0
  150.2158  145.7311  159.1764 H   0  0  0  0  0  0  0  0  0  0  0  0
  149.3683  143.6025  158.4004 H   0  0  0  0  0  0  0  0  0  0  0  0
  149.6356  143.0427  160.0943 H   0  0  0  0  0  0  0  0  0  0  0  0
  1  2  1  0  0  0  0
  1 29  1  0  0  0  0
  1 30  1  0  0  0  0
  1 31  1  0  0  0  0
  2  3  1  0  0  0  0
  3 25  1  0  0  0  0
  3  4  1  0  0  0  0
  3 32  1  0  0  0  0
  4  5  1  0  0  0  0
  4 33  1  0  0  0  0
  4 34  1  0  0  0  0
  5  6  1  0  0  0  0
  5 25  1  0  0  0  0
  5 35  1  0  0  0  0
  6  7  1  0  0  0  0
  6  8  1  0  0  0  0
  7 36  1  0  0  0  0
  7 37  1  0  0  0  0
  7 38  1  0  0  0  0
  8 13  1  0  0  0  0
  8  9  2  0  0  0  0
  9 10  1  0  0  0  0
 10 11  2  0  0  0  0
 10 39  1  0  0  0  0
 11 12  1  0  0  0  0
 12 16  1  0  0  0  0
 12 13  2  0  0  0  0
 13 14  1  0  0  0  0
 14 15  2  0  0  0  0
 15 16  1  0  0  0  0
 15 40  1  0  0  0  0
 16 17  1  0  0  0  0
 17 18  1  0  0  0  0
 17 41  1  0  0  0  0
 17 42  1  0  0  0  0
 18 19  1  0  0  0  0
 18 20  1  0  0  0  0
 18 43  1  0  0  0  0
 19 44  1  0  0  0  0
 20 24  1  0  0  0  0
 20 21  1  0  0  0  0
 20 45  1  0  0  0  0
 21 22  1  0  0  0  0
 21 46  1  0  0  0  0
 21 47  1  0  0  0  0
 22 23  1  0  0  0  0
 22 48  1  0  0  0  0
 22 49  1  0  0  0  0
 23 24  1  0  0  0  0
 23 50  1  0  0  0  0
 23 51  1  0  0  0  0
 25 28  1  0  0  0  0
 25 26  1  0  0  0  0
 26 27  1  0  0  0  0
 26 52  1  0  0  0  0
 26 53  1  0  0  0  0
 27 28  1  0  0  0  0
 27 54  1  0  0  0  0
 27 55  1  0  0  0  0
 28 56  1  0  0  0  0
 28 57  1  0  0  0  0
M  END
> <s_m_source_file>
AV-unprocessed.smi

> <i_m_source_file_index>
276

> <i_lp_mmshare_version>
43012

> <i_f3d_flags>
0

> <s_epik_input>
W0NIMl0xW0NIMl1bQ0gyXUMxMltDQEhdKE9bQ0gzXSlbQ0gyXVtDQEhdMk4oW0NIM10pYyhuW2NIXW4zKWMoYzM0KW5bY0hdbjRbQ0gyXVtDQEhdKFtPSF0pW0NAQEhdNVtDSDJdW0NIMl1bQ0gyXU81

> <s_epik_cmdline>
J2VwaWtfcHl0aG9uJywgJy1waCcsICc3LjAnLCAnLXRuJywgJzgnLCAnLW1hJywgJzIwMCcsICctbWV0YWxfYmluZGluZycsICctaW1hZScsICc8aW5maWxlLm1hZT4nLCAnLW9tYWUnLCAnPG91dGZpbGUubWFlPic=

> <r_lp_tautomer_probability>
1

> <r_epik_Ionization_Penalty>
0.00204117

> <r_epik_Ionization_Penalty_Charging>
0

> <r_epik_Ionization_Penalty_Neutral>
0.00204117

> <r_epik_State_Penalty>
0.00127401

> <r_epik_Charging_Adjusted_Penalty>
0.00127401

> <i_epik_Tot_Q>
0

> <i_epik_Tot_abs_Q>
0

> <r_epik_Metal_State_Penalty>
-0

> <b_epik_Metal_Only>
0

> <s_lp_Force_Field>
OPLS_2005

> <r_lp_Energy>
59.1309

> <b_lp_Chiralities_Consistent>
1

> <s_lp_Variant>
AV-unprocessed.smi:276-1

> <Gold.Version>
5.8.1

> <Gold.Id.Protein>
6NUR|6NUR_protein|mol2

> <Gold.PLP.Fitness>
50.3597

> <Gold.PLP.PLP>
-46.8577

> <Gold.PLP.part.hbond>
-1.2867

> <Gold.PLP.part.metal>
0.0000

> <Gold.PLP.part.buried>
-8.2165

> <Gold.PLP.part.nonpolar>
-37.3814

> <Gold.PLP.part.repulsive>
0.4734

> <Gold.PLP.ligand.clash>
0.0000

> <Gold.PLP.ligand.torsion>
1.6229

> <Gold.PLP.Chemscore.Hbond>
1.0000

> <Gold.PLP.Chemscore.CHOScore>
1.0000

> <Gold.PLP.Chemscore.Metal>
0.0000

> <Gold.Chemscore.Hbonds>
donor molecule, donor type, donor heavy atom, donor atom, acceptor molecule, acceptor atom, score
      L1  C    10    39       P1  7957  0.35

> <Gold.PLP.Chemscore.Internal.Correction>
0.7478

> <Gold.Rescore>
     Score         DG    S(hbond)    S(metal)    S(lipo)     H(rot)  DE(clash)    DE(int)     intcor
     12.46     -14.81       0.90        0.00     113.64       2.72       0.01       2.35       ----

> <Gold.Chemscore.Fitness>
12.4576

> <Gold.Chemscore.DG>
-14.8095

> <Gold.Chemscore.ZeroCoef>
-5.4800

> <Gold.Chemscore.Hbond>
0.8952

> <Gold.Chemscore.Metal>
0.0000

> <Gold.Chemscore.Lipo>
113.6359

> <Gold.Chemscore.Internal_Hbond>
0.0000

> <Gold.Chemscore.DEClash>
0.0057

> <Gold.Chemscore.DEInternal>
2.3462

> <Gold.Chemscore.Rot>
2.7172

> <Gold.Chemscore.Internal.Correction>
   9.000000E+99

> <Gold.Chemscore.Hbond.Weighted>
-2.9901

> <Gold.Chemscore.Metal.Weighted>
-0.0000

> <Gold.Chemscore.Lipo.Weighted>
-13.2954

> <Gold.Chemscore.Internal_Hbond.Weighted>
0.0000

> <Gold.Chemscore.DEClash.Weighted>
0.0057

> <Gold.Chemscore.DEInternal.Weighted>
2.3462

> <Gold.Chemscore.Rot.Weighted>
6.9560

> <Gold.Chemscore.Internal.Correction.Weighted>
   9.000000E+99

> <Gold.Protein.RotatedTorsions>
[ 6907 6896 6895 6894 ] final   55.00 input  -60.11 | X-H torsion
[ 7974 7965 7964 7962 ] final  127.83 input  175.53 | X-H torsion
[ 8008 7997 7996 7995 ] final   24.94 input   59.86 | X-H torsion
[ 10167 10162 10161 10158 ] final  149.35 input  -65.29 | X-H torsion
[ 10718 10713 10712 10709 ] final -152.28 input   66.30 | X-H torsion
[ 10763 10752 10751 10750 ] final  -15.90 input  -60.55 | X-H torsion
[ 11005 11000 10999 10996 ] final -169.94 input  -57.11 | X-H torsion

> <Gold.Protein.ActiveResidues>
 VAL166  LYS551  ARG553  GLY616  TRP617  ASP618  TYR619  PRO620  LYS621  CYS622 
 ASP623  PHE694  ASN695  SER759  ASP760  ASP761  ALA762  ILE779  LEU786  VAL792 
 PHE793  MET794  SER795  GLU796  ALA797  LYS798  CYS799  TRP800  GLU811  SER814 

> <Gold.Protein.RotatedAtoms>
  152.3495  134.7024  160.0240 H   0  0  0  0  0  0  0  0  0  0  0  0  # atno 6907 bound_to 6896
  151.7383  133.3315  159.3367 H   0  0  0  0  0  0  0  0  0  0  0  0  # atno 6908 bound_to 6896
  150.7531  134.6234  159.6193 H   0  0  0  0  0  0  0  0  0  0  0  0  # atno 6909 bound_to 6896
  145.0462  139.3921  143.5077 H   0  0  0  0  0  0  0  0  0  0  0  0  # atno 7974 bound_to 7965
  155.0040  140.3128  155.4856 H   0  0  0  0  0  0  0  0  0  0  0  0  # atno 8008 bound_to 7997
  156.2920  140.2227  156.5092 H   0  0  0  0  0  0  0  0  0  0  0  0  # atno 8009 bound_to 7997
  154.7593  140.0460  157.0948 H   0  0  0  0  0  0  0  0  0  0  0  0  # atno 8010 bound_to 7997
  139.4863  144.5608  151.7233 H   0  0  0  0  0  0  0  0  0  0  0  0  # atno 10167 bound_to 10162
  156.4704  130.8255  151.2485 H   0  0  0  0  0  0  0  0  0  0  0  0  # atno 10718 bound_to 10713
  153.5503  135.7011  153.5594 H   0  0  0  0  0  0  0  0  0  0  0  0  # atno 10763 bound_to 10752
  153.3521  135.3992  155.1654 H   0  0  0  0  0  0  0  0  0  0  0  0  # atno 10764 bound_to 10752
  154.8662  135.3768  154.5014 H   0  0  0  0  0  0  0  0  0  0  0  0  # atno 10765 bound_to 10752
  140.5251  134.5671  157.5059 H   0  0  0  0  0  0  0  0  0  0  0  0  # atno 11005 bound_to 11000
  146.3514  140.0089  142.8669 LP  0  0  0  0  0  0  0  0  0  0  0  0  # atno 17320 bound_to 7965
  145.1585  140.9660  143.4391 LP  0  0  0  0  0  0  0  0  0  0  0  0  # atno 17321 bound_to 7965
  140.5178  144.0926  150.6013 LP  0  0  0  0  0  0  0  0  0  0  0  0  # atno 17342 bound_to 10162
  140.3873  143.2771  152.0101 LP  0  0  0  0  0  0  0  0  0  0  0  0  # atno 17343 bound_to 10162
  157.7492  131.0078  150.3204 LP  0  0  0  0  0  0  0  0  0  0  0  0  # atno 17370 bound_to 10713
  156.3625  130.3849  149.7240 LP  0  0  0  0  0  0  0  0  0  0  0  0  # atno 17371 bound_to 10713
  139.9584  134.7494  156.0289 LP  0  0  0  0  0  0  0  0  0  0  0  0  # atno 17394 bound_to 11000
  141.1313  133.6586  156.3471 LP  0  0  0  0  0  0  0  0  0  0  0  0  # atno 17395 bound_to 11000

$$$$
