#       Name:                AV-unprocessed.smi:2217
#       Creating user name   scv26
#       Creation time:       Fri Mar 27 12:18:54 2020


#       File generated by GOLD software.
#

@<TRIPOS>MOLECULE
AV-unprocessed.smi:2217
    50    53     1
SMALL
NO_CHARGES


@<TRIPOS>ATOM
      1 ****         1.6868  -8.2252   1.9106 C.3            1 S1                 0.0000
      2 ****         1.5090  -6.7722   1.5230 C.ar           1 S1                 0.0000
      3 ****         0.2272  -6.2061   1.3900 C.ar           1 S1                 0.0000
      4 ****         0.1179  -4.8503   1.0249 C.ar           1 S1                 0.0000
      5 ****         1.2877  -4.0907   0.7967 C.ar           1 S1                 0.0000
      6 ****         1.0497  -2.7305   0.4365 N.am           1 S1                 0.0000
      7 ****         1.8969  -1.7370   0.0913 C.2            1 S1                 0.0000
      8 ****         3.1119  -1.9228   0.0478 O.2            1 S1                 0.0000
      9 ****         1.3306  -0.5551  -0.1928 N.am           1 S1                 0.0000
     10 ****         2.0262   0.6589  -0.6166 C.3            1 S1                 0.0000
     11 ****         1.4887   1.2170  -1.9550 C.3            1 S1                 0.0000
     12 ****         0.5761   0.4273  -2.8623 C.3            1 S1                 0.0000
     13 ****        -0.8156   0.9352  -2.4723 C.3            1 S1                 0.0000
     14 ****        -0.6496   1.5004  -1.1736 O.3            1 S1                 0.0000
     15 ****         0.6141   2.1599  -1.1433 C.3            1 S1                 0.0000
     16 ****         1.4868   1.9162   0.1057 C.3            1 S1                 0.0000
     17 ****         2.4979   3.0197   0.4135 C.3            1 S1                 0.0000
     18 ****         1.8354   3.9828   1.4045 C.3            1 S1                 0.0000
     19 ****         0.6777   3.2016   2.0335 C.3            1 S1                 0.0000
     20 ****         0.7772   1.7895   1.4541 C.3            1 S1                 0.0000
     21 ****         2.5180  -4.6492   0.9306 N.ar           1 S1                 0.0000
     22 ****         2.6240  -5.9478   1.2807 C.ar           1 S1                 0.0000
     23 ****         0.8000  -8.6069   2.4173 H              1 S1                 0.0000
     24 ****         2.5373  -8.3420   2.5827 H              1 S1                 0.0000
     25 ****         1.8638  -8.8324   1.0227 H              1 S1                 0.0000
     26 ****        -0.6596  -6.7977   1.5638 H              1 S1                 0.0000
     27 ****        -0.8594  -4.4017   0.9200 H              1 S1                 0.0000
     28 ****         0.0783  -2.4570   0.4651 H              1 S1                 0.0000
     29 ****         0.3237  -0.4956  -0.1292 H              1 S1                 0.0000
     30 ****         3.1151   0.5893  -0.5952 H              1 S1                 0.0000
     31 ****         2.2688   1.7656  -2.4852 H              1 S1                 0.0000
     32 ****         0.7800   0.6152  -3.9167 H              1 S1                 0.0000
     33 ****         0.6647  -0.6471  -2.7016 H              1 S1                 0.0000
     34 ****        -1.1428   1.7175  -3.1587 H              1 S1                 0.0000
     35 ****        -1.5669   0.1452  -2.4710 H              1 S1                 0.0000
     36 ****         0.5844   3.1822  -1.5230 H              1 S1                 0.0000
     37 ****         3.3880   2.5879   0.8733 H              1 S1                 0.0000
     38 ****         2.8329   3.5423  -0.4832 H              1 S1                 0.0000
     39 ****         2.5479   4.3278   2.1544 H              1 S1                 0.0000
     40 ****         1.4524   4.8626   0.8862 H              1 S1                 0.0000
     41 ****         0.7227   3.1977   3.1229 H              1 S1                 0.0000
     42 ****        -0.2714   3.6548   1.7446 H              1 S1                 0.0000
     43 ****        -0.2051   1.3226   1.3758 H              1 S1                 0.0000
     44 ****         1.3682   1.1657   2.1262 H              1 S1                 0.0000
     45 ****         3.6279  -6.3365   1.3695 H              1 S1                 0.0000
     46 ****         3.4885  -2.8220   0.2703 LP             1 S1                 0.0000
     47 ****         3.7232  -1.1746  -0.2101 LP             1 S1                 0.0000
     48 ****        -0.6728   0.7779  -0.4827 LP             1 S1                 0.0000
     49 ****        -1.3809   2.1581  -0.9929 LP             1 S1                 0.0000
     50 ****         3.3396  -4.1019   0.7709 LP             1 S1                 0.0000
@<TRIPOS>BOND
    1    1    2 1     
    2    1   23 1     
    3    1   24 1     
    4    1   25 1     
    5    2   22 ar    
    6    2    3 ar    
    7    3    4 ar    
    8    3   26 1     
    9    4    5 ar    
   10    4   27 1     
   11    5    6 1     
   12    5   21 ar    
   13    6    7 am    
   14    6   28 1     
   15    7    8 2     
   16    7    9 am    
   17    9   10 1     
   18    9   29 1     
   19   10   16 1     
   20   10   11 1     
   21   10   30 1     
   22   11   15 1     
   23   11   12 1     
   24   11   31 1     
   25   12   13 1     
   26   12   32 1     
   27   12   33 1     
   28   13   14 1     
   29   13   34 1     
   30   13   35 1     
   31   14   15 1     
   32   15   16 1     
   33   15   36 1     
   34   16   20 1     
   35   16   17 1     
   36   17   18 1     
   37   17   37 1     
   38   17   38 1     
   39   18   19 1     
   40   18   39 1     
   41   18   40 1     
   42   19   20 1     
   43   19   41 1     
   44   19   42 1     
   45   20   43 1     
   46   20   44 1     
   47   21   22 ar    
   48   22   45 1     
   49    8   46 1     
   50    8   47 1     
   51   14   48 1     
   52   14   49 1     
   53   21   50 1     
@<TRIPOS>SUBSTRUCTURE
      1 S1             1
@<TRIPOS>SET
LONE_PAIRS      STATIC     ATOMS    <user>   **** ""
5 46 47 48 49 50
DONOR_HYDROGENS      STATIC     ATOMS    <user>   **** ""
2 28 29
ATOM$BLUE        STATIC     ATOMS    COLORGROUP SYSTEM
5 46 47 48 49 50
ATOM$RED        STATIC     ATOMS    COLORGROUP SYSTEM
2 28 29
