AV-unprocessed.smi:72|AV-procd|sdf|704|dock2
  -GOLD-   2262017 23D 1   1.00000     0.00000
 Structure written by MMmdl.
 30 31  0  0  0  0  0  0  0  0  2 V2000
  146.1853  139.2686  152.6113 N   0  0  0  0  0  0  0  0  0  0  0  0
  147.3033  139.5135  153.3810 C   0  0  0  0  0  0  0  0  0  0  0  0
  148.3586  138.6254  153.2825 N   0  3  0  0  0  0  0  0  0  0  0  0
  149.5183  138.7284  153.9455 C   0  0  0  0  0  0  0  0  0  0  0  0
  149.7138  139.7632  154.7411 N   0  0  0  0  0  0  0  0  0  0  0  0
  150.9977  139.9407  155.5220 C   0  0  1  0  0  0  0  0  0  0  0  0
  150.7297  139.7348  156.8719 O   0  0  0  0  0  0  0  0  0  0  0  0
  150.8901  138.3542  157.1705 C   0  0  2  0  0  0  0  0  0  0  0  0
  151.0288  138.1577  158.6871 C   0  0  0  0  0  0  0  0  0  0  0  0
  150.5758  136.8690  159.0430 O   0  0  0  0  0  0  0  0  0  0  0  0
  152.1540  138.0043  156.3812 C   0  0  1  0  0  0  0  0  0  0  0  0
  152.1410  136.6357  156.0291 O   0  0  0  0  0  0  0  0  0  0  0  0
  152.0522  138.8804  155.1321 C   0  0  2  0  0  0  0  0  0  0  0  0
  153.3010  139.4741  154.8426 O   0  0  0  0  0  0  0  0  0  0  0  0
  148.6587  140.6884  154.9586 C   0  0  0  0  0  0  0  0  0  0  0  0
  148.7937  141.6081  155.7644 O   0  0  0  0  0  0  0  0  0  0  0  0
  147.4841  140.4981  154.2167 N   0  0  0  0  0  0  0  0  0  0  0  0
  151.2954  140.9749  155.3388 H   0  0  0  0  0  0  0  0  0  0  0  0
  150.0440  137.7852  156.7792 H   0  0  0  0  0  0  0  0  0  0  0  0
  153.0459  138.2435  156.9635 H   0  0  0  0  0  0  0  0  0  0  0  0
  151.7162  138.3070  154.2668 H   0  0  0  0  0  0  0  0  0  0  0  0
  145.3649  139.8582  152.6254 H   0  0  0  0  0  0  0  0  0  0  0  0
  146.0954  138.4869  151.9780 H   0  0  0  0  0  0  0  0  0  0  0  0
  150.2569  137.9482  153.8179 H   0  0  0  0  0  0  0  0  0  0  0  0
  152.0764  138.2306  158.9810 H   0  0  0  0  0  0  0  0  0  0  0  0
  150.4818  138.9216  159.2405 H   0  0  0  0  0  0  0  0  0  0  0  0
  149.7237  136.9503  159.4446 H   0  0  0  0  0  0  0  0  0  0  0  0
  152.0196  136.1251  156.8155 H   0  0  0  0  0  0  0  0  0  0  0  0
  153.2056  140.0262  154.0814 H   0  0  0  0  0  0  0  0  0  0  0  0
  148.2409  137.8349  152.6649 H   0  0  0  0  0  0  0  0  0  0  0  0
  1  2  1  0  0  0  0
  1 22  1  0  0  0  0
  1 23  1  0  0  0  0
  2 17  2  0  0  0  0
  2  3  1  0  0  0  0
  3  4  2  0  0  0  0
  3 30  1  0  0  0  0
  4  5  1  0  0  0  0
  4 24  1  0  0  0  0
  5  6  1  0  0  0  0
  5 15  1  0  0  0  0
  6 18  1  0  0  0  0
  6 13  1  0  0  0  0
  6  7  1  0  0  0  0
  7  8  1  0  0  0  0
  8 19  1  0  0  0  0
  8  9  1  0  0  0  0
  8 11  1  0  0  0  0
  9 10  1  0  0  0  0
  9 25  1  0  0  0  0
  9 26  1  0  0  0  0
 10 27  1  0  0  0  0
 11 20  1  0  0  0  0
 11 12  1  0  0  0  0
 11 13  1  0  0  0  0
 12 28  1  0  0  0  0
 13 21  1  0  0  0  0
 13 14  1  0  0  0  0
 14 29  1  0  0  0  0
 15 16  2  0  0  0  0
 15 17  1  0  0  0  0
M  CHG  1   3   1
M  END
> <s_m_source_file>
AV-unprocessed.smi

> <i_m_source_file_index>
72

> <i_lp_mmshare_version>
43012

> <i_f3d_flags>
0

> <s_epik_input>
W05IMl1jMW5bY0hdbihjKD1PKW4xKVtDQEBIXTJPW0NASF0oW0NIMl1bT0hdKVtDQEBIXShbT0hdKVtDQEhdMltPSF0=

> <s_epik_cmdline>
J2VwaWtfcHl0aG9uJywgJy1waCcsICc3LjAnLCAnLXRuJywgJzgnLCAnLW1hJywgJzIwMCcsICctbWV0YWxfYmluZGluZycsICctaW1hZScsICc8aW5maWxlLm1hZT4nLCAnLW9tYWUnLCAnPG91dGZpbGUubWFlPic=

> <r_lp_tautomer_probability>
4.77166e-05

> <r_epik_Ionization_Penalty>
0.104979

> <r_epik_Ionization_Penalty_Charging>
0.0999619

> <r_epik_Ionization_Penalty_Neutral>
0.00501745

> <r_epik_State_Penalty>
2.51541

> <r_epik_Charging_Adjusted_Penalty>
2.61537

> <i_epik_Tot_Q>
1

> <i_epik_Tot_abs_Q>
1

> <r_epik_Metal_State_Penalty>
3.53763

> <b_epik_Metal_Only>
0

> <s_epik_Chemistry_Notes>
This compound contains an acetal/aminal-like group ( X-CH(R)-Y where X, Y are N, S, or O) that may be acid/base labile, releasing an aldehyde.

> <s_lp_Force_Field>
OPLS_2005

> <r_lp_Energy>
25.3677

> <b_lp_Chiralities_Consistent>
1

> <s_lp_Variant>
AV-unprocessed.smi:72-42

> <Gold.Version>
5.8.1

> <Gold.Id.Protein>
6NUR|6NUR_protein|mol2

> <Gold.PLP.Fitness>
41.2647

> <Gold.PLP.PLP>
-24.9476

> <Gold.PLP.part.hbond>
-6.8313

> <Gold.PLP.part.metal>
0.0000

> <Gold.PLP.part.buried>
-2.6463

> <Gold.PLP.part.nonpolar>
-16.6783

> <Gold.PLP.part.repulsive>
0.5577

> <Gold.PLP.ligand.clash>
0.0000

> <Gold.PLP.ligand.torsion>
0.4703

> <Gold.PLP.Chemscore.Hbond>
5.6543

> <Gold.PLP.Chemscore.CHOScore>
0.0825

> <Gold.PLP.Chemscore.Metal>
0.0000

> <Gold.Chemscore.Hbonds>
donor molecule, donor type, donor heavy atom, donor atom, acceptor molecule, acceptor atom, score
      L1  H     1    22       P1 10175  1.00
      L1  H     3    30       P1  7948  1.98
      P1  H  6896  6909       L1    10  0.74
      P1  H  7997  8008       L1    14  0.93
      P1  H 10752 10763       L1    12  1.00
      L1  C     4    24       P1  7948  0.07

> <Gold.PLP.Chemscore.Internal.Correction>
0.0472

> <Gold.Rescore>
     Score         DG    S(hbond)    S(metal)    S(lipo)     H(rot)  DE(clash)    DE(int)     intcor
      7.71      -9.59       3.59        0.00      21.92       4.08       0.06       1.81       ----

> <Gold.Chemscore.Fitness>
7.7101

> <Gold.Chemscore.DG>
-9.5887

> <Gold.Chemscore.ZeroCoef>
-5.4800

> <Gold.Chemscore.Hbond>
3.5883

> <Gold.Chemscore.Metal>
0.0000

> <Gold.Chemscore.Lipo>
21.9151

> <Gold.Chemscore.Internal_Hbond>
0.0000

> <Gold.Chemscore.DEClash>
0.0639

> <Gold.Chemscore.DEInternal>
1.8147

> <Gold.Chemscore.Rot>
4.0783

> <Gold.Chemscore.Internal.Correction>
   9.000000E+99

> <Gold.Chemscore.Hbonds>
donor molecule, donor type, donor heavy atom, donor atom, acceptor molecule, acceptor atom, score
      L1  H     1    22       P1 10175  0.99
      L1  H     3    30       P1  7948  0.93
      P1  H  6896  6909       L1    10  0.10
      P1  H  7997  8008       L1    14  0.20
      P1  H 10752 10763       L1    12  0.39

> <Gold.Chemscore.Hbond.Weighted>
-11.9851

> <Gold.Chemscore.Metal.Weighted>
-0.0000

> <Gold.Chemscore.Lipo.Weighted>
-2.5641

> <Gold.Chemscore.Internal_Hbond.Weighted>
0.0000

> <Gold.Chemscore.DEClash.Weighted>
0.0639

> <Gold.Chemscore.DEInternal.Weighted>
1.8147

> <Gold.Chemscore.Rot.Weighted>
10.4404

> <Gold.Chemscore.Internal.Correction.Weighted>
   9.000000E+99

> <Gold.Protein.RotatedTorsions>
[ 6907 6896 6895 6894 ] final   79.71 input  -60.11 | X-H torsion
[ 7974 7965 7964 7962 ] final -162.16 input  175.53 | X-H torsion
[ 8008 7997 7996 7995 ] final   10.93 input   59.86 | X-H torsion
[ 10167 10162 10161 10158 ] final  129.02 input  -65.29 | X-H torsion
[ 10718 10713 10712 10709 ] final -159.21 input   66.30 | X-H torsion
[ 10763 10752 10751 10750 ] final   82.42 input  -60.55 | X-H torsion
[ 11005 11000 10999 10996 ] final  172.17 input  -57.11 | X-H torsion

> <Gold.Protein.ActiveResidues>
 VAL166  LYS551  ARG553  GLY616  TRP617  ASP618  TYR619  PRO620  LYS621  CYS622 
 ASP623  PHE694  ASN695  SER759  ASP760  ASP761  ALA762  ILE779  LEU786  VAL792 
 PHE793  MET794  SER795  GLU796  ALA797  LYS798  CYS799  TRP800  GLU811  SER814 

> <Gold.Protein.RotatedAtoms>
  152.5209  134.3469  159.9236 H   0  0  0  0  0  0  0  0  0  0  0  0  # atno 6907 bound_to 6896
  151.3419  133.3953  159.2679 H   0  0  0  0  0  0  0  0  0  0  0  0  # atno 6908 bound_to 6896
  150.9797  134.9172  159.7894 H   0  0  0  0  0  0  0  0  0  0  0  0  # atno 6909 bound_to 6896
  144.7367  140.3293  143.6156 H   0  0  0  0  0  0  0  0  0  0  0  0  # atno 7974 bound_to 7965
  154.8000  140.2850  155.5928 H   0  0  0  0  0  0  0  0  0  0  0  0  # atno 8008 bound_to 7997
  156.2976  140.2588  156.2796 H   0  0  0  0  0  0  0  0  0  0  0  0  # atno 8009 bound_to 7997
  154.9569  140.0378  157.2161 H   0  0  0  0  0  0  0  0  0  0  0  0  # atno 8010 bound_to 7997
  139.5498  144.6804  151.4358 H   0  0  0  0  0  0  0  0  0  0  0  0  # atno 10167 bound_to 10162
  156.5649  130.8663  151.2820 H   0  0  0  0  0  0  0  0  0  0  0  0  # atno 10718 bound_to 10713
  153.1201  135.4729  154.9181 H   0  0  0  0  0  0  0  0  0  0  0  0  # atno 10763 bound_to 10752
  154.7567  135.3120  154.8458 H   0  0  0  0  0  0  0  0  0  0  0  0  # atno 10764 bound_to 10752
  153.9025  135.6873  153.4808 H   0  0  0  0  0  0  0  0  0  0  0  0  # atno 10765 bound_to 10752
  140.3268  134.7390  157.4105 H   0  0  0  0  0  0  0  0  0  0  0  0  # atno 11005 bound_to 11000
  145.7488  139.1787  143.2333 LP  0  0  0  0  0  0  0  0  0  0  0  0  # atno 17320 bound_to 7965
  146.1077  140.7467  142.9518 LP  0  0  0  0  0  0  0  0  0  0  0  0  # atno 17321 bound_to 7965
  140.6758  143.8194  150.7056 LP  0  0  0  0  0  0  0  0  0  0  0  0  # atno 17342 bound_to 10162
  140.1632  143.4258  152.2052 LP  0  0  0  0  0  0  0  0  0  0  0  0  # atno 17343 bound_to 10162
  157.7361  130.9772  150.2116 LP  0  0  0  0  0  0  0  0  0  0  0  0  # atno 17370 bound_to 10713
  156.2766  130.3728  149.7977 LP  0  0  0  0  0  0  0  0  0  0  0  0  # atno 17371 bound_to 10713
  140.0894  134.5622  155.8459 LP  0  0  0  0  0  0  0  0  0  0  0  0  # atno 17394 bound_to 11000
  141.2073  133.6663  156.6297 LP  0  0  0  0  0  0  0  0  0  0  0  0  # atno 17395 bound_to 11000

$$$$
