#       Name:                AV-unprocessed.smi:790
#       Creating user name   scv26
#       Creation time:       Fri Mar 27 01:17:58 2020


#       File generated by GOLD software.
#

@<TRIPOS>MOLECULE
AV-unprocessed.smi:790
    43    45     1
SMALL
NO_CHARGES


@<TRIPOS>ATOM
      1 ****        -0.2838   2.0742  -0.0880 O.2            1 S1                 0.0000
      2 ****        -0.7836   0.9599  -0.2391 C.2            1 S1                 0.0000
      3 ****        -2.0985   0.6995  -0.3450 N.am           1 S1                 0.0000
      4 ****        -3.1992   1.5994  -0.2952 C.ar           1 S1                 0.0000
      5 ****        -3.1310   2.9319   0.1804 C.ar           1 S1                 0.0000
      6 ****        -4.3026   3.7136   0.1854 C.ar           1 S1                 0.0000
      7 ****        -5.4999   3.1352  -0.2780 C.ar           1 S1                 0.0000
      8 ****        -5.5831   1.8640  -0.7228 N.ar           1 S1                 0.0000
      9 ****        -4.4556   1.1211  -0.7248 C.ar           1 S1                 0.0000
     10 ****        -0.0606  -0.1647  -0.3312 N.am           1 S1                 0.0000
     11 ****         1.3981  -0.2285  -0.2612 C.3            1 S1                 0.0000
     12 ****         1.9531  -0.1039   1.1807 C.3            1 S1                 0.0000
     13 ****         1.2648  -1.0983   2.1408 C.3            1 S1                 0.0000
     14 ****         1.8095  -2.4574   1.6642 C.3            1 S1                 0.0000
     15 ****         2.7589  -2.0608   0.5169 C.3            1 S1                 0.0000
     16 ****         3.3274  -0.7444   1.0348 C.3            1 S1                 0.0000
     17 ****         1.9280  -1.6167  -0.7094 C.3            1 S1                 0.0000
     18 ****         2.7620  -1.5688  -2.0046 C.3            1 S1                 0.0000
     19 ****         1.9351  -1.2706  -3.1093 O.3            1 S1                 0.0000
     20 ****        -2.3414  -0.2637  -0.5245 H              1 S1                 0.0000
     21 ****        -2.2174   3.3690   0.5503 H              1 S1                 0.0000
     22 ****        -4.2835   4.7339   0.5392 H              1 S1                 0.0000
     23 ****        -6.4156   3.7076  -0.2881 H              1 S1                 0.0000
     24 ****        -4.5618   0.1081  -1.0852 H              1 S1                 0.0000
     25 ****        -0.5486  -1.0385  -0.4623 H              1 S1                 0.0000
     26 ****         1.8274   0.5580  -0.8854 H              1 S1                 0.0000
     27 ****         1.9671   0.9204   1.5545 H              1 S1                 0.0000
     28 ****         1.5726  -0.9084   3.1698 H              1 S1                 0.0000
     29 ****         0.1763  -1.0485   2.1150 H              1 S1                 0.0000
     30 ****         2.3567  -2.9523   2.4676 H              1 S1                 0.0000
     31 ****         1.0182  -3.1322   1.3358 H              1 S1                 0.0000
     32 ****         3.5026  -2.8261   0.2924 H              1 S1                 0.0000
     33 ****         3.9713  -0.2307   0.3194 H              1 S1                 0.0000
     34 ****         3.8616  -0.8462   1.9813 H              1 S1                 0.0000
     35 ****         1.1107  -2.3247  -0.8602 H              1 S1                 0.0000
     36 ****         3.5584  -0.8271  -1.9414 H              1 S1                 0.0000
     37 ****         3.2352  -2.5346  -2.1842 H              1 S1                 0.0000
     38 ****         2.4708  -1.2481  -3.8877 H              1 S1                 0.0000
     39 ****        -0.8705   2.8822  -0.0344 LP             1 S1                 0.0000
     40 ****         0.7090   2.1717  -0.0189 LP             1 S1                 0.0000
     41 ****        -6.4519   1.4843  -1.0408 LP             1 S1                 0.0000
     42 ****         1.4993  -0.3808  -2.9740 LP             1 S1                 0.0000
     43 ****         1.2318  -1.9752  -3.2041 LP             1 S1                 0.0000
@<TRIPOS>BOND
    1    1    2 2     
    2    2    3 am    
    3    2   10 am    
    4    3    4 1     
    5    3   20 1     
    6    4    9 ar    
    7    4    5 ar    
    8    5    6 ar    
    9    5   21 1     
   10    6    7 ar    
   11    6   22 1     
   12    7    8 ar    
   13    7   23 1     
   14    8    9 ar    
   15    9   24 1     
   16   10   11 1     
   17   10   25 1     
   18   11   17 1     
   19   11   12 1     
   20   11   26 1     
   21   12   16 1     
   22   12   13 1     
   23   12   27 1     
   24   13   14 1     
   25   13   28 1     
   26   13   29 1     
   27   14   15 1     
   28   14   30 1     
   29   14   31 1     
   30   15   16 1     
   31   15   17 1     
   32   15   32 1     
   33   16   33 1     
   34   16   34 1     
   35   17   18 1     
   36   17   35 1     
   37   18   19 1     
   38   18   36 1     
   39   18   37 1     
   40   19   38 1     
   41    1   39 1     
   42    1   40 1     
   43    8   41 1     
   44   19   42 1     
   45   19   43 1     
@<TRIPOS>SUBSTRUCTURE
      1 S1             1
@<TRIPOS>SET
LONE_PAIRS      STATIC     ATOMS    <user>   **** ""
5 39 40 41 42 43
DONOR_HYDROGENS      STATIC     ATOMS    <user>   **** ""
3 20 25 38
ATOM$BLUE        STATIC     ATOMS    COLORGROUP SYSTEM
5 39 40 41 42 43
ATOM$RED        STATIC     ATOMS    COLORGROUP SYSTEM
3 20 25 38
