AV-unprocessed.smi:1958|AV-procd|sdf|7911|dock3
  -GOLD-   2272010 73D 1   1.00000     0.00000
 Structure written by MMmdl.
 47 48  0  0  0  0  0  0  0  0  3 V2000
  152.8399  141.5704  160.3711 C   0  0  0  0  0  0  0  0  0  0  0  0
  151.9164  141.6287  159.2982 O   0  0  0  0  0  0  0  0  0  0  0  0
  151.7972  140.3911  158.6173 C   0  0  0  0  0  0  0  0  0  0  0  0
  151.3180  140.6574  157.1823 C   0  0  0  0  0  0  0  0  0  0  0  0
  151.0601  139.4081  156.4593 N   0  0  0  0  0  0  0  0  0  0  0  0
  150.0186  138.6600  156.9810 N   0  0  0  0  0  0  0  0  0  0  0  0
  149.6859  137.5322  156.4394 C   0  0  0  0  0  0  0  0  0  0  0  0
  148.5704  136.7019  156.9946 C   0  0  0  0  0  0  0  0  0  0  0  0
  148.1011  137.0696  158.0797 O   0  0  0  0  0  0  0  0  0  0  0  0
  148.1528  135.6207  156.2681 N   0  5  0  0  0  0  0  0  0  0  0  0
  147.4628  135.6803  154.9786 C   0  0  0  0  0  0  0  0  0  0  0  0
  147.6011  134.3351  154.2131 C   0  0  1  0  0  0  0  0  0  0  0  0
  147.0218  133.1122  154.9685 C   0  0  0  0  0  0  0  0  0  0  0  0
  147.0707  134.4632  152.8199 N   0  3  0  0  0  0  0  0  0  0  0  0
  147.0561  133.1806  152.0731 C   0  0  0  0  0  0  0  0  0  0  0  0
  146.6724  133.4222  150.6034 C   0  0  0  0  0  0  0  0  0  0  0  0
  145.4138  134.0806  150.5338 O   0  0  0  0  0  0  0  0  0  0  0  0
  145.4401  135.3504  151.1744 C   0  0  0  0  0  0  0  0  0  0  0  0
  145.7644  135.1631  152.6650 C   0  0  0  0  0  0  0  0  0  0  0  0
  150.3997  137.0361  155.2706 C   0  0  0  0  0  0  0  0  0  0  0  0
  151.4099  137.7801  154.7696 C   0  0  0  0  0  0  0  0  0  0  0  0
  151.8010  139.0577  155.3660 C   0  0  0  0  0  0  0  0  0  0  0  0
  152.7129  139.7559  154.9231 O   0  0  0  0  0  0  0  0  0  0  0  0
  152.8997  142.5445  160.8564 H   0  0  0  0  0  0  0  0  0  0  0  0
  153.8381  141.3076  160.0189 H   0  0  0  0  0  0  0  0  0  0  0  0
  152.5286  140.8405  161.1195 H   0  0  0  0  0  0  0  0  0  0  0  0
  152.7609  139.8793  158.6022 H   0  0  0  0  0  0  0  0  0  0  0  0
  151.0895  139.7465  159.1413 H   0  0  0  0  0  0  0  0  0  0  0  0
  150.4218  141.2800  157.1964 H   0  0  0  0  0  0  0  0  0  0  0  0
  152.0705  141.2447  156.6525 H   0  0  0  0  0  0  0  0  0  0  0  0
  146.4046  135.9088  155.1068 H   0  0  0  0  0  0  0  0  0  0  0  0
  147.8518  136.4853  154.3528 H   0  0  0  0  0  0  0  0  0  0  0  0
  148.6736  134.1590  154.1151 H   0  0  0  0  0  0  0  0  0  0  0  0
  147.5350  132.9405  155.9164 H   0  0  0  0  0  0  0  0  0  0  0  0
  147.1438  132.2008  154.3832 H   0  0  0  0  0  0  0  0  0  0  0  0
  145.9586  133.2182  155.1915 H   0  0  0  0  0  0  0  0  0  0  0  0
  148.0393  132.7098  152.1133 H   0  0  0  0  0  0  0  0  0  0  0  0
  146.3501  132.4912  152.5382 H   0  0  0  0  0  0  0  0  0  0  0  0
  147.4341  134.0161  150.0956 H   0  0  0  0  0  0  0  0  0  0  0  0
  146.6040  132.4728  150.0726 H   0  0  0  0  0  0  0  0  0  0  0  0
  146.1713  136.0021  150.6933 H   0  0  0  0  0  0  0  0  0  0  0  0
  144.4652  135.8241  151.0585 H   0  0  0  0  0  0  0  0  0  0  0  0
  144.9674  134.5850  153.1341 H   0  0  0  0  0  0  0  0  0  0  0  0
  145.7874  136.1361  153.1565 H   0  0  0  0  0  0  0  0  0  0  0  0
  150.1377  136.0981  154.8037 H   0  0  0  0  0  0  0  0  0  0  0  0
  151.9461  137.4227  153.9031 H   0  0  0  0  0  0  0  0  0  0  0  0
  147.7519  135.0371  152.3432 H   0  0  0  0  0  0  0  0  0  0  0  0
  1  2  1  0  0  0  0
  1 24  1  0  0  0  0
  1 25  1  0  0  0  0
  1 26  1  0  0  0  0
  2  3  1  0  0  0  0
  3  4  1  0  0  0  0
  3 27  1  0  0  0  0
  3 28  1  0  0  0  0
  4  5  1  0  0  0  0
  4 29  1  0  0  0  0
  4 30  1  0  0  0  0
  5 22  1  0  0  0  0
  5  6  1  0  0  0  0
  6  7  2  0  0  0  0
  7  8  1  0  0  0  0
  7 20  1  0  0  0  0
  8  9  2  0  0  0  0
  8 10  1  0  0  0  0
 10 11  1  0  0  0  0
 11 12  1  0  0  0  0
 11 31  1  0  0  0  0
 11 32  1  0  0  0  0
 12 13  1  0  0  0  0
 12 14  1  0  0  0  0
 12 33  1  0  0  0  0
 13 34  1  0  0  0  0
 13 35  1  0  0  0  0
 13 36  1  0  0  0  0
 14 19  1  0  0  0  0
 14 15  1  0  0  0  0
 14 47  1  0  0  0  0
 15 16  1  0  0  0  0
 15 37  1  0  0  0  0
 15 38  1  0  0  0  0
 16 17  1  0  0  0  0
 16 39  1  0  0  0  0
 16 40  1  0  0  0  0
 17 18  1  0  0  0  0
 18 19  1  0  0  0  0
 18 41  1  0  0  0  0
 18 42  1  0  0  0  0
 19 43  1  0  0  0  0
 19 44  1  0  0  0  0
 20 21  2  0  0  0  0
 20 45  1  0  0  0  0
 21 22  1  0  0  0  0
 21 46  1  0  0  0  0
 22 23  2  0  0  0  0
M  CHG  1  10  -1
M  CHG  1  14   1
M  END
> <s_m_source_file>
AV-unprocessed.smi

> <i_m_source_file_index>
1958

> <i_lp_mmshare_version>
43012

> <i_f3d_flags>
0

> <s_epik_input>
W0NIM11PW0NIMl1bQ0gyXW4xbmMoW2NIXVtjSF1jMT1PKUMoPU8pW05IXVtDSDJdW0NASF0oW0NIM10pTjJbQ0gyXVtDSDJdT1tDSDJdW0NIMl0y

> <s_epik_cmdline>
J2VwaWtfcHl0aG9uJywgJy1waCcsICc3LjAnLCAnLXRuJywgJzgnLCAnLW1hJywgJzIwMCcsICctbWV0YWxfYmluZGluZycsICctaW1hZScsICc8aW5maWxlLm1hZT4nLCAnLW9tYWUnLCAnPG91dGZpbGUubWFlPic=

> <r_lp_tautomer_probability>
1

> <r_epik_Ionization_Penalty>
6.89388

> <r_epik_Ionization_Penalty_Charging>
6.89388

> <r_epik_Ionization_Penalty_Neutral>
1.08445e-11

> <r_epik_State_Penalty>
7.53214

> <r_epik_Charging_Adjusted_Penalty>
14.426

> <i_epik_Tot_Q>
0

> <i_epik_Tot_abs_Q>
2

> <r_epik_Metal_State_Penalty>
3.44743

> <b_epik_Metal_Only>
1

> <s_lp_Force_Field>
OPLS_2005

> <r_lp_Energy>
43.2643

> <b_lp_Chiralities_Consistent>
1

> <s_lp_Variant>
AV-unprocessed.smi:1958-6

> <Gold.Version>
5.8.1

> <Gold.Id.Protein>
6NUR|6NUR_protein|mol2

> <Gold.PLP.Fitness>
39.6306

> <Gold.PLP.PLP>
-31.4059

> <Gold.PLP.part.hbond>
-3.0000

> <Gold.PLP.part.metal>
0.0000

> <Gold.PLP.part.buried>
-4.7868

> <Gold.PLP.part.nonpolar>
-24.2684

> <Gold.PLP.part.repulsive>
0.2207

> <Gold.PLP.ligand.clash>
0.0000

> <Gold.PLP.ligand.torsion>
1.2595

> <Gold.PLP.Chemscore.Hbond>
3.4104

> <Gold.PLP.Chemscore.CHOScore>
0.0000

> <Gold.PLP.Chemscore.Metal>
0.0000

> <Gold.Chemscore.Hbonds>
donor molecule, donor type, donor heavy atom, donor atom, acceptor molecule, acceptor atom, score
      L1  H    14    47       P1  7948  2.00
      P1  H  7989  7998       L1    23  0.47
      P1  H  7997  8010       L1    23  0.89

> <Gold.PLP.Chemscore.Internal.Correction>
0.5125

> <Gold.Rescore>
     Score         DG    S(hbond)    S(metal)    S(lipo)     H(rot)  DE(clash)    DE(int)     intcor
     13.66     -14.83       2.00        0.00      68.11       2.07       0.07       1.10       ----

> <Gold.Chemscore.Fitness>
13.6557

> <Gold.Chemscore.DG>
-14.8257

> <Gold.Chemscore.ZeroCoef>
-5.4800

> <Gold.Chemscore.Hbond>
1.9969

> <Gold.Chemscore.Metal>
0.0000

> <Gold.Chemscore.Lipo>
68.1059

> <Gold.Chemscore.Internal_Hbond>
0.0000

> <Gold.Chemscore.DEClash>
0.0701

> <Gold.Chemscore.DEInternal>
1.0999

> <Gold.Chemscore.Rot>
2.0673

> <Gold.Chemscore.Internal.Correction>
   9.000000E+99

> <Gold.Chemscore.Hbonds>
donor molecule, donor type, donor heavy atom, donor atom, acceptor molecule, acceptor atom, score
      L1  H    14    47       P1  7948  0.94
      P1  H  7989  7998       L1    23  0.13
      P1  H  7997  8010       L1    23  0.87

> <Gold.Chemscore.Hbond.Weighted>
-6.6697

> <Gold.Chemscore.Metal.Weighted>
-0.0000

> <Gold.Chemscore.Lipo.Weighted>
-7.9684

> <Gold.Chemscore.Internal_Hbond.Weighted>
0.0000

> <Gold.Chemscore.DEClash.Weighted>
0.0701

> <Gold.Chemscore.DEInternal.Weighted>
1.0999

> <Gold.Chemscore.Rot.Weighted>
5.2923

> <Gold.Chemscore.Internal.Correction.Weighted>
   9.000000E+99

> <Gold.Protein.RotatedTorsions>
[ 6907 6896 6895 6894 ] final   58.14 input  -60.11 | X-H torsion
[ 7974 7965 7964 7962 ] final   94.08 input  175.53 | X-H torsion
[ 8008 7997 7996 7995 ] final  117.00 input   59.86 | X-H torsion
[ 10167 10162 10161 10158 ] final  -34.32 input  -65.29 | X-H torsion
[ 10718 10713 10712 10709 ] final   11.92 input   66.30 | X-H torsion
[ 10763 10752 10751 10750 ] final   43.55 input  -60.55 | X-H torsion
[ 11005 11000 10999 10996 ] final -113.08 input  -57.11 | X-H torsion

> <Gold.Protein.ActiveResidues>
 VAL166  LYS551  ARG553  GLY616  TRP617  ASP618  TYR619  PRO620  LYS621  CYS622 
 ASP623  PHE694  ASN695  SER759  ASP760  ASP761  ALA762  ILE779  LEU786  VAL792 
 PHE793  MET794  SER795  GLU796  ALA797  LYS798  CYS799  TRP800  GLU811  SER814 

> <Gold.Protein.RotatedAtoms>
  152.3796  134.6610  160.0147 H   0  0  0  0  0  0  0  0  0  0  0  0  # atno 6907 bound_to 6896
  151.6878  133.3306  159.3243 H   0  0  0  0  0  0  0  0  0  0  0  0  # atno 6908 bound_to 6896
  150.7737  134.6661  159.6410 H   0  0  0  0  0  0  0  0  0  0  0  0  # atno 6909 bound_to 6896
  145.4704  139.2282  143.2938 H   0  0  0  0  0  0  0  0  0  0  0  0  # atno 7974 bound_to 7965
  156.2470  140.2905  156.0610 H   0  0  0  0  0  0  0  0  0  0  0  0  # atno 8008 bound_to 7997
  155.1775  140.0403  157.2893 H   0  0  0  0  0  0  0  0  0  0  0  0  # atno 8009 bound_to 7997
  154.6283  140.2493  155.7472 H   0  0  0  0  0  0  0  0  0  0  0  0  # atno 8010 bound_to 7997
  140.7188  143.3556  151.2065 H   0  0  0  0  0  0  0  0  0  0  0  0  # atno 10167 bound_to 10162
  157.0025  130.6085  149.5698 H   0  0  0  0  0  0  0  0  0  0  0  0  # atno 10718 bound_to 10713
  152.9858  135.6098  154.3129 H   0  0  0  0  0  0  0  0  0  0  0  0  # atno 10763 bound_to 10752
  154.2844  135.2776  155.2685 H   0  0  0  0  0  0  0  0  0  0  0  0  # atno 10764 bound_to 10752
  154.5009  135.5867  153.6587 H   0  0  0  0  0  0  0  0  0  0  0  0  # atno 10765 bound_to 10752
  141.0636  133.9495  157.2621 H   0  0  0  0  0  0  0  0  0  0  0  0  # atno 11005 bound_to 11000
  146.2400  140.5481  142.8938 LP  0  0  0  0  0  0  0  0  0  0  0  0  # atno 17320 bound_to 7965
  144.7949  140.6103  143.6517 LP  0  0  0  0  0  0  0  0  0  0  0  0  # atno 17321 bound_to 7965
  139.7097  143.9397  152.2942 LP  0  0  0  0  0  0  0  0  0  0  0  0  # atno 17342 bound_to 10162
  139.9117  144.6852  150.8555 LP  0  0  0  0  0  0  0  0  0  0  0  0  # atno 17343 bound_to 10162
  156.0165  130.5260  150.8151 LP  0  0  0  0  0  0  0  0  0  0  0  0  # atno 17370 bound_to 10713
  157.5379  131.0939  150.9867 LP  0  0  0  0  0  0  0  0  0  0  0  0  # atno 17371 bound_to 10713
  139.9455  135.0184  156.8839 LP  0  0  0  0  0  0  0  0  0  0  0  0  # atno 17394 bound_to 11000
  140.5819  134.0344  155.7467 LP  0  0  0  0  0  0  0  0  0  0  0  0  # atno 17395 bound_to 11000

$$$$
