#       Name:                AV-unprocessed.smi:1643
#       Creating user name   scv26
#       Creation time:       Fri Mar 27 07:27:01 2020


#       File generated by GOLD software.
#

@<TRIPOS>MOLECULE
AV-unprocessed.smi:1643
    59    61     1
SMALL
NO_CHARGES


@<TRIPOS>ATOM
      1 ****        -5.8891  -1.8653   2.0100 C.3            1 S1                 0.0000
      2 ****        -4.6258  -2.5171   2.5803 C.2            1 S1                 0.0000
      3 ****        -4.7620  -3.3914   3.4362 O.2            1 S1                 0.0000
      4 ****        -3.4132  -2.1182   2.1232 N.am           1 S1                 0.0000
      5 ****        -2.1774  -2.7598   2.5981 C.3            1 S1                 0.0000
      6 ****        -1.4903  -1.9169   3.6873 C.3            1 S1                 0.0000
      7 ****        -1.6229  -0.3908   3.4965 C.3            1 S1                 0.0000
      8 ****        -1.1440   0.1059   2.1776 N.4            1 S1                 1.0000
      9 ****         0.3404   0.1002   2.0719 C.3            1 S1                 0.0000
     10 ****         0.8701   1.0249   0.9577 C.3            1 S1                 0.0000
     11 ****         0.5617   2.3660   1.2857 O.3            1 S1                 0.0000
     12 ****         2.3941   0.8858   0.7723 C.3            1 S1                 0.0000
     13 ****         2.9179   1.7473  -0.2957 N.pl3          1 S1                 0.0000
     14 ****         3.5629   2.9436  -0.2214 C.2            1 S1                 0.0000
     15 ****         3.8362   3.3420  -1.4947 N.pl3          1 S1                 1.0000
     16 ****         3.3623   2.3850  -2.3947 C.ar           1 S1                 0.0000
     17 ****         3.4008   2.3417  -3.7831 C.ar           1 S1                 0.0000
     18 ****         2.8219   1.2149  -4.4097 C.ar           1 S1                 0.0000
     19 ****         2.8452   1.1375  -5.9266 C.3            1 S1                 0.0000
     20 ****         2.2308   0.1764  -3.6439 C.ar           1 S1                 0.0000
     21 ****         1.6106  -1.0300  -4.3284 C.3            1 S1                 0.0000
     22 ****         2.2034   0.2383  -2.2321 C.ar           1 S1                 0.0000
     23 ****         2.7754   1.3573  -1.6318 C.ar           1 S1                 0.0000
     24 ****        -1.8244  -0.4528   0.9673 C.3            1 S1                 0.0000
     25 ****        -3.2633  -0.9987   1.1693 C.3            1 S1                 0.0000
     26 ****        -5.8907  -1.8949   0.9200 H              1 S1                 0.0000
     27 ****        -5.9711  -0.8285   2.3369 H              1 S1                 0.0000
     28 ****        -6.7795  -2.3933   2.3540 H              1 S1                 0.0000
     29 ****        -2.3580  -3.7643   2.9838 H              1 S1                 0.0000
     30 ****        -1.5012  -2.9325   1.7626 H              1 S1                 0.0000
     31 ****        -1.9298  -2.1716   4.6524 H              1 S1                 0.0000
     32 ****        -0.4401  -2.2015   3.7573 H              1 S1                 0.0000
     33 ****        -2.6584  -0.0798   3.6385 H              1 S1                 0.0000
     34 ****        -1.0771   0.1190   4.2913 H              1 S1                 0.0000
     35 ****         0.7808   0.4098   3.0210 H              1 S1                 0.0000
     36 ****         0.6783  -0.9232   1.9014 H              1 S1                 0.0000
     37 ****         0.3853   0.7882   0.0112 H              1 S1                 0.0000
     38 ****         1.0316   2.6028   2.0711 H              1 S1                 0.0000
     39 ****         2.9166   1.1494   1.6932 H              1 S1                 0.0000
     40 ****         2.6685  -0.1453   0.5449 H              1 S1                 0.0000
     41 ****         3.8090   3.4827   0.6821 H              1 S1                 0.0000
     42 ****         3.8526   3.1356  -4.3600 H              1 S1                 0.0000
     43 ****         1.8304   1.1000  -6.3234 H              1 S1                 0.0000
     44 ****         3.3813   0.2475  -6.2573 H              1 S1                 0.0000
     45 ****         3.3407   2.0057  -6.3625 H              1 S1                 0.0000
     46 ****         1.1878  -1.7272  -3.6043 H              1 S1                 0.0000
     47 ****         2.3598  -1.5676  -4.9102 H              1 S1                 0.0000
     48 ****         0.8083  -0.7197  -4.9983 H              1 S1                 0.0000
     49 ****         1.7551  -0.5520  -1.6488 H              1 S1                 0.0000
     50 ****        -1.8741   0.3492   0.2304 H              1 S1                 0.0000
     51 ****        -1.2015  -1.2166   0.5014 H              1 S1                 0.0000
     52 ****        -3.6467  -1.3244   0.2015 H              1 S1                 0.0000
     53 ****        -3.8907  -0.1630   1.4823 H              1 S1                 0.0000
     54 ****        -1.3981   1.0838   2.1879 H              1 S1                 0.0000
     55 ****         4.3107   4.2047  -1.7295 H              1 S1                 0.0000
     56 ****        -5.6775  -3.6564   3.7390 LP             1 S1                 0.0000
     57 ****        -3.9572  -3.8366   3.8286 LP             1 S1                 0.0000
     58 ****        -0.4219   2.4562   1.4422 LP             1 S1                 0.0000
     59 ****         0.8363   2.9674   0.5353 LP             1 S1                 0.0000
@<TRIPOS>BOND
    1    1    2 1     
    2    1   26 1     
    3    1   27 1     
    4    1   28 1     
    5    2    3 2     
    6    2    4 am    
    7    4   25 1     
    8    4    5 1     
    9    5    6 1     
   10    5   29 1     
   11    5   30 1     
   12    6    7 1     
   13    6   31 1     
   14    6   32 1     
   15    7    8 1     
   16    7   33 1     
   17    7   34 1     
   18    8    9 1     
   19    8   24 1     
   20    8   54 1     
   21    9   10 1     
   22    9   35 1     
   23    9   36 1     
   24   10   11 1     
   25   10   12 1     
   26   10   37 1     
   27   11   38 1     
   28   12   13 1     
   29   12   39 1     
   30   12   40 1     
   31   13   23 1     
   32   13   14 1     
   33   14   15 2     
   34   14   41 1     
   35   15   16 1     
   36   15   55 1     
   37   16   23 ar    
   38   16   17 ar    
   39   17   18 ar    
   40   17   42 1     
   41   18   19 1     
   42   18   20 ar    
   43   19   43 1     
   44   19   44 1     
   45   19   45 1     
   46   20   21 1     
   47   20   22 ar    
   48   21   46 1     
   49   21   47 1     
   50   21   48 1     
   51   22   23 ar    
   52   22   49 1     
   53   24   25 1     
   54   24   50 1     
   55   24   51 1     
   56   25   52 1     
   57   25   53 1     
   58    3   56 1     
   59    3   57 1     
   60   11   58 1     
   61   11   59 1     
@<TRIPOS>SUBSTRUCTURE
      1 S1             1
@<TRIPOS>SET
LONE_PAIRS      STATIC     ATOMS    <user>   **** ""
4 56 57 58 59
DONOR_HYDROGENS      STATIC     ATOMS    <user>   **** ""
3 54 38 55
ATOM$BLUE        STATIC     ATOMS    COLORGROUP SYSTEM
4 56 57 58 59
ATOM$RED        STATIC     ATOMS    COLORGROUP SYSTEM
3 54 38 55
