#       Name:                AV-unprocessed.smi:377
#       Creating user name   scv26
#       Creation time:       Thu Mar 26 22:39:38 2020


#       File generated by GOLD software.
#

@<TRIPOS>MOLECULE
AV-unprocessed.smi:377
    40    41     1
SMALL
NO_CHARGES


@<TRIPOS>ATOM
      1 ****        -4.3318  -3.1004  -0.0483 C.3            1 S1                 0.0000
      2 ****        -3.4133  -2.8527  -1.2521 C.3            1 S1                 0.0000
      3 ****        -2.0244  -2.6863  -0.8409 N.am           1 S1                 0.0000
      4 ****        -1.4890  -1.5500  -0.3702 C.2            1 S1                 0.0000
      5 ****        -2.1315  -0.5068  -0.2379 O.2            1 S1                 0.0000
      6 ****        -0.0007  -1.6198   0.0062 C.3            1 S1                 0.0000
      7 ****         0.5462  -0.3377   0.5023 N.am           1 S1                 0.0000
      8 ****         0.4624  -0.0540   1.8896 C.2            1 S1                 0.0000
      9 ****        -0.0293  -0.8662   2.6752 O.2            1 S1                 0.0000
     10 ****         0.9775   1.2511   2.2970 C.2            1 S1                 0.0000
     11 ****         0.8819   1.5862   3.6790 C.1            1 S1                 0.0000
     12 ****         0.8184   1.8789   4.7970 N.1            1 S1                 0.0000
     13 ****         1.5137   2.0989   1.3952 C.2            1 S1                 0.0000
     14 ****         1.6218   1.7872   0.0574 N.am           1 S1                 0.0000
     15 ****         2.0477   2.7605  -0.9083 C.3            1 S1                 0.0000
     16 ****         3.2148   2.4589  -1.8281 C.3            1 S1                 0.0000
     17 ****         3.3746   3.4613  -0.7115 C.3            1 S1                 0.0000
     18 ****         1.0900   0.5751  -0.4338 C.2            1 S1                 0.0000
     19 ****         1.0884   0.3222  -1.6414 O.2            1 S1                 0.0000
     20 ****        -5.3600  -3.2607  -0.3731 H              1 S1                 0.0000
     21 ****        -4.3295  -2.2508   0.6355 H              1 S1                 0.0000
     22 ****        -4.0186  -3.9823   0.5112 H              1 S1                 0.0000
     23 ****        -3.4656  -3.7014  -1.9344 H              1 S1                 0.0000
     24 ****        -3.7498  -1.9810  -1.8154 H              1 S1                 0.0000
     25 ****        -1.4260  -3.4959  -0.9187 H              1 S1                 0.0000
     26 ****         0.1314  -2.4118   0.7450 H              1 S1                 0.0000
     27 ****         0.5595  -1.9730  -0.8612 H              1 S1                 0.0000
     28 ****         1.8784   3.0585   1.7329 H              1 S1                 0.0000
     29 ****         1.2516   3.3658  -1.3385 H              1 S1                 0.0000
     30 ****         3.7265   1.5050  -1.7155 H              1 S1                 0.0000
     31 ****         3.1619   2.8415  -2.8452 H              1 S1                 0.0000
     32 ****         3.4322   4.5128  -0.9852 H              1 S1                 0.0000
     33 ****         3.9899   3.1671   0.1367 H              1 S1                 0.0000
     34 ****        -3.0998  -0.4810  -0.4865 LP             1 S1                 0.0000
     35 ****        -1.6846   0.3139   0.1180 LP             1 S1                 0.0000
     36 ****        -0.3768  -1.7410   2.3376 LP             1 S1                 0.0000
     37 ****        -0.0807  -0.6505   3.6503 LP             1 S1                 0.0000
     38 ****         0.7636   2.1318   5.7629 LP             1 S1                 0.0000
     39 ****         0.6993  -0.5378  -1.9717 LP             1 S1                 0.0000
     40 ****         1.4763   0.9772  -2.2899 LP             1 S1                 0.0000
@<TRIPOS>BOND
    1    1    2 1     
    2    1   20 1     
    3    1   21 1     
    4    1   22 1     
    5    2    3 1     
    6    2   23 1     
    7    2   24 1     
    8    3    4 am    
    9    3   25 1     
   10    4    5 2     
   11    4    6 1     
   12    6    7 1     
   13    6   26 1     
   14    6   27 1     
   15    7   18 am    
   16    7    8 am    
   17    8    9 2     
   18    8   10 1     
   19   10   11 1     
   20   10   13 2     
   21   11   12 3     
   22   13   14 1     
   23   13   28 1     
   24   14   15 1     
   25   14   18 am    
   26   15   17 1     
   27   15   16 1     
   28   15   29 1     
   29   16   17 1     
   30   16   30 1     
   31   16   31 1     
   32   17   32 1     
   33   17   33 1     
   34   18   19 2     
   35    5   34 1     
   36    5   35 1     
   37    9   36 1     
   38    9   37 1     
   39   12   38 1     
   40   19   39 1     
   41   19   40 1     
@<TRIPOS>SUBSTRUCTURE
      1 S1             1
@<TRIPOS>SET
LONE_PAIRS      STATIC     ATOMS    <user>   **** ""
7 34 35 36 37 38 39 40
DONOR_HYDROGENS      STATIC     ATOMS    <user>   **** ""
1 25
ATOM$BLUE        STATIC     ATOMS    COLORGROUP SYSTEM
7 34 35 36 37 38 39 40
ATOM$RED        STATIC     ATOMS    COLORGROUP SYSTEM
1 25
