#       Name:                AV-unprocessed.smi:3043
#       Creating user name   scv26
#       Creation time:       Fri Mar 27 16:58:24 2020


#       File generated by GOLD software.
#

@<TRIPOS>MOLECULE
AV-unprocessed.smi:3043
    47    48     1
SMALL
NO_CHARGES


@<TRIPOS>ATOM
      1 ****        -4.4984   3.4413   1.8067 C.3            1 S1                 0.0000
      2 ****        -4.3607   2.9435   0.3662 C.2            1 S1                 0.0000
      3 ****        -4.6696   3.7133  -0.5433 O.2            1 S1                 0.0000
      4 ****        -3.9053   1.6877   0.1388 N.am           1 S1                 0.0000
      5 ****        -3.6837   1.1572  -1.2114 C.3            1 S1                 0.0000
      6 ****        -2.1698   1.0037  -1.4428 C.3            1 S1                 0.0000
      7 ****        -1.5241   0.0999  -0.3690 C.3            1 S1                 0.0000
      8 ****         0.0030   0.0293  -0.5499 C.3            1 S1                 0.0000
      9 ****         0.6011  -1.0186   0.3052 N.4            1 S1                 1.0000
     10 ****         2.0799  -1.0820   0.2984 C.3            1 S1                 0.0000
     11 ****         2.5530  -1.8864   1.5214 C.3            1 S1                 0.0000
     12 ****         2.6080  -1.6534  -1.0382 C.3            1 S1                 0.0000
     13 ****         4.0515  -1.8102  -1.0572 N.pl3          1 S1                 0.0000
     14 ****         5.0161  -0.8391  -1.2253 C.2            1 S1                 0.0000
     15 ****         6.2310  -1.4599  -1.1701 C.2            1 S1                 0.0000
     16 ****         5.9023  -2.8293  -0.9669 C.2            1 S1                 0.0000
     17 ****         4.5969  -3.0358  -0.9008 N.2            1 S1                 0.0000
     18 ****        -1.9257   0.5741   1.0482 C.3            1 S1                 0.0000
     19 ****        -3.4505   0.7476   1.1708 C.3            1 S1                 0.0000
     20 ****        -3.5367   3.4137   2.3200 H              1 S1                 0.0000
     21 ****        -5.2147   2.8334   2.3598 H              1 S1                 0.0000
     22 ****        -4.8545   4.4719   1.8240 H              1 S1                 0.0000
     23 ****        -4.1794   0.1900  -1.3058 H              1 S1                 0.0000
     24 ****        -4.1149   1.7879  -1.9901 H              1 S1                 0.0000
     25 ****        -1.9908   0.5919  -2.4365 H              1 S1                 0.0000
     26 ****        -1.7011   1.9890  -1.4284 H              1 S1                 0.0000
     27 ****        -1.9276  -0.9040  -0.5116 H              1 S1                 0.0000
     28 ****         0.2337  -0.1902  -1.5921 H              1 S1                 0.0000
     29 ****         0.4524   0.9964  -0.3196 H              1 S1                 0.0000
     30 ****         0.3120  -0.8278   1.2539 H              1 S1                 0.0000
     31 ****         2.4578  -0.0653   0.4174 H              1 S1                 0.0000
     32 ****         3.6382  -1.8642   1.6234 H              1 S1                 0.0000
     33 ****         2.2464  -2.9307   1.4517 H              1 S1                 0.0000
     34 ****         2.1375  -1.4787   2.4435 H              1 S1                 0.0000
     35 ****         2.1476  -2.6220  -1.2415 H              1 S1                 0.0000
     36 ****         2.3400  -1.0029  -1.8707 H              1 S1                 0.0000
     37 ****         4.7614   0.2010  -1.3667 H              1 S1                 0.0000
     38 ****         7.2064  -1.0056  -1.2624 H              1 S1                 0.0000
     39 ****         6.5687  -3.6734  -0.8664 H              1 S1                 0.0000
     40 ****        -1.5811  -0.1381   1.7985 H              1 S1                 0.0000
     41 ****        -1.4365   1.5226   1.2753 H              1 S1                 0.0000
     42 ****        -3.7066   1.0534   2.1840 H              1 S1                 0.0000
     43 ****        -3.9476  -0.2123   1.0237 H              1 S1                 0.0000
     44 ****         0.2325  -1.9195   0.0354 H              1 S1                 0.0000
     45 ****        -4.9989   4.6331  -0.3297 LP             1 S1                 0.0000
     46 ****        -4.5912   3.4189  -1.4958 LP             1 S1                 0.0000
     47 ****         4.1209  -3.9047  -0.7654 LP             1 S1                 0.0000
@<TRIPOS>BOND
    1    1    2 1     
    2    1   20 1     
    3    1   21 1     
    4    1   22 1     
    5    2    3 2     
    6    2    4 am    
    7    4   19 1     
    8    4    5 1     
    9    5    6 1     
   10    5   23 1     
   11    5   24 1     
   12    6    7 1     
   13    6   25 1     
   14    6   26 1     
   15    7    8 1     
   16    7   18 1     
   17    7   27 1     
   18    8    9 1     
   19    8   28 1     
   20    8   29 1     
   21    9   10 1     
   22    9   30 1     
   23    9   44 1     
   24   10   11 1     
   25   10   12 1     
   26   10   31 1     
   27   11   32 1     
   28   11   33 1     
   29   11   34 1     
   30   12   13 1     
   31   12   35 1     
   32   12   36 1     
   33   13   17 1     
   34   13   14 1     
   35   14   15 2     
   36   14   37 1     
   37   15   16 1     
   38   15   38 1     
   39   16   17 2     
   40   16   39 1     
   41   18   19 1     
   42   18   40 1     
   43   18   41 1     
   44   19   42 1     
   45   19   43 1     
   46    3   45 1     
   47    3   46 1     
   48   17   47 1     
@<TRIPOS>SUBSTRUCTURE
      1 S1             1
@<TRIPOS>SET
LONE_PAIRS      STATIC     ATOMS    <user>   **** ""
3 45 46 47
DONOR_HYDROGENS      STATIC     ATOMS    <user>   **** ""
2 30 44
ATOM$BLUE        STATIC     ATOMS    COLORGROUP SYSTEM
3 45 46 47
ATOM$RED        STATIC     ATOMS    COLORGROUP SYSTEM
2 30 44
