AV-unprocessed.smi:1406|AV-procd|sdf|5721|dock6
  -GOLD-   22720 5353D 1   1.00000     0.00000
 Structure written by MMmdl.
 41 43  0  0  0  0  0  0  0  0  2 V2000
  150.3657  140.5689  157.3712 C   0  0  0  0  0  0  0  0  0  0  0  0
  150.7161  140.6658  155.8727 C   0  0  2  0  0  0  0  0  0  0  0  0
  149.4862  140.9158  154.9845 C   0  0  0  0  0  0  0  0  0  0  0  0
  149.5747  140.8779  153.7567 O   0  0  0  0  0  0  0  0  0  0  0  0
  148.3310  141.1622  155.6229 N   0  0  0  0  0  0  0  0  0  0  0  0
  147.0587  141.4420  154.9634 C   0  0  2  0  0  0  0  0  0  0  0  0
  146.4752  142.8015  155.3261 C   0  0  0  0  0  0  0  0  0  0  0  0
  145.0014  142.6631  154.9288 C   0  0  0  0  0  0  0  0  0  0  0  0
  144.6698  141.2183  155.0007 N   0  3  2  0  0  0  0  0  0  0  0  0
  143.4988  140.9061  155.8640 C   0  0  0  0  0  0  0  0  0  0  0  0
  143.4662  139.4148  156.2295 C   0  0  0  0  0  0  0  0  0  0  0  0
  144.7135  139.0056  157.0356 C   0  0  0  0  0  0  0  0  0  0  0  0
  145.9171  139.9301  156.7693 C   0  0  0  0  0  0  0  0  0  0  0  0
  145.9183  140.4683  155.3172 C   0  0  2  0  0  0  0  0  0  0  0  0
  151.4520  139.4951  155.4111 N   0  0  0  0  0  0  0  0  0  0  0  0
  151.0377  138.2407  155.2209 C   0  0  0  0  0  0  0  0  0  0  0  0
  151.9919  137.4132  154.8189 N   0  0  0  0  0  0  0  0  0  0  0  0
  153.0465  138.2807  154.7841 C   0  0  0  0  0  0  0  0  0  0  0  0
  152.7802  139.5377  155.1387 N   0  0  0  0  0  0  0  0  0  0  0  0
  149.8655  141.4737  157.7183 H   0  0  0  0  0  0  0  0  0  0  0  0
  151.2668  140.4446  157.9722 H   0  0  0  0  0  0  0  0  0  0  0  0
  149.7088  139.7246  157.5850 H   0  0  0  0  0  0  0  0  0  0  0  0
  151.3760  141.5266  155.7523 H   0  0  0  0  0  0  0  0  0  0  0  0
  148.3381  141.1731  156.6325 H   0  0  0  0  0  0  0  0  0  0  0  0
  147.2115  141.4255  153.8819 H   0  0  0  0  0  0  0  0  0  0  0  0
  146.5534  142.9724  156.4011 H   0  0  0  0  0  0  0  0  0  0  0  0
  146.9730  143.6275  154.8171 H   0  0  0  0  0  0  0  0  0  0  0  0
  144.3592  143.2834  155.5554 H   0  0  0  0  0  0  0  0  0  0  0  0
  144.8590  142.9881  153.8976 H   0  0  0  0  0  0  0  0  0  0  0  0
  143.5377  141.4964  156.7813 H   0  0  0  0  0  0  0  0  0  0  0  0
  142.5863  141.1945  155.3413 H   0  0  0  0  0  0  0  0  0  0  0  0
  142.5635  139.1774  156.7933 H   0  0  0  0  0  0  0  0  0  0  0  0
  143.4160  138.8260  155.3124 H   0  0  0  0  0  0  0  0  0  0  0  0
  144.4898  139.0157  158.1030 H   0  0  0  0  0  0  0  0  0  0  0  0
  144.9716  137.9748  156.7900 H   0  0  0  0  0  0  0  0  0  0  0  0
  145.8866  140.7705  157.4641 H   0  0  0  0  0  0  0  0  0  0  0  0
  146.8363  139.3874  156.9908 H   0  0  0  0  0  0  0  0  0  0  0  0
  145.9721  139.6072  154.6491 H   0  0  0  0  0  0  0  0  0  0  0  0
  150.0170  137.9256  155.3807 H   0  0  0  0  0  0  0  0  0  0  0  0
  154.0412  137.9755  154.4939 H   0  0  0  0  0  0  0  0  0  0  0  0
  144.4175  140.9407  154.0627 H   0  0  0  0  0  0  0  0  0  0  0  0
  1  2  1  0  0  0  0
  1 20  1  0  0  0  0
  1 21  1  0  0  0  0
  1 22  1  0  0  0  0
  2  3  1  0  0  0  0
  2 15  1  0  0  0  0
  2 23  1  0  0  0  0
  3  4  2  0  0  0  0
  3  5  1  0  0  0  0
  5  6  1  0  0  0  0
  5 24  1  0  0  0  0
  6 14  1  0  0  0  0
  6  7  1  0  0  0  0
  6 25  1  0  0  0  0
  7  8  1  0  0  0  0
  7 26  1  0  0  0  0
  7 27  1  0  0  0  0
  8  9  1  0  0  0  0
  8 28  1  0  0  0  0
  8 29  1  0  0  0  0
  9 14  1  0  0  0  0
  9 10  1  0  0  0  0
  9 41  1  0  0  0  0
 10 11  1  0  0  0  0
 10 30  1  0  0  0  0
 10 31  1  0  0  0  0
 11 12  1  0  0  0  0
 11 32  1  0  0  0  0
 11 33  1  0  0  0  0
 12 13  1  0  0  0  0
 12 34  1  0  0  0  0
 12 35  1  0  0  0  0
 13 14  1  0  0  0  0
 13 36  1  0  0  0  0
 13 37  1  0  0  0  0
 14 38  1  0  0  0  0
 15 19  1  0  0  0  0
 15 16  1  0  0  0  0
 16 17  2  0  0  0  0
 16 39  1  0  0  0  0
 17 18  1  0  0  0  0
 18 19  2  0  0  0  0
 18 40  1  0  0  0  0
M  CHG  1   9   1
M  END
> <s_m_source_file>
AV-unprocessed.smi

> <i_m_source_file_index>
1406

> <i_lp_mmshare_version>
43012

> <i_f3d_flags>
0

> <s_epik_input>
bjFbY0hdbltjSF1uMVtDQEhdKFtDSDNdKUMoPU8pW05IXVtDQEhdKFtDSDJdW0NIMl0yKVtDQEBIXShOMjMpW0NIMl1bQ0gyXVtDSDJdW0NIMl0z

> <s_epik_cmdline>
J2VwaWtfcHl0aG9uJywgJy1waCcsICc3LjAnLCAnLXRuJywgJzgnLCAnLW1hJywgJzIwMCcsICctbWV0YWxfYmluZGluZycsICctaW1hZScsICc8aW5maWxlLm1hZT4nLCAnLW9tYWUnLCAnPG91dGZpbGUubWFlPic=

> <r_lp_tautomer_probability>
1

> <r_epik_Ionization_Penalty>
0.00197066

> <r_epik_Ionization_Penalty_Charging>
0.00196223

> <r_epik_Ionization_Penalty_Neutral>
8.43107e-06

> <r_epik_State_Penalty>
0.00133866

> <r_epik_Charging_Adjusted_Penalty>
0.00330089

> <i_epik_Tot_Q>
1

> <i_epik_Tot_abs_Q>
1

> <r_epik_Metal_State_Penalty>
-0

> <b_epik_Metal_Only>
0

> <s_lp_Force_Field>
OPLS_2005

> <r_lp_Energy>
46.3739

> <b_lp_Chiralities_Consistent>
1

> <s_lp_Variant>
AV-unprocessed.smi:1406-13

> <Gold.Version>
5.8.1

> <Gold.Id.Protein>
6NUR|6NUR_protein|mol2

> <Gold.PLP.Fitness>
41.1339

> <Gold.PLP.PLP>
-26.5195

> <Gold.PLP.part.hbond>
-6.0000

> <Gold.PLP.part.metal>
0.0000

> <Gold.PLP.part.buried>
-3.9113

> <Gold.PLP.part.nonpolar>
-20.4878

> <Gold.PLP.part.repulsive>
2.8677

> <Gold.PLP.ligand.clash>
0.0933

> <Gold.PLP.ligand.torsion>
0.3849

> <Gold.PLP.Chemscore.Hbond>
5.1272

> <Gold.PLP.Chemscore.CHOScore>
0.0000

> <Gold.PLP.Chemscore.Metal>
0.0000

> <Gold.Chemscore.Hbonds>
donor molecule, donor type, donor heavy atom, donor atom, acceptor molecule, acceptor atom, score
      L1  H     9    41       P1 10175  2.00
      P1  H  7989  7998       L1     4  0.39
      P1  H  7997  8010       L1    19  1.00
      P1  H  8011  8017       L1     4  0.81
      P1  H 10752 10764       L1    17  0.69

> <Gold.PLP.Chemscore.Internal.Correction>
0.0959

> <Gold.Rescore>
     Score         DG    S(hbond)    S(metal)    S(lipo)     H(rot)  DE(clash)    DE(int)     intcor
     12.26     -14.15       3.11        0.00      26.62       1.89       1.52       0.37       ----

> <Gold.Chemscore.Fitness>
12.2635

> <Gold.Chemscore.DG>
-14.1469

> <Gold.Chemscore.ZeroCoef>
-5.4800

> <Gold.Chemscore.Hbond>
3.1085

> <Gold.Chemscore.Metal>
0.0000

> <Gold.Chemscore.Lipo>
26.6158

> <Gold.Chemscore.Internal_Hbond>
0.0000

> <Gold.Chemscore.DEClash>
1.5158

> <Gold.Chemscore.DEInternal>
0.3676

> <Gold.Chemscore.Rot>
1.8865

> <Gold.Chemscore.Internal.Correction>
   9.000000E+99

> <Gold.Chemscore.Hbonds>
donor molecule, donor type, donor heavy atom, donor atom, acceptor molecule, acceptor atom, score
      L1  H     9    41       P1 10175  0.91
      P1  H  7989  7998       L1     4  0.14
      P1  H  7997  8010       L1    19  0.37
      P1  H  8011  8017       L1     4  0.76
      P1  H 10752 10764       L1    17  0.15

> <Gold.Chemscore.Hbond.Weighted>
-10.3824

> <Gold.Chemscore.Metal.Weighted>
-0.0000

> <Gold.Chemscore.Lipo.Weighted>
-3.1140

> <Gold.Chemscore.Internal_Hbond.Weighted>
0.0000

> <Gold.Chemscore.DEClash.Weighted>
1.5158

> <Gold.Chemscore.DEInternal.Weighted>
0.3676

> <Gold.Chemscore.Rot.Weighted>
4.8295

> <Gold.Chemscore.Internal.Correction.Weighted>
   9.000000E+99

> <Gold.Protein.RotatedTorsions>
[ 6907 6896 6895 6894 ] final   50.23 input  -60.11 | X-H torsion
[ 7974 7965 7964 7962 ] final  -26.21 input  175.53 | X-H torsion
[ 8008 7997 7996 7995 ] final  117.77 input   59.86 | X-H torsion
[ 10167 10162 10161 10158 ] final  139.40 input  -65.29 | X-H torsion
[ 10718 10713 10712 10709 ] final  166.54 input   66.30 | X-H torsion
[ 10763 10752 10751 10750 ] final  -80.95 input  -60.55 | X-H torsion
[ 11005 11000 10999 10996 ] final  140.37 input  -57.11 | X-H torsion

> <Gold.Protein.ActiveResidues>
 VAL166  LYS551  ARG553  GLY616  TRP617  ASP618  TYR619  PRO620  LYS621  CYS622 
 ASP623  PHE694  ASN695  SER759  ASP760  ASP761  ALA762  ILE779  LEU786  VAL792 
 PHE793  MET794  SER795  GLU796  ALA797  LYS798  CYS799  TRP800  GLU811  SER814 

> <Gold.Protein.RotatedAtoms>
  152.2995  134.7628  160.0360 H   0  0  0  0  0  0  0  0  0  0  0  0  # atno 6907 bound_to 6896
  151.8146  133.3381  159.3574 H   0  0  0  0  0  0  0  0  0  0  0  0  # atno 6908 bound_to 6896
  150.7267  134.5561  159.5863 H   0  0  0  0  0  0  0  0  0  0  0  0  # atno 6909 bound_to 6896
  146.1440  140.4990  142.8640 H   0  0  0  0  0  0  0  0  0  0  0  0  # atno 7974 bound_to 7965
  156.2512  140.2889  156.0730 H   0  0  0  0  0  0  0  0  0  0  0  0  # atno 8008 bound_to 7997
  155.1649  140.0400  157.2868 H   0  0  0  0  0  0  0  0  0  0  0  0  # atno 8009 bound_to 7997
  154.6366  140.2512  155.7377 H   0  0  0  0  0  0  0  0  0  0  0  0  # atno 8010 bound_to 7997
  139.5080  144.6297  151.5849 H   0  0  0  0  0  0  0  0  0  0  0  0  # atno 10167 bound_to 10162
  157.0644  131.0349  151.2635 H   0  0  0  0  0  0  0  0  0  0  0  0  # atno 10718 bound_to 10713
  154.5575  135.5643  153.6977 H   0  0  0  0  0  0  0  0  0  0  0  0  # atno 10763 bound_to 10752
  153.0008  135.6266  154.2290 H   0  0  0  0  0  0  0  0  0  0  0  0  # atno 10764 bound_to 10752
  154.2227  135.2869  155.2899 H   0  0  0  0  0  0  0  0  0  0  0  0  # atno 10765 bound_to 10752
  140.0323  134.9346  157.0685 H   0  0  0  0  0  0  0  0  0  0  0  0  # atno 11005 bound_to 11000
  144.7825  140.5869  143.6596 LP  0  0  0  0  0  0  0  0  0  0  0  0  # atno 17320 bound_to 7965
  145.4980  139.1485  143.3673 LP  0  0  0  0  0  0  0  0  0  0  0  0  # atno 17321 bound_to 7965
  140.6025  143.9583  150.6396 LP  0  0  0  0  0  0  0  0  0  0  0  0  # atno 17342 bound_to 10162
  140.2799  143.3396  152.1160 LP  0  0  0  0  0  0  0  0  0  0  0  0  # atno 17343 bound_to 10162
  157.4929  130.7833  149.7525 LP  0  0  0  0  0  0  0  0  0  0  0  0  # atno 17370 bound_to 10713
  155.9969  130.3903  150.2762 LP  0  0  0  0  0  0  0  0  0  0  0  0  # atno 17371 bound_to 10713
  140.4206  134.1885  155.7164 LP  0  0  0  0  0  0  0  0  0  0  0  0  # atno 17394 bound_to 11000
  141.1838  133.8358  157.1163 LP  0  0  0  0  0  0  0  0  0  0  0  0  # atno 17395 bound_to 11000

$$$$
