AV-unprocessed.smi:1236|AV-procd|sdf|5181|dock10
  -GOLD-   22720 4263D 1   1.00000     0.00000
 Structure written by MMmdl.
 40 41  0  0  0  0  0  0  0  0  2 V2000
  146.7983  139.5775  152.4623 C   0  0  0  0  0  0  0  0  0  0  0  0
  146.6322  138.4329  153.4710 C   0  0  2  0  0  0  0  0  0  0  0  0
  147.6379  138.5655  154.6388 C   0  0  0  0  0  0  0  0  0  0  0  0
  148.9152  137.8494  154.3928 N   0  3  0  0  0  0  0  0  0  0  0  0
  150.1004  138.7366  154.4386 C   0  0  0  0  0  0  0  0  0  0  0  0
  151.3710  137.9426  154.0892 C   0  0  0  0  0  0  0  0  0  0  0  0
  151.5091  136.8415  154.9794 O   0  0  0  0  0  0  0  0  0  0  0  0
  150.4114  135.9411  154.8890 C   0  0  0  0  0  0  0  0  0  0  0  0
  149.1153  136.6731  155.2733 C   0  0  0  0  0  0  0  0  0  0  0  0
  146.7875  137.1560  152.7714 N   0  0  0  0  0  0  0  0  0  0  0  0
  145.7962  136.3173  152.4328 C   0  0  0  0  0  0  0  0  0  0  0  0
  144.6126  136.5248  152.7016 O   0  0  0  0  0  0  0  0  0  0  0  0
  146.2683  135.2378  151.7855 N   0  0  0  0  0  0  0  0  0  0  0  0
  145.5432  134.1061  151.3258 C   0  0  0  0  0  0  0  0  0  0  0  0
  146.3377  133.0252  150.8815 C   0  0  0  0  0  0  0  0  0  0  0  0
  145.7135  131.8537  150.4110 C   0  0  0  0  0  0  0  0  0  0  0  0
  144.3087  131.7934  150.3973 C   0  0  0  0  0  0  0  0  0  0  0  0
  143.5921  132.9133  150.8576 C   0  0  0  0  0  0  0  0  0  0  0  0
  144.1885  134.0363  151.3109 N   0  0  0  0  0  0  0  0  0  0  0  0
  146.6438  140.5455  152.9400 H   0  0  0  0  0  0  0  0  0  0  0  0
  146.0752  139.4943  151.6501 H   0  0  0  0  0  0  0  0  0  0  0  0
  147.7958  139.5796  152.0214 H   0  0  0  0  0  0  0  0  0  0  0  0
  145.6159  138.5035  153.8611 H   0  0  0  0  0  0  0  0  0  0  0  0
  147.8463  139.6265  154.7861 H   0  0  0  0  0  0  0  0  0  0  0  0
  147.1959  138.2126  155.5719 H   0  0  0  0  0  0  0  0  0  0  0  0
  149.9780  139.5583  153.7319 H   0  0  0  0  0  0  0  0  0  0  0  0
  150.1915  139.1767  155.4329 H   0  0  0  0  0  0  0  0  0  0  0  0
  151.3369  137.5887  153.0575 H   0  0  0  0  0  0  0  0  0  0  0  0
  152.2497  138.5813  154.1785 H   0  0  0  0  0  0  0  0  0  0  0  0
  150.3423  135.5299  153.8804 H   0  0  0  0  0  0  0  0  0  0  0  0
  150.5843  135.1030  155.5640 H   0  0  0  0  0  0  0  0  0  0  0  0
  149.1623  136.9951  156.3147 H   0  0  0  0  0  0  0  0  0  0  0  0
  148.2734  135.9865  155.1894 H   0  0  0  0  0  0  0  0  0  0  0  0
  147.7283  136.9017  152.5070 H   0  0  0  0  0  0  0  0  0  0  0  0
  147.2630  135.2131  151.6154 H   0  0  0  0  0  0  0  0  0  0  0  0
  147.4162  133.0879  150.8984 H   0  0  0  0  0  0  0  0  0  0  0  0
  146.3030  131.0166  150.0672 H   0  0  0  0  0  0  0  0  0  0  0  0
  143.7941  130.9123  150.0432 H   0  0  0  0  0  0  0  0  0  0  0  0
  142.5124  132.9077  150.8639 H   0  0  0  0  0  0  0  0  0  0  0  0
  148.8639  137.4981  153.4470 H   0  0  0  0  0  0  0  0  0  0  0  0
  1  2  1  0  0  0  0
  1 20  1  0  0  0  0
  1 21  1  0  0  0  0
  1 22  1  0  0  0  0
  2  3  1  0  0  0  0
  2 10  1  0  0  0  0
  2 23  1  0  0  0  0
  3  4  1  0  0  0  0
  3 24  1  0  0  0  0
  3 25  1  0  0  0  0
  4  9  1  0  0  0  0
  4  5  1  0  0  0  0
  4 40  1  0  0  0  0
  5  6  1  0  0  0  0
  5 26  1  0  0  0  0
  5 27  1  0  0  0  0
  6  7  1  0  0  0  0
  6 28  1  0  0  0  0
  6 29  1  0  0  0  0
  7  8  1  0  0  0  0
  8  9  1  0  0  0  0
  8 30  1  0  0  0  0
  8 31  1  0  0  0  0
  9 32  1  0  0  0  0
  9 33  1  0  0  0  0
 10 11  1  0  0  0  0
 10 34  1  0  0  0  0
 11 12  2  0  0  0  0
 11 13  1  0  0  0  0
 13 14  1  0  0  0  0
 13 35  1  0  0  0  0
 14 19  1  0  0  0  0
 14 15  2  0  0  0  0
 15 16  1  0  0  0  0
 15 36  1  0  0  0  0
 16 17  2  0  0  0  0
 16 37  1  0  0  0  0
 17 18  1  0  0  0  0
 17 38  1  0  0  0  0
 18 19  2  0  0  0  0
 18 39  1  0  0  0  0
M  CHG  1   4   1
M  END
> <s_m_source_file>
AV-unprocessed.smi

> <i_m_source_file_index>
1236

> <i_lp_mmshare_version>
43012

> <i_f3d_flags>
0

> <s_epik_input>
W0NIMl0xW0NIMl1PW0NIMl1bQ0gyXU4xW0NIMl1bQ0BASF0oW0NIM10pW05IXUMoPU8pW05IXWMyW2NIXVtjSF1bY0hdW2NIXW4y

> <s_epik_cmdline>
J2VwaWtfcHl0aG9uJywgJy1waCcsICc3LjAnLCAnLXRuJywgJzgnLCAnLW1hJywgJzIwMCcsICctbWV0YWxfYmluZGluZycsICctaW1hZScsICc8aW5maWxlLm1hZT4nLCAnLW9tYWUnLCAnPG91dGZpbGUubWFlPic=

> <r_epik_Ionization_Penalty>
0.602564

> <r_epik_Ionization_Penalty_Charging>
0.602531

> <r_epik_Ionization_Penalty_Neutral>
3.36306e-05

> <r_epik_State_Penalty>
0.617039

> <r_epik_Charging_Adjusted_Penalty>
1.21957

> <i_epik_Tot_Q>
1

> <i_epik_Tot_abs_Q>
1

> <r_epik_Metal_State_Penalty>
0.617041

> <b_epik_Metal_Only>
0

> <s_lp_Force_Field>
OPLS_2005

> <r_lp_Energy>
24.2739

> <b_lp_Chiralities_Consistent>
1

> <s_lp_Variant>
AV-unprocessed.smi:1236-3

> <Gold.Version>
5.8.1

> <Gold.Id.Protein>
6NUR|6NUR_protein|mol2

> <Gold.PLP.Fitness>
46.5927

> <Gold.PLP.PLP>
-31.6437

> <Gold.PLP.part.hbond>
-3.9538

> <Gold.PLP.part.metal>
0.0000

> <Gold.PLP.part.buried>
-3.8419

> <Gold.PLP.part.nonpolar>
-25.3052

> <Gold.PLP.part.repulsive>
0.5091

> <Gold.PLP.ligand.clash>
0.0000

> <Gold.PLP.ligand.torsion>
1.3040

> <Gold.PLP.Chemscore.Hbond>
4.8960

> <Gold.PLP.Chemscore.CHOScore>
0.9499

> <Gold.PLP.Chemscore.Metal>
0.0000

> <Gold.Chemscore.Hbonds>
donor molecule, donor type, donor heavy atom, donor atom, acceptor molecule, acceptor atom, score
      L1  H     4    40       P1  7948  2.00
      L1  H    10    34       P1  7948  1.00
      L1  H    13    35       P1  7948  0.90
      P1  H 10752 10763       L1     7  0.95
      L1  C    18    39       P1 10186  0.94

> <Gold.PLP.Chemscore.Internal.Correction>
0.0191

> <Gold.Rescore>
     Score         DG    S(hbond)    S(metal)    S(lipo)     H(rot)  DE(clash)    DE(int)     intcor
     18.07     -20.72       3.01        0.00      78.33       1.56       0.05       2.60       ----

> <Gold.Chemscore.Fitness>
18.0709

> <Gold.Chemscore.DG>
-20.7212

> <Gold.Chemscore.ZeroCoef>
-5.4800

> <Gold.Chemscore.Hbond>
3.0138

> <Gold.Chemscore.Metal>
0.0000

> <Gold.Chemscore.Lipo>
78.3314

> <Gold.Chemscore.Internal_Hbond>
0.0000

> <Gold.Chemscore.DEClash>
0.0453

> <Gold.Chemscore.DEInternal>
2.6050

> <Gold.Chemscore.Rot>
1.5584

> <Gold.Chemscore.Internal.Correction>
   9.000000E+99

> <Gold.Chemscore.Hbonds>
donor molecule, donor type, donor heavy atom, donor atom, acceptor molecule, acceptor atom, score
      L1  H     4    40       P1  7948  0.94
      L1  H    10    34       P1  7948  0.93
      L1  H    13    35       P1  7948  0.81
      P1  H 10752 10763       L1     7  0.13

> <Gold.Chemscore.Hbond.Weighted>
-10.0661

> <Gold.Chemscore.Metal.Weighted>
-0.0000

> <Gold.Chemscore.Lipo.Weighted>
-9.1648

> <Gold.Chemscore.Internal_Hbond.Weighted>
0.0000

> <Gold.Chemscore.DEClash.Weighted>
0.0453

> <Gold.Chemscore.DEInternal.Weighted>
2.6050

> <Gold.Chemscore.Rot.Weighted>
3.9896

> <Gold.Chemscore.Internal.Correction.Weighted>
   9.000000E+99

> <Gold.Protein.RotatedTorsions>
[ 6907 6896 6895 6894 ] final   -2.97 input  -60.11 | X-H torsion
[ 7974 7965 7964 7962 ] final   79.53 input  175.53 | X-H torsion
[ 8008 7997 7996 7995 ] final -168.68 input   59.86 | X-H torsion
[ 10167 10162 10161 10158 ] final    9.38 input  -65.29 | X-H torsion
[ 10718 10713 10712 10709 ] final   72.90 input   66.30 | X-H torsion
[ 10763 10752 10751 10750 ] final   39.53 input  -60.55 | X-H torsion
[ 11005 11000 10999 10996 ] final   50.41 input  -57.11 | X-H torsion

> <Gold.Protein.ActiveResidues>
 VAL166  LYS551  ARG553  GLY616  TRP617  ASP618  TYR619  PRO620  LYS621  CYS622 
 ASP623  PHE694  ASN695  SER759  ASP760  ASP761  ALA762  ILE779  LEU786  VAL792 
 PHE793  MET794  SER795  GLU796  ALA797  LYS798  CYS799  TRP800  GLU811  SER814 

> <Gold.Protein.RotatedAtoms>
  151.5213  135.1067  159.9878 H   0  0  0  0  0  0  0  0  0  0  0  0  # atno 6907 bound_to 6896
  152.4619  133.7836  159.6875 H   0  0  0  0  0  0  0  0  0  0  0  0  # atno 6908 bound_to 6896
  150.8585  133.7614  159.3025 H   0  0  0  0  0  0  0  0  0  0  0  0  # atno 6909 bound_to 6896
  145.6630  139.2476  143.1912 H   0  0  0  0  0  0  0  0  0  0  0  0  # atno 7974 bound_to 7965
  155.8948  140.1031  157.1393 H   0  0  0  0  0  0  0  0  0  0  0  0  # atno 8008 bound_to 7997
  154.4019  140.1304  156.4425 H   0  0  0  0  0  0  0  0  0  0  0  0  # atno 8009 bound_to 7997
  155.7492  140.3465  155.5144 H   0  0  0  0  0  0  0  0  0  0  0  0  # atno 8010 bound_to 7997
  140.6258  143.8104  150.7232 H   0  0  0  0  0  0  0  0  0  0  0  0  # atno 10167 bound_to 10162
  157.6523  130.9602  150.0994 H   0  0  0  0  0  0  0  0  0  0  0  0  # atno 10718 bound_to 10713
  152.9964  135.6218  154.2480 H   0  0  0  0  0  0  0  0  0  0  0  0  # atno 10763 bound_to 10752
  154.2219  135.2795  155.2923 H   0  0  0  0  0  0  0  0  0  0  0  0  # atno 10764 bound_to 10752
  154.5521  135.5730  153.6990 H   0  0  0  0  0  0  0  0  0  0  0  0  # atno 10765 bound_to 10752
  140.1020  134.5068  155.8754 H   0  0  0  0  0  0  0  0  0  0  0  0  # atno 11005 bound_to 11000
  146.1110  140.7429  142.9503 LP  0  0  0  0  0  0  0  0  0  0  0  0  # atno 17320 bound_to 7965
  144.7083  140.3938  143.7101 LP  0  0  0  0  0  0  0  0  0  0  0  0  # atno 17321 bound_to 7965
  140.1704  143.4199  152.2005 LP  0  0  0  0  0  0  0  0  0  0  0  0  # atno 17342 bound_to 10162
  139.5479  144.7313  151.4526 LP  0  0  0  0  0  0  0  0  0  0  0  0  # atno 17343 bound_to 10162
  156.1920  130.3655  149.8897 LP  0  0  0  0  0  0  0  0  0  0  0  0  # atno 17370 bound_to 10713
  156.6823  130.8863  151.3577 LP  0  0  0  0  0  0  0  0  0  0  0  0  # atno 17371 bound_to 10713
  141.2108  133.6699  156.6537 LP  0  0  0  0  0  0  0  0  0  0  0  0  # atno 17394 bound_to 11000
  140.3207  134.8010  157.4250 LP  0  0  0  0  0  0  0  0  0  0  0  0  # atno 17395 bound_to 11000

$$$$
