AV-unprocessed.smi:80|AV-procd|sdf|785|dock2
  -GOLD-   2262017153D 1   1.00000     0.00000
 Structure written by MMmdl.
 51 54  0  0  0  0  0  0  0  0  1 V2000
  156.5748  130.7240  153.0430 N   0  0  0  0  0  0  0  0  0  0  0  0
  155.9906  130.2287  153.9106 C   0  0  0  0  0  0  0  0  0  0  0  0
  155.2488  129.5953  155.0135 C   0  0  0  0  0  0  0  0  0  0  0  0
  154.8510  130.5729  156.1272 C   0  0  0  0  0  0  0  0  0  0  0  0
  155.7268  131.2505  156.6665 O   0  0  0  0  0  0  0  0  0  0  0  0
  153.5476  130.6549  156.4830 N   0  0  0  0  0  0  0  0  0  0  0  0
  152.9995  131.5791  157.4834 C   0  0  0  0  0  0  0  0  0  0  0  0
  152.1226  132.6200  156.7642 C   0  0  0  0  0  0  0  0  0  0  0  0
  151.0991  131.9574  155.9574 N   0  0  0  0  0  0  0  0  0  0  0  0
  150.2216  132.8112  155.3917 C   0  0  0  0  0  0  0  0  0  0  0  0
  150.1379  134.0550  155.9228 N   0  0  0  0  0  0  0  0  0  0  0  0
  149.2879  134.9456  155.4025 C   0  0  0  0  0  0  0  0  0  0  0  0
  148.4518  134.7992  154.3720 N   0  0  0  0  0  0  0  0  0  0  0  0
  148.5369  133.5477  153.8347 C   0  0  0  0  0  0  0  0  0  0  0  0
  149.3871  132.4978  154.2824 C   0  0  0  0  0  0  0  0  0  0  0  0
  149.1944  131.3648  153.5022 N   0  0  0  0  0  0  0  0  0  0  0  0
  148.2778  131.7229  152.6448 C   0  0  0  0  0  0  0  0  0  0  0  0
  147.8369  133.0233  152.7611 N   0  0  0  0  0  0  0  0  0  0  0  0
  146.8285  133.6714  151.9703 C   0  0  0  0  0  0  0  0  0  0  0  0
  145.4197  133.8767  152.5290 C   0  0  0  0  0  0  0  0  0  0  0  0
  144.8147  133.6227  151.1293 C   0  0  0  0  0  0  0  0  0  0  0  0
  143.6178  132.6596  151.1245 C   0  0  0  0  0  0  0  0  0  0  0  0
  143.2140  132.3426  149.8079 O   0  0  0  0  0  0  0  0  0  0  0  0
  144.3934  134.8750  150.3287 C   0  0  0  0  0  0  0  0  0  0  0  0
  144.1234  134.6033  148.9684 O   0  0  0  0  0  0  0  0  0  0  0  0
  146.1746  132.9827  150.7681 C   0  0  0  0  0  0  0  0  0  0  0  0
  151.5834  130.9202  155.0473 C   0  0  0  0  0  0  0  0  0  0  0  0
  152.4805  129.9163  155.7962 C   0  0  0  0  0  0  0  0  0  0  0  0
  154.3578  129.1354  154.5851 H   0  0  0  0  0  0  0  0  0  0  0  0
  155.8830  128.8058  155.4178 H   0  0  0  0  0  0  0  0  0  0  0  0
  152.3966  131.0143  158.1958 H   0  0  0  0  0  0  0  0  0  0  0  0
  153.7591  132.0835  158.0781 H   0  0  0  0  0  0  0  0  0  0  0  0
  151.6463  133.2741  157.4955 H   0  0  0  0  0  0  0  0  0  0  0  0
  152.7460  133.2494  156.1280 H   0  0  0  0  0  0  0  0  0  0  0  0
  149.2768  135.9150  155.8789 H   0  0  0  0  0  0  0  0  0  0  0  0
  147.8972  131.0381  151.9013 H   0  0  0  0  0  0  0  0  0  0  0  0
  147.2518  134.6257  151.6546 H   0  0  0  0  0  0  0  0  0  0  0  0
  145.1494  133.1105  153.2574 H   0  0  0  0  0  0  0  0  0  0  0  0
  145.2409  134.8735  152.9337 H   0  0  0  0  0  0  0  0  0  0  0  0
  143.8687  131.7252  151.6275 H   0  0  0  0  0  0  0  0  0  0  0  0
  142.7688  133.0812  151.6636 H   0  0  0  0  0  0  0  0  0  0  0  0
  142.3734  132.7433  149.6470 H   0  0  0  0  0  0  0  0  0  0  0  0
  143.4959  135.3259  150.7530 H   0  0  0  0  0  0  0  0  0  0  0  0
  145.1722  135.6373  150.3658 H   0  0  0  0  0  0  0  0  0  0  0  0
  144.8867  134.8293  148.4591 H   0  0  0  0  0  0  0  0  0  0  0  0
  146.5789  133.2907  149.8032 H   0  0  0  0  0  0  0  0  0  0  0  0
  146.1595  131.8954  150.8491 H   0  0  0  0  0  0  0  0  0  0  0  0
  150.7359  130.3993  154.6001 H   0  0  0  0  0  0  0  0  0  0  0  0
  152.1448  131.3770  154.2313 H   0  0  0  0  0  0  0  0  0  0  0  0
  152.8607  129.1682  155.0993 H   0  0  0  0  0  0  0  0  0  0  0  0
  151.8934  129.3673  156.5339 H   0  0  0  0  0  0  0  0  0  0  0  0
  1  2  3  0  0  0  0
  2  3  1  0  0  0  0
  3  4  1  0  0  0  0
  3 29  1  0  0  0  0
  3 30  1  0  0  0  0
  4  5  2  0  0  0  0
  4  6  1  0  0  0  0
  6 28  1  0  0  0  0
  6  7  1  0  0  0  0
  7  8  1  0  0  0  0
  7 31  1  0  0  0  0
  7 32  1  0  0  0  0
  8  9  1  0  0  0  0
  8 33  1  0  0  0  0
  8 34  1  0  0  0  0
  9 10  1  0  0  0  0
  9 27  1  0  0  0  0
 10 15  1  0  0  0  0
 10 11  2  0  0  0  0
 11 12  1  0  0  0  0
 12 13  2  0  0  0  0
 12 35  1  0  0  0  0
 13 14  1  0  0  0  0
 14 18  1  0  0  0  0
 14 15  2  0  0  0  0
 15 16  1  0  0  0  0
 16 17  2  0  0  0  0
 17 18  1  0  0  0  0
 17 36  1  0  0  0  0
 18 19  1  0  0  0  0
 19 26  1  0  0  0  0
 19 20  1  0  0  0  0
 19 37  1  0  0  0  0
 20 21  1  0  0  0  0
 20 38  1  0  0  0  0
 20 39  1  0  0  0  0
 21 22  1  0  0  0  0
 21 24  1  0  0  0  0
 21 26  1  0  0  0  0
 22 23  1  0  0  0  0
 22 40  1  0  0  0  0
 22 41  1  0  0  0  0
 23 42  1  0  0  0  0
 24 25  1  0  0  0  0
 24 43  1  0  0  0  0
 24 44  1  0  0  0  0
 25 45  1  0  0  0  0
 26 46  1  0  0  0  0
 26 47  1  0  0  0  0
 27 28  1  0  0  0  0
 27 48  1  0  0  0  0
 27 49  1  0  0  0  0
 28 50  1  0  0  0  0
 28 51  1  0  0  0  0
M  END
> <s_m_source_file>
AV-unprocessed.smi

> <i_m_source_file_index>
80

> <i_lp_mmshare_version>
43012

> <i_f3d_flags>
0

> <s_epik_input>
TiNDW0NIMl1DKD1PKU4xW0NIMl1bQ0gyXU4oW0NIMl1bQ0gyXTEpYyhuW2NIXW4yKWMoYzIzKW5bY0hdbjNbQ0hdKFtDSDJdNClbQ0gyXUM0KFtDSDJdW09IXSlbQ0gyXVtPSF0=

> <s_epik_cmdline>
J2VwaWtfcHl0aG9uJywgJy1waCcsICc3LjAnLCAnLXRuJywgJzgnLCAnLW1hJywgJzIwMCcsICctbWV0YWxfYmluZGluZycsICctaW1hZScsICc8aW5maWxlLm1hZT4nLCAnLW9tYWUnLCAnPG91dGZpbGUubWFlPic=

> <r_lp_tautomer_probability>
1

> <r_epik_Ionization_Penalty>
0.000827394

> <r_epik_Ionization_Penalty_Charging>
0

> <r_epik_Ionization_Penalty_Neutral>
0.000827394

> <r_epik_State_Penalty>
0.000406949

> <r_epik_Charging_Adjusted_Penalty>
0.000406949

> <i_epik_Tot_Q>
0

> <i_epik_Tot_abs_Q>
0

> <r_epik_Metal_State_Penalty>
-0

> <b_epik_Metal_Only>
0

> <s_lp_Force_Field>
OPLS_2005

> <r_lp_Energy>
60.4217

> <b_lp_Chiralities_Consistent>
1

> <s_lp_Variant>
AV-unprocessed.smi:80-1

> <Gold.Version>
5.8.1

> <Gold.Id.Protein>
6NUR|6NUR_protein|mol2

> <Gold.PLP.Fitness>
52.7813

> <Gold.PLP.PLP>
-43.0600

> <Gold.PLP.part.hbond>
-4.0664

> <Gold.PLP.part.metal>
0.0000

> <Gold.PLP.part.buried>
-4.4599

> <Gold.PLP.part.nonpolar>
-34.7115

> <Gold.PLP.part.repulsive>
1.4636

> <Gold.PLP.ligand.clash>
0.0000

> <Gold.PLP.ligand.torsion>
1.0154

> <Gold.PLP.Chemscore.Hbond>
2.9913

> <Gold.PLP.Chemscore.CHOScore>
0.7036

> <Gold.PLP.Chemscore.Metal>
0.0000

> <Gold.Chemscore.Hbonds>
donor molecule, donor type, donor heavy atom, donor atom, acceptor molecule, acceptor atom, score
      L1  H    23    42       P1 10186  0.68
      L1  H    25    45       P1  7921  0.89
      P1  H 10713 10718       L1     1  1.00
      L1  C    17    36       P1 10747  0.57

> <Gold.PLP.Chemscore.Internal.Correction>
0.6676

> <Gold.Rescore>
     Score         DG    S(hbond)    S(metal)    S(lipo)     H(rot)  DE(clash)    DE(int)     intcor
      9.83     -12.94       3.00        0.00      61.75       3.82       0.73       2.38       ----

> <Gold.Chemscore.Fitness>
9.8272

> <Gold.Chemscore.DG>
-12.9395

> <Gold.Chemscore.ZeroCoef>
-5.4800

> <Gold.Chemscore.Hbond>
2.9956

> <Gold.Chemscore.Metal>
0.0000

> <Gold.Chemscore.Lipo>
61.7452

> <Gold.Chemscore.Internal_Hbond>
0.0000

> <Gold.Chemscore.DEClash>
0.7306

> <Gold.Chemscore.DEInternal>
2.3816

> <Gold.Chemscore.Rot>
3.8164

> <Gold.Chemscore.Internal.Correction>
   9.000000E+99

> <Gold.Chemscore.Hbonds>
donor molecule, donor type, donor heavy atom, donor atom, acceptor molecule, acceptor atom, score
      L1  H    23    42       P1 10186  0.65
      L1  H    25    45       P1  7921  0.87
      P1  H 10713 10718       L1     1  1.00
      P1  H 10785 10796       L1    23  0.04

> <Gold.Chemscore.Hbond.Weighted>
-10.0052

> <Gold.Chemscore.Metal.Weighted>
-0.0000

> <Gold.Chemscore.Lipo.Weighted>
-7.2242

> <Gold.Chemscore.Internal_Hbond.Weighted>
0.0000

> <Gold.Chemscore.DEClash.Weighted>
0.7306

> <Gold.Chemscore.DEInternal.Weighted>
2.3816

> <Gold.Chemscore.Rot.Weighted>
9.7699

> <Gold.Chemscore.Internal.Correction.Weighted>
   9.000000E+99

> <Gold.Protein.RotatedTorsions>
[ 6907 6896 6895 6894 ] final   66.33 input  -60.11 | X-H torsion
[ 7974 7965 7964 7962 ] final -155.39 input  175.53 | X-H torsion
[ 8008 7997 7996 7995 ] final -164.96 input   59.86 | X-H torsion
[ 10167 10162 10161 10158 ] final  -60.78 input  -65.29 | X-H torsion
[ 10718 10713 10712 10709 ] final -178.61 input   66.30 | X-H torsion
[ 10763 10752 10751 10750 ] final   21.88 input  -60.55 | X-H torsion
[ 11005 11000 10999 10996 ] final  106.82 input  -57.11 | X-H torsion

> <Gold.Protein.ActiveResidues>
 VAL166  LYS551  ARG553  GLY616  TRP617  ASP618  TYR619  PRO620  LYS621  CYS622 
 ASP623  PHE694  ASN695  SER759  ASP760  ASP761  ALA762  ILE779  LEU786  VAL792 
 PHE793  MET794  SER795  GLU796  ALA797  LYS798  CYS799  TRP800  GLU811  SER814 

> <Gold.Protein.RotatedAtoms>
  152.4473  134.5467  159.9854 H   0  0  0  0  0  0  0  0  0  0  0  0  # atno 6907 bound_to 6896
  151.5549  133.3406  159.2968 H   0  0  0  0  0  0  0  0  0  0  0  0  # atno 6908 bound_to 6896
  150.8393  134.7711  159.6982 H   0  0  0  0  0  0  0  0  0  0  0  0  # atno 6909 bound_to 6896
  144.7642  140.4255  143.5954 H   0  0  0  0  0  0  0  0  0  0  0  0  # atno 7974 bound_to 7965
  155.8431  140.0951  157.1722 H   0  0  0  0  0  0  0  0  0  0  0  0  # atno 8008 bound_to 7997
  154.3982  140.1397  156.3814 H   0  0  0  0  0  0  0  0  0  0  0  0  # atno 8009 bound_to 7997
  155.8043  140.3452  155.5423 H   0  0  0  0  0  0  0  0  0  0  0  0  # atno 8010 bound_to 7997
  140.6049  143.2371  151.5844 H   0  0  0  0  0  0  0  0  0  0  0  0  # atno 10167 bound_to 10162
  156.8468  130.9705  151.3095 H   0  0  0  0  0  0  0  0  0  0  0  0  # atno 10718 bound_to 10713
  153.0959  135.6659  153.9763 H   0  0  0  0  0  0  0  0  0  0  0  0  # atno 10763 bound_to 10752
  153.9347  135.3000  155.3446 H   0  0  0  0  0  0  0  0  0  0  0  0  # atno 10764 bound_to 10752
  154.7378  135.5093  153.9145 H   0  0  0  0  0  0  0  0  0  0  0  0  # atno 10765 bound_to 10752
  139.8819  134.9381  156.5725 H   0  0  0  0  0  0  0  0  0  0  0  0  # atno 11005 bound_to 11000
  145.6522  139.1567  143.2856 LP  0  0  0  0  0  0  0  0  0  0  0  0  # atno 17320 bound_to 7965
  146.1735  140.6609  142.9222 LP  0  0  0  0  0  0  0  0  0  0  0  0  # atno 17321 bound_to 7965
  139.5318  144.2895  152.1163 LP  0  0  0  0  0  0  0  0  0  0  0  0  # atno 17342 bound_to 10162
  140.2083  144.4588  150.6398 LP  0  0  0  0  0  0  0  0  0  0  0  0  # atno 17343 bound_to 10162
  157.6325  130.8741  149.9300 LP  0  0  0  0  0  0  0  0  0  0  0  0  # atno 17370 bound_to 10713
  156.0850  130.3669  150.0505 LP  0  0  0  0  0  0  0  0  0  0  0  0  # atno 17371 bound_to 10713
  140.8088  133.8446  155.8791 LP  0  0  0  0  0  0  0  0  0  0  0  0  # atno 17394 bound_to 11000
  140.9526  134.1760  157.4716 LP  0  0  0  0  0  0  0  0  0  0  0  0  # atno 17395 bound_to 11000

$$$$
