AV-unprocessed.smi:1868|AV-procd|sdf|7589|dock3
  -GOLD-   22720 9303D 1   1.00000     0.00000
 Structure written by MMmdl.
 48 50  0  0  0  0  0  0  0  0  3 V2000
  149.2789  141.3028  154.2911 C   0  0  0  0  0  0  0  0  0  0  0  0
  150.1176  141.4467  155.5164 C   0  0  0  0  0  0  0  0  0  0  0  0
  150.1502  142.5308  156.3417 N   0  3  0  0  0  0  0  0  0  0  0  0
  151.0549  142.3071  157.3807 C   0  0  0  0  0  0  0  0  0  0  0  0
  151.4303  143.1116  158.4520 C   0  0  0  0  0  0  0  0  0  0  0  0
  152.3895  142.5784  159.3381 C   0  0  0  0  0  0  0  0  0  0  0  0
  152.9361  141.2932  159.1423 C   0  0  0  0  0  0  0  0  0  0  0  0
  152.5478  140.4863  158.0521 C   0  0  0  0  0  0  0  0  0  0  0  0
  151.5990  141.0215  157.1813 C   0  0  0  0  0  0  0  0  0  0  0  0
  150.9895  140.5273  156.0226 N   0  0  0  0  0  0  0  0  0  0  0  0
  151.3525  139.1878  155.5338 C   0  0  0  0  0  0  0  0  0  0  0  0
  150.2029  138.4819  154.7870 C   0  0  1  0  0  0  0  0  0  0  0  0
  150.7122  137.8641  153.6210 O   0  0  0  0  0  0  0  0  0  0  0  0
  149.5359  137.4053  155.6662 C   0  0  0  0  0  0  0  0  0  0  0  0
  149.2052  136.1683  154.9123 N   0  3  2  0  0  0  0  0  0  0  0  0
  147.8107  135.6994  155.1305 C   0  0  0  0  0  0  0  0  0  0  0  0
  147.4832  134.4958  154.2308 C   0  0  0  0  0  0  0  0  0  0  0  0
  148.4751  133.3426  154.4577 C   0  0  1  0  0  0  0  0  0  0  0  0
  148.1762  132.1447  153.5455 C   0  0  0  0  0  0  0  0  0  0  0  0
  149.9084  133.8639  154.2613 C   0  0  0  0  0  0  0  0  0  0  0  0
  150.1876  135.0813  155.1584 C   0  0  0  0  0  0  0  0  0  0  0  0
  148.7118  142.2152  154.1049 H   0  0  0  0  0  0  0  0  0  0  0  0
  148.5772  140.4771  154.4094 H   0  0  0  0  0  0  0  0  0  0  0  0
  149.9089  141.1046  153.4236 H   0  0  0  0  0  0  0  0  0  0  0  0
  151.0145  144.0971  158.6038 H   0  0  0  0  0  0  0  0  0  0  0  0
  152.7130  143.1674  160.1842 H   0  0  0  0  0  0  0  0  0  0  0  0
  153.6696  140.9192  159.8420 H   0  0  0  0  0  0  0  0  0  0  0  0
  152.9741  139.5044  157.9106 H   0  0  0  0  0  0  0  0  0  0  0  0
  152.2177  139.2984  154.8788 H   0  0  0  0  0  0  0  0  0  0  0  0
  151.6887  138.5916  156.3832 H   0  0  0  0  0  0  0  0  0  0  0  0
  149.4742  139.2306  154.4796 H   0  0  0  0  0  0  0  0  0  0  0  0
  150.0458  137.2941  153.2676 H   0  0  0  0  0  0  0  0  0  0  0  0
  150.2142  137.1659  156.4872 H   0  0  0  0  0  0  0  0  0  0  0  0
  148.6285  137.7957  156.1296 H   0  0  0  0  0  0  0  0  0  0  0  0
  147.6764  135.4291  156.1791 H   0  0  0  0  0  0  0  0  0  0  0  0
  147.1016  136.4988  154.9196 H   0  0  0  0  0  0  0  0  0  0  0  0
  146.4655  134.1573  154.4287 H   0  0  0  0  0  0  0  0  0  0  0  0
  147.5075  134.8060  153.1849 H   0  0  0  0  0  0  0  0  0  0  0  0
  148.3741  133.0052  155.4904 H   0  0  0  0  0  0  0  0  0  0  0  0
  148.2629  132.4145  152.4925 H   0  0  0  0  0  0  0  0  0  0  0  0
  147.1665  131.7677  153.7102 H   0  0  0  0  0  0  0  0  0  0  0  0
  148.8684  131.3242  153.7368 H   0  0  0  0  0  0  0  0  0  0  0  0
  150.6268  133.0739  154.4825 H   0  0  0  0  0  0  0  0  0  0  0  0
  150.0635  134.1380  153.2166 H   0  0  0  0  0  0  0  0  0  0  0  0
  151.1970  135.4439  154.9599 H   0  0  0  0  0  0  0  0  0  0  0  0
  150.1552  134.7907  156.2099 H   0  0  0  0  0  0  0  0  0  0  0  0
  149.2899  136.4047  153.9335 H   0  0  0  0  0  0  0  0  0  0  0  0
  149.5943  143.3647  156.2000 H   0  0  0  0  0  0  0  0  0  0  0  0
  1  2  1  0  0  0  0
  1 22  1  0  0  0  0
  1 23  1  0  0  0  0
  1 24  1  0  0  0  0
  2 10  1  0  0  0  0
  2  3  2  0  0  0  0
  3  4  1  0  0  0  0
  3 48  1  0  0  0  0
  4  9  2  0  0  0  0
  4  5  1  0  0  0  0
  5  6  2  0  0  0  0
  5 25  1  0  0  0  0
  6  7  1  0  0  0  0
  6 26  1  0  0  0  0
  7  8  2  0  0  0  0
  7 27  1  0  0  0  0
  8  9  1  0  0  0  0
  8 28  1  0  0  0  0
  9 10  1  0  0  0  0
 10 11  1  0  0  0  0
 11 12  1  0  0  0  0
 11 29  1  0  0  0  0
 11 30  1  0  0  0  0
 12 13  1  0  0  0  0
 12 14  1  0  0  0  0
 12 31  1  0  0  0  0
 13 32  1  0  0  0  0
 14 15  1  0  0  0  0
 14 33  1  0  0  0  0
 14 34  1  0  0  0  0
 15 21  1  0  0  0  0
 15 16  1  0  0  0  0
 15 47  1  0  0  0  0
 16 17  1  0  0  0  0
 16 35  1  0  0  0  0
 16 36  1  0  0  0  0
 17 18  1  0  0  0  0
 17 37  1  0  0  0  0
 17 38  1  0  0  0  0
 18 19  1  0  0  0  0
 18 20  1  0  0  0  0
 18 39  1  0  0  0  0
 19 40  1  0  0  0  0
 19 41  1  0  0  0  0
 19 42  1  0  0  0  0
 20 21  1  0  0  0  0
 20 43  1  0  0  0  0
 20 44  1  0  0  0  0
 21 45  1  0  0  0  0
 21 46  1  0  0  0  0
M  CHG  1   3   1
M  CHG  1  15   1
M  END
> <s_m_source_file>
AV-unprocessed.smi

> <i_m_source_file_index>
1868

> <i_lp_mmshare_version>
43012

> <i_f3d_flags>
0

> <s_epik_input>
W2NIXTFbY0hdW2NIXVtjSF1jKGMxMiluKGMobjIpW0NIM10pW0NIMl1bQ0BIXShbT0hdKVtDSDJdTjNbQ0gyXVtDSDJdW0NIXShbQ0gzXSlbQ0gyXVtDSDJdMw==

> <s_epik_cmdline>
J2VwaWtfcHl0aG9uJywgJy1waCcsICc3LjAnLCAnLXRuJywgJzgnLCAnLW1hJywgJzIwMCcsICctbWV0YWxfYmluZGluZycsICctaW1hZScsICc8aW5maWxlLm1hZT4nLCAnLW9tYWUnLCAnPG91dGZpbGUubWFlPic=

> <r_epik_Ionization_Penalty>
1.10901

> <r_epik_Ionization_Penalty_Charging>
1.10901

> <r_epik_Ionization_Penalty_Neutral>
6.90208e-07

> <r_epik_State_Penalty>
1.18788

> <r_epik_Charging_Adjusted_Penalty>
2.29689

> <i_epik_Tot_Q>
2

> <i_epik_Tot_abs_Q>
2

> <r_epik_Metal_State_Penalty>
5.19353

> <b_epik_Metal_Only>
0

> <s_lp_Force_Field>
OPLS_2005

> <r_lp_Energy>
29.1884

> <b_lp_Chiralities_Consistent>
1

> <s_lp_Variant>
AV-unprocessed.smi:1868-6

> <Gold.Version>
5.8.1

> <Gold.Id.Protein>
6NUR|6NUR_protein|mol2

> <Gold.PLP.Fitness>
51.1403

> <Gold.PLP.PLP>
-40.4931

> <Gold.PLP.part.hbond>
-4.0000

> <Gold.PLP.part.metal>
0.0000

> <Gold.PLP.part.buried>
-1.6574

> <Gold.PLP.part.nonpolar>
-33.3044

> <Gold.PLP.part.repulsive>
0.0768

> <Gold.PLP.ligand.clash>
0.0000

> <Gold.PLP.ligand.torsion>
2.2055

> <Gold.PLP.Chemscore.Hbond>
5.0000

> <Gold.PLP.Chemscore.CHOScore>
0.0000

> <Gold.PLP.Chemscore.Metal>
0.0000

> <Gold.Chemscore.Hbonds>
donor molecule, donor type, donor heavy atom, donor atom, acceptor molecule, acceptor atom, score
      L1  H     3    48       P1  8028  2.00
      L1  H    13    32       P1  7948  0.95
      L1  H    15    47       P1  7948  1.72

> <Gold.PLP.Chemscore.Internal.Correction>
0.0582

> <Gold.Rescore>
     Score         DG    S(hbond)    S(metal)    S(lipo)     H(rot)  DE(clash)    DE(int)     intcor
     16.98     -20.36       2.67        0.00      94.46       1.99       0.00       3.37       ----

> <Gold.Chemscore.Fitness>
16.9836

> <Gold.Chemscore.DG>
-20.3575

> <Gold.Chemscore.ZeroCoef>
-5.4800

> <Gold.Chemscore.Hbond>
2.6679

> <Gold.Chemscore.Metal>
0.0000

> <Gold.Chemscore.Lipo>
94.4595

> <Gold.Chemscore.Internal_Hbond>
0.0000

> <Gold.Chemscore.DEClash>
0.0015

> <Gold.Chemscore.DEInternal>
3.3724

> <Gold.Chemscore.Rot>
1.9863

> <Gold.Chemscore.Internal.Correction>
   9.000000E+99

> <Gold.Chemscore.Hbonds>
donor molecule, donor type, donor heavy atom, donor atom, acceptor molecule, acceptor atom, score
      L1  H     3    48       P1  8028  0.99
      L1  H    13    32       P1  7948  0.20
      L1  H    15    47       P1  7948  0.77

> <Gold.Chemscore.Hbond.Weighted>
-8.9108

> <Gold.Chemscore.Metal.Weighted>
-0.0000

> <Gold.Chemscore.Lipo.Weighted>
-11.0518

> <Gold.Chemscore.Internal_Hbond.Weighted>
0.0000

> <Gold.Chemscore.DEClash.Weighted>
0.0015

> <Gold.Chemscore.DEInternal.Weighted>
3.3724

> <Gold.Chemscore.Rot.Weighted>
5.0850

> <Gold.Chemscore.Internal.Correction.Weighted>
   9.000000E+99

> <Gold.Protein.RotatedTorsions>
[ 6907 6896 6895 6894 ] final -155.81 input  -60.11 | X-H torsion
[ 7974 7965 7964 7962 ] final -170.12 input  175.53 | X-H torsion
[ 8008 7997 7996 7995 ] final   94.95 input   59.86 | X-H torsion
[ 10167 10162 10161 10158 ] final  161.11 input  -65.29 | X-H torsion
[ 10718 10713 10712 10709 ] final  -78.24 input   66.30 | X-H torsion
[ 10763 10752 10751 10750 ] final   20.63 input  -60.55 | X-H torsion
[ 11005 11000 10999 10996 ] final  160.15 input  -57.11 | X-H torsion

> <Gold.Protein.ActiveResidues>
 VAL166  LYS551  ARG553  GLY616  TRP617  ASP618  TYR619  PRO620  LYS621  CYS622 
 ASP623  PHE694  ASN695  SER759  ASP760  ASP761  ALA762  ILE779  LEU786  VAL792 
 PHE793  MET794  SER795  GLU796  ALA797  LYS798  CYS799  TRP800  GLU811  SER814 

> <Gold.Protein.RotatedAtoms>
  151.2781  133.4223  159.2624 H   0  0  0  0  0  0  0  0  0  0  0  0  # atno 6907 bound_to 6896
  151.0385  134.9591  159.8159 H   0  0  0  0  0  0  0  0  0  0  0  0  # atno 6908 bound_to 6896
  152.5360  134.2739  159.9034 H   0  0  0  0  0  0  0  0  0  0  0  0  # atno 6909 bound_to 6896
  144.7175  140.2119  143.6326 H   0  0  0  0  0  0  0  0  0  0  0  0  # atno 7974 bound_to 7965
  156.0635  140.3293  155.7490 H   0  0  0  0  0  0  0  0  0  0  0  0  # atno 8008 bound_to 7997
  155.5417  140.0602  157.2886 H   0  0  0  0  0  0  0  0  0  0  0  0  # atno 8009 bound_to 7997
  154.4493  140.1909  156.0586 H   0  0  0  0  0  0  0  0  0  0  0  0  # atno 8010 bound_to 7997
  139.4846  144.4569  151.8757 H   0  0  0  0  0  0  0  0  0  0  0  0  # atno 10167 bound_to 10162
  156.0123  130.4513  150.3467 H   0  0  0  0  0  0  0  0  0  0  0  0  # atno 10718 bound_to 10713
  153.1062  135.6685  153.9583 H   0  0  0  0  0  0  0  0  0  0  0  0  # atno 10763 bound_to 10752
  153.9140  135.3022  155.3450 H   0  0  0  0  0  0  0  0  0  0  0  0  # atno 10764 bound_to 10752
  154.7483  135.5047  153.9319 H   0  0  0  0  0  0  0  0  0  0  0  0  # atno 10765 bound_to 10752
  140.2031  134.8323  157.3040 H   0  0  0  0  0  0  0  0  0  0  0  0  # atno 11005 bound_to 11000
  145.8583  139.2210  143.1732 LP  0  0  0  0  0  0  0  0  0  0  0  0  # atno 17320 bound_to 7965
  146.0197  140.8359  142.9929 LP  0  0  0  0  0  0  0  0  0  0  0  0  # atno 17321 bound_to 7965
  140.4029  144.2470  150.5892 LP  0  0  0  0  0  0  0  0  0  0  0  0  # atno 17342 bound_to 10162
  140.5040  143.2309  151.8636 LP  0  0  0  0  0  0  0  0  0  0  0  0  # atno 17343 bound_to 10162
  157.1560  131.0333  151.2863 LP  0  0  0  0  0  0  0  0  0  0  0  0  # atno 17370 bound_to 10713
  157.4351  130.7512  149.7022 LP  0  0  0  0  0  0  0  0  0  0  0  0  # atno 17371 bound_to 10713
  140.2032  134.4229  155.7651 LP  0  0  0  0  0  0  0  0  0  0  0  0  # atno 17394 bound_to 11000
  141.2227  133.7082  156.8218 LP  0  0  0  0  0  0  0  0  0  0  0  0  # atno 17395 bound_to 11000

$$$$
