AV-unprocessed.smi:2822|AV-procd|sdf|10882|dock1
  -GOLD-   2272015323D 1   1.00000     0.00000
 Structure written by MMmdl.
 39 41  0  0  0  0  0  0  0  0  1 V2000
  148.0588  141.6950  154.2594 Cl  0  0  0  0  0  0  0  0  0  0  0  0
  149.5142  140.9715  154.8502 C   0  0  0  0  0  0  0  0  0  0  0  0
  150.0442  139.8379  154.2006 C   0  0  0  0  0  0  0  0  0  0  0  0
  151.1727  139.2124  154.5970 N   0  0  0  0  0  0  0  0  0  0  0  0
  151.8199  139.7078  155.6722 C   0  0  0  0  0  0  0  0  0  0  0  0
  151.3783  140.8354  156.3927 C   0  0  0  0  0  0  0  0  0  0  0  0
  150.1939  141.4886  155.9774 C   0  0  0  0  0  0  0  0  0  0  0  0
  149.6828  142.6165  156.6372 N   0  0  0  0  0  0  0  0  0  0  0  0
  150.1205  142.9596  157.9814 C   0  0  0  0  0  0  0  0  0  0  0  0
  151.5183  143.6067  157.9703 C   0  0  2  0  0  0  0  0  0  0  0  0
  152.6018  142.7067  158.5948 C   0  0  0  0  0  0  0  0  0  0  0  0
  152.4824  142.6002  160.0442 N   0  0  0  0  0  0  0  0  0  0  0  0
  153.5431  141.7590  160.5977 C   0  0  0  0  0  0  0  0  0  0  0  0
  153.4332  141.5983  162.1220 C   0  0  0  0  0  0  0  0  0  0  0  0
  153.4341  142.9737  162.8040 C   0  0  0  0  0  0  0  0  0  0  0  0
  152.3503  143.8687  162.1839 C   0  0  0  0  0  0  0  0  0  0  0  0
  152.4981  143.9350  160.6494 C   0  0  2  0  0  0  0  0  0  0  0  0
  151.4005  144.8307  160.0420 C   0  0  0  0  0  0  0  0  0  0  0  0
  151.5253  144.8782  158.6229 O   0  0  0  0  0  0  0  0  0  0  0  0
  149.5474  139.4203  153.3373 H   0  0  0  0  0  0  0  0  0  0  0  0
  152.7197  139.1894  155.9692 H   0  0  0  0  0  0  0  0  0  0  0  0
  151.9508  141.1764  157.2420 H   0  0  0  0  0  0  0  0  0  0  0  0
  148.8520  143.0630  156.2751 H   0  0  0  0  0  0  0  0  0  0  0  0
  149.3911  143.6158  158.4561 H   0  0  0  0  0  0  0  0  0  0  0  0
  150.1532  142.0447  158.5739 H   0  0  0  0  0  0  0  0  0  0  0  0
  151.7943  143.7823  156.9298 H   0  0  0  0  0  0  0  0  0  0  0  0
  152.5584  141.7147  158.1438 H   0  0  0  0  0  0  0  0  0  0  0  0
  153.5821  143.1146  158.3428 H   0  0  0  0  0  0  0  0  0  0  0  0
  153.5072  140.7728  160.1338 H   0  0  0  0  0  0  0  0  0  0  0  0
  154.5181  142.1808  160.3484 H   0  0  0  0  0  0  0  0  0  0  0  0
  152.5152  141.0639  162.3694 H   0  0  0  0  0  0  0  0  0  0  0  0
  154.2586  140.9926  162.4970 H   0  0  0  0  0  0  0  0  0  0  0  0
  153.2702  142.8659  163.8765 H   0  0  0  0  0  0  0  0  0  0  0  0
  154.4108  143.4434  162.6811 H   0  0  0  0  0  0  0  0  0  0  0  0
  151.3653  143.4776  162.4429 H   0  0  0  0  0  0  0  0  0  0  0  0
  152.4094  144.8696  162.6128 H   0  0  0  0  0  0  0  0  0  0  0  0
  153.4598  144.4018  160.4286 H   0  0  0  0  0  0  0  0  0  0  0  0
  150.4072  144.4778  160.3208 H   0  0  0  0  0  0  0  0  0  0  0  0
  151.4869  145.8467  160.4280 H   0  0  0  0  0  0  0  0  0  0  0  0
  1  2  1  0  0  0  0
  2  7  1  0  0  0  0
  2  3  2  0  0  0  0
  3  4  1  0  0  0  0
  3 20  1  0  0  0  0
  4  5  2  0  0  0  0
  5  6  1  0  0  0  0
  5 21  1  0  0  0  0
  6  7  2  0  0  0  0
  6 22  1  0  0  0  0
  7  8  1  0  0  0  0
  8  9  1  0  0  0  0
  8 23  1  0  0  0  0
  9 10  1  0  0  0  0
  9 24  1  0  0  0  0
  9 25  1  0  0  0  0
 10 19  1  0  0  0  0
 10 11  1  0  0  0  0
 10 26  1  0  0  0  0
 11 12  1  0  0  0  0
 11 27  1  0  0  0  0
 11 28  1  0  0  0  0
 12 17  1  0  0  0  0
 12 13  1  0  0  0  0
 13 14  1  0  0  0  0
 13 29  1  0  0  0  0
 13 30  1  0  0  0  0
 14 15  1  0  0  0  0
 14 31  1  0  0  0  0
 14 32  1  0  0  0  0
 15 16  1  0  0  0  0
 15 33  1  0  0  0  0
 15 34  1  0  0  0  0
 16 17  1  0  0  0  0
 16 35  1  0  0  0  0
 16 36  1  0  0  0  0
 17 18  1  0  0  0  0
 17 37  1  0  0  0  0
 18 19  1  0  0  0  0
 18 38  1  0  0  0  0
 18 39  1  0  0  0  0
M  END
> <s_m_source_file>
AV-unprocessed.smi

> <i_m_source_file_index>
2822

> <i_lp_mmshare_version>
43012

> <i_f3d_flags>
0

> <s_epik_input>
Q2xjMVtjSF1uW2NIXVtjSF1jMVtOSF1bQ0gyXVtDQEhdKFtDSDJdMilPW0NIMl1bQ0BASF0oTjIzKVtDSDJdW0NIMl1bQ0gyXVtDSDJdMw==

> <s_epik_cmdline>
J2VwaWtfcHl0aG9uJywgJy1waCcsICc3LjAnLCAnLXRuJywgJzgnLCAnLW1hJywgJzIwMCcsICctbWV0YWxfYmluZGluZycsICctaW1hZScsICc8aW5maWxlLm1hZT4nLCAnLW9tYWUnLCAnPG91dGZpbGUubWFlPic=

> <r_lp_tautomer_probability>
0.999999

> <r_epik_Ionization_Penalty>
2.10064

> <r_epik_Ionization_Penalty_Charging>
0

> <r_epik_Ionization_Penalty_Neutral>
2.10064

> <r_epik_State_Penalty>
2.1757

> <r_epik_Charging_Adjusted_Penalty>
2.1757

> <i_epik_Tot_Q>
0

> <i_epik_Tot_abs_Q>
0

> <r_epik_Metal_State_Penalty>
1.25425

> <b_epik_Metal_Only>
0

> <s_lp_Force_Field>
OPLS_2005

> <r_lp_Energy>
40.8538

> <b_lp_Chiralities_Consistent>
1

> <s_lp_Variant>
AV-unprocessed.smi:2822-23

> <Gold.Version>
5.8.1

> <Gold.Id.Protein>
6NUR|6NUR_protein|mol2

> <Gold.PLP.Fitness>
48.4377

> <Gold.PLP.PLP>
-45.8791

> <Gold.PLP.part.hbond>
-1.7303

> <Gold.PLP.part.metal>
0.0000

> <Gold.PLP.part.buried>
-2.8775

> <Gold.PLP.part.nonpolar>
-41.7597

> <Gold.PLP.part.repulsive>
0.2560

> <Gold.PLP.ligand.clash>
0.0000

> <Gold.PLP.ligand.torsion>
0.8960

> <Gold.PLP.Chemscore.Hbond>
0.4480

> <Gold.PLP.Chemscore.CHOScore>
1.0000

> <Gold.PLP.Chemscore.Metal>
0.0000

> <Gold.Chemscore.Hbonds>
donor molecule, donor type, donor heavy atom, donor atom, acceptor molecule, acceptor atom, score
      L1  H     8    23       P1  8028  0.45
      L1  C     3    20       P1  7957  1.00

> <Gold.PLP.Chemscore.Internal.Correction>
0.0066

> <Gold.Rescore>
     Score         DG    S(hbond)    S(metal)    S(lipo)     H(rot)  DE(clash)    DE(int)     intcor
     20.01     -20.98       0.59        0.00     140.74       1.15       0.09       0.89       ----

> <Gold.Chemscore.Fitness>
20.0067

> <Gold.Chemscore.DG>
-20.9819

> <Gold.Chemscore.ZeroCoef>
-5.4800

> <Gold.Chemscore.Hbond>
0.5942

> <Gold.Chemscore.Metal>
0.0000

> <Gold.Chemscore.Lipo>
140.7352

> <Gold.Chemscore.Internal_Hbond>
0.0000

> <Gold.Chemscore.DEClash>
0.0881

> <Gold.Chemscore.DEInternal>
0.8870

> <Gold.Chemscore.Rot>
1.1519

> <Gold.Chemscore.Internal.Correction>
   9.000000E+99

> <Gold.Chemscore.Hbonds>
donor molecule, donor type, donor heavy atom, donor atom, acceptor molecule, acceptor atom, score
      L1  H     8    23       P1  8028  0.44

> <Gold.Chemscore.Hbond.Weighted>
-1.9847

> <Gold.Chemscore.Metal.Weighted>
-0.0000

> <Gold.Chemscore.Lipo.Weighted>
-16.4660

> <Gold.Chemscore.Internal_Hbond.Weighted>
0.0000

> <Gold.Chemscore.DEClash.Weighted>
0.0881

> <Gold.Chemscore.DEInternal.Weighted>
0.8870

> <Gold.Chemscore.Rot.Weighted>
2.9487

> <Gold.Chemscore.Internal.Correction.Weighted>
   9.000000E+99

> <Gold.Protein.RotatedTorsions>
[ 6907 6896 6895 6894 ] final   21.61 input  -60.11 | X-H torsion
[ 7974 7965 7964 7962 ] final  -88.08 input  175.53 | X-H torsion
[ 8008 7997 7996 7995 ] final  167.29 input   59.86 | X-H torsion
[ 10167 10162 10161 10158 ] final -167.08 input  -65.29 | X-H torsion
[ 10718 10713 10712 10709 ] final  -11.59 input   66.30 | X-H torsion
[ 10763 10752 10751 10750 ] final  138.78 input  -60.55 | X-H torsion
[ 11005 11000 10999 10996 ] final   69.13 input  -57.11 | X-H torsion

> <Gold.Protein.ActiveResidues>
 VAL166  LYS551  ARG553  GLY616  TRP617  ASP618  TYR619  PRO620  LYS621  CYS622 
 ASP623  PHE694  ASN695  SER759  ASP760  ASP761  ALA762  ILE779  LEU786  VAL792 
 PHE793  MET794  SER795  GLU796  ALA797  LYS798  CYS799  TRP800  GLU811  SER814 

> <Gold.Protein.RotatedAtoms>
  151.9145  135.0325  160.0516 H   0  0  0  0  0  0  0  0  0  0  0  0  # atno 6907 bound_to 6896
  152.2252  133.5010  159.5193 H   0  0  0  0  0  0  0  0  0  0  0  0  # atno 6908 bound_to 6896
  150.7010  134.1207  159.4076 H   0  0  0  0  0  0  0  0  0  0  0  0  # atno 6909 bound_to 6896
  145.4579  140.9561  143.1986 H   0  0  0  0  0  0  0  0  0  0  0  0  # atno 7974 bound_to 7965
  156.1646  140.1620  156.8554 H   0  0  0  0  0  0  0  0  0  0  0  0  # atno 8008 bound_to 7997
  154.5194  140.0782  156.8179 H   0  0  0  0  0  0  0  0  0  0  0  0  # atno 8009 bound_to 7997
  155.3638  140.3396  155.4243 H   0  0  0  0  0  0  0  0  0  0  0  0  # atno 8010 bound_to 7997
  139.6072  144.0888  152.1805 H   0  0  0  0  0  0  0  0  0  0  0  0  # atno 10167 bound_to 10162
  156.6568  130.4970  149.6044 H   0  0  0  0  0  0  0  0  0  0  0  0  # atno 10718 bound_to 10713
  153.8952  135.3028  155.3448 H   0  0  0  0  0  0  0  0  0  0  0  0  # atno 10763 bound_to 10752
  154.7697  135.4892  153.9627 H   0  0  0  0  0  0  0  0  0  0  0  0  # atno 10764 bound_to 10752
  153.1275  135.6796  153.9331 H   0  0  0  0  0  0  0  0  0  0  0  0  # atno 10765 bound_to 10752
  139.9671  134.6962  156.0522 H   0  0  0  0  0  0  0  0  0  0  0  0  # atno 11005 bound_to 11000
  144.8021  139.6121  143.7067 LP  0  0  0  0  0  0  0  0  0  0  0  0  # atno 17320 bound_to 7965
  146.2468  139.6114  142.9454 LP  0  0  0  0  0  0  0  0  0  0  0  0  # atno 17321 bound_to 7965
  140.0498  144.5942  150.7345 LP  0  0  0  0  0  0  0  0  0  0  0  0  # atno 17342 bound_to 10162
  140.7294  143.2672  151.4007 LP  0  0  0  0  0  0  0  0  0  0  0  0  # atno 17343 bound_to 10162
  156.2042  130.6639  151.1200 LP  0  0  0  0  0  0  0  0  0  0  0  0  # atno 17370 bound_to 10713
  157.7123  131.0728  150.6456 LP  0  0  0  0  0  0  0  0  0  0  0  0  # atno 17371 bound_to 10713
  141.1351  133.6577  156.3571 LP  0  0  0  0  0  0  0  0  0  0  0  0  # atno 17394 bound_to 11000
  140.5372  134.6155  157.5369 LP  0  0  0  0  0  0  0  0  0  0  0  0  # atno 17395 bound_to 11000

$$$$
