AV-unprocessed.smi:1945|AV-procd|sdf|7857|dock8
  -GOLD-   2272010 03D 1   1.00000     0.00000
 Structure written by MMmdl.
 47 48  0  0  0  0  0  0  0  0  1 V2000
  144.9896  133.4671  151.2093 C   0  0  0  0  0  0  0  0  0  0  0  0
  144.7312  134.8493  151.7318 C   0  0  0  0  0  0  0  0  0  0  0  0
  145.6308  135.9540  151.7724 C   0  0  0  0  0  0  0  0  0  0  0  0
  144.8705  136.9407  152.3383 C   0  0  0  0  0  0  0  0  0  0  0  0
  145.2090  138.2291  152.6101 N   0  0  0  0  0  0  0  0  0  0  0  0
  146.3748  138.7082  153.0770 C   0  0  0  0  0  0  0  0  0  0  0  0
  147.3332  138.0241  153.4363 O   0  0  0  0  0  0  0  0  0  0  0  0
  146.3684  140.0489  153.1080 N   0  0  0  0  0  0  0  0  0  0  0  0
  147.4975  140.8862  153.5003 C   0  0  0  0  0  0  0  0  0  0  0  0
  147.0652  141.9893  154.4778 C   0  0  0  0  0  0  0  0  0  0  0  0
  145.9034  142.6273  153.9702 O   0  0  0  0  0  0  0  0  0  0  0  0
  145.5293  143.8179  154.6482 C   0  0  2  0  0  0  0  0  0  0  0  0
  144.8828  143.4469  156.0000 C   0  0  0  0  0  0  0  0  0  0  0  0
  144.3158  144.6823  156.7147 C   0  0  0  0  0  0  0  0  0  0  0  0
  143.3163  145.4261  155.8182 C   0  0  0  0  0  0  0  0  0  0  0  0
  143.9588  145.8081  154.4765 C   0  0  0  0  0  0  0  0  0  0  0  0
  144.5302  144.5766  153.7455 C   0  0  1  0  0  0  0  0  0  0  0  0
  145.1696  144.9871  152.4092 C   0  0  0  0  0  0  0  0  0  0  0  0
  143.6144  136.4402  152.5995 N   0  0  0  0  0  0  0  0  0  0  0  0
  142.4633  137.0965  153.1880 C   0  0  0  0  0  0  0  0  0  0  0  0
  143.5350  135.1440  152.2286 N   0  0  0  0  0  0  0  0  0  0  0  0
  145.9738  133.3990  150.7454 H   0  0  0  0  0  0  0  0  0  0  0  0
  144.2503  133.1857  150.4590 H   0  0  0  0  0  0  0  0  0  0  0  0
  144.9493  132.7308  152.0121 H   0  0  0  0  0  0  0  0  0  0  0  0
  146.6551  135.9951  151.4335 H   0  0  0  0  0  0  0  0  0  0  0  0
  144.4961  138.9136  152.4056 H   0  0  0  0  0  0  0  0  0  0  0  0
  145.5332  140.5275  152.8045 H   0  0  0  0  0  0  0  0  0  0  0  0
  148.2302  140.2408  153.9850 H   0  0  0  0  0  0  0  0  0  0  0  0
  147.9917  141.3137  152.6262 H   0  0  0  0  0  0  0  0  0  0  0  0
  146.8927  141.5643  155.4669 H   0  0  0  0  0  0  0  0  0  0  0  0
  147.8603  142.7292  154.5779 H   0  0  0  0  0  0  0  0  0  0  0  0
  146.4034  144.4510  154.8142 H   0  0  0  0  0  0  0  0  0  0  0  0
  144.0811  142.7258  155.8338 H   0  0  0  0  0  0  0  0  0  0  0  0
  145.6054  142.9560  156.6513 H   0  0  0  0  0  0  0  0  0  0  0  0
  143.8312  144.3835  157.6445 H   0  0  0  0  0  0  0  0  0  0  0  0
  145.1311  145.3524  156.9905 H   0  0  0  0  0  0  0  0  0  0  0  0
  142.4437  144.7960  155.6406 H   0  0  0  0  0  0  0  0  0  0  0  0
  142.9543  146.3206  156.3258 H   0  0  0  0  0  0  0  0  0  0  0  0
  143.2183  146.3039  153.8480 H   0  0  0  0  0  0  0  0  0  0  0  0
  144.7528  146.5358  154.6491 H   0  0  0  0  0  0  0  0  0  0  0  0
  143.6990  143.9057  153.5223 H   0  0  0  0  0  0  0  0  0  0  0  0
  146.0204  145.6514  152.5646 H   0  0  0  0  0  0  0  0  0  0  0  0
  144.4519  145.5077  151.7747 H   0  0  0  0  0  0  0  0  0  0  0  0
  145.5237  144.1177  151.8547 H   0  0  0  0  0  0  0  0  0  0  0  0
  142.3490  138.0945  152.7641 H   0  0  0  0  0  0  0  0  0  0  0  0
  142.6036  137.1799  154.2658 H   0  0  0  0  0  0  0  0  0  0  0  0
  141.5549  136.5260  152.9894 H   0  0  0  0  0  0  0  0  0  0  0  0
  1  2  1  0  0  0  0
  1 22  1  0  0  0  0
  1 23  1  0  0  0  0
  1 24  1  0  0  0  0
  2 21  2  0  0  0  0
  2  3  1  0  0  0  0
  3  4  2  0  0  0  0
  3 25  1  0  0  0  0
  4  5  1  0  0  0  0
  4 19  1  0  0  0  0
  5  6  1  0  0  0  0
  5 26  1  0  0  0  0
  6  7  2  0  0  0  0
  6  8  1  0  0  0  0
  8  9  1  0  0  0  0
  8 27  1  0  0  0  0
  9 10  1  0  0  0  0
  9 28  1  0  0  0  0
  9 29  1  0  0  0  0
 10 11  1  0  0  0  0
 10 30  1  0  0  0  0
 10 31  1  0  0  0  0
 11 12  1  0  0  0  0
 12 17  1  0  0  0  0
 12 13  1  0  0  0  0
 12 32  1  0  0  0  0
 13 14  1  0  0  0  0
 13 33  1  0  0  0  0
 13 34  1  0  0  0  0
 14 15  1  0  0  0  0
 14 35  1  0  0  0  0
 14 36  1  0  0  0  0
 15 16  1  0  0  0  0
 15 37  1  0  0  0  0
 15 38  1  0  0  0  0
 16 17  1  0  0  0  0
 16 39  1  0  0  0  0
 16 40  1  0  0  0  0
 17 18  1  0  0  0  0
 17 41  1  0  0  0  0
 18 42  1  0  0  0  0
 18 43  1  0  0  0  0
 18 44  1  0  0  0  0
 19 20  1  0  0  0  0
 19 21  1  0  0  0  0
 20 45  1  0  0  0  0
 20 46  1  0  0  0  0
 20 47  1  0  0  0  0
M  END
> <s_m_source_file>
AV-unprocessed.smi

> <i_m_source_file_index>
1945

> <i_lp_mmshare_version>
43012

> <i_f3d_flags>
0

> <s_epik_input>
W0NIM11jMVtjSF1jKG4objEpW0NIM10pW05IXUMoPU8pW05IXVtDSDJdW0NIMl1PW0NAQEhdMltDSDJdW0NIMl1bQ0gyXVtDSDJdW0NASF0yW0NIM10=

> <s_epik_cmdline>
J2VwaWtfcHl0aG9uJywgJy1waCcsICc3LjAnLCAnLXRuJywgJzgnLCAnLW1hJywgJzIwMCcsICctbWV0YWxfYmluZGluZycsICctaW1hZScsICc8aW5maWxlLm1hZT4nLCAnLW9tYWUnLCAnPG91dGZpbGUubWFlPic=

> <r_lp_tautomer_probability>
1

> <r_epik_Ionization_Penalty>
9.47735e-05

> <r_epik_Ionization_Penalty_Charging>
0

> <r_epik_Ionization_Penalty_Neutral>
9.47735e-05

> <r_epik_State_Penalty>
-0

> <r_epik_Charging_Adjusted_Penalty>
0

> <i_epik_Tot_Q>
0

> <i_epik_Tot_abs_Q>
0

> <r_epik_Metal_State_Penalty>
-0

> <b_epik_Metal_Only>
0

> <s_lp_Force_Field>
OPLS_2005

> <r_lp_Energy>
11.707

> <b_lp_Chiralities_Consistent>
1

> <s_lp_Variant>
AV-unprocessed.smi:1945-1

> <Gold.Version>
5.8.1

> <Gold.Id.Protein>
6NUR|6NUR_protein|mol2

> <Gold.PLP.Fitness>
41.7485

> <Gold.PLP.PLP>
-37.0303

> <Gold.PLP.part.hbond>
-2.8944

> <Gold.PLP.part.metal>
0.0000

> <Gold.PLP.part.buried>
-4.7845

> <Gold.PLP.part.nonpolar>
-31.1059

> <Gold.PLP.part.repulsive>
1.7040

> <Gold.PLP.ligand.clash>
0.0000

> <Gold.PLP.ligand.torsion>
0.5515

> <Gold.PLP.Chemscore.Hbond>
1.9280

> <Gold.PLP.Chemscore.CHOScore>
0.0000

> <Gold.PLP.Chemscore.Metal>
0.0000

> <Gold.Chemscore.Hbonds>
donor molecule, donor type, donor heavy atom, donor atom, acceptor molecule, acceptor atom, score
      L1  H     5    26       P1 10175  1.00
      L1  H     8    27       P1 10175  0.99

> <Gold.PLP.Chemscore.Internal.Correction>
0.0372

> <Gold.Rescore>
     Score         DG    S(hbond)    S(metal)    S(lipo)     H(rot)  DE(clash)    DE(int)     intcor
     15.72     -16.28       1.96        0.00      72.12       1.63       0.03       0.53       ----

> <Gold.Chemscore.Fitness>
15.7156

> <Gold.Chemscore.DG>
-16.2768

> <Gold.Chemscore.ZeroCoef>
-5.4800

> <Gold.Chemscore.Hbond>
1.9569

> <Gold.Chemscore.Metal>
0.0000

> <Gold.Chemscore.Lipo>
72.1154

> <Gold.Chemscore.Internal_Hbond>
0.0000

> <Gold.Chemscore.DEClash>
0.0328

> <Gold.Chemscore.DEInternal>
0.5284

> <Gold.Chemscore.Rot>
1.6316

> <Gold.Chemscore.Internal.Correction>
   9.000000E+99

> <Gold.Chemscore.Hbonds>
donor molecule, donor type, donor heavy atom, donor atom, acceptor molecule, acceptor atom, score
      L1  H     5    26       P1 10175  0.99
      L1  H     8    27       P1 10175  0.66

> <Gold.Chemscore.Hbond.Weighted>
-6.5361

> <Gold.Chemscore.Metal.Weighted>
-0.0000

> <Gold.Chemscore.Lipo.Weighted>
-8.4375

> <Gold.Chemscore.Internal_Hbond.Weighted>
0.0000

> <Gold.Chemscore.DEClash.Weighted>
0.0328

> <Gold.Chemscore.DEInternal.Weighted>
0.5284

> <Gold.Chemscore.Rot.Weighted>
4.1768

> <Gold.Chemscore.Internal.Correction.Weighted>
   9.000000E+99

> <Gold.Protein.RotatedTorsions>
[ 6907 6896 6895 6894 ] final  125.98 input  -60.11 | X-H torsion
[ 7974 7965 7964 7962 ] final  -47.66 input  175.53 | X-H torsion
[ 8008 7997 7996 7995 ] final   57.11 input   59.86 | X-H torsion
[ 10167 10162 10161 10158 ] final   67.86 input  -65.29 | X-H torsion
[ 10718 10713 10712 10709 ] final -132.57 input   66.30 | X-H torsion
[ 10763 10752 10751 10750 ] final  -90.87 input  -60.55 | X-H torsion
[ 11005 11000 10999 10996 ] final -100.00 input  -57.11 | X-H torsion

> <Gold.Protein.ActiveResidues>
 VAL166  LYS551  ARG553  GLY616  TRP617  ASP618  TYR619  PRO620  LYS621  CYS622 
 ASP623  PHE694  ASN695  SER759  ASP760  ASP761  ALA762  ILE779  LEU786  VAL792 
 PHE793  MET794  SER795  GLU796  ALA797  LYS798  CYS799  TRP800  GLU811  SER814 

> <Gold.Protein.RotatedAtoms>
  152.3944  133.6725  159.6263 H   0  0  0  0  0  0  0  0  0  0  0  0  # atno 6907 bound_to 6896
  150.7846  133.8899  159.3319 H   0  0  0  0  0  0  0  0  0  0  0  0  # atno 6908 bound_to 6896
  151.6679  135.0982  160.0243 H   0  0  0  0  0  0  0  0  0  0  0  0  # atno 6909 bound_to 6896
  145.9593  140.7495  142.9465 H   0  0  0  0  0  0  0  0  0  0  0  0  # atno 7974 bound_to 7965
  155.5285  140.3481  155.4421 H   0  0  0  0  0  0  0  0  0  0  0  0  # atno 8008 bound_to 7997
  156.0735  140.1369  156.9827 H   0  0  0  0  0  0  0  0  0  0  0  0  # atno 8009 bound_to 7997
  154.4541  140.0961  156.6679 H   0  0  0  0  0  0  0  0  0  0  0  0  # atno 8010 bound_to 7997
  140.0850  144.5038  150.7136 H   0  0  0  0  0  0  0  0  0  0  0  0  # atno 10167 bound_to 10162
  156.2359  130.7066  151.0907 H   0  0  0  0  0  0  0  0  0  0  0  0  # atno 10718 bound_to 10713
  154.6703  135.5288  153.8129 H   0  0  0  0  0  0  0  0  0  0  0  0  # atno 10763 bound_to 10752
  153.0497  135.6527  154.0735 H   0  0  0  0  0  0  0  0  0  0  0  0  # atno 10764 bound_to 10752
  154.0635  135.2960  155.3300 H   0  0  0  0  0  0  0  0  0  0  0  0  # atno 10765 bound_to 10752
  141.1287  133.8364  157.1045 H   0  0  0  0  0  0  0  0  0  0  0  0  # atno 11005 bound_to 11000
  144.6811  140.2565  143.7325 LP  0  0  0  0  0  0  0  0  0  0  0  0  # atno 17320 bound_to 7965
  145.8062  139.1984  143.2019 LP  0  0  0  0  0  0  0  0  0  0  0  0  # atno 17321 bound_to 7965
  140.7058  143.2467  151.4730 LP  0  0  0  0  0  0  0  0  0  0  0  0  # atno 17342 bound_to 10162
  139.5757  144.1824  152.1900 LP  0  0  0  0  0  0  0  0  0  0  0  0  # atno 17343 bound_to 10162
  157.7154  131.0712  150.6346 LP  0  0  0  0  0  0  0  0  0  0  0  0  # atno 17370 bound_to 10713
  156.6416  130.4460  149.5750 LP  0  0  0  0  0  0  0  0  0  0  0  0  # atno 17371 bound_to 10713
  140.0313  134.9900  157.0786 LP  0  0  0  0  0  0  0  0  0  0  0  0  # atno 17394 bound_to 11000
  140.4281  134.1810  155.7167 LP  0  0  0  0  0  0  0  0  0  0  0  0  # atno 17395 bound_to 11000

$$$$
