AV-unprocessed.smi:2451|AV-procd|sdf|9675|dock6
  -GOLD-   2272013313D 1   1.00000     0.00000
 Structure written by MMmdl.
 38 39  0  0  0  0  0  0  0  0  1 V2000
  152.1373  144.9107  160.9129 C   0  0  0  0  0  0  0  0  0  0  0  0
  151.8286  143.5777  160.2115 C   0  0  2  0  0  0  0  0  0  0  0  0
  152.9695  142.5545  160.3977 C   0  0  0  0  0  0  0  0  0  0  0  0
  152.6169  141.1899  159.7816 C   0  0  0  0  0  0  0  0  0  0  0  0
  152.2075  141.3197  158.3062 C   0  0  0  0  0  0  0  0  0  0  0  0
  151.0717  142.3454  158.1436 C   0  0  2  0  0  0  0  0  0  0  0  0
  150.6600  142.4380  156.7401 N   0  0  0  0  0  0  0  0  0  0  0  0
  150.0219  141.0341  155.9702 S   0  0  0  0  0  0  0  0  0  0  0  0
  151.0667  140.5077  155.0786 O   0  0  0  0  0  0  0  0  0  0  0  0
  149.4498  140.1743  157.0180 O   0  0  0  0  0  0  0  0  0  0  0  0
  148.6468  141.7226  154.9566 C   0  0  0  0  0  0  0  0  0  0  0  0
  148.0277  140.6269  154.1369 C   0  0  0  0  0  0  0  0  0  0  0  0
  148.3280  139.2364  154.1467 C   0  0  0  0  0  0  0  0  0  0  0  0
  147.4740  138.7191  153.2158 C   0  0  0  0  0  0  0  0  0  0  0  0
  146.7065  139.7004  152.6781 O   0  0  0  0  0  0  0  0  0  0  0  0
  147.0663  140.9146  153.2736 N   0  0  0  0  0  0  0  0  0  0  0  0
  151.4431  143.7363  158.7161 C   0  0  2  0  0  0  0  0  0  0  0  0
  152.5213  144.4680  157.8824 C   0  0  0  0  0  0  0  0  0  0  0  0
  153.0608  145.3590  160.5465 H   0  0  0  0  0  0  0  0  0  0  0  0
  152.2530  144.7645  161.9873 H   0  0  0  0  0  0  0  0  0  0  0  0
  151.3310  145.6296  160.7656 H   0  0  0  0  0  0  0  0  0  0  0  0
  150.9527  143.1700  160.7190 H   0  0  0  0  0  0  0  0  0  0  0  0
  153.8905  142.9317  159.9522 H   0  0  0  0  0  0  0  0  0  0  0  0
  153.1800  142.4243  161.4597 H   0  0  0  0  0  0  0  0  0  0  0  0
  153.4638  140.5097  159.8745 H   0  0  0  0  0  0  0  0  0  0  0  0
  151.7978  140.7406  160.3445 H   0  0  0  0  0  0  0  0  0  0  0  0
  153.0711  141.6106  157.7077 H   0  0  0  0  0  0  0  0  0  0  0  0
  151.8883  140.3470  157.9304 H   0  0  0  0  0  0  0  0  0  0  0  0
  150.2194  141.9725  158.7143 H   0  0  0  0  0  0  0  0  0  0  0  0
  151.3829  142.8780  156.1710 H   0  0  0  0  0  0  0  0  0  0  0  0
  147.9158  142.1731  155.6275 H   0  0  0  0  0  0  0  0  0  0  0  0
  149.0502  142.5136  154.3238 H   0  0  0  0  0  0  0  0  0  0  0  0
  149.0582  138.7051  154.7388 H   0  0  0  0  0  0  0  0  0  0  0  0
  147.2996  137.7212  152.8415 H   0  0  0  0  0  0  0  0  0  0  0  0
  150.5440  144.3532  158.6744 H   0  0  0  0  0  0  0  0  0  0  0  0
  153.4723  143.9368  157.8787 H   0  0  0  0  0  0  0  0  0  0  0  0
  152.7063  145.4720  158.2629 H   0  0  0  0  0  0  0  0  0  0  0  0
  152.2103  144.5875  156.8445 H   0  0  0  0  0  0  0  0  0  0  0  0
  1  2  1  0  0  0  0
  1 19  1  0  0  0  0
  1 20  1  0  0  0  0
  1 21  1  0  0  0  0
  2 17  1  0  0  0  0
  2  3  1  0  0  0  0
  2 22  1  0  0  0  0
  3  4  1  0  0  0  0
  3 23  1  0  0  0  0
  3 24  1  0  0  0  0
  4  5  1  0  0  0  0
  4 25  1  0  0  0  0
  4 26  1  0  0  0  0
  5  6  1  0  0  0  0
  5 27  1  0  0  0  0
  5 28  1  0  0  0  0
  6  7  1  0  0  0  0
  6 17  1  0  0  0  0
  6 29  1  0  0  0  0
  7  8  1  0  0  0  0
  7 30  1  0  0  0  0
  8  9  2  0  0  0  0
  8 10  2  0  0  0  0
  8 11  1  0  0  0  0
 11 12  1  0  0  0  0
 11 31  1  0  0  0  0
 11 32  1  0  0  0  0
 12 16  2  0  0  0  0
 12 13  1  0  0  0  0
 13 14  2  0  0  0  0
 13 33  1  0  0  0  0
 14 15  1  0  0  0  0
 14 34  1  0  0  0  0
 15 16  1  0  0  0  0
 17 18  1  0  0  0  0
 17 35  1  0  0  0  0
 18 36  1  0  0  0  0
 18 37  1  0  0  0  0
 18 38  1  0  0  0  0
M  END
> <s_m_source_file>
AV-unprocessed.smi

> <i_m_source_file_index>
2451

> <i_lp_mmshare_version>
43012

> <i_f3d_flags>
0

> <s_epik_input>
W0NIM11bQ0BASF0xW0NIMl1bQ0gyXVtDSDJdW0NASF0oW0NASF0xW0NIM10pW05IXVMoPU8pKD1PKVtDSDJdYzJbY0hdW2NIXW9uMg==

> <s_epik_cmdline>
J2VwaWtfcHl0aG9uJywgJy1waCcsICc3LjAnLCAnLXRuJywgJzgnLCAnLW1hJywgJzIwMCcsICctbWV0YWxfYmluZGluZycsICctaW1hZScsICc8aW5maWxlLm1hZT4nLCAnLW9tYWUnLCAnPG91dGZpbGUubWFlPic=

> <r_lp_tautomer_probability>
1

> <r_epik_Ionization_Penalty>
8.73668e-05

> <r_epik_Ionization_Penalty_Charging>
0

> <r_epik_Ionization_Penalty_Neutral>
8.73668e-05

> <r_epik_State_Penalty>
-0

> <r_epik_Charging_Adjusted_Penalty>
0

> <i_epik_Tot_Q>
0

> <i_epik_Tot_abs_Q>
0

> <r_epik_Metal_State_Penalty>
0.0716439

> <b_epik_Metal_Only>
0

> <s_lp_Force_Field>
OPLS_2005

> <r_lp_Energy>
8.89421

> <b_lp_Chiralities_Consistent>
1

> <s_lp_Variant>
AV-unprocessed.smi:2451-7

> <Gold.Version>
5.8.1

> <Gold.Id.Protein>
6NUR|6NUR_protein|mol2

> <Gold.PLP.Fitness>
40.2922

> <Gold.PLP.PLP>
-35.2936

> <Gold.PLP.part.hbond>
-1.7567

> <Gold.PLP.part.metal>
0.0000

> <Gold.PLP.part.buried>
-1.8186

> <Gold.PLP.part.nonpolar>
-31.7722

> <Gold.PLP.part.repulsive>
0.5198

> <Gold.PLP.ligand.clash>
0.0000

> <Gold.PLP.ligand.torsion>
0.5002

> <Gold.PLP.Chemscore.Hbond>
0.9920

> <Gold.PLP.Chemscore.CHOScore>
0.9559

> <Gold.PLP.Chemscore.Metal>
0.0000

> <Gold.Chemscore.Hbonds>
donor molecule, donor type, donor heavy atom, donor atom, acceptor molecule, acceptor atom, score
      P1  H  7989  7998       L1     9  0.99
      L1  C    14    34       P1  7948  0.93

> <Gold.PLP.Chemscore.Internal.Correction>
0.1553

> <Gold.Rescore>
     Score         DG    S(hbond)    S(metal)    S(lipo)     H(rot)  DE(clash)    DE(int)     intcor
     16.62     -17.17       0.96        0.00     108.71       1.66       0.07       0.48       ----

> <Gold.Chemscore.Fitness>
16.6164

> <Gold.Chemscore.DG>
-17.1654

> <Gold.Chemscore.ZeroCoef>
-5.4800

> <Gold.Chemscore.Hbond>
0.9621

> <Gold.Chemscore.Metal>
0.0000

> <Gold.Chemscore.Lipo>
108.7069

> <Gold.Chemscore.Internal_Hbond>
0.0000

> <Gold.Chemscore.DEClash>
0.0658

> <Gold.Chemscore.DEInternal>
0.4832

> <Gold.Chemscore.Rot>
1.6588

> <Gold.Chemscore.Internal.Correction>
   9.000000E+99

> <Gold.Chemscore.Hbonds>
donor molecule, donor type, donor heavy atom, donor atom, acceptor molecule, acceptor atom, score
      P1  H  7989  7998       L1     9  0.94

> <Gold.Chemscore.Hbond.Weighted>
-3.2133

> <Gold.Chemscore.Metal.Weighted>
-0.0000

> <Gold.Chemscore.Lipo.Weighted>
-12.7187

> <Gold.Chemscore.Internal_Hbond.Weighted>
0.0000

> <Gold.Chemscore.DEClash.Weighted>
0.0658

> <Gold.Chemscore.DEInternal.Weighted>
0.4832

> <Gold.Chemscore.Rot.Weighted>
4.2466

> <Gold.Chemscore.Internal.Correction.Weighted>
   9.000000E+99

> <Gold.Protein.RotatedTorsions>
[ 6907 6896 6895 6894 ] final   69.08 input  -60.11 | X-H torsion
[ 7974 7965 7964 7962 ] final   79.63 input  175.53 | X-H torsion
[ 8008 7997 7996 7995 ] final    1.56 input   59.86 | X-H torsion
[ 10167 10162 10161 10158 ] final    1.39 input  -65.29 | X-H torsion
[ 10718 10713 10712 10709 ] final   42.24 input   66.30 | X-H torsion
[ 10763 10752 10751 10750 ] final  -49.71 input  -60.55 | X-H torsion
[ 11005 11000 10999 10996 ] final  152.81 input  -57.11 | X-H torsion

> <Gold.Protein.ActiveResidues>
 VAL166  LYS551  ARG553  GLY616  TRP617  ASP618  TYR619  PRO620  LYS621  CYS622 
 ASP623  PHE694  ASN695  SER759  ASP760  ASP761  ALA762  ILE779  LEU786  VAL792 
 PHE793  MET794  SER795  GLU796  ALA797  LYS798  CYS799  TRP800  GLU811  SER814 

> <Gold.Protein.RotatedAtoms>
  152.4663  134.5068  159.9741 H   0  0  0  0  0  0  0  0  0  0  0  0  # atno 6907 bound_to 6896
  151.5106  133.3480  159.2892 H   0  0  0  0  0  0  0  0  0  0  0  0  # atno 6908 bound_to 6896
  150.8648  134.8038  159.7172 H   0  0  0  0  0  0  0  0  0  0  0  0  # atno 6909 bound_to 6896
  145.6617  139.2473  143.1919 H   0  0  0  0  0  0  0  0  0  0  0  0  # atno 7974 bound_to 7965
  154.6812  140.2633  155.6906 H   0  0  0  0  0  0  0  0  0  0  0  0  # atno 8008 bound_to 7997
  156.2697  140.2810  156.1280 H   0  0  0  0  0  0  0  0  0  0  0  0  # atno 8009 bound_to 7997
  155.1028  140.0374  157.2692 H   0  0  0  0  0  0  0  0  0  0  0  0  # atno 8010 bound_to 7997
  140.6685  143.7114  150.7874 H   0  0  0  0  0  0  0  0  0  0  0  0  # atno 10167 bound_to 10162
  157.4026  130.7868  149.7361 H   0  0  0  0  0  0  0  0  0  0  0  0  # atno 10718 bound_to 10713
  154.0985  135.6567  153.4864 H   0  0  0  0  0  0  0  0  0  0  0  0  # atno 10763 bound_to 10752
  153.0297  135.5219  154.7310 H   0  0  0  0  0  0  0  0  0  0  0  0  # atno 10764 bound_to 10752
  154.6455  135.2994  155.0020 H   0  0  0  0  0  0  0  0  0  0  0  0  # atno 10765 bound_to 10752
  140.1341  134.8782  157.2244 H   0  0  0  0  0  0  0  0  0  0  0  0  # atno 11005 bound_to 11000
  146.1120  140.7417  142.9499 LP  0  0  0  0  0  0  0  0  0  0  0  0  # atno 17320 bound_to 7965
  144.7087  140.3954  143.7098 LP  0  0  0  0  0  0  0  0  0  0  0  0  # atno 17321 bound_to 7965
  140.0795  143.4982  152.2537 LP  0  0  0  0  0  0  0  0  0  0  0  0  # atno 17342 bound_to 10162
  139.5943  144.7561  151.3324 LP  0  0  0  0  0  0  0  0  0  0  0  0  # atno 17343 bound_to 10162
  155.9827  130.4007  150.3401 LP  0  0  0  0  0  0  0  0  0  0  0  0  # atno 17370 bound_to 10713
  157.1530  131.0326  151.2876 LP  0  0  0  0  0  0  0  0  0  0  0  0  # atno 17371 bound_to 10713
  140.2804  134.3356  155.7345 LP  0  0  0  0  0  0  0  0  0  0  0  0  # atno 17394 bound_to 11000
  141.2175  133.7475  156.9355 LP  0  0  0  0  0  0  0  0  0  0  0  0  # atno 17395 bound_to 11000

$$$$
