AV-unprocessed.smi:244|AV-procd|sdf|1868|dock10
  -GOLD-   2262020503D 1   1.00000     0.00000
 Structure written by MMmdl.
 57 61  0  0  0  0  0  0  0  0  2 V2000
  145.6797  130.8613  160.3110 C   0  0  0  0  0  0  0  0  0  0  0  0
  145.9976  132.2247  160.7860 N   0  3  1  0  0  0  0  0  0  0  0  0
  145.3888  132.5222  162.1059 C   0  0  0  0  0  0  0  0  0  0  0  0
  145.6049  133.9952  162.4848 C   0  0  0  0  0  0  0  0  0  0  0  0
  147.1048  134.3622  162.4563 C   0  0  2  0  0  0  0  0  0  0  0  0
  147.3419  135.7367  162.7683 O   0  0  0  0  0  0  0  0  0  0  0  0
  146.9169  136.6586  161.7664 C   0  0  0  0  0  0  0  0  0  0  0  0
  147.5738  136.3164  160.4216 C   0  0  0  0  0  0  0  0  0  0  0  0
  147.3086  134.9267  160.0686 N   0  0  0  0  0  0  0  0  0  0  0  0
  147.6920  134.6328  158.8075 C   0  0  0  0  0  0  0  0  0  0  0  0
  149.0020  134.8097  158.5088 N   0  0  0  0  0  0  0  0  0  0  0  0
  149.4431  134.5540  157.2732 C   0  0  0  0  0  0  0  0  0  0  0  0
  148.7540  134.1285  156.2123 N   0  0  0  0  0  0  0  0  0  0  0  0
  147.4341  133.9571  156.5110 C   0  0  0  0  0  0  0  0  0  0  0  0
  146.8219  134.1833  157.7750 C   0  0  0  0  0  0  0  0  0  0  0  0
  145.4623  133.9064  157.7015 N   0  0  0  0  0  0  0  0  0  0  0  0
  145.2827  133.5266  156.4657 C   0  0  0  0  0  0  0  0  0  0  0  0
  146.4117  133.5398  155.6774 N   0  0  0  0  0  0  0  0  0  0  0  0
  146.4985  133.1772  154.2710 C   0  0  0  0  0  0  0  0  0  0  0  0
  145.8299  134.1958  153.3140 C   0  0  0  0  0  0  0  0  0  0  0  0
  146.4738  135.4461  153.4895 O   0  0  0  0  0  0  0  0  0  0  0  0
  146.0160  133.7535  151.8485 C   0  0  0  0  0  0  0  0  0  0  0  0
  145.2212  134.6349  150.8689 C   0  0  0  0  0  0  0  0  0  0  0  0
  143.8468  134.6487  151.2341 O   0  0  0  0  0  0  0  0  0  0  0  0
  143.6252  135.2208  152.5172 C   0  0  0  0  0  0  0  0  0  0  0  0
  144.3235  134.3802  153.6010 C   0  0  0  0  0  0  0  0  0  0  0  0
  147.7539  133.9882  161.1032 C   0  0  2  0  0  0  0  0  0  0  0  0
  147.4558  132.5021  160.7784 C   0  0  0  0  0  0  0  0  0  0  0  0
  146.1023  130.1066  160.9753 H   0  0  0  0  0  0  0  0  0  0  0  0
  146.0796  130.7005  159.3092 H   0  0  0  0  0  0  0  0  0  0  0  0
  144.6006  130.7120  160.2641 H   0  0  0  0  0  0  0  0  0  0  0  0
  144.3195  132.3093  162.0733 H   0  0  0  0  0  0  0  0  0  0  0  0
  145.8194  131.8680  162.8657 H   0  0  0  0  0  0  0  0  0  0  0  0
  145.0375  134.6112  161.7881 H   0  0  0  0  0  0  0  0  0  0  0  0
  145.1928  134.1901  163.4751 H   0  0  0  0  0  0  0  0  0  0  0  0
  147.5980  133.7840  163.2387 H   0  0  0  0  0  0  0  0  0  0  0  0
  145.8307  136.6653  161.6793 H   0  0  0  0  0  0  0  0  0  0  0  0
  147.2046  137.6641  162.0740 H   0  0  0  0  0  0  0  0  0  0  0  0
  147.1952  136.9804  159.6432 H   0  0  0  0  0  0  0  0  0  0  0  0
  148.6493  136.4832  160.4907 H   0  0  0  0  0  0  0  0  0  0  0  0
  150.4984  134.7159  157.1092 H   0  0  0  0  0  0  0  0  0  0  0  0
  144.3131  133.2341  156.0892 H   0  0  0  0  0  0  0  0  0  0  0  0
  147.5515  133.0512  154.0142 H   0  0  0  0  0  0  0  0  0  0  0  0
  146.0394  132.1951  154.1501 H   0  0  0  0  0  0  0  0  0  0  0  0
  147.1586  135.5251  152.8429 H   0  0  0  0  0  0  0  0  0  0  0  0
  147.0732  133.7534  151.5793 H   0  0  0  0  0  0  0  0  0  0  0  0
  145.6735  132.7238  151.7376 H   0  0  0  0  0  0  0  0  0  0  0  0
  145.6144  135.6524  150.8447 H   0  0  0  0  0  0  0  0  0  0  0  0
  145.3101  134.2395  149.8570 H   0  0  0  0  0  0  0  0  0  0  0  0
  143.9770  136.2535  152.5329 H   0  0  0  0  0  0  0  0  0  0  0  0
  142.5521  135.2520  152.7057 H   0  0  0  0  0  0  0  0  0  0  0  0
  143.8441  133.4013  153.6438 H   0  0  0  0  0  0  0  0  0  0  0  0
  144.1659  134.8416  154.5765 H   0  0  0  0  0  0  0  0  0  0  0  0
  148.8344  134.1027  161.2025 H   0  0  0  0  0  0  0  0  0  0  0  0
  147.9385  131.8643  161.5207 H   0  0  0  0  0  0  0  0  0  0  0  0
  147.8871  132.2164  159.8181 H   0  0  0  0  0  0  0  0  0  0  0  0
  145.5804  132.8619  160.1219 H   0  0  0  0  0  0  0  0  0  0  0  0
  1  2  1  0  0  0  0
  1 29  1  0  0  0  0
  1 30  1  0  0  0  0
  1 31  1  0  0  0  0
  2 28  1  0  0  0  0
  2  3  1  0  0  0  0
  2 57  1  0  0  0  0
  3  4  1  0  0  0  0
  3 32  1  0  0  0  0
  3 33  1  0  0  0  0
  4  5  1  0  0  0  0
  4 34  1  0  0  0  0
  4 35  1  0  0  0  0
  5 27  1  0  0  0  0
  5  6  1  0  0  0  0
  5 36  1  0  0  0  0
  6  7  1  0  0  0  0
  7  8  1  0  0  0  0
  7 37  1  0  0  0  0
  7 38  1  0  0  0  0
  8  9  1  0  0  0  0
  8 39  1  0  0  0  0
  8 40  1  0  0  0  0
  9 10  1  0  0  0  0
  9 27  1  0  0  0  0
 10 15  1  0  0  0  0
 10 11  2  0  0  0  0
 11 12  1  0  0  0  0
 12 13  2  0  0  0  0
 12 41  1  0  0  0  0
 13 14  1  0  0  0  0
 14 18  1  0  0  0  0
 14 15  2  0  0  0  0
 15 16  1  0  0  0  0
 16 17  2  0  0  0  0
 17 18  1  0  0  0  0
 17 42  1  0  0  0  0
 18 19  1  0  0  0  0
 19 20  1  0  0  0  0
 19 43  1  0  0  0  0
 19 44  1  0  0  0  0
 20 26  1  0  0  0  0
 20 21  1  0  0  0  0
 20 22  1  0  0  0  0
 21 45  1  0  0  0  0
 22 23  1  0  0  0  0
 22 46  1  0  0  0  0
 22 47  1  0  0  0  0
 23 24  1  0  0  0  0
 23 48  1  0  0  0  0
 23 49  1  0  0  0  0
 24 25  1  0  0  0  0
 25 26  1  0  0  0  0
 25 50  1  0  0  0  0
 25 51  1  0  0  0  0
 26 52  1  0  0  0  0
 26 53  1  0  0  0  0
 27 28  1  0  0  0  0
 27 54  1  0  0  0  0
 28 55  1  0  0  0  0
 28 56  1  0  0  0  0
M  CHG  1   2   1
M  END
> <s_m_source_file>
AV-unprocessed.smi

> <i_m_source_file_index>
244

> <i_lp_mmshare_version>
43012

> <i_f3d_flags>
0

> <s_epik_input>
W0NIMl0xW0NIMl1OKFtDSDNdKVtDSDJdW0NAQEhdKFtDQEhdMTIpTihbQ0gyXVtDSDJdTzIpYyhuW2NIXW4zKWMoYzM0KW5bY0hdbjRbQ0gyXUM1KFtPSF0pW0NIMl1bQ0gyXU9bQ0gyXVtDSDJdNQ==

> <s_epik_cmdline>
J2VwaWtfcHl0aG9uJywgJy1waCcsICc3LjAnLCAnLXRuJywgJzgnLCAnLW1hJywgJzIwMCcsICctbWV0YWxfYmluZGluZycsICctaW1hZScsICc8aW5maWxlLm1hZT4nLCAnLW9tYWUnLCAnPG91dGZpbGUubWFlPic=

> <r_lp_tautomer_probability>
1

> <r_epik_Ionization_Penalty>
0.0136215

> <r_epik_Ionization_Penalty_Charging>
0.0131385

> <r_epik_Ionization_Penalty_Neutral>
0.000483022

> <r_epik_State_Penalty>
0.0104001

> <r_epik_Charging_Adjusted_Penalty>
0.0235387

> <i_epik_Tot_Q>
1

> <i_epik_Tot_abs_Q>
1

> <r_epik_Metal_State_Penalty>
0.0104469

> <b_epik_Metal_Only>
0

> <s_lp_Force_Field>
OPLS_2005

> <r_lp_Energy>
48.7962

> <b_lp_Chiralities_Consistent>
1

> <s_lp_Variant>
AV-unprocessed.smi:244-5

> <Gold.Version>
5.8.1

> <Gold.Id.Protein>
6NUR|6NUR_protein|mol2

> <Gold.PLP.Fitness>
40.1817

> <Gold.PLP.PLP>
-31.7911

> <Gold.PLP.part.hbond>
-2.0000

> <Gold.PLP.part.metal>
0.0000

> <Gold.PLP.part.buried>
-5.8926

> <Gold.PLP.part.nonpolar>
-24.7131

> <Gold.PLP.part.repulsive>
0.2286

> <Gold.PLP.ligand.clash>
0.0000

> <Gold.PLP.ligand.torsion>
0.2185

> <Gold.PLP.Chemscore.Hbond>
2.0000

> <Gold.PLP.Chemscore.CHOScore>
0.8990

> <Gold.PLP.Chemscore.Metal>
0.0000

> <Gold.Chemscore.Hbonds>
donor molecule, donor type, donor heavy atom, donor atom, acceptor molecule, acceptor atom, score
      L1  H    21    45       P1  7948  0.70
      P1  H  6896  6909       L1    11  0.38
      L1  C    17    42       P1 10957  0.97

> <Gold.PLP.Chemscore.Internal.Correction>
0.1305

> <Gold.Rescore>
     Score         DG    S(hbond)    S(metal)    S(lipo)     H(rot)  DE(clash)    DE(int)     intcor
     13.93     -14.07       1.68        0.00      71.21       2.09       0.04       0.10       ----

> <Gold.Chemscore.Fitness>
13.9255

> <Gold.Chemscore.DG>
-14.0651

> <Gold.Chemscore.ZeroCoef>
-5.4800

> <Gold.Chemscore.Hbond>
1.6788

> <Gold.Chemscore.Metal>
0.0000

> <Gold.Chemscore.Lipo>
71.2057

> <Gold.Chemscore.Internal_Hbond>
0.0000

> <Gold.Chemscore.DEClash>
0.0396

> <Gold.Chemscore.DEInternal>
0.1001

> <Gold.Chemscore.Rot>
2.0911

> <Gold.Chemscore.Internal.Correction>
   9.000000E+99

> <Gold.Chemscore.Hbonds>
donor molecule, donor type, donor heavy atom, donor atom, acceptor molecule, acceptor atom, score
      L1  H    21    45       P1  7948  0.71
      P1  H  6896  6909       L1    11  0.02

> <Gold.Chemscore.Hbond.Weighted>
-5.6072

> <Gold.Chemscore.Metal.Weighted>
-0.0000

> <Gold.Chemscore.Lipo.Weighted>
-8.3311

> <Gold.Chemscore.Internal_Hbond.Weighted>
0.0000

> <Gold.Chemscore.DEClash.Weighted>
0.0396

> <Gold.Chemscore.DEInternal.Weighted>
0.1001

> <Gold.Chemscore.Rot.Weighted>
5.3531

> <Gold.Chemscore.Internal.Correction.Weighted>
   9.000000E+99

> <Gold.Protein.RotatedTorsions>
[ 6907 6896 6895 6894 ] final    8.26 input  -60.11 | X-H torsion
[ 7974 7965 7964 7962 ] final  -48.05 input  175.53 | X-H torsion
[ 8008 7997 7996 7995 ] final -166.20 input   59.86 | X-H torsion
[ 10167 10162 10161 10158 ] final  -58.02 input  -65.29 | X-H torsion
[ 10718 10713 10712 10709 ] final  -21.58 input   66.30 | X-H torsion
[ 10763 10752 10751 10750 ] final  -59.08 input  -60.55 | X-H torsion
[ 11005 11000 10999 10996 ] final  153.91 input  -57.11 | X-H torsion

> <Gold.Protein.ActiveResidues>
 VAL166  LYS551  ARG553  GLY616  TRP617  ASP618  TYR619  PRO620  LYS621  CYS622 
 ASP623  PHE694  ASN695  SER759  ASP760  ASP761  ALA762  ILE779  LEU786  VAL792 
 PHE793  MET794  SER795  GLU796  ALA797  LYS798  CYS799  TRP800  GLU811  SER814 

> <Gold.Protein.RotatedAtoms>
  151.7032  135.0926  160.0254 H   0  0  0  0  0  0  0  0  0  0  0  0  # atno 6907 bound_to 6896
  152.3707  133.6411  159.6093 H   0  0  0  0  0  0  0  0  0  0  0  0  # atno 6908 bound_to 6896
  150.7671  133.9191  159.3434 H   0  0  0  0  0  0  0  0  0  0  0  0  # atno 6909 bound_to 6896
  145.9552  140.7533  142.9485 H   0  0  0  0  0  0  0  0  0  0  0  0  # atno 7974 bound_to 7965
  155.8605  140.0977  157.1616 H   0  0  0  0  0  0  0  0  0  0  0  0  # atno 8008 bound_to 7997
  154.3990  140.1366  156.4017 H   0  0  0  0  0  0  0  0  0  0  0  0  # atno 8009 bound_to 7997
  155.7862  140.3457  155.5327 H   0  0  0  0  0  0  0  0  0  0  0  0  # atno 8010 bound_to 7997
  140.6223  143.2424  151.5451 H   0  0  0  0  0  0  0  0  0  0  0  0  # atno 10167 bound_to 10162
  156.5161  130.4621  149.6621 H   0  0  0  0  0  0  0  0  0  0  0  0  # atno 10718 bound_to 10713
  154.2481  135.6331  153.5230 H   0  0  0  0  0  0  0  0  0  0  0  0  # atno 10763 bound_to 10752
  152.9917  135.5558  154.5838 H   0  0  0  0  0  0  0  0  0  0  0  0  # atno 10764 bound_to 10752
  154.5359  135.2891  155.1114 H   0  0  0  0  0  0  0  0  0  0  0  0  # atno 10765 bound_to 10752
  140.1441  134.8719  157.2369 H   0  0  0  0  0  0  0  0  0  0  0  0  # atno 11005 bound_to 11000
  144.6803  140.2500  143.7333 LP  0  0  0  0  0  0  0  0  0  0  0  0  # atno 17320 bound_to 7965
  145.8116  139.2005  143.1989 LP  0  0  0  0  0  0  0  0  0  0  0  0  # atno 17321 bound_to 7965
  139.5449  144.2548  152.1423 LP  0  0  0  0  0  0  0  0  0  0  0  0  # atno 17342 bound_to 10162
  140.1771  144.4880  150.6548 LP  0  0  0  0  0  0  0  0  0  0  0  0  # atno 17343 bound_to 10162
  156.3193  130.7272  151.2181 LP  0  0  0  0  0  0  0  0  0  0  0  0  # atno 17370 bound_to 10713
  157.7443  131.0460  150.4871 LP  0  0  0  0  0  0  0  0  0  0  0  0  # atno 17371 bound_to 10713
  140.2686  134.3487  155.7381 LP  0  0  0  0  0  0  0  0  0  0  0  0  # atno 17394 bound_to 11000
  141.2190  133.7410  156.9188 LP  0  0  0  0  0  0  0  0  0  0  0  0  # atno 17395 bound_to 11000

$$$$
