AV-unprocessed.smi:3322|AV-procd|sdf|12774|dock7
  -GOLD-   2272019113D 1   1.00000     0.00000
 Structure written by MMmdl.
 39 40  0  0  0  0  0  0  0  0  2 V2000
  147.7730  141.8626  154.5842 C   0  0  0  0  0  0  0  0  0  0  0  0
  149.1682  141.2326  154.7323 C   0  0  1  0  0  0  0  0  0  0  0  0
  149.9816  142.0671  155.6491 N   0  3  0  0  0  0  0  0  0  0  0  0
  149.7656  141.8126  157.0896 C   0  0  0  0  0  0  0  0  0  0  0  0
  151.1033  141.7007  157.8337 C   0  0  0  0  0  0  0  0  0  0  0  0
  151.4326  142.9296  158.5288 N   0  0  0  0  0  0  0  0  0  0  0  0
  151.3531  144.2260  158.0654 C   0  0  0  0  0  0  0  0  0  0  0  0
  151.7666  145.0442  159.0772 C   0  0  0  0  0  0  0  0  0  0  0  0
  152.0852  144.1437  160.1321 C   0  0  0  0  0  0  0  0  0  0  0  0
  151.8841  142.8784  159.8003 N   0  0  0  0  0  0  0  0  0  0  0  0
  149.0480  139.7769  155.2352 C   0  0  0  0  0  0  0  0  0  0  0  0
  147.9173  139.3067  155.3770 O   0  0  0  0  0  0  0  0  0  0  0  0
  150.1626  139.0503  155.5012 N   0  0  0  0  0  0  0  0  0  0  0  0
  151.5550  139.4609  155.2839 C   0  0  0  0  0  0  0  0  0  0  0  0
  152.1917  138.5128  154.2505 C   0  0  0  0  0  0  0  0  0  0  0  0
  152.1008  137.1668  154.7077 O   0  0  0  0  0  0  0  0  0  0  0  0
  150.7591  136.7484  154.9406 C   0  0  0  0  0  0  0  0  0  0  0  0
  150.1111  137.6678  155.9902 C   0  0  0  0  0  0  0  0  0  0  0  0
  147.1471  141.3057  153.8867 H   0  0  0  0  0  0  0  0  0  0  0  0
  147.8443  142.8838  154.2084 H   0  0  0  0  0  0  0  0  0  0  0  0
  147.2479  141.8987  155.5397 H   0  0  0  0  0  0  0  0  0  0  0  0
  149.6750  141.2584  153.7681 H   0  0  0  0  0  0  0  0  0  0  0  0
  150.9560  141.8889  155.4523 H   0  0  0  0  0  0  0  0  0  0  0  0
  149.1722  142.6184  157.5232 H   0  0  0  0  0  0  0  0  0  0  0  0
  149.1925  140.8919  157.2071 H   0  0  0  0  0  0  0  0  0  0  0  0
  151.0736  140.8875  158.5606 H   0  0  0  0  0  0  0  0  0  0  0  0
  151.9085  141.4726  157.1339 H   0  0  0  0  0  0  0  0  0  0  0  0
  151.0121  144.4569  157.0666 H   0  0  0  0  0  0  0  0  0  0  0  0
  151.8324  146.1221  159.0654 H   0  0  0  0  0  0  0  0  0  0  0  0
  152.4537  144.3704  161.1218 H   0  0  0  0  0  0  0  0  0  0  0  0
  151.6717  140.4847  154.9372 H   0  0  0  0  0  0  0  0  0  0  0  0
  152.0968  139.4023  156.2290 H   0  0  0  0  0  0  0  0  0  0  0  0
  151.7023  138.6089  153.2800 H   0  0  0  0  0  0  0  0  0  0  0  0
  153.2422  138.7643  154.1045 H   0  0  0  0  0  0  0  0  0  0  0  0
  150.1944  136.7627  154.0069 H   0  0  0  0  0  0  0  0  0  0  0  0
  150.7672  135.7173  155.2942 H   0  0  0  0  0  0  0  0  0  0  0  0
  150.6534  137.5992  156.9344 H   0  0  0  0  0  0  0  0  0  0  0  0
  149.0979  137.3236  156.2011 H   0  0  0  0  0  0  0  0  0  0  0  0
  149.7852  143.0383  155.4523 H   0  0  0  0  0  0  0  0  0  0  0  0
  1  2  1  0  0  0  0
  1 19  1  0  0  0  0
  1 20  1  0  0  0  0
  1 21  1  0  0  0  0
  2  3  1  0  0  0  0
  2 11  1  0  0  0  0
  2 22  1  0  0  0  0
  3  4  1  0  0  0  0
  3 23  1  0  0  0  0
  3 39  1  0  0  0  0
  4  5  1  0  0  0  0
  4 24  1  0  0  0  0
  4 25  1  0  0  0  0
  5  6  1  0  0  0  0
  5 26  1  0  0  0  0
  5 27  1  0  0  0  0
  6 10  1  0  0  0  0
  6  7  1  0  0  0  0
  7  8  2  0  0  0  0
  7 28  1  0  0  0  0
  8  9  1  0  0  0  0
  8 29  1  0  0  0  0
  9 10  2  0  0  0  0
  9 30  1  0  0  0  0
 11 12  2  0  0  0  0
 11 13  1  0  0  0  0
 13 18  1  0  0  0  0
 13 14  1  0  0  0  0
 14 15  1  0  0  0  0
 14 31  1  0  0  0  0
 14 32  1  0  0  0  0
 15 16  1  0  0  0  0
 15 33  1  0  0  0  0
 15 34  1  0  0  0  0
 16 17  1  0  0  0  0
 17 18  1  0  0  0  0
 17 35  1  0  0  0  0
 17 36  1  0  0  0  0
 18 37  1  0  0  0  0
 18 38  1  0  0  0  0
M  CHG  1   3   1
M  END
> <s_m_source_file>
AV-unprocessed.smi

> <i_m_source_file_index>
3322

> <i_lp_mmshare_version>
43012

> <i_f3d_flags>
0

> <s_epik_input>
W0NIMl0xW0NIMl1PW0NIMl1bQ0gyXU4xQyg9TylbQ0BIXShbQ0gzXSlbTkhdW0NIMl1bQ0gyXW4yW2NIXVtjSF1bY0hdbjI=

> <s_epik_cmdline>
J2VwaWtfcHl0aG9uJywgJy1waCcsICc3LjAnLCAnLXRuJywgJzgnLCAnLW1hJywgJzIwMCcsICctbWV0YWxfYmluZGluZycsICctaW1hZScsICc8aW5maWxlLm1hZT4nLCAnLW9tYWUnLCAnPG91dGZpbGUubWFlPic=

> <r_lp_tautomer_probability>
1

> <r_epik_Ionization_Penalty>
0.3254

> <r_epik_Ionization_Penalty_Charging>
0.325398

> <r_epik_Ionization_Penalty_Neutral>
2.29478e-06

> <r_epik_State_Penalty>
0.320187

> <r_epik_Charging_Adjusted_Penalty>
0.645585

> <i_epik_Tot_Q>
1

> <i_epik_Tot_abs_Q>
1

> <r_epik_Metal_State_Penalty>
0.320558

> <b_epik_Metal_Only>
0

> <s_lp_Force_Field>
OPLS_2005

> <r_lp_Energy>
25.7531

> <b_lp_Chiralities_Consistent>
1

> <s_lp_Variant>
AV-unprocessed.smi:3322-2

> <Gold.Version>
5.8.1

> <Gold.Id.Protein>
6NUR|6NUR_protein|mol2

> <Gold.PLP.Fitness>
47.1967

> <Gold.PLP.PLP>
-37.3157

> <Gold.PLP.part.hbond>
-2.0000

> <Gold.PLP.part.metal>
0.0000

> <Gold.PLP.part.buried>
-5.5685

> <Gold.PLP.part.nonpolar>
-30.5420

> <Gold.PLP.part.repulsive>
0.3101

> <Gold.PLP.ligand.clash>
0.0000

> <Gold.PLP.ligand.torsion>
1.0515

> <Gold.PLP.Chemscore.Hbond>
3.0000

> <Gold.PLP.Chemscore.CHOScore>
0.9886

> <Gold.PLP.Chemscore.Metal>
0.0000

> <Gold.Chemscore.Hbonds>
donor molecule, donor type, donor heavy atom, donor atom, acceptor molecule, acceptor atom, score
      L1  H     3    39       P1  8028  2.00
      P1  H 10752 10765       L1    16  0.90
      L1  C     7    28       P1  8028  1.00

> <Gold.PLP.Chemscore.Internal.Correction>
0.0180

> <Gold.Rescore>
     Score         DG    S(hbond)    S(metal)    S(lipo)     H(rot)  DE(clash)    DE(int)     intcor
     16.17     -17.17       1.97        0.00      85.36       1.91       0.03       0.98       ----

> <Gold.Chemscore.Fitness>
16.1657

> <Gold.Chemscore.DG>
-17.1713

> <Gold.Chemscore.ZeroCoef>
-5.4800

> <Gold.Chemscore.Hbond>
1.9739

> <Gold.Chemscore.Metal>
0.0000

> <Gold.Chemscore.Lipo>
85.3583

> <Gold.Chemscore.Internal_Hbond>
0.0000

> <Gold.Chemscore.DEClash>
0.0275

> <Gold.Chemscore.DEInternal>
0.9782

> <Gold.Chemscore.Rot>
1.9095

> <Gold.Chemscore.Internal.Correction>
   9.000000E+99

> <Gold.Chemscore.Hbonds>
donor molecule, donor type, donor heavy atom, donor atom, acceptor molecule, acceptor atom, score
      L1  H     3    39       P1  8028  0.99
      P1  H 10752 10765       L1    16  0.35

> <Gold.Chemscore.Hbond.Weighted>
-6.5928

> <Gold.Chemscore.Metal.Weighted>
-0.0000

> <Gold.Chemscore.Lipo.Weighted>
-9.9869

> <Gold.Chemscore.Internal_Hbond.Weighted>
0.0000

> <Gold.Chemscore.DEClash.Weighted>
0.0275

> <Gold.Chemscore.DEInternal.Weighted>
0.9782

> <Gold.Chemscore.Rot.Weighted>
4.8884

> <Gold.Chemscore.Internal.Correction.Weighted>
   9.000000E+99

> <Gold.Protein.RotatedTorsions>
[ 6907 6896 6895 6894 ] final  167.49 input  -60.11 | X-H torsion
[ 7974 7965 7964 7962 ] final  144.26 input  175.53 | X-H torsion
[ 8008 7997 7996 7995 ] final  136.87 input   59.86 | X-H torsion
[ 10167 10162 10161 10158 ] final  168.11 input  -65.29 | X-H torsion
[ 10718 10713 10712 10709 ] final -136.19 input   66.30 | X-H torsion
[ 10763 10752 10751 10750 ] final  172.25 input  -60.55 | X-H torsion
[ 11005 11000 10999 10996 ] final   97.88 input  -57.11 | X-H torsion

> <Gold.Protein.ActiveResidues>
 VAL166  LYS551  ARG553  GLY616  TRP617  ASP618  TYR619  PRO620  LYS621  CYS622 
 ASP623  PHE694  ASN695  SER759  ASP760  ASP761  ALA762  ILE779  LEU786  VAL792 
 PHE793  MET794  SER795  GLU796  ALA797  LYS798  CYS799  TRP800  GLU811  SER814 

> <Gold.Protein.RotatedAtoms>
  151.8625  133.3460  159.3708 H   0  0  0  0  0  0  0  0  0  0  0  0  # atno 6907 bound_to 6896
  150.7175  134.5192  159.5654 H   0  0  0  0  0  0  0  0  0  0  0  0  # atno 6908 bound_to 6896
  152.2708  134.7935  160.0465 H   0  0  0  0  0  0  0  0  0  0  0  0  # atno 6909 bound_to 6896
  144.8850  139.5642  143.5825 H   0  0  0  0  0  0  0  0  0  0  0  0  # atno 7974 bound_to 7965
  156.3003  140.2434  156.3817 H   0  0  0  0  0  0  0  0  0  0  0  0  # atno 8008 bound_to 7997
  154.8695  140.0416  157.1735 H   0  0  0  0  0  0  0  0  0  0  0  0  # atno 8009 bound_to 7997
  154.8810  140.2949  155.5429 H   0  0  0  0  0  0  0  0  0  0  0  0  # atno 8010 bound_to 7997
  139.4960  144.3850  151.9580 H   0  0  0  0  0  0  0  0  0  0  0  0  # atno 10167 bound_to 10162
  156.2744  130.7284  151.1262 H   0  0  0  0  0  0  0  0  0  0  0  0  # atno 10718 bound_to 10713
  154.4233  135.2758  155.1961 H   0  0  0  0  0  0  0  0  0  0  0  0  # atno 10763 bound_to 10752
  154.3897  135.6069  153.5840 H   0  0  0  0  0  0  0  0  0  0  0  0  # atno 10764 bound_to 10752
  152.9833  135.5900  154.4533 H   0  0  0  0  0  0  0  0  0  0  0  0  # atno 10765 bound_to 10752
  139.8774  134.9022  156.4373 H   0  0  0  0  0  0  0  0  0  0  0  0  # atno 11005 bound_to 11000
  146.3019  139.7453  142.9085 LP  0  0  0  0  0  0  0  0  0  0  0  0  # atno 17320 bound_to 7965
  145.3885  141.0369  143.3137 LP  0  0  0  0  0  0  0  0  0  0  0  0  # atno 17321 bound_to 7965
  140.3287  144.3342  150.5992 LP  0  0  0  0  0  0  0  0  0  0  0  0  # atno 17342 bound_to 10162
  140.5663  143.2186  151.7678 LP  0  0  0  0  0  0  0  0  0  0  0  0  # atno 17343 bound_to 10162
  157.7294  131.0624  150.5774 LP  0  0  0  0  0  0  0  0  0  0  0  0  # atno 17370 bound_to 10713
  156.5873  130.4320  149.5951 LP  0  0  0  0  0  0  0  0  0  0  0  0  # atno 17371 bound_to 10713
  140.9024  133.7770  155.9696 LP  0  0  0  0  0  0  0  0  0  0  0  0  # atno 17394 bound_to 11000
  140.8636  134.2811  157.5223 LP  0  0  0  0  0  0  0  0  0  0  0  0  # atno 17395 bound_to 11000

$$$$
