AV-unprocessed.smi:3234|AV-procd|sdf|12354|dock6
  -GOLD-   2272018213D 1   1.00000     0.00000
 Structure written by MMmdl.
 38 40  0  0  0  0  0  0  0  0  3 V2000
  145.3791  138.6100  152.7203 O   0  0  0  0  0  0  0  0  0  0  0  0
  146.4351  138.0190  152.4970 C   0  0  0  0  0  0  0  0  0  0  0  0
  147.6566  138.4438  152.8654 N   0  0  0  0  0  0  0  0  0  0  0  0
  148.0077  139.6402  153.5494 C   0  0  0  0  0  0  0  0  0  0  0  0
  147.1131  140.7302  153.4625 C   0  0  0  0  0  0  0  0  0  0  0  0
  147.4120  141.9317  154.1368 C   0  0  0  0  0  0  0  0  0  0  0  0
  148.5428  142.0287  154.8682 N   0  3  0  0  0  0  0  0  0  0  0  0
  149.4208  141.0104  154.9933 C   0  0  0  0  0  0  0  0  0  0  0  0
  149.1759  139.7847  154.3411 C   0  0  0  0  0  0  0  0  0  0  0  0
  146.4975  136.8397  151.8616 N   0  0  0  0  0  0  0  0  0  0  0  0
  145.3395  136.1121  151.3512 C   0  0  2  0  0  0  0  0  0  0  0  0
  144.2831  135.7809  152.4092 C   0  0  0  0  0  0  0  0  0  0  0  0
  143.6348  134.4766  151.9132 C   0  0  0  0  0  0  0  0  0  0  0  0
  144.4402  134.0074  150.7613 N   0  3  2  0  0  0  0  0  0  0  0  0
  144.5811  132.5385  150.6736 C   0  0  0  0  0  0  0  0  0  0  0  0
  145.8635  132.0178  151.2776 C   0  0  0  0  0  0  0  0  0  0  0  0
  145.7086  132.0921  149.7740 C   0  0  0  0  0  0  0  0  0  0  0  0
  145.7209  134.7341  150.8190 C   0  0  0  0  0  0  0  0  0  0  0  0
  148.4201  137.8077  152.6870 H   0  0  0  0  0  0  0  0  0  0  0  0
  146.2064  140.6530  152.8796 H   0  0  0  0  0  0  0  0  0  0  0  0
  146.7843  142.8105  154.1147 H   0  0  0  0  0  0  0  0  0  0  0  0
  150.2851  141.2027  155.6121 H   0  0  0  0  0  0  0  0  0  0  0  0
  149.8814  138.9785  154.4713 H   0  0  0  0  0  0  0  0  0  0  0  0
  147.4040  136.4175  151.7217 H   0  0  0  0  0  0  0  0  0  0  0  0
  144.8748  136.6803  150.5425 H   0  0  0  0  0  0  0  0  0  0  0  0
  144.7542  135.6072  153.3780 H   0  0  0  0  0  0  0  0  0  0  0  0
  143.5582  136.5860  152.5335 H   0  0  0  0  0  0  0  0  0  0  0  0
  143.6202  133.7365  152.7148 H   0  0  0  0  0  0  0  0  0  0  0  0
  142.6052  134.6366  151.5921 H   0  0  0  0  0  0  0  0  0  0  0  0
  143.6630  131.9569  150.7384 H   0  0  0  0  0  0  0  0  0  0  0  0
  146.5386  132.7300  151.7488 H   0  0  0  0  0  0  0  0  0  0  0  0
  145.8395  131.0295  151.7324 H   0  0  0  0  0  0  0  0  0  0  0  0
  145.5834  131.1525  149.2395 H   0  0  0  0  0  0  0  0  0  0  0  0
  146.2806  132.8538  149.2467 H   0  0  0  0  0  0  0  0  0  0  0  0
  146.2001  134.7797  149.8403 H   0  0  0  0  0  0  0  0  0  0  0  0
  146.3997  134.2298  151.5098 H   0  0  0  0  0  0  0  0  0  0  0  0
  143.9654  134.3250  149.9282 H   0  0  0  0  0  0  0  0  0  0  0  0
  148.7400  142.9063  155.3502 H   0  0  0  0  0  0  0  0  0  0  0  0
  1  2  2  0  0  0  0
  2  3  1  0  0  0  0
  2 10  1  0  0  0  0
  3  4  1  0  0  0  0
  3 19  1  0  0  0  0
  4  9  1  0  0  0  0
  4  5  2  0  0  0  0
  5  6  1  0  0  0  0
  5 20  1  0  0  0  0
  6  7  2  0  0  0  0
  6 21  1  0  0  0  0
  7  8  1  0  0  0  0
  7 38  1  0  0  0  0
  8  9  2  0  0  0  0
  8 22  1  0  0  0  0
  9 23  1  0  0  0  0
 10 11  1  0  0  0  0
 10 24  1  0  0  0  0
 11 18  1  0  0  0  0
 11 12  1  0  0  0  0
 11 25  1  0  0  0  0
 12 13  1  0  0  0  0
 12 26  1  0  0  0  0
 12 27  1  0  0  0  0
 13 14  1  0  0  0  0
 13 28  1  0  0  0  0
 13 29  1  0  0  0  0
 14 15  1  0  0  0  0
 14 18  1  0  0  0  0
 14 37  1  0  0  0  0
 15 17  1  0  0  0  0
 15 16  1  0  0  0  0
 15 30  1  0  0  0  0
 16 17  1  0  0  0  0
 16 31  1  0  0  0  0
 16 32  1  0  0  0  0
 17 33  1  0  0  0  0
 17 34  1  0  0  0  0
 18 35  1  0  0  0  0
 18 36  1  0  0  0  0
M  CHG  1   7   1
M  CHG  1  14   1
M  END
> <s_m_source_file>
AV-unprocessed.smi

> <i_m_source_file_index>
3234

> <i_lp_mmshare_version>
43012

> <i_f3d_flags>
0

> <s_epik_input>
W2NIXTFbY0hdbltjSF1bY0hdYzFbTkhdQyg9TylbTkhdW0NAQEhdMltDSDJdW0NIMl1OKFtDSDJdMilbQ0hdM1tDSDJdW0NIMl0z

> <s_epik_cmdline>
J2VwaWtfcHl0aG9uJywgJy1waCcsICc3LjAnLCAnLXRuJywgJzgnLCAnLW1hJywgJzIwMCcsICctbWV0YWxfYmluZGluZycsICctaW1hZScsICc8aW5maWxlLm1hZT4nLCAnLW9tYWUnLCAnPG91dGZpbGUubWFlPic=

> <r_epik_Ionization_Penalty>
1.14489

> <r_epik_Ionization_Penalty_Charging>
1.14487

> <r_epik_Ionization_Penalty_Neutral>
1.95212e-05

> <r_epik_State_Penalty>
1.205

> <r_epik_Charging_Adjusted_Penalty>
2.34987

> <i_epik_Tot_Q>
2

> <i_epik_Tot_abs_Q>
2

> <r_epik_Metal_State_Penalty>
1.28709

> <b_epik_Metal_Only>
0

> <s_lp_Force_Field>
OPLS_2005

> <r_lp_Energy>
48.7284

> <b_lp_Chiralities_Consistent>
1

> <s_lp_Variant>
AV-unprocessed.smi:3234-7

> <Gold.Version>
5.8.1

> <Gold.Id.Protein>
6NUR|6NUR_protein|mol2

> <Gold.PLP.Fitness>
45.0452

> <Gold.PLP.PLP>
-33.5351

> <Gold.PLP.part.hbond>
-3.9254

> <Gold.PLP.part.metal>
0.0000

> <Gold.PLP.part.buried>
-3.2343

> <Gold.PLP.part.nonpolar>
-31.0607

> <Gold.PLP.part.repulsive>
4.3904

> <Gold.PLP.ligand.clash>
0.0000

> <Gold.PLP.ligand.torsion>
0.7925

> <Gold.PLP.Chemscore.Hbond>
3.9440

> <Gold.PLP.Chemscore.CHOScore>
0.0000

> <Gold.PLP.Chemscore.Metal>
0.0000

> <Gold.Chemscore.Hbonds>
donor molecule, donor type, donor heavy atom, donor atom, acceptor molecule, acceptor atom, score
      L1  H     3    19       P1  7948  0.93
      L1  H     7    38       P1  8028  2.00
      L1  H    10    24       P1  7948  1.00

> <Gold.PLP.Chemscore.Internal.Correction>
1.2632

> <Gold.Rescore>
     Score         DG    S(hbond)    S(metal)    S(lipo)     H(rot)  DE(clash)    DE(int)     intcor
     17.04     -21.83       2.89        0.00      84.02       1.22       2.68       2.12       ----

> <Gold.Chemscore.Fitness>
17.0376

> <Gold.Chemscore.DG>
-21.8335

> <Gold.Chemscore.ZeroCoef>
-5.4800

> <Gold.Chemscore.Hbond>
2.8919

> <Gold.Chemscore.Metal>
0.0000

> <Gold.Chemscore.Lipo>
84.0184

> <Gold.Chemscore.Internal_Hbond>
0.0000

> <Gold.Chemscore.DEClash>
2.6779

> <Gold.Chemscore.DEInternal>
2.1179

> <Gold.Chemscore.Rot>
1.2248

> <Gold.Chemscore.Internal.Correction>
   9.000000E+99

> <Gold.Chemscore.Hbonds>
donor molecule, donor type, donor heavy atom, donor atom, acceptor molecule, acceptor atom, score
      L1  H     3    19       P1  7948  0.91
      L1  H     7    38       P1  8028  0.99
      L1  H    10    24       P1  7948  0.93

> <Gold.Chemscore.Hbond.Weighted>
-9.6588

> <Gold.Chemscore.Metal.Weighted>
-0.0000

> <Gold.Chemscore.Lipo.Weighted>
-9.8301

> <Gold.Chemscore.Internal_Hbond.Weighted>
0.0000

> <Gold.Chemscore.DEClash.Weighted>
2.6779

> <Gold.Chemscore.DEInternal.Weighted>
2.1179

> <Gold.Chemscore.Rot.Weighted>
3.1355

> <Gold.Chemscore.Internal.Correction.Weighted>
   9.000000E+99

> <Gold.Protein.RotatedTorsions>
[ 6907 6896 6895 6894 ] final  -88.94 input  -60.11 | X-H torsion
[ 7974 7965 7964 7962 ] final  -36.15 input  175.53 | X-H torsion
[ 8008 7997 7996 7995 ] final   84.18 input   59.86 | X-H torsion
[ 10167 10162 10161 10158 ] final   47.89 input  -65.29 | X-H torsion
[ 10718 10713 10712 10709 ] final  -46.72 input   66.30 | X-H torsion
[ 10763 10752 10751 10750 ] final -148.80 input  -60.55 | X-H torsion
[ 11005 11000 10999 10996 ] final  172.65 input  -57.11 | X-H torsion

> <Gold.Protein.ActiveResidues>
 VAL166  LYS551  ARG553  GLY616  TRP617  ASP618  TYR619  PRO620  LYS621  CYS622 
 ASP623  PHE694  ASN695  SER759  ASP760  ASP761  ALA762  ILE779  LEU786  VAL792 
 PHE793  MET794  SER795  GLU796  ALA797  LYS798  CYS799  TRP800  GLU811  SER814 

> <Gold.Protein.RotatedAtoms>
  150.6871  134.2664  159.4570 H   0  0  0  0  0  0  0  0  0  0  0  0  # atno 6907 bound_to 6896
  152.0590  134.9603  160.0584 H   0  0  0  0  0  0  0  0  0  0  0  0  # atno 6908 bound_to 6896
  152.1038  133.4229  159.4636 H   0  0  0  0  0  0  0  0  0  0  0  0  # atno 6909 bound_to 6896
  146.0686  140.6244  142.8963 H   0  0  0  0  0  0  0  0  0  0  0  0  # atno 7974 bound_to 7965
  155.9336  140.3413  155.6269 H   0  0  0  0  0  0  0  0  0  0  0  0  # atno 8008 bound_to 7997
  155.7127  140.0773  157.2383 H   0  0  0  0  0  0  0  0  0  0  0  0  # atno 8009 bound_to 7997
  154.4089  140.1620  156.2301 H   0  0  0  0  0  0  0  0  0  0  0  0  # atno 8010 bound_to 7997
  140.2990  144.2957  150.6223 H   0  0  0  0  0  0  0  0  0  0  0  0  # atno 10167 bound_to 10162
  156.2155  130.4163  149.9059 H   0  0  0  0  0  0  0  0  0  0  0  0  # atno 10718 bound_to 10713
  154.8213  135.3325  154.7029 H   0  0  0  0  0  0  0  0  0  0  0  0  # atno 10763 bound_to 10752
  153.7662  135.6929  153.4920 H   0  0  0  0  0  0  0  0  0  0  0  0  # atno 10764 bound_to 10752
  153.2076  135.4493  155.0290 H   0  0  0  0  0  0  0  0  0  0  0  0  # atno 10765 bound_to 10752
  140.3320  134.7349  157.4141 H   0  0  0  0  0  0  0  0  0  0  0  0  # atno 11005 bound_to 11000
  144.7217  140.4396  143.7003 LP  0  0  0  0  0  0  0  0  0  0  0  0  # atno 17320 bound_to 7965
  145.6433  139.1553  143.2903 LP  0  0  0  0  0  0  0  0  0  0  0  0  # atno 17321 bound_to 7965
  140.5668  143.2185  151.7670 LP  0  0  0  0  0  0  0  0  0  0  0  0  # atno 17342 bound_to 10162
  139.4919  144.4273  151.9912 LP  0  0  0  0  0  0  0  0  0  0  0  0  # atno 17343 bound_to 10162
  156.6723  130.8825  151.3564 LP  0  0  0  0  0  0  0  0  0  0  0  0  # atno 17370 bound_to 10713
  157.7061  130.9386  150.0935 LP  0  0  0  0  0  0  0  0  0  0  0  0  # atno 17371 bound_to 10713
  140.0852  134.5676  155.8499 LP  0  0  0  0  0  0  0  0  0  0  0  0  # atno 17394 bound_to 11000
  141.2061  133.6652  156.6220 LP  0  0  0  0  0  0  0  0  0  0  0  0  # atno 17395 bound_to 11000

$$$$
