AV-unprocessed.smi:1135|AV-procd|sdf|4859|dock10
  -GOLD-   22720 3433D 1   1.00000     0.00000
 Structure written by MMmdl.
 45 46  0  0  0  0  0  0  0  0  1 V2000
  151.3579  145.3958  160.0398 C   0  0  0  0  0  0  0  0  0  0  0  0
  151.7632  144.1421  159.2521 C   0  0  2  0  0  0  0  0  0  0  0  0
  151.8092  144.4184  157.7379 C   0  0  0  0  0  0  0  0  0  0  0  0
  152.1838  143.1553  156.9387 C   0  0  0  0  0  0  0  0  0  0  0  0
  151.2383  141.9624  157.2188 C   0  0  2  0  0  0  0  0  0  0  0  0
  151.7664  140.7176  156.4742 C   0  0  0  0  0  0  0  0  0  0  0  0
  149.9067  142.3208  156.7076 N   0  0  0  0  0  0  0  0  0  0  0  0
  148.7786  141.5923  156.7283 C   0  0  0  0  0  0  0  0  0  0  0  0
  148.6879  140.4525  157.1842 O   0  0  0  0  0  0  0  0  0  0  0  0
  147.7503  142.2655  156.1944 N   0  0  0  0  0  0  0  0  0  0  0  0
  146.3880  141.7565  156.0865 C   0  0  0  0  0  0  0  0  0  0  0  0
  145.3510  142.8474  156.4017 C   0  0  0  0  0  0  0  0  0  0  0  0
  145.0651  143.7306  155.2020 C   0  0  0  0  0  0  0  0  0  0  0  0
  145.7530  143.5357  153.9853 C   0  0  0  0  0  0  0  0  0  0  0  0
  145.4598  144.3890  152.9042 C   0  0  0  0  0  0  0  0  0  0  0  0
  144.4959  145.4003  153.0806 C   0  0  0  0  0  0  0  0  0  0  0  0
  143.8642  145.5124  154.3353 C   0  0  0  0  0  0  0  0  0  0  0  0
  144.1377  144.6992  155.3784 N   0  0  0  0  0  0  0  0  0  0  0  0
  151.2172  141.7075  158.7494 C   0  0  0  0  0  0  0  0  0  0  0  0
  150.8265  142.9588  159.5566 C   0  0  0  0  0  0  0  0  0  0  0  0
  150.3550  145.7277  159.7692 H   0  0  0  0  0  0  0  0  0  0  0  0
  152.0451  146.2198  159.8467 H   0  0  0  0  0  0  0  0  0  0  0  0
  151.3668  145.2043  161.1133 H   0  0  0  0  0  0  0  0  0  0  0  0
  152.7687  143.8639  159.5719 H   0  0  0  0  0  0  0  0  0  0  0  0
  150.8435  144.7977  157.4012 H   0  0  0  0  0  0  0  0  0  0  0  0
  152.5333  145.2064  157.5282 H   0  0  0  0  0  0  0  0  0  0  0  0
  152.1914  143.3884  155.8729 H   0  0  0  0  0  0  0  0  0  0  0  0
  153.2082  142.8759  157.1899 H   0  0  0  0  0  0  0  0  0  0  0  0
  152.7867  140.4800  156.7769 H   0  0  0  0  0  0  0  0  0  0  0  0
  151.7737  140.8738  155.3949 H   0  0  0  0  0  0  0  0  0  0  0  0
  151.1609  139.8337  156.6747 H   0  0  0  0  0  0  0  0  0  0  0  0
  149.8379  143.2427  156.3023 H   0  0  0  0  0  0  0  0  0  0  0  0
  147.9185  143.1973  155.8441 H   0  0  0  0  0  0  0  0  0  0  0  0
  146.2438  141.3867  155.0711 H   0  0  0  0  0  0  0  0  0  0  0  0
  146.2556  140.9002  156.7502 H   0  0  0  0  0  0  0  0  0  0  0  0
  144.4173  142.3941  156.7374 H   0  0  0  0  0  0  0  0  0  0  0  0
  145.7012  143.4710  157.2257 H   0  0  0  0  0  0  0  0  0  0  0  0
  146.4905  142.7531  153.8825 H   0  0  0  0  0  0  0  0  0  0  0  0
  145.9668  144.2709  151.9580 H   0  0  0  0  0  0  0  0  0  0  0  0
  144.2468  146.0740  152.2743 H   0  0  0  0  0  0  0  0  0  0  0  0
  143.1204  146.2767  154.5059 H   0  0  0  0  0  0  0  0  0  0  0  0
  150.5485  140.8851  159.0022 H   0  0  0  0  0  0  0  0  0  0  0  0
  152.2074  141.3824  159.0717 H   0  0  0  0  0  0  0  0  0  0  0  0
  150.8587  142.7261  160.6213 H   0  0  0  0  0  0  0  0  0  0  0  0
  149.7941  143.2335  159.3369 H   0  0  0  0  0  0  0  0  0  0  0  0
  1  2  1  0  0  0  0
  1 21  1  0  0  0  0
  1 22  1  0  0  0  0
  1 23  1  0  0  0  0
  2 20  1  0  0  0  0
  2  3  1  0  0  0  0
  2 24  1  0  0  0  0
  3  4  1  0  0  0  0
  3 25  1  0  0  0  0
  3 26  1  0  0  0  0
  4  5  1  0  0  0  0
  4 27  1  0  0  0  0
  4 28  1  0  0  0  0
  5  6  1  0  0  0  0
  5  7  1  0  0  0  0
  5 19  1  0  0  0  0
  6 29  1  0  0  0  0
  6 30  1  0  0  0  0
  6 31  1  0  0  0  0
  7  8  1  0  0  0  0
  7 32  1  0  0  0  0
  8  9  2  0  0  0  0
  8 10  1  0  0  0  0
 10 11  1  0  0  0  0
 10 33  1  0  0  0  0
 11 12  1  0  0  0  0
 11 34  1  0  0  0  0
 11 35  1  0  0  0  0
 12 13  1  0  0  0  0
 12 36  1  0  0  0  0
 12 37  1  0  0  0  0
 13 18  1  0  0  0  0
 13 14  2  0  0  0  0
 14 15  1  0  0  0  0
 14 38  1  0  0  0  0
 15 16  2  0  0  0  0
 15 39  1  0  0  0  0
 16 17  1  0  0  0  0
 16 40  1  0  0  0  0
 17 18  2  0  0  0  0
 17 41  1  0  0  0  0
 19 20  1  0  0  0  0
 19 42  1  0  0  0  0
 19 43  1  0  0  0  0
 20 44  1  0  0  0  0
 20 45  1  0  0  0  0
M  END
> <s_m_source_file>
AV-unprocessed.smi

> <i_m_source_file_index>
1135

> <i_lp_mmshare_version>
43012

> <i_f3d_flags>
0

> <s_epik_input>
W0NIMl0xW0NIMl1bQ0BIXShbQ0gzXSlbQ0gyXVtDSDJdW0NAQF0xKFtDSDNdKVtOSF1DKD1PKVtOSF1bQ0gyXVtDSDJdYzJbY0hdW2NIXVtjSF1bY0hdbjI=

> <s_epik_cmdline>
J2VwaWtfcHl0aG9uJywgJy1waCcsICc3LjAnLCAnLXRuJywgJzgnLCAnLW1hJywgJzIwMCcsICctbWV0YWxfYmluZGluZycsICctaW1hZScsICc8aW5maWxlLm1hZT4nLCAnLW9tYWUnLCAnPG91dGZpbGUubWFlPic=

> <r_epik_Ionization_Penalty>
0.0448679

> <r_epik_Ionization_Penalty_Charging>
0

> <r_epik_Ionization_Penalty_Neutral>
0.0448679

> <r_epik_State_Penalty>
0.0379931

> <r_epik_Charging_Adjusted_Penalty>
0.0379931

> <i_epik_Tot_Q>
0

> <i_epik_Tot_abs_Q>
0

> <r_epik_Metal_State_Penalty>
0.0353093

> <b_epik_Metal_Only>
0

> <s_lp_Force_Field>
OPLS_2005

> <r_lp_Energy>
6.34065

> <b_lp_Chiralities_Consistent>
1

> <s_lp_Variant>
AV-unprocessed.smi:1135-2

> <Gold.Version>
5.8.1

> <Gold.Id.Protein>
6NUR|6NUR_protein|mol2

> <Gold.PLP.Fitness>
42.5195

> <Gold.PLP.PLP>
-37.0312

> <Gold.PLP.part.hbond>
-2.0000

> <Gold.PLP.part.metal>
0.0000

> <Gold.PLP.part.buried>
-4.3790

> <Gold.PLP.part.nonpolar>
-29.7330

> <Gold.PLP.part.repulsive>
0.1567

> <Gold.PLP.ligand.clash>
0.0000

> <Gold.PLP.ligand.torsion>
0.2622

> <Gold.PLP.Chemscore.Hbond>
2.0000

> <Gold.PLP.Chemscore.CHOScore>
0.0000

> <Gold.PLP.Chemscore.Metal>
0.0000

> <Gold.Chemscore.Hbonds>
donor molecule, donor type, donor heavy atom, donor atom, acceptor molecule, acceptor atom, score
      L1  H     7    32       P1  8028  1.00
      L1  H    10    33       P1  8028  1.00

> <Gold.PLP.Chemscore.Internal.Correction>
0.0127

> <Gold.Rescore>
     Score         DG    S(hbond)    S(metal)    S(lipo)     H(rot)  DE(clash)    DE(int)     intcor
     18.02     -20.57       1.33        0.00     122.02       1.42       2.28       0.27       ----

> <Gold.Chemscore.Fitness>
18.0201

> <Gold.Chemscore.DG>
-20.5695

> <Gold.Chemscore.ZeroCoef>
-5.4800

> <Gold.Chemscore.Hbond>
1.3330

> <Gold.Chemscore.Metal>
0.0000

> <Gold.Chemscore.Lipo>
122.0157

> <Gold.Chemscore.Internal_Hbond>
0.0000

> <Gold.Chemscore.DEClash>
2.2758

> <Gold.Chemscore.DEInternal>
0.2737

> <Gold.Chemscore.Rot>
1.4213

> <Gold.Chemscore.Internal.Correction>
   9.000000E+99

> <Gold.Chemscore.Hbonds>
donor molecule, donor type, donor heavy atom, donor atom, acceptor molecule, acceptor atom, score
      L1  H     7    32       P1  8028  0.98
      L1  H    10    33       P1  8028  0.44

> <Gold.Chemscore.Hbond.Weighted>
-4.4522

> <Gold.Chemscore.Metal.Weighted>
-0.0000

> <Gold.Chemscore.Lipo.Weighted>
-14.2758

> <Gold.Chemscore.Internal_Hbond.Weighted>
0.0000

> <Gold.Chemscore.DEClash.Weighted>
2.2758

> <Gold.Chemscore.DEInternal.Weighted>
0.2737

> <Gold.Chemscore.Rot.Weighted>
3.6385

> <Gold.Chemscore.Internal.Correction.Weighted>
   9.000000E+99

> <Gold.Protein.RotatedTorsions>
[ 6907 6896 6895 6894 ] final  126.18 input  -60.11 | X-H torsion
[ 7974 7965 7964 7962 ] final  -71.21 input  175.53 | X-H torsion
[ 8008 7997 7996 7995 ] final  -39.51 input   59.86 | X-H torsion
[ 10167 10162 10161 10158 ] final    3.66 input  -65.29 | X-H torsion
[ 10718 10713 10712 10709 ] final   32.13 input   66.30 | X-H torsion
[ 10763 10752 10751 10750 ] final  129.14 input  -60.55 | X-H torsion
[ 11005 11000 10999 10996 ] final  140.49 input  -57.11 | X-H torsion

> <Gold.Protein.ActiveResidues>
 VAL166  LYS551  ARG553  GLY616  TRP617  ASP618  TYR619  PRO620  LYS621  CYS622 
 ASP623  PHE694  ASN695  SER759  ASP760  ASP761  ALA762  ILE779  LEU786  VAL792 
 PHE793  MET794  SER795  GLU796  ALA797  LYS798  CYS799  TRP800  GLU811  SER814 

> <Gold.Protein.RotatedAtoms>
  152.3927  133.6701  159.6250 H   0  0  0  0  0  0  0  0  0  0  0  0  # atno 6907 bound_to 6896
  150.7832  133.8927  159.3327 H   0  0  0  0  0  0  0  0  0  0  0  0  # atno 6908 bound_to 6896
  151.6711  135.0977  160.0249 H   0  0  0  0  0  0  0  0  0  0  0  0  # atno 6909 bound_to 6896
  145.6810  140.9188  143.0832 H   0  0  0  0  0  0  0  0  0  0  0  0  # atno 7974 bound_to 7965
  154.4022  140.1549  156.2876 H   0  0  0  0  0  0  0  0  0  0  0  0  # atno 8008 bound_to 7997
  155.8814  140.3443  155.5869 H   0  0  0  0  0  0  0  0  0  0  0  0  # atno 8009 bound_to 7997
  155.7662  140.0824  157.2121 H   0  0  0  0  0  0  0  0  0  0  0  0  # atno 8010 bound_to 7997
  140.6575  143.7390  150.7679 H   0  0  0  0  0  0  0  0  0  0  0  0  # atno 10167 bound_to 10162
  157.2812  130.7256  149.6558 H   0  0  0  0  0  0  0  0  0  0  0  0  # atno 10718 bound_to 10713
  153.7369  135.3230  155.3296 H   0  0  0  0  0  0  0  0  0  0  0  0  # atno 10763 bound_to 10752
  154.8308  135.4535  154.1066 H   0  0  0  0  0  0  0  0  0  0  0  0  # atno 10764 bound_to 10752
  153.2229  135.6950  153.8060 H   0  0  0  0  0  0  0  0  0  0  0  0  # atno 10765 bound_to 10752
  140.0331  134.9342  157.0701 H   0  0  0  0  0  0  0  0  0  0  0  0  # atno 11005 bound_to 11000
  144.7026  139.8696  143.7439 LP  0  0  0  0  0  0  0  0  0  0  0  0  # atno 17320 bound_to 7965
  146.0964  139.3957  143.0374 LP  0  0  0  0  0  0  0  0  0  0  0  0  # atno 17321 bound_to 7965
  140.1053  143.4750  152.2402 LP  0  0  0  0  0  0  0  0  0  0  0  0  # atno 17342 bound_to 10162
  139.5800  144.7506  151.3664 LP  0  0  0  0  0  0  0  0  0  0  0  0  # atno 17343 bound_to 10162
  155.9664  130.4337  150.5019 LP  0  0  0  0  0  0  0  0  0  0  0  0  # atno 17370 bound_to 10713
  157.2963  131.0636  151.2099 LP  0  0  0  0  0  0  0  0  0  0  0  0  # atno 17371 bound_to 10713
  140.4192  134.1898  155.7164 LP  0  0  0  0  0  0  0  0  0  0  0  0  # atno 17394 bound_to 11000
  141.1842  133.8348  157.1148 LP  0  0  0  0  0  0  0  0  0  0  0  0  # atno 17395 bound_to 11000

$$$$
