AV-unprocessed.smi:1071|AV-procd|sdf|4682|dock7
  -GOLD-   22720 3203D 1   1.00000     0.00000
 Structure written by MMmdl.
 46 47  0  0  0  0  0  0  0  0  1 V2000
  154.7746  132.3265  160.5848 C   0  0  0  0  0  0  0  0  0  0  0  0
  154.5746  133.6514  160.1238 O   0  0  0  0  0  0  0  0  0  0  0  0
  155.1839  134.6166  160.9650 C   0  0  0  0  0  0  0  0  0  0  0  0
  154.8085  136.0168  160.4722 C   0  0  0  0  0  0  0  0  0  0  0  0
  155.1562  136.9637  161.4779 O   0  0  0  0  0  0  0  0  0  0  0  0
  154.7667  138.2767  161.3093 C   0  0  0  0  0  0  0  0  0  0  0  0
  155.0938  139.2103  162.3125 C   0  0  0  0  0  0  0  0  0  0  0  0
  154.7030  140.5530  162.1480 C   0  0  0  0  0  0  0  0  0  0  0  0
  154.0014  140.9220  160.9758 C   0  0  0  0  0  0  0  0  0  0  0  0
  153.5361  142.2360  160.6999 N   0  0  0  0  0  0  0  0  0  0  0  0
  152.7835  142.6645  159.6674 C   0  0  0  0  0  0  0  0  0  0  0  0
  152.4920  141.9661  158.6974 O   0  0  0  0  0  0  0  0  0  0  0  0
  152.4873  143.9853  159.7517 N   0  0  0  0  0  0  0  0  0  0  0  0
  152.1989  144.6129  161.0513 C   0  0  0  0  0  0  0  0  0  0  0  0
  150.6732  144.5972  161.2844 C   0  0  0  0  0  0  0  0  0  0  0  0
  149.9911  145.3219  160.2093 N   0  0  0  0  0  0  0  0  0  0  0  0
  148.5520  145.2740  160.4209 C   0  0  0  0  0  0  0  0  0  0  0  0
  150.3177  144.7494  158.9005 C   0  0  0  0  0  0  0  0  0  0  0  0
  151.8463  144.7834  158.6864 C   0  0  2  0  0  0  0  0  0  0  0  0
  152.2479  144.4068  157.2450 C   0  0  0  0  0  0  0  0  0  0  0  0
  153.7084  139.9084  160.0403 C   0  0  0  0  0  0  0  0  0  0  0  0
  154.0815  138.6203  160.1909 N   0  0  0  0  0  0  0  0  0  0  0  0
  154.2921  131.6252  159.9039 H   0  0  0  0  0  0  0  0  0  0  0  0
  154.3413  132.1845  161.5757 H   0  0  0  0  0  0  0  0  0  0  0  0
  155.8360  132.0785  160.6274 H   0  0  0  0  0  0  0  0  0  0  0  0
  154.8508  134.4821  161.9953 H   0  0  0  0  0  0  0  0  0  0  0  0
  156.2679  134.4944  160.9488 H   0  0  0  0  0  0  0  0  0  0  0  0
  155.3437  136.2355  159.5464 H   0  0  0  0  0  0  0  0  0  0  0  0
  153.7381  136.0578  160.2636 H   0  0  0  0  0  0  0  0  0  0  0  0
  155.6324  138.9014  163.1961 H   0  0  0  0  0  0  0  0  0  0  0  0
  154.9355  141.2624  162.9268 H   0  0  0  0  0  0  0  0  0  0  0  0
  153.6985  142.9135  161.4305 H   0  0  0  0  0  0  0  0  0  0  0  0
  152.6935  144.1147  161.8861 H   0  0  0  0  0  0  0  0  0  0  0  0
  152.5750  145.6371  161.0603 H   0  0  0  0  0  0  0  0  0  0  0  0
  150.3112  143.5687  161.3331 H   0  0  0  0  0  0  0  0  0  0  0  0
  150.4412  145.0657  162.2417 H   0  0  0  0  0  0  0  0  0  0  0  0
  148.0319  145.8338  159.6429 H   0  0  0  0  0  0  0  0  0  0  0  0
  148.2919  145.7202  161.3814 H   0  0  0  0  0  0  0  0  0  0  0  0
  148.1827  144.2475  160.4087 H   0  0  0  0  0  0  0  0  0  0  0  0
  149.9446  143.7263  158.8279 H   0  0  0  0  0  0  0  0  0  0  0  0
  149.8204  145.3300  158.1224 H   0  0  0  0  0  0  0  0  0  0  0  0
  152.1824  145.8142  158.8142 H   0  0  0  0  0  0  0  0  0  0  0  0
  151.9017  145.1667  156.5440 H   0  0  0  0  0  0  0  0  0  0  0  0
  151.8115  143.4622  156.9221 H   0  0  0  0  0  0  0  0  0  0  0  0
  153.3310  144.3374  157.1400 H   0  0  0  0  0  0  0  0  0  0  0  0
  153.1622  140.1377  159.1369 H   0  0  0  0  0  0  0  0  0  0  0  0
  1  2  1  0  0  0  0
  1 23  1  0  0  0  0
  1 24  1  0  0  0  0
  1 25  1  0  0  0  0
  2  3  1  0  0  0  0
  3  4  1  0  0  0  0
  3 26  1  0  0  0  0
  3 27  1  0  0  0  0
  4  5  1  0  0  0  0
  4 28  1  0  0  0  0
  4 29  1  0  0  0  0
  5  6  1  0  0  0  0
  6 22  1  0  0  0  0
  6  7  2  0  0  0  0
  7  8  1  0  0  0  0
  7 30  1  0  0  0  0
  8  9  2  0  0  0  0
  8 31  1  0  0  0  0
  9 10  1  0  0  0  0
  9 21  1  0  0  0  0
 10 11  1  0  0  0  0
 10 32  1  0  0  0  0
 11 12  2  0  0  0  0
 11 13  1  0  0  0  0
 13 19  1  0  0  0  0
 13 14  1  0  0  0  0
 14 15  1  0  0  0  0
 14 33  1  0  0  0  0
 14 34  1  0  0  0  0
 15 16  1  0  0  0  0
 15 35  1  0  0  0  0
 15 36  1  0  0  0  0
 16 17  1  0  0  0  0
 16 18  1  0  0  0  0
 17 37  1  0  0  0  0
 17 38  1  0  0  0  0
 17 39  1  0  0  0  0
 18 19  1  0  0  0  0
 18 40  1  0  0  0  0
 18 41  1  0  0  0  0
 19 20  1  0  0  0  0
 19 42  1  0  0  0  0
 20 43  1  0  0  0  0
 20 44  1  0  0  0  0
 20 45  1  0  0  0  0
 21 22  2  0  0  0  0
 21 46  1  0  0  0  0
M  END
> <s_m_source_file>
AV-unprocessed.smi

> <i_m_source_file_index>
1071

> <i_lp_mmshare_version>
43012

> <i_f3d_flags>
0

> <s_epik_input>
W0NIM11PW0NIMl1bQ0gyXU9jMVtjSF1bY0hdYyhbY0hdbjEpW05IXUMoPU8pTjJbQ0gyXVtDSDJdTihbQ0gzXSlbQ0gyXVtDQEhdMltDSDNd

> <s_epik_cmdline>
J2VwaWtfcHl0aG9uJywgJy1waCcsICc3LjAnLCAnLXRuJywgJzgnLCAnLW1hJywgJzIwMCcsICctbWV0YWxfYmluZGluZycsICctaW1hZScsICc8aW5maWxlLm1hZT4nLCAnLW9tYWUnLCAnPG91dGZpbGUubWFlPic=

> <r_lp_tautomer_probability>
1

> <r_epik_Ionization_Penalty>
0.623446

> <r_epik_Ionization_Penalty_Charging>
0

> <r_epik_Ionization_Penalty_Neutral>
0.623446

> <r_epik_State_Penalty>
0.639577

> <r_epik_Charging_Adjusted_Penalty>
0.639577

> <i_epik_Tot_Q>
0

> <i_epik_Tot_abs_Q>
0

> <r_epik_Metal_State_Penalty>
0.639567

> <b_epik_Metal_Only>
0

> <s_lp_Force_Field>
OPLS_2005

> <r_lp_Energy>
48.0993

> <b_lp_Chiralities_Consistent>
1

> <s_lp_Variant>
AV-unprocessed.smi:1071-6

> <Gold.Version>
5.8.1

> <Gold.Id.Protein>
6NUR|6NUR_protein|mol2

> <Gold.PLP.Fitness>
39.8578

> <Gold.PLP.PLP>
-37.2626

> <Gold.PLP.part.hbond>
-1.7855

> <Gold.PLP.part.metal>
0.0000

> <Gold.PLP.part.buried>
-1.6770

> <Gold.PLP.part.nonpolar>
-33.6447

> <Gold.PLP.part.repulsive>
0.2585

> <Gold.PLP.ligand.clash>
0.3095

> <Gold.PLP.ligand.torsion>
0.3239

> <Gold.PLP.Chemscore.Hbond>
1.0000

> <Gold.PLP.Chemscore.CHOScore>
0.0000

> <Gold.PLP.Chemscore.Metal>
0.0000

> <Gold.Chemscore.Hbonds>
donor molecule, donor type, donor heavy atom, donor atom, acceptor molecule, acceptor atom, score
      P1  H  6896  6907       L1     2  1.00

> <Gold.PLP.Chemscore.Internal.Correction>
0.5525

> <Gold.Rescore>
     Score         DG    S(hbond)    S(metal)    S(lipo)     H(rot)  DE(clash)    DE(int)     intcor
     12.14     -16.86       0.94        0.00     104.90       1.57       1.53       3.19       ----

> <Gold.Chemscore.Fitness>
12.1360

> <Gold.Chemscore.DG>
-16.8627

> <Gold.Chemscore.ZeroCoef>
-5.4800

> <Gold.Chemscore.Hbond>
0.9400

> <Gold.Chemscore.Metal>
0.0000

> <Gold.Chemscore.Lipo>
104.9001

> <Gold.Chemscore.Internal_Hbond>
0.0000

> <Gold.Chemscore.DEClash>
1.5344

> <Gold.Chemscore.DEInternal>
3.1923

> <Gold.Chemscore.Rot>
1.5743

> <Gold.Chemscore.Internal.Correction>
   9.000000E+99

> <Gold.Chemscore.Hbonds>
donor molecule, donor type, donor heavy atom, donor atom, acceptor molecule, acceptor atom, score
      P1  H  6896  6907       L1     2  0.62

> <Gold.Chemscore.Hbond.Weighted>
-3.1395

> <Gold.Chemscore.Metal.Weighted>
-0.0000

> <Gold.Chemscore.Lipo.Weighted>
-12.2733

> <Gold.Chemscore.Internal_Hbond.Weighted>
0.0000

> <Gold.Chemscore.DEClash.Weighted>
1.5344

> <Gold.Chemscore.DEInternal.Weighted>
3.1923

> <Gold.Chemscore.Rot.Weighted>
4.0301

> <Gold.Chemscore.Internal.Correction.Weighted>
   9.000000E+99

> <Gold.Protein.RotatedTorsions>
[ 6907 6896 6895 6894 ] final  100.54 input  -60.11 | X-H torsion
[ 7974 7965 7964 7962 ] final   -4.84 input  175.53 | X-H torsion
[ 8008 7997 7996 7995 ] final -103.50 input   59.86 | X-H torsion
[ 10167 10162 10161 10158 ] final    1.50 input  -65.29 | X-H torsion
[ 10718 10713 10712 10709 ] final   15.44 input   66.30 | X-H torsion
[ 10763 10752 10751 10750 ] final   68.56 input  -60.55 | X-H torsion
[ 11005 11000 10999 10996 ] final    2.43 input  -57.11 | X-H torsion

> <Gold.Protein.ActiveResidues>
 VAL166  LYS551  ARG553  GLY616  TRP617  ASP618  TYR619  PRO620  LYS621  CYS622 
 ASP623  PHE694  ASN695  SER759  ASP760  ASP761  ALA762  ILE779  LEU786  VAL792 
 PHE793  MET794  SER795  GLU796  ALA797  LYS798  CYS799  TRP800  GLU811  SER814 

> <Gold.Protein.RotatedAtoms>
  152.5369  134.0261  159.8003 H   0  0  0  0  0  0  0  0  0  0  0  0  # atno 6907 bound_to 6896
  151.0439  133.5674  159.2655 H   0  0  0  0  0  0  0  0  0  0  0  0  # atno 6908 bound_to 6896
  151.2634  135.0669  159.9160 H   0  0  0  0  0  0  0  0  0  0  0  0  # atno 6909 bound_to 6896
  146.2365  140.1931  142.8333 H   0  0  0  0  0  0  0  0  0  0  0  0  # atno 7974 bound_to 7965
  154.8718  140.0422  157.1729 H   0  0  0  0  0  0  0  0  0  0  0  0  # atno 8008 bound_to 7997
  154.8731  140.2961  155.5448 H   0  0  0  0  0  0  0  0  0  0  0  0  # atno 8009 bound_to 7997
  156.2999  140.2425  156.3723 H   0  0  0  0  0  0  0  0  0  0  0  0  # atno 8010 bound_to 7997
  140.6680  143.7127  150.7865 H   0  0  0  0  0  0  0  0  0  0  0  0  # atno 10167 bound_to 10162
  157.0536  130.6280  149.5772 H   0  0  0  0  0  0  0  0  0  0  0  0  # atno 10718 bound_to 10713
  153.0242  135.5243  154.7153 H   0  0  0  0  0  0  0  0  0  0  0  0  # atno 10763 bound_to 10752
  154.6224  135.2890  155.0313 H   0  0  0  0  0  0  0  0  0  0  0  0  # atno 10764 bound_to 10752
  154.1295  135.6595  153.4971 H   0  0  0  0  0  0  0  0  0  0  0  0  # atno 10765 bound_to 10752
  140.6044  133.9806  155.8147 H   0  0  0  0  0  0  0  0  0  0  0  0  # atno 11005 bound_to 11000
  144.9842  140.8487  143.5379 LP  0  0  0  0  0  0  0  0  0  0  0  0  # atno 17320 bound_to 7965
  145.1928  139.2292  143.5233 LP  0  0  0  0  0  0  0  0  0  0  0  0  # atno 17321 bound_to 7965
  140.0807  143.4971  152.2531 LP  0  0  0  0  0  0  0  0  0  0  0  0  # atno 17342 bound_to 10162
  139.5936  144.7559  151.3340 LP  0  0  0  0  0  0  0  0  0  0  0  0  # atno 17343 bound_to 10162
  156.0000  130.5077  150.7627 LP  0  0  0  0  0  0  0  0  0  0  0  0  # atno 17370 bound_to 10713
  157.5011  131.0918  151.0313 LP  0  0  0  0  0  0  0  0  0  0  0  0  # atno 17371 bound_to 10713
  141.0850  134.0004  157.3327 LP  0  0  0  0  0  0  0  0  0  0  0  0  # atno 17394 bound_to 11000
  139.9218  135.0200  156.8093 LP  0  0  0  0  0  0  0  0  0  0  0  0  # atno 17395 bound_to 11000

$$$$
