AV-unprocessed.smi:113|AV-procd|sdf|1105|dock5
  -GOLD-   2262018223D 1   1.00000     0.00000
 Structure written by MMmdl.
 53 56  0  0  0  0  0  0  0  0  2 V2000
  154.0423  139.9229  162.5105 C   0  0  0  0  0  0  0  0  0  0  0  0
  153.3371  140.3795  161.2510 C   0  0  0  0  0  0  0  0  0  0  0  0
  153.1333  139.5241  160.1509 C   0  0  0  0  0  0  0  0  0  0  0  0
  152.4634  140.0026  158.9974 C   0  0  0  0  0  0  0  0  0  0  0  0
  152.2273  139.0953  157.7851 C   0  0  0  0  0  0  0  0  0  0  0  0
  150.8586  138.9861  157.3002 N   0  0  0  0  0  0  0  0  0  0  0  0
  149.9153  138.3280  158.1263 C   0  0  0  0  0  0  0  0  0  0  0  0
  150.2341  137.8605  159.2217 O   0  0  0  0  0  0  0  0  0  0  0  0
  148.5521  138.2731  157.5928 C   0  0  0  0  0  0  0  0  0  0  0  0
  147.4832  137.5847  158.4269 C   0  0  0  0  0  0  0  0  0  0  0  0
  148.2777  138.8327  156.3898 C   0  0  0  0  0  0  0  0  0  0  0  0
  149.2205  139.4656  155.5992 N   0  0  0  0  0  0  0  0  0  0  0  0
  148.7951  140.1075  154.2969 C   0  0  2  0  0  0  0  0  0  0  0  0
  147.7225  141.1979  154.4669 C   0  0  0  0  0  0  0  0  0  0  0  0
  146.6752  140.8282  153.4213 C   0  0  2  0  0  0  0  0  0  0  0  0
  145.4915  140.3698  154.0461 O   0  0  0  0  0  0  0  0  0  0  0  0
  147.3610  139.7415  152.5727 C   0  0  2  0  0  0  0  0  0  0  0  0
  146.4520  138.6952  151.9036 C   0  0  0  0  0  0  0  0  0  0  0  0
  146.7027  138.6415  150.5152 O   0  0  0  0  0  0  0  0  0  0  0  0
  148.2670  139.1202  153.4707 O   0  0  0  0  0  0  0  0  0  0  0  0
  150.5500  139.5871  156.0596 C   0  0  0  0  0  0  0  0  0  0  0  0
  151.3963  140.2095  155.4148 O   0  0  0  0  0  0  0  0  0  0  0  0
  152.0114  141.3511  158.9912 C   0  0  0  0  0  0  0  0  0  0  0  0
  151.3306  141.9135  157.8847 C   0  0  0  0  0  0  0  0  0  0  0  0
  150.8994  143.2544  157.9161 C   0  0  0  0  0  0  0  0  0  0  0  0
  151.1413  144.0518  159.0502 C   0  0  0  0  0  0  0  0  0  0  0  0
  151.8158  143.5086  160.1594 C   0  0  0  0  0  0  0  0  0  0  0  0
  152.2472  142.1672  160.1305 C   0  0  0  0  0  0  0  0  0  0  0  0
  152.8916  141.6512  161.1984 N   0  3  0  0  0  0  0  0  0  0  0  0
  154.5146  138.9509  162.3657 H   0  0  0  0  0  0  0  0  0  0  0  0
  153.3305  139.8376  163.3319 H   0  0  0  0  0  0  0  0  0  0  0  0
  154.8157  140.6363  162.7968 H   0  0  0  0  0  0  0  0  0  0  0  0
  153.4934  138.5078  160.2069 H   0  0  0  0  0  0  0  0  0  0  0  0
  152.8445  139.4214  156.9461 H   0  0  0  0  0  0  0  0  0  0  0  0
  152.5767  138.0838  157.9977 H   0  0  0  0  0  0  0  0  0  0  0  0
  146.5108  137.5989  157.9335 H   0  0  0  0  0  0  0  0  0  0  0  0
  147.3740  138.0803  159.3923 H   0  0  0  0  0  0  0  0  0  0  0  0
  147.7507  136.5423  158.6048 H   0  0  0  0  0  0  0  0  0  0  0  0
  147.2606  138.7783  156.0284 H   0  0  0  0  0  0  0  0  0  0  0  0
  149.7010  140.5027  153.8355 H   0  0  0  0  0  0  0  0  0  0  0  0
  147.3222  141.2314  155.4809 H   0  0  0  0  0  0  0  0  0  0  0  0
  148.1754  142.1667  154.2545 H   0  0  0  0  0  0  0  0  0  0  0  0
  146.4109  141.6882  152.8052 H   0  0  0  0  0  0  0  0  0  0  0  0
  144.7513  140.6579  153.5334 H   0  0  0  0  0  0  0  0  0  0  0  0
  147.9666  140.2295  151.8063 H   0  0  0  0  0  0  0  0  0  0  0  0
  146.6487  137.7090  152.3248 H   0  0  0  0  0  0  0  0  0  0  0  0
  145.3977  138.9081  152.0812 H   0  0  0  0  0  0  0  0  0  0  0  0
  145.8802  138.7234  150.0571 H   0  0  0  0  0  0  0  0  0  0  0  0
  151.1265  141.3331  156.9978 H   0  0  0  0  0  0  0  0  0  0  0  0
  150.3805  143.6721  157.0657 H   0  0  0  0  0  0  0  0  0  0  0  0
  150.8087  145.0796  159.0691 H   0  0  0  0  0  0  0  0  0  0  0  0
  151.9980  144.1253  161.0278 H   0  0  0  0  0  0  0  0  0  0  0  0
  153.0491  142.2529  162.0065 H   0  0  0  0  0  0  0  0  0  0  0  0
  1  2  1  0  0  0  0
  1 30  1  0  0  0  0
  1 31  1  0  0  0  0
  1 32  1  0  0  0  0
  2 29  1  0  0  0  0
  2  3  2  0  0  0  0
  3  4  1  0  0  0  0
  3 33  1  0  0  0  0
  4  5  1  0  0  0  0
  4 23  2  0  0  0  0
  5  6  1  0  0  0  0
  5 34  1  0  0  0  0
  5 35  1  0  0  0  0
  6 21  1  0  0  0  0
  6  7  1  0  0  0  0
  7  8  2  0  0  0  0
  7  9  1  0  0  0  0
  9 10  1  0  0  0  0
  9 11  2  0  0  0  0
 10 36  1  0  0  0  0
 10 37  1  0  0  0  0
 10 38  1  0  0  0  0
 11 12  1  0  0  0  0
 11 39  1  0  0  0  0
 12 13  1  0  0  0  0
 12 21  1  0  0  0  0
 13 20  1  0  0  0  0
 13 14  1  0  0  0  0
 13 40  1  0  0  0  0
 14 15  1  0  0  0  0
 14 41  1  0  0  0  0
 14 42  1  0  0  0  0
 15 16  1  0  0  0  0
 15 17  1  0  0  0  0
 15 43  1  0  0  0  0
 16 44  1  0  0  0  0
 17 18  1  0  0  0  0
 17 20  1  0  0  0  0
 17 45  1  0  0  0  0
 18 19  1  0  0  0  0
 18 46  1  0  0  0  0
 18 47  1  0  0  0  0
 19 48  1  0  0  0  0
 21 22  2  0  0  0  0
 23 28  1  0  0  0  0
 23 24  1  0  0  0  0
 24 25  2  0  0  0  0
 24 49  1  0  0  0  0
 25 26  1  0  0  0  0
 25 50  1  0  0  0  0
 26 27  2  0  0  0  0
 26 51  1  0  0  0  0
 27 28  1  0  0  0  0
 27 52  1  0  0  0  0
 28 29  2  0  0  0  0
 29 53  1  0  0  0  0
M  CHG  1  29   1
M  END
> <s_m_source_file>
AV-unprocessed.smi

> <i_m_source_file_index>
113

> <i_lp_mmshare_version>
43012

> <i_f3d_flags>
0

> <s_epik_input>
W2NIXTFbY0hdW2NIXVtjSF1jKGMxMiluYyhbQ0gzXSlbY0hdYzJbQ0gyXW4zYyg9TyljKFtDSDNdKVtjSF1uKGMzPU8pW0NAQEhdNFtDSDJdW0NAQEhdKFtPSF0pW0NASF0oTzQpW0NIMl1bT0hd

> <s_epik_cmdline>
J2VwaWtfcHl0aG9uJywgJy1waCcsICc3LjAnLCAnLXRuJywgJzgnLCAnLW1hJywgJzIwMCcsICctbWV0YWxfYmluZGluZycsICctaW1hZScsICc8aW5maWxlLm1hZT4nLCAnLW9tYWUnLCAnPG91dGZpbGUubWFlPic=

> <r_lp_tautomer_probability>
1

> <r_epik_Ionization_Penalty>
0.705471

> <r_epik_Ionization_Penalty_Charging>
0.70547

> <r_epik_Ionization_Penalty_Neutral>
1.19947e-07

> <r_epik_State_Penalty>
0.728574

> <r_epik_Charging_Adjusted_Penalty>
1.43404

> <i_epik_Tot_Q>
1

> <i_epik_Tot_abs_Q>
1

> <r_epik_Metal_State_Penalty>
4.61665

> <b_epik_Metal_Only>
0

> <s_epik_Chemistry_Notes>
This compound contains an acetal/aminal-like group ( X-CH(R)-Y where X, Y are N, S, or O) that may be acid/base labile, releasing an aldehyde.

> <s_lp_Force_Field>
OPLS_2005

> <r_lp_Energy>
39.3678

> <b_lp_Chiralities_Consistent>
1

> <s_lp_Variant>
AV-unprocessed.smi:113-15

> <Gold.Version>
5.8.1

> <Gold.Id.Protein>
6NUR|6NUR_protein|mol2

> <Gold.PLP.Fitness>
60.4102

> <Gold.PLP.PLP>
-50.4384

> <Gold.PLP.part.hbond>
-4.9088

> <Gold.PLP.part.metal>
0.0000

> <Gold.PLP.part.buried>
-4.6971

> <Gold.PLP.part.nonpolar>
-43.6151

> <Gold.PLP.part.repulsive>
1.5436

> <Gold.PLP.ligand.clash>
0.0000

> <Gold.PLP.ligand.torsion>
0.8716

> <Gold.PLP.Chemscore.Hbond>
3.8960

> <Gold.PLP.Chemscore.CHOScore>
0.0000

> <Gold.PLP.Chemscore.Metal>
0.0000

> <Gold.Chemscore.Hbonds>
donor molecule, donor type, donor heavy atom, donor atom, acceptor molecule, acceptor atom, score
      L1  H    16    44       P1 10175  0.94
      L1  H    19    48       P1 10171  1.00
      P1  H  7954  7966       L1    19  0.77
      P1  H  7989  7998       L1    22  0.98

> <Gold.PLP.Chemscore.Internal.Correction>
0.0270

> <Gold.Rescore>
     Score         DG    S(hbond)    S(metal)    S(lipo)     H(rot)  DE(clash)    DE(int)     intcor
     22.91     -26.34       3.82        0.00     135.25       3.01       1.73       1.69       ----

> <Gold.Chemscore.Fitness>
22.9136

> <Gold.Chemscore.DG>
-26.3365

> <Gold.Chemscore.ZeroCoef>
-5.4800

> <Gold.Chemscore.Hbond>
3.8151

> <Gold.Chemscore.Metal>
0.0000

> <Gold.Chemscore.Lipo>
135.2544

> <Gold.Chemscore.Internal_Hbond>
0.0000

> <Gold.Chemscore.DEClash>
1.7313

> <Gold.Chemscore.DEInternal>
1.6916

> <Gold.Chemscore.Rot>
3.0120

> <Gold.Chemscore.Internal.Correction>
   9.000000E+99

> <Gold.Chemscore.Hbonds>
donor molecule, donor type, donor heavy atom, donor atom, acceptor molecule, acceptor atom, score
      L1  H    16    44       P1 10175  0.86
      L1  H    19    48       P1 10171  0.96
      P1  H  7954  7966       L1    19  0.75
      P1  H  7989  7998       L1    22  0.86

> <Gold.Chemscore.Hbond.Weighted>
-12.7425

> <Gold.Chemscore.Metal.Weighted>
-0.0000

> <Gold.Chemscore.Lipo.Weighted>
-15.8248

> <Gold.Chemscore.Internal_Hbond.Weighted>
0.0000

> <Gold.Chemscore.DEClash.Weighted>
1.7313

> <Gold.Chemscore.DEInternal.Weighted>
1.6916

> <Gold.Chemscore.Rot.Weighted>
7.7108

> <Gold.Chemscore.Internal.Correction.Weighted>
   9.000000E+99

> <Gold.Protein.RotatedTorsions>
[ 6907 6896 6895 6894 ] final  -32.42 input  -60.11 | X-H torsion
[ 7974 7965 7964 7962 ] final   78.42 input  175.53 | X-H torsion
[ 8008 7997 7996 7995 ] final   41.27 input   59.86 | X-H torsion
[ 10167 10162 10161 10158 ] final  120.29 input  -65.29 | X-H torsion
[ 10718 10713 10712 10709 ] final  -84.47 input   66.30 | X-H torsion
[ 10763 10752 10751 10750 ] final -166.20 input  -60.55 | X-H torsion
[ 11005 11000 10999 10996 ] final -162.68 input  -57.11 | X-H torsion

> <Gold.Protein.ActiveResidues>
 VAL166  LYS551  ARG553  GLY616  TRP617  ASP618  TYR619  PRO620  LYS621  CYS622 
 ASP623  PHE694  ASN695  SER759  ASP760  ASP761  ALA762  ILE779  LEU786  VAL792 
 PHE793  MET794  SER795  GLU796  ALA797  LYS798  CYS799  TRP800  GLU811  SER814 

> <Gold.Protein.RotatedAtoms>
  151.0790  134.9846  159.8346 H   0  0  0  0  0  0  0  0  0  0  0  0  # atno 6907 bound_to 6896
  152.5417  134.2205  159.8796 H   0  0  0  0  0  0  0  0  0  0  0  0  # atno 6908 bound_to 6896
  151.2234  133.4446  159.2635 H   0  0  0  0  0  0  0  0  0  0  0  0  # atno 6909 bound_to 6896
  145.6774  139.2514  143.1834 H   0  0  0  0  0  0  0  0  0  0  0  0  # atno 7974 bound_to 7965
  155.2669  140.3363  155.4268 H   0  0  0  0  0  0  0  0  0  0  0  0  # atno 8008 bound_to 7997
  156.2150  140.1785  156.7651 H   0  0  0  0  0  0  0  0  0  0  0  0  # atno 8009 bound_to 7997
  154.5740  140.0665  156.8992 H   0  0  0  0  0  0  0  0  0  0  0  0  # atno 8010 bound_to 7997
  139.5991  144.7051  151.3105 H   0  0  0  0  0  0  0  0  0  0  0  0  # atno 10167 bound_to 10162
  156.0006  130.4699  150.4414 H   0  0  0  0  0  0  0  0  0  0  0  0  # atno 10718 bound_to 10713
  154.6857  135.2962  154.9551 H   0  0  0  0  0  0  0  0  0  0  0  0  # atno 10763 bound_to 10752
  154.0531  135.6641  153.4807 H   0  0  0  0  0  0  0  0  0  0  0  0  # atno 10764 bound_to 10752
  153.0577  135.5134  154.7922 H   0  0  0  0  0  0  0  0  0  0  0  0  # atno 10765 bound_to 10752
  140.6066  134.4892  157.5211 H   0  0  0  0  0  0  0  0  0  0  0  0  # atno 11005 bound_to 11000
  146.0994  140.7562  142.9556 LP  0  0  0  0  0  0  0  0  0  0  0  0  # atno 17320 bound_to 7965
  144.7037  140.3763  143.7135 LP  0  0  0  0  0  0  0  0  0  0  0  0  # atno 17321 bound_to 7965
  140.7235  143.7068  150.7801 LP  0  0  0  0  0  0  0  0  0  0  0  0  # atno 17342 bound_to 10162
  140.0641  143.5126  152.2613 LP  0  0  0  0  0  0  0  0  0  0  0  0  # atno 17343 bound_to 10162
  157.2455  131.0535  151.2411 LP  0  0  0  0  0  0  0  0  0  0  0  0  # atno 17370 bound_to 10713
  157.3579  130.7116  149.6482 LP  0  0  0  0  0  0  0  0  0  0  0  0  # atno 17371 bound_to 10713
  139.9210  134.8149  156.1213 LP  0  0  0  0  0  0  0  0  0  0  0  0  # atno 17394 bound_to 11000
  141.0836  133.6743  156.2389 LP  0  0  0  0  0  0  0  0  0  0  0  0  # atno 17395 bound_to 11000

$$$$
