#       Name:                AV-unprocessed.smi:3134
#       Creating user name   scv26
#       Creation time:       Fri Mar 27 17:33:28 2020


#       File generated by GOLD software.
#

@<TRIPOS>MOLECULE
AV-unprocessed.smi:3134
    40    40     1
SMALL
NO_CHARGES


@<TRIPOS>ATOM
      1 ****        -3.1201   1.3717  -2.4636 C.3            1 S1                 0.0000
      2 ****        -2.8626   0.4763  -1.2447 C.3            1 S1                 0.0000
      3 ****        -2.8148   1.2901   0.0582 C.3            1 S1                 0.0000
      4 ****        -1.6113  -0.2506  -1.4332 N.am           1 S1                 0.0000
      5 ****        -1.3115  -1.4413  -0.8900 C.2            1 S1                 0.0000
      6 ****        -2.0834  -2.0672  -0.1627 O.2            1 S1                 0.0000
      7 ****         0.0937  -1.9931  -1.1846 C.3            1 S1                 0.0000
      8 ****         0.0190  -3.4529  -1.6613 C.3            1 S1                 0.0000
      9 ****         1.0142  -1.8912  -0.0373 N.3            1 S1                 0.0000
     10 ****         1.1995  -0.5365   0.4713 C.3            1 S1                 0.0000
     11 ****         2.3175  -0.5366   1.5233 C.3            1 S1                 0.0000
     12 ****         2.5526   0.7926   2.0531 N.pl3          1 S1                 0.0000
     13 ****         3.5743   1.6678   1.7504 C.2            1 S1                 0.0000
     14 ****         3.3775   2.7948   2.4957 C.2            1 S1                 0.0000
     15 ****         2.1945   2.5099   3.2333 C.2            1 S1                 0.0000
     16 ****         1.7033   1.3104   2.9668 N.2            1 S1                 0.0000
     17 ****        -4.0625   1.9104  -2.3612 H              1 S1                 0.0000
     18 ****        -3.1764   0.7822  -3.3793 H              1 S1                 0.0000
     19 ****        -2.3272   2.1097  -2.5899 H              1 S1                 0.0000
     20 ****        -3.6844  -0.2390  -1.1787 H              1 S1                 0.0000
     21 ****        -3.7466   1.8341   0.2139 H              1 S1                 0.0000
     22 ****        -2.0030   2.0182   0.0420 H              1 S1                 0.0000
     23 ****        -2.6645   0.6439   0.9237 H              1 S1                 0.0000
     24 ****        -0.9103   0.1934  -2.0084 H              1 S1                 0.0000
     25 ****         0.5187  -1.4086  -2.0029 H              1 S1                 0.0000
     26 ****        -0.6457  -3.5563  -2.5199 H              1 S1                 0.0000
     27 ****        -0.3462  -4.1159  -0.8757 H              1 S1                 0.0000
     28 ****         1.0018  -3.8141  -1.9660 H              1 S1                 0.0000
     29 ****         0.7365  -2.5034   0.7167 H              1 S1                 0.0000
     30 ****         1.4604   0.1336  -0.3493 H              1 S1                 0.0000
     31 ****         0.2771  -0.1658   0.9203 H              1 S1                 0.0000
     32 ****         2.0675  -1.2015   2.3516 H              1 S1                 0.0000
     33 ****         3.2483  -0.9056   1.0902 H              1 S1                 0.0000
     34 ****         4.3467   1.4186   1.0375 H              1 S1                 0.0000
     35 ****         3.9859   3.6867   2.5119 H              1 S1                 0.0000
     36 ****         1.6818   3.1345   3.9500 H              1 S1                 0.0000
     37 ****        -2.9855  -1.6916   0.0497 LP             1 S1                 0.0000
     38 ****        -1.8081  -2.9510   0.2154 LP             1 S1                 0.0000
     39 ****         1.8994  -2.1817  -0.4006 LP             1 S1                 0.0000
     40 ****         0.8866   0.8832   3.3548 LP             1 S1                 0.0000
@<TRIPOS>BOND
    1    1    2 1     
    2    1   17 1     
    3    1   18 1     
    4    1   19 1     
    5    2    3 1     
    6    2    4 1     
    7    2   20 1     
    8    3   21 1     
    9    3   22 1     
   10    3   23 1     
   11    4    5 am    
   12    4   24 1     
   13    5    6 2     
   14    5    7 1     
   15    7    8 1     
   16    7    9 1     
   17    7   25 1     
   18    8   26 1     
   19    8   27 1     
   20    8   28 1     
   21    9   10 1     
   22    9   29 1     
   23   10   11 1     
   24   10   30 1     
   25   10   31 1     
   26   11   12 1     
   27   11   32 1     
   28   11   33 1     
   29   12   16 1     
   30   12   13 1     
   31   13   14 2     
   32   13   34 1     
   33   14   15 1     
   34   14   35 1     
   35   15   16 2     
   36   15   36 1     
   37    6   37 1     
   38    6   38 1     
   39    9   39 1     
   40   16   40 1     
@<TRIPOS>SUBSTRUCTURE
      1 S1             1
@<TRIPOS>SET
LONE_PAIRS      STATIC     ATOMS    <user>   **** ""
4 37 38 39 40
DONOR_HYDROGENS      STATIC     ATOMS    <user>   **** ""
2 24 29
ATOM$BLUE        STATIC     ATOMS    COLORGROUP SYSTEM
4 37 38 39 40
ATOM$RED        STATIC     ATOMS    COLORGROUP SYSTEM
2 24 29
