AV-unprocessed.smi:1200|AV-procd|sdf|5023|dock10
  -GOLD-   22720 4 43D 1   1.00000     0.00000
 Structure written by MMmdl.
 43 44  0  0  0  0  0  0  0  0  2 V2000
  146.5912  133.7220  151.6818 C   0  0  0  0  0  0  0  0  0  0  0  0
  146.6644  135.1746  151.7242 N   0  0  0  0  0  0  0  0  0  0  0  0
  145.6291  135.9729  152.0196 C   0  0  0  0  0  0  0  0  0  0  0  0
  144.5024  135.5484  152.2789 O   0  0  0  0  0  0  0  0  0  0  0  0
  145.9087  137.4793  152.0008 C   0  0  0  0  0  0  0  0  0  0  0  0
  146.8816  137.9018  153.0411 N   0  3  2  0  0  0  0  0  0  0  0  0
  146.6158  137.2699  154.3584 C   0  0  0  0  0  0  0  0  0  0  0  0
  147.7255  137.6067  155.3690 C   0  0  0  0  0  0  0  0  0  0  0  0
  147.8924  139.1267  155.5246 C   0  0  1  0  0  0  0  0  0  0  0  0
  149.0091  139.4160  156.4202 N   0  0  0  0  0  0  0  0  0  0  0  0
  149.4508  140.6432  156.7320 C   0  0  0  0  0  0  0  0  0  0  0  0
  148.9494  141.6743  156.2856 O   0  0  0  0  0  0  0  0  0  0  0  0
  150.4866  140.5816  157.5870 N   0  0  0  0  0  0  0  0  0  0  0  0
  151.2193  141.6416  158.1897 C   0  0  0  0  0  0  0  0  0  0  0  0
  152.0506  141.5051  159.3288 C   0  0  0  0  0  0  0  0  0  0  0  0
  152.7152  142.6430  159.8260 C   0  0  0  0  0  0  0  0  0  0  0  0
  152.5210  143.8755  159.1736 C   0  0  0  0  0  0  0  0  0  0  0  0
  151.7235  144.0234  158.0952 N   0  0  0  0  0  0  0  0  0  0  0  0
  151.0904  142.9283  157.6237 C   0  0  0  0  0  0  0  0  0  0  0  0
  148.1221  139.7653  154.1428 C   0  0  0  0  0  0  0  0  0  0  0  0
  147.0049  139.3796  153.1594 C   0  0  0  0  0  0  0  0  0  0  0  0
  147.5519  133.3100  151.3725 H   0  0  0  0  0  0  0  0  0  0  0  0
  145.8330  133.3897  150.9713 H   0  0  0  0  0  0  0  0  0  0  0  0
  146.3479  133.3175  152.6653 H   0  0  0  0  0  0  0  0  0  0  0  0
  147.5573  135.5969  151.5138 H   0  0  0  0  0  0  0  0  0  0  0  0
  146.2547  137.7930  151.0144 H   0  0  0  0  0  0  0  0  0  0  0  0
  144.9515  137.9745  152.1691 H   0  0  0  0  0  0  0  0  0  0  0  0
  145.6472  137.6032  154.7345 H   0  0  0  0  0  0  0  0  0  0  0  0
  146.5562  136.1870  154.2428 H   0  0  0  0  0  0  0  0  0  0  0  0
  147.4934  137.1548  156.3344 H   0  0  0  0  0  0  0  0  0  0  0  0
  148.6645  137.1610  155.0364 H   0  0  0  0  0  0  0  0  0  0  0  0
  146.9716  139.5271  155.9538 H   0  0  0  0  0  0  0  0  0  0  0  0
  149.4785  138.6241  156.8351 H   0  0  0  0  0  0  0  0  0  0  0  0
  150.7535  139.6554  157.8875 H   0  0  0  0  0  0  0  0  0  0  0  0
  152.1887  140.5648  159.8380 H   0  0  0  0  0  0  0  0  0  0  0  0
  153.3582  142.5729  160.6909 H   0  0  0  0  0  0  0  0  0  0  0  0
  153.0161  144.7666  159.5300 H   0  0  0  0  0  0  0  0  0  0  0  0
  150.4604  143.0855  156.7602 H   0  0  0  0  0  0  0  0  0  0  0  0
  148.1713  140.8510  154.2326 H   0  0  0  0  0  0  0  0  0  0  0  0
  149.0843  139.4449  153.7401 H   0  0  0  0  0  0  0  0  0  0  0  0
  147.2200  139.8184  152.1847 H   0  0  0  0  0  0  0  0  0  0  0  0
  146.0540  139.8007  153.4901 H   0  0  0  0  0  0  0  0  0  0  0  0
  147.7805  137.5553  152.7365 H   0  0  0  0  0  0  0  0  0  0  0  0
  1  2  1  0  0  0  0
  1 22  1  0  0  0  0
  1 23  1  0  0  0  0
  1 24  1  0  0  0  0
  2  3  1  0  0  0  0
  2 25  1  0  0  0  0
  3  4  2  0  0  0  0
  3  5  1  0  0  0  0
  5  6  1  0  0  0  0
  5 26  1  0  0  0  0
  5 27  1  0  0  0  0
  6 21  1  0  0  0  0
  6  7  1  0  0  0  0
  6 43  1  0  0  0  0
  7  8  1  0  0  0  0
  7 28  1  0  0  0  0
  7 29  1  0  0  0  0
  8  9  1  0  0  0  0
  8 30  1  0  0  0  0
  8 31  1  0  0  0  0
  9 10  1  0  0  0  0
  9 20  1  0  0  0  0
  9 32  1  0  0  0  0
 10 11  1  0  0  0  0
 10 33  1  0  0  0  0
 11 12  2  0  0  0  0
 11 13  1  0  0  0  0
 13 14  1  0  0  0  0
 13 34  1  0  0  0  0
 14 19  1  0  0  0  0
 14 15  2  0  0  0  0
 15 16  1  0  0  0  0
 15 35  1  0  0  0  0
 16 17  2  0  0  0  0
 16 36  1  0  0  0  0
 17 18  1  0  0  0  0
 17 37  1  0  0  0  0
 18 19  2  0  0  0  0
 19 38  1  0  0  0  0
 20 21  1  0  0  0  0
 20 39  1  0  0  0  0
 20 40  1  0  0  0  0
 21 41  1  0  0  0  0
 21 42  1  0  0  0  0
M  CHG  1   6   1
M  END
> <s_m_source_file>
AV-unprocessed.smi

> <i_m_source_file_index>
1200

> <i_lp_mmshare_version>
43012

> <i_f3d_flags>
0

> <s_epik_input>
W0NIM11bTkhdQyg9TylbQ0gyXU4xW0NIMl1bQ0gyXVtDSF0oW0NIMl1bQ0gyXTEpW05IXUMoPU8pW05IXWMyW2NIXVtjSF1bY0hdbltjSF0y

> <s_epik_cmdline>
J2VwaWtfcHl0aG9uJywgJy1waCcsICc3LjAnLCAnLXRuJywgJzgnLCAnLW1hJywgJzIwMCcsICctbWV0YWxfYmluZGluZycsICctaW1hZScsICc8aW5maWxlLm1hZT4nLCAnLW9tYWUnLCAnPG91dGZpbGUubWFlPic=

> <r_epik_Ionization_Penalty>
0.842849

> <r_epik_Ionization_Penalty_Charging>
0.838844

> <r_epik_Ionization_Penalty_Neutral>
0.00400543

> <r_epik_State_Penalty>
0.858736

> <r_epik_Charging_Adjusted_Penalty>
1.69758

> <i_epik_Tot_Q>
1

> <i_epik_Tot_abs_Q>
1

> <r_epik_Metal_State_Penalty>
0.860766

> <b_epik_Metal_Only>
0

> <s_lp_Force_Field>
OPLS_2005

> <r_lp_Energy>
18.0189

> <b_lp_Chiralities_Consistent>
1

> <s_lp_Variant>
AV-unprocessed.smi:1200-2

> <Gold.Version>
5.8.1

> <Gold.Id.Protein>
6NUR|6NUR_protein|mol2

> <Gold.PLP.Fitness>
41.8962

> <Gold.PLP.PLP>
-30.2215

> <Gold.PLP.part.hbond>
-1.9894

> <Gold.PLP.part.metal>
0.0000

> <Gold.PLP.part.buried>
-5.0048

> <Gold.PLP.part.nonpolar>
-24.8281

> <Gold.PLP.part.repulsive>
0.8184

> <Gold.PLP.ligand.clash>
0.0000

> <Gold.PLP.ligand.torsion>
0.1710

> <Gold.PLP.Chemscore.Hbond>
3.0000

> <Gold.PLP.Chemscore.CHOScore>
1.0000

> <Gold.PLP.Chemscore.Metal>
0.0000

> <Gold.Chemscore.Hbonds>
donor molecule, donor type, donor heavy atom, donor atom, acceptor molecule, acceptor atom, score
      L1  H     2    25       P1  7948  0.99
      L1  H     6    43       P1  7948  2.00
      L1  C    19    38       P1  8028  1.00

> <Gold.PLP.Chemscore.Internal.Correction>
0.0167

> <Gold.Rescore>
     Score         DG    S(hbond)    S(metal)    S(lipo)     H(rot)  DE(clash)    DE(int)     intcor
     15.13     -16.78       1.92        0.00      78.61       1.69       0.02       1.63       ----

> <Gold.Chemscore.Fitness>
15.1295

> <Gold.Chemscore.DG>
-16.7773

> <Gold.Chemscore.ZeroCoef>
-5.4800

> <Gold.Chemscore.Hbond>
1.9220

> <Gold.Chemscore.Metal>
0.0000

> <Gold.Chemscore.Lipo>
78.6066

> <Gold.Chemscore.Internal_Hbond>
0.0000

> <Gold.Chemscore.DEClash>
0.0221

> <Gold.Chemscore.DEInternal>
1.6256

> <Gold.Chemscore.Rot>
1.6873

> <Gold.Chemscore.Internal.Correction>
   9.000000E+99

> <Gold.Chemscore.Hbonds>
donor molecule, donor type, donor heavy atom, donor atom, acceptor molecule, acceptor atom, score
      L1  H     2    25       P1  7948  0.86
      L1  H     6    43       P1  7948  0.96

> <Gold.Chemscore.Hbond.Weighted>
-6.4196

> <Gold.Chemscore.Metal.Weighted>
-0.0000

> <Gold.Chemscore.Lipo.Weighted>
-9.1970

> <Gold.Chemscore.Internal_Hbond.Weighted>
0.0000

> <Gold.Chemscore.DEClash.Weighted>
0.0221

> <Gold.Chemscore.DEInternal.Weighted>
1.6256

> <Gold.Chemscore.Rot.Weighted>
4.3194

> <Gold.Chemscore.Internal.Correction.Weighted>
   9.000000E+99

> <Gold.Protein.RotatedTorsions>
[ 6907 6896 6895 6894 ] final -100.54 input  -60.11 | X-H torsion
[ 7974 7965 7964 7962 ] final  101.75 input  175.53 | X-H torsion
[ 8008 7997 7996 7995 ] final  -18.10 input   59.86 | X-H torsion
[ 10167 10162 10161 10158 ] final    6.56 input  -65.29 | X-H torsion
[ 10718 10713 10712 10709 ] final  135.50 input   66.30 | X-H torsion
[ 10763 10752 10751 10750 ] final  -55.50 input  -60.55 | X-H torsion
[ 11005 11000 10999 10996 ] final -132.83 input  -57.11 | X-H torsion

> <Gold.Protein.ActiveResidues>
 VAL166  LYS551  ARG553  GLY616  TRP617  ASP618  TYR619  PRO620  LYS621  CYS622 
 ASP623  PHE694  ASN695  SER759  ASP760  ASP761  ALA762  ILE779  LEU786  VAL792 
 PHE793  MET794  SER795  GLU796  ALA797  LYS798  CYS799  TRP800  GLU811  SER814 

> <Gold.Protein.RotatedAtoms>
  150.7120  134.0871  159.3918 H   0  0  0  0  0  0  0  0  0  0  0  0  # atno 6907 bound_to 6896
  151.8856  135.0434  160.0502 H   0  0  0  0  0  0  0  0  0  0  0  0  # atno 6908 bound_to 6896
  152.2533  133.5198  159.5375 H   0  0  0  0  0  0  0  0  0  0  0  0  # atno 6909 bound_to 6896
  145.3681  139.2403  143.3470 H   0  0  0  0  0  0  0  0  0  0  0  0  # atno 7974 bound_to 7965
  154.4930  140.2125  155.9507 H   0  0  0  0  0  0  0  0  0  0  0  0  # atno 8008 bound_to 7997
  156.1332  140.3193  155.8348 H   0  0  0  0  0  0  0  0  0  0  0  0  # atno 8009 bound_to 7997
  155.4259  140.0500  157.3013 H   0  0  0  0  0  0  0  0  0  0  0  0  # atno 8010 bound_to 7997
  140.6421  143.7749  150.7443 H   0  0  0  0  0  0  0  0  0  0  0  0  # atno 10167 bound_to 10162
  157.4564  131.1070  150.9972 H   0  0  0  0  0  0  0  0  0  0  0  0  # atno 10718 bound_to 10713
  154.1918  135.6426  153.5062 H   0  0  0  0  0  0  0  0  0  0  0  0  # atno 10763 bound_to 10752
  153.0033  135.5430  154.6407 H   0  0  0  0  0  0  0  0  0  0  0  0  # atno 10764 bound_to 10752
  154.5798  135.2924  155.0717 H   0  0  0  0  0  0  0  0  0  0  0  0  # atno 10765 bound_to 10752
  140.9135  134.1537  157.4370 H   0  0  0  0  0  0  0  0  0  0  0  0  # atno 11005 bound_to 11000
  146.2897  140.4328  142.8744 LP  0  0  0  0  0  0  0  0  0  0  0  0  # atno 17320 bound_to 7965
  144.8596  140.7120  143.6116 LP  0  0  0  0  0  0  0  0  0  0  0  0  # atno 17321 bound_to 7965
  140.1383  143.4464  152.2210 LP  0  0  0  0  0  0  0  0  0  0  0  0  # atno 17342 bound_to 10162
  139.5630  144.7418  151.4100 LP  0  0  0  0  0  0  0  0  0  0  0  0  # atno 17343 bound_to 10162
  157.0785  130.5893  149.5416 LP  0  0  0  0  0  0  0  0  0  0  0  0  # atno 17370 bound_to 10713
  156.0009  130.5088  150.7659 LP  0  0  0  0  0  0  0  0  0  0  0  0  # atno 17371 bound_to 10713
  139.8762  134.9945  156.5695 LP  0  0  0  0  0  0  0  0  0  0  0  0  # atno 17394 bound_to 11000
  140.8079  133.8452  155.8784 LP  0  0  0  0  0  0  0  0  0  0  0  0  # atno 17395 bound_to 11000

$$$$
