AV-unprocessed.smi:1232|AV-procd|sdf|5168|dock2
  -GOLD-   22720 4243D 1   1.00000     0.00000
 Structure written by MMmdl.
 53 54  0  0  0  0  0  0  0  0  1 V2000
  147.9633  134.6716  158.6113 C   0  0  0  0  0  0  0  0  0  0  0  0
  148.9738  134.5825  157.4722 C   0  0  0  0  0  0  0  0  0  0  0  0
  150.1053  134.1572  157.6983 O   0  0  0  0  0  0  0  0  0  0  0  0
  148.5473  134.9938  156.2642 N   0  0  0  0  0  0  0  0  0  0  0  0
  149.2693  134.9963  154.9836 C   0  0  1  0  0  0  0  0  0  0  0  0
  150.5004  135.9194  155.0417 C   0  0  0  0  0  0  0  0  0  0  0  0
  151.3650  135.7516  155.9021 O   0  0  0  0  0  0  0  0  0  0  0  0
  150.5771  136.8770  154.1031 N   0  0  0  0  0  0  0  0  0  0  0  0
  151.6580  137.8473  153.9628 C   0  0  0  0  0  0  0  0  0  0  0  0
  151.7424  138.8181  155.1286 C   0  0  0  0  0  0  0  0  0  0  0  0
  150.8024  139.8575  155.2709 C   0  0  0  0  0  0  0  0  0  0  0  0
  150.9193  140.7405  156.3612 C   0  0  0  0  0  0  0  0  0  0  0  0
  151.9799  140.5654  157.2823 C   0  0  0  0  0  0  0  0  0  0  0  0
  152.1224  141.4449  158.3780 N   0  0  0  0  0  0  0  0  0  0  0  0
  153.2058  141.1906  159.3259 C   0  0  0  0  0  0  0  0  0  0  0  0
  153.0351  142.0618  160.5814 C   0  0  0  0  0  0  0  0  0  0  0  0
  152.9389  143.4317  160.2052 O   0  0  0  0  0  0  0  0  0  0  0  0
  151.8102  143.6816  159.3723 C   0  0  1  0  0  0  0  0  0  0  0  0
  151.7397  145.1873  159.0963 C   0  0  0  0  0  0  0  0  0  0  0  0
  151.9450  142.8627  158.0739 C   0  0  0  0  0  0  0  0  0  0  0  0
  152.8792  139.5597  157.1439 N   0  0  0  0  0  0  0  0  0  0  0  0
  152.7635  138.7168  156.0962 C   0  0  0  0  0  0  0  0  0  0  0  0
  149.5201  133.5773  154.3825 C   0  0  0  0  0  0  0  0  0  0  0  0
  148.2197  132.8723  153.9482 C   0  0  0  0  0  0  0  0  0  0  0  0
  150.2912  132.6629  155.3546 C   0  0  0  0  0  0  0  0  0  0  0  0
  147.0926  135.2653  158.3299 H   0  0  0  0  0  0  0  0  0  0  0  0
  148.4205  135.1334  159.4867 H   0  0  0  0  0  0  0  0  0  0  0  0
  147.6238  133.6735  158.8885 H   0  0  0  0  0  0  0  0  0  0  0  0
  147.5982  135.3352  156.2208 H   0  0  0  0  0  0  0  0  0  0  0  0
  148.5689  135.4846  154.3038 H   0  0  0  0  0  0  0  0  0  0  0  0
  149.8270  136.9364  153.4298 H   0  0  0  0  0  0  0  0  0  0  0  0
  152.6212  137.3483  153.8457 H   0  0  0  0  0  0  0  0  0  0  0  0
  151.4912  138.4001  153.0379 H   0  0  0  0  0  0  0  0  0  0  0  0
  149.9987  139.9782  154.5594 H   0  0  0  0  0  0  0  0  0  0  0  0
  150.1915  141.5288  156.4834 H   0  0  0  0  0  0  0  0  0  0  0  0
  153.2166  140.1390  159.6155 H   0  0  0  0  0  0  0  0  0  0  0  0
  154.1626  141.4084  158.8492 H   0  0  0  0  0  0  0  0  0  0  0  0
  152.1493  141.7643  161.1451 H   0  0  0  0  0  0  0  0  0  0  0  0
  153.8909  141.9353  161.2445 H   0  0  0  0  0  0  0  0  0  0  0  0
  150.9030  143.3837  159.9009 H   0  0  0  0  0  0  0  0  0  0  0  0
  150.8812  145.4316  158.4701 H   0  0  0  0  0  0  0  0  0  0  0  0
  152.6371  145.5377  158.5858 H   0  0  0  0  0  0  0  0  0  0  0  0
  151.6437  145.7496  160.0254 H   0  0  0  0  0  0  0  0  0  0  0  0
  152.8073  143.2063  157.5010 H   0  0  0  0  0  0  0  0  0  0  0  0
  151.0660  143.0343  157.4543 H   0  0  0  0  0  0  0  0  0  0  0  0
  153.5123  137.9417  156.0307 H   0  0  0  0  0  0  0  0  0  0  0  0
  150.1225  133.6770  153.4801 H   0  0  0  0  0  0  0  0  0  0  0  0
  147.5230  132.7761  154.7815 H   0  0  0  0  0  0  0  0  0  0  0  0
  148.4250  131.8698  153.5715 H   0  0  0  0  0  0  0  0  0  0  0  0
  147.7131  133.4106  153.1469 H   0  0  0  0  0  0  0  0  0  0  0  0
  149.7426  132.5253  156.2866 H   0  0  0  0  0  0  0  0  0  0  0  0
  151.2726  133.0655  155.6032 H   0  0  0  0  0  0  0  0  0  0  0  0
  150.4554  131.6769  154.9189 H   0  0  0  0  0  0  0  0  0  0  0  0
  1  2  1  0  0  0  0
  1 26  1  0  0  0  0
  1 27  1  0  0  0  0
  1 28  1  0  0  0  0
  2  3  2  0  0  0  0
  2  4  1  0  0  0  0
  4  5  1  0  0  0  0
  4 29  1  0  0  0  0
  5  6  1  0  0  0  0
  5 23  1  0  0  0  0
  5 30  1  0  0  0  0
  6  7  2  0  0  0  0
  6  8  1  0  0  0  0
  8  9  1  0  0  0  0
  8 31  1  0  0  0  0
  9 10  1  0  0  0  0
  9 32  1  0  0  0  0
  9 33  1  0  0  0  0
 10 22  1  0  0  0  0
 10 11  2  0  0  0  0
 11 12  1  0  0  0  0
 11 34  1  0  0  0  0
 12 13  2  0  0  0  0
 12 35  1  0  0  0  0
 13 14  1  0  0  0  0
 13 21  1  0  0  0  0
 14 20  1  0  0  0  0
 14 15  1  0  0  0  0
 15 16  1  0  0  0  0
 15 36  1  0  0  0  0
 15 37  1  0  0  0  0
 16 17  1  0  0  0  0
 16 38  1  0  0  0  0
 16 39  1  0  0  0  0
 17 18  1  0  0  0  0
 18 19  1  0  0  0  0
 18 20  1  0  0  0  0
 18 40  1  0  0  0  0
 19 41  1  0  0  0  0
 19 42  1  0  0  0  0
 19 43  1  0  0  0  0
 20 44  1  0  0  0  0
 20 45  1  0  0  0  0
 21 22  2  0  0  0  0
 22 46  1  0  0  0  0
 23 24  1  0  0  0  0
 23 25  1  0  0  0  0
 23 47  1  0  0  0  0
 24 48  1  0  0  0  0
 24 49  1  0  0  0  0
 24 50  1  0  0  0  0
 25 51  1  0  0  0  0
 25 52  1  0  0  0  0
 25 53  1  0  0  0  0
M  END
> <s_m_source_file>
AV-unprocessed.smi

> <i_m_source_file_index>
1232

> <i_lp_mmshare_version>
43012

> <i_f3d_flags>
0

> <s_epik_input>
W0NIM11DKD1PKVtOSF1bQ0BASF0oW0NIXShbQ0gzXSlbQ0gzXSlDKD1PKVtOSF1bQ0gyXWMxW2NIXVtjSF1jKG5bY0hdMSlOMltDSDJdW0NIMl1PW0NAQEhdKFtDSDNdKVtDSDJdMg==

> <s_epik_cmdline>
J2VwaWtfcHl0aG9uJywgJy1waCcsICc3LjAnLCAnLXRuJywgJzgnLCAnLW1hJywgJzIwMCcsICctbWV0YWxfYmluZGluZycsICctaW1hZScsICc8aW5maWxlLm1hZT4nLCAnLW9tYWUnLCAnPG91dGZpbGUubWFlPic=

> <r_lp_tautomer_probability>
1

> <r_epik_Ionization_Penalty>
0.00557618

> <r_epik_Ionization_Penalty_Charging>
0

> <r_epik_Ionization_Penalty_Neutral>
0.00557618

> <r_epik_State_Penalty>
0.00408363

> <r_epik_Charging_Adjusted_Penalty>
0.00408363

> <i_epik_Tot_Q>
0

> <i_epik_Tot_abs_Q>
0

> <r_epik_Metal_State_Penalty>
-0

> <b_epik_Metal_Only>
0

> <s_lp_Force_Field>
OPLS_2005

> <r_lp_Energy>
20.4044

> <b_lp_Chiralities_Consistent>
1

> <s_lp_Variant>
AV-unprocessed.smi:1232-2

> <Gold.Version>
5.8.1

> <Gold.Id.Protein>
6NUR|6NUR_protein|mol2

> <Gold.PLP.Fitness>
55.6981

> <Gold.PLP.PLP>
-46.7383

> <Gold.PLP.part.hbond>
-5.0000

> <Gold.PLP.part.metal>
0.0000

> <Gold.PLP.part.buried>
-3.2040

> <Gold.PLP.part.nonpolar>
-38.9226

> <Gold.PLP.part.repulsive>
0.1209

> <Gold.PLP.ligand.clash>
0.0000

> <Gold.PLP.ligand.torsion>
0.8299

> <Gold.PLP.Chemscore.Hbond>
3.3020

> <Gold.PLP.Chemscore.CHOScore>
0.0000

> <Gold.PLP.Chemscore.Metal>
0.0000

> <Gold.Chemscore.Hbonds>
donor molecule, donor type, donor heavy atom, donor atom, acceptor molecule, acceptor atom, score
      L1  H     8    31       P1  7948  0.96
      P1  H  6896  6909       L1     3  0.59
      P1  H  7997  8009       L1    21  0.75
      P1  H 10752 10763       L1     7  1.00

> <Gold.PLP.Chemscore.Internal.Correction>
0.7136

> <Gold.Rescore>
     Score         DG    S(hbond)    S(metal)    S(lipo)     H(rot)  DE(clash)    DE(int)     intcor
     18.08     -21.58       2.50        0.00     112.82       2.13       0.04       3.47       ----

> <Gold.Chemscore.Fitness>
18.0796

> <Gold.Chemscore.DG>
-21.5805

> <Gold.Chemscore.ZeroCoef>
-5.4800

> <Gold.Chemscore.Hbond>
2.5022

> <Gold.Chemscore.Metal>
0.0000

> <Gold.Chemscore.Lipo>
112.8238

> <Gold.Chemscore.Internal_Hbond>
0.0000

> <Gold.Chemscore.DEClash>
0.0354

> <Gold.Chemscore.DEInternal>
3.4655

> <Gold.Chemscore.Rot>
2.1317

> <Gold.Chemscore.Internal.Correction>
   9.000000E+99

> <Gold.Chemscore.Hbonds>
donor molecule, donor type, donor heavy atom, donor atom, acceptor molecule, acceptor atom, score
      L1  H     8    31       P1  7948  0.41
      P1  H  6896  6909       L1     3  0.51
      P1  H  7997  8009       L1    21  0.08
      P1  H 10752 10763       L1     7  0.54

> <Gold.Chemscore.Hbond.Weighted>
-8.3573

> <Gold.Chemscore.Metal.Weighted>
-0.0000

> <Gold.Chemscore.Lipo.Weighted>
-13.2004

> <Gold.Chemscore.Internal_Hbond.Weighted>
0.0000

> <Gold.Chemscore.DEClash.Weighted>
0.0354

> <Gold.Chemscore.DEInternal.Weighted>
3.4655

> <Gold.Chemscore.Rot.Weighted>
5.4572

> <Gold.Chemscore.Internal.Correction.Weighted>
   9.000000E+99

> <Gold.Protein.RotatedTorsions>
[ 6907 6896 6895 6894 ] final   40.30 input  -60.11 | X-H torsion
[ 7974 7965 7964 7962 ] final -153.33 input  175.53 | X-H torsion
[ 8008 7997 7996 7995 ] final  173.96 input   59.86 | X-H torsion
[ 10167 10162 10161 10158 ] final   -2.89 input  -65.29 | X-H torsion
[ 10718 10713 10712 10709 ] final -113.05 input   66.30 | X-H torsion
[ 10763 10752 10751 10750 ] final   81.47 input  -60.55 | X-H torsion
[ 11005 11000 10999 10996 ] final  -36.62 input  -57.11 | X-H torsion

> <Gold.Protein.ActiveResidues>
 VAL166  LYS551  ARG553  GLY616  TRP617  ASP618  TYR619  PRO620  LYS621  CYS622 
 ASP623  PHE694  ASN695  SER759  ASP760  ASP761  ALA762  ILE779  LEU786  VAL792 
 PHE793  MET794  SER795  GLU796  ALA797  LYS798  CYS799  TRP800  GLU811  SER814 

> <Gold.Protein.RotatedAtoms>
  152.1807  134.8756  160.0526 H   0  0  0  0  0  0  0  0  0  0  0  0  # atno 6907 bound_to 6896
  151.9681  133.3712  159.4069 H   0  0  0  0  0  0  0  0  0  0  0  0  # atno 6908 bound_to 6896
  150.6917  134.4092  159.5198 H   0  0  0  0  0  0  0  0  0  0  0  0  # atno 6909 bound_to 6896
  144.7746  140.4540  143.5882 H   0  0  0  0  0  0  0  0  0  0  0  0  # atno 7974 bound_to 7965
  156.1022  140.1446  156.9452 H   0  0  0  0  0  0  0  0  0  0  0  0  # atno 8008 bound_to 7997
  154.4710  140.0910  156.7189 H   0  0  0  0  0  0  0  0  0  0  0  0  # atno 8009 bound_to 7997
  155.4740  140.3442  155.4332 H   0  0  0  0  0  0  0  0  0  0  0  0  # atno 8010 bound_to 7997
  140.6869  143.6603  150.8272 H   0  0  0  0  0  0  0  0  0  0  0  0  # atno 10167 bound_to 10162
  156.0743  130.5952  150.8590 H   0  0  0  0  0  0  0  0  0  0  0  0  # atno 10718 bound_to 10713
  153.1120  135.4764  154.9051 H   0  0  0  0  0  0  0  0  0  0  0  0  # atno 10763 bound_to 10752
  154.7490  135.3101  154.8595 H   0  0  0  0  0  0  0  0  0  0  0  0  # atno 10764 bound_to 10752
  153.9181  135.6858  153.4802 H   0  0  0  0  0  0  0  0  0  0  0  0  # atno 10765 bound_to 10752
  140.9888  133.7016  156.1814 H   0  0  0  0  0  0  0  0  0  0  0  0  # atno 11005 bound_to 11000
  145.6223  139.1525  143.3016 LP  0  0  0  0  0  0  0  0  0  0  0  0  # atno 17320 bound_to 7965
  146.1917  140.6332  142.9142 LP  0  0  0  0  0  0  0  0  0  0  0  0  # atno 17321 bound_to 7965
  140.0311  143.5442  152.2759 LP  0  0  0  0  0  0  0  0  0  0  0  0  # atno 17342 bound_to 10162
  139.6235  144.7633  151.2688 LP  0  0  0  0  0  0  0  0  0  0  0  0  # atno 17343 bound_to 10162
  157.5830  131.0946  150.9241 LP  0  0  0  0  0  0  0  0  0  0  0  0  # atno 17370 bound_to 10713
  156.9432  130.5392  149.5280 LP  0  0  0  0  0  0  0  0  0  0  0  0  # atno 17371 bound_to 10713
  140.7072  134.4501  157.5583 LP  0  0  0  0  0  0  0  0  0  0  0  0  # atno 17394 bound_to 11000
  139.8983  134.8617  156.2008 LP  0  0  0  0  0  0  0  0  0  0  0  0  # atno 17395 bound_to 11000

$$$$
