AV-unprocessed.smi:169|AV-procd|sdf|1398|dock9
  -GOLD-   2262019143D 1   1.00000     0.00000
 Structure written by MMmdl.
 56 60  0  0  0  0  0  0  0  0  2 V2000
  151.9723  144.1293  159.3333 C   0  0  0  0  0  0  0  0  0  0  0  0
  151.5814  143.9252  157.8590 C   0  0  0  0  0  0  0  0  0  0  0  0
  151.0078  142.5849  157.5681 N   0  3  2  0  0  0  0  0  0  0  0  0
  149.6399  142.3999  158.1168 C   0  0  0  0  0  0  0  0  0  0  0  0
  148.7283  141.5847  157.1785 C   0  0  0  0  0  0  0  0  0  0  0  0
  149.3439  140.2955  156.5919 C   0  0  1  0  0  0  0  0  0  0  0  0
  150.1758  140.5370  155.3133 C   0  0  0  0  0  0  0  0  0  0  0  0
  151.6217  140.2007  155.6929 C   0  0  0  0  0  0  0  0  0  0  0  0
  151.5976  140.1189  157.2219 C   0  0  1  0  0  0  0  0  0  0  0  0
  151.9375  141.4682  157.9005 C   0  0  0  0  0  0  0  0  0  0  0  0
  150.2493  139.6500  157.5392 N   0  0  0  0  0  0  0  0  0  0  0  0
  150.0063  138.3341  157.7786 C   0  0  0  0  0  0  0  0  0  0  0  0
  149.6460  137.9110  159.0195 N   0  0  0  0  0  0  0  0  0  0  0  0
  149.4215  136.6145  159.2534 C   0  0  0  0  0  0  0  0  0  0  0  0
  149.4963  135.5886  158.4037 N   0  0  0  0  0  0  0  0  0  0  0  0
  149.8499  136.0060  157.1546 C   0  0  0  0  0  0  0  0  0  0  0  0
  150.1197  137.3465  156.7600 C   0  0  0  0  0  0  0  0  0  0  0  0
  150.4416  137.3862  155.4087 N   0  0  0  0  0  0  0  0  0  0  0  0
  150.3741  136.1396  155.0282 C   0  0  0  0  0  0  0  0  0  0  0  0
  150.0171  135.2437  156.0110 N   0  0  0  0  0  0  0  0  0  0  0  0
  149.8696  133.8033  155.8664 C   0  0  0  0  0  0  0  0  0  0  0  0
  148.7801  133.3856  154.8608 C   0  0  0  0  0  0  0  0  0  0  0  0
  149.4515  133.0867  153.5047 C   0  0  0  0  0  0  0  0  0  0  0  0
  148.5289  132.6453  152.5284 O   0  0  0  0  0  0  0  0  0  0  0  0
  147.7645  132.3446  155.3543 C   0  0  0  0  0  0  0  0  0  0  0  0
  146.6438  133.2009  155.0413 O   0  0  0  0  0  0  0  0  0  0  0  0
  147.5505  134.3045  154.8231 C   0  0  0  0  0  0  0  0  0  0  0  0
  152.3581  145.1372  159.4878 H   0  0  0  0  0  0  0  0  0  0  0  0
  152.7517  143.4348  159.6462 H   0  0  0  0  0  0  0  0  0  0  0  0
  151.1199  144.0027  160.0007 H   0  0  0  0  0  0  0  0  0  0  0  0
  150.8599  144.6879  157.5635 H   0  0  0  0  0  0  0  0  0  0  0  0
  152.4542  144.0822  157.2244 H   0  0  0  0  0  0  0  0  0  0  0  0
  149.6952  141.9320  159.1010 H   0  0  0  0  0  0  0  0  0  0  0  0
  149.1631  143.3679  158.2772 H   0  0  0  0  0  0  0  0  0  0  0  0
  147.8362  141.3152  157.7447 H   0  0  0  0  0  0  0  0  0  0  0  0
  148.3686  142.2185  156.3671 H   0  0  0  0  0  0  0  0  0  0  0  0
  148.5232  139.6298  156.3195 H   0  0  0  0  0  0  0  0  0  0  0  0
  149.8382  139.8961  154.4980 H   0  0  0  0  0  0  0  0  0  0  0  0
  150.0951  141.5672  154.9649 H   0  0  0  0  0  0  0  0  0  0  0  0
  151.8864  139.2262  155.2803 H   0  0  0  0  0  0  0  0  0  0  0  0
  152.3422  140.9246  155.3111 H   0  0  0  0  0  0  0  0  0  0  0  0
  152.3569  139.4102  157.5533 H   0  0  0  0  0  0  0  0  0  0  0  0
  152.9488  141.7493  157.6035 H   0  0  0  0  0  0  0  0  0  0  0  0
  151.9702  141.3296  158.9818 H   0  0  0  0  0  0  0  0  0  0  0  0
  149.1427  136.3632  160.2663 H   0  0  0  0  0  0  0  0  0  0  0  0
  150.5846  135.8392  154.0124 H   0  0  0  0  0  0  0  0  0  0  0  0
  150.8392  133.4032  155.5669 H   0  0  0  0  0  0  0  0  0  0  0  0
  149.6678  133.3757  156.8493 H   0  0  0  0  0  0  0  0  0  0  0  0
  149.9544  133.9734  153.1171 H   0  0  0  0  0  0  0  0  0  0  0  0
  150.2098  132.3100  153.6029 H   0  0  0  0  0  0  0  0  0  0  0  0
  148.9888  132.1093  151.9004 H   0  0  0  0  0  0  0  0  0  0  0  0
  147.7580  131.4176  154.7796 H   0  0  0  0  0  0  0  0  0  0  0  0
  147.8200  132.1367  156.4233 H   0  0  0  0  0  0  0  0  0  0  0  0
  147.5100  135.0260  155.6406 H   0  0  0  0  0  0  0  0  0  0  0  0
  147.3859  134.8006  153.8659 H   0  0  0  0  0  0  0  0  0  0  0  0
  150.9033  142.5674  156.5636 H   0  0  0  0  0  0  0  0  0  0  0  0
  1  2  1  0  0  0  0
  1 28  1  0  0  0  0
  1 29  1  0  0  0  0
  1 30  1  0  0  0  0
  2  3  1  0  0  0  0
  2 31  1  0  0  0  0
  2 32  1  0  0  0  0
  3 10  1  0  0  0  0
  3  4  1  0  0  0  0
  3 56  1  0  0  0  0
  4  5  1  0  0  0  0
  4 33  1  0  0  0  0
  4 34  1  0  0  0  0
  5  6  1  0  0  0  0
  5 35  1  0  0  0  0
  5 36  1  0  0  0  0
  6 11  1  0  0  0  0
  6  7  1  0  0  0  0
  6 37  1  0  0  0  0
  7  8  1  0  0  0  0
  7 38  1  0  0  0  0
  7 39  1  0  0  0  0
  8  9  1  0  0  0  0
  8 40  1  0  0  0  0
  8 41  1  0  0  0  0
  9 10  1  0  0  0  0
  9 11  1  0  0  0  0
  9 42  1  0  0  0  0
 10 43  1  0  0  0  0
 10 44  1  0  0  0  0
 11 12  1  0  0  0  0
 12 17  1  0  0  0  0
 12 13  2  0  0  0  0
 13 14  1  0  0  0  0
 14 15  2  0  0  0  0
 14 45  1  0  0  0  0
 15 16  1  0  0  0  0
 16 20  1  0  0  0  0
 16 17  2  0  0  0  0
 17 18  1  0  0  0  0
 18 19  2  0  0  0  0
 19 20  1  0  0  0  0
 19 46  1  0  0  0  0
 20 21  1  0  0  0  0
 21 22  1  0  0  0  0
 21 47  1  0  0  0  0
 21 48  1  0  0  0  0
 22 27  1  0  0  0  0
 22 23  1  0  0  0  0
 22 25  1  0  0  0  0
 23 24  1  0  0  0  0
 23 49  1  0  0  0  0
 23 50  1  0  0  0  0
 24 51  1  0  0  0  0
 25 26  1  0  0  0  0
 25 52  1  0  0  0  0
 25 53  1  0  0  0  0
 26 27  1  0  0  0  0
 27 54  1  0  0  0  0
 27 55  1  0  0  0  0
M  CHG  1   3   1
M  END
> <s_m_source_file>
AV-unprocessed.smi

> <i_m_source_file_index>
169

> <i_lp_mmshare_version>
43012

> <i_f3d_flags>
0

> <s_epik_input>
W0NASF0xMltDSDJdW0NIMl1OKFtDSDJdW0NIM10pW0NIMl1bQ0BIXShbQ0gyXVtDSDJdMSlOMmMobltjSF1uMyljKGMzNCluW2NIXW40W0NIMl1DNShbQ0gyXVtPSF0pW0NIMl1PW0NIMl01

> <s_epik_cmdline>
J2VwaWtfcHl0aG9uJywgJy1waCcsICc3LjAnLCAnLXRuJywgJzgnLCAnLW1hJywgJzIwMCcsICctbWV0YWxfYmluZGluZycsICctaW1hZScsICc8aW5maWxlLm1hZT4nLCAnLW9tYWUnLCAnPG91dGZpbGUubWFlPic=

> <r_lp_tautomer_probability>
1

> <r_epik_Ionization_Penalty>
0.00274162

> <r_epik_Ionization_Penalty_Charging>
0.00243722

> <r_epik_Ionization_Penalty_Neutral>
0.000304399

> <r_epik_State_Penalty>
-0

> <r_epik_Charging_Adjusted_Penalty>
0.00243722

> <i_epik_Tot_Q>
1

> <i_epik_Tot_abs_Q>
1

> <r_epik_Metal_State_Penalty>
-0

> <b_epik_Metal_Only>
0

> <s_lp_Force_Field>
OPLS_2005

> <r_lp_Energy>
78.5453

> <b_lp_Chiralities_Consistent>
1

> <s_lp_Variant>
AV-unprocessed.smi:169-1

> <Gold.Version>
5.8.1

> <Gold.Id.Protein>
6NUR|6NUR_protein|mol2

> <Gold.PLP.Fitness>
41.0695

> <Gold.PLP.PLP>
-35.7970

> <Gold.PLP.part.hbond>
-2.3258

> <Gold.PLP.part.metal>
0.0000

> <Gold.PLP.part.buried>
-5.5609

> <Gold.PLP.part.nonpolar>
-28.4754

> <Gold.PLP.part.repulsive>
0.1616

> <Gold.PLP.ligand.clash>
0.0000

> <Gold.PLP.ligand.torsion>
0.9263

> <Gold.PLP.Chemscore.Hbond>
1.5997

> <Gold.PLP.Chemscore.CHOScore>
0.6105

> <Gold.PLP.Chemscore.Metal>
0.0000

> <Gold.Chemscore.Hbonds>
donor molecule, donor type, donor heavy atom, donor atom, acceptor molecule, acceptor atom, score
      L1  H    24    51       P1 10747  1.00
      P1  H  6896  6909       L1    15  0.58
      L1  C    19    46       P1  7948  0.16
      L1  C    19    46       P1  7949  0.41

> <Gold.PLP.Chemscore.Internal.Correction>
0.4946

> <Gold.Rescore>
     Score         DG    S(hbond)    S(metal)    S(lipo)     H(rot)  DE(clash)    DE(int)     intcor
     11.95     -12.98       1.24        0.00      85.99       2.62       0.05       0.98       ----

> <Gold.Chemscore.Fitness>
11.9487

> <Gold.Chemscore.DG>
-12.9758

> <Gold.Chemscore.ZeroCoef>
-5.4800

> <Gold.Chemscore.Hbond>
1.2410

> <Gold.Chemscore.Metal>
0.0000

> <Gold.Chemscore.Lipo>
85.9923

> <Gold.Chemscore.Internal_Hbond>
0.0000

> <Gold.Chemscore.DEClash>
0.0489

> <Gold.Chemscore.DEInternal>
0.9782

> <Gold.Chemscore.Rot>
2.6212

> <Gold.Chemscore.Internal.Correction>
   9.000000E+99

> <Gold.Chemscore.Hbonds>
donor molecule, donor type, donor heavy atom, donor atom, acceptor molecule, acceptor atom, score
      L1  H    24    51       P1 10747  0.79
      P1  H  6896  6909       L1    15  0.31

> <Gold.Chemscore.Hbond.Weighted>
-4.1449

> <Gold.Chemscore.Metal.Weighted>
-0.0000

> <Gold.Chemscore.Lipo.Weighted>
-10.0611

> <Gold.Chemscore.Internal_Hbond.Weighted>
0.0000

> <Gold.Chemscore.DEClash.Weighted>
0.0489

> <Gold.Chemscore.DEInternal.Weighted>
0.9782

> <Gold.Chemscore.Rot.Weighted>
6.7102

> <Gold.Chemscore.Internal.Correction.Weighted>
   9.000000E+99

> <Gold.Protein.RotatedTorsions>
[ 6907 6896 6895 6894 ] final   19.52 input  -60.11 | X-H torsion
[ 7974 7965 7964 7962 ] final -149.75 input  175.53 | X-H torsion
[ 8008 7997 7996 7995 ] final  120.69 input   59.86 | X-H torsion
[ 10167 10162 10161 10158 ] final -124.15 input  -65.29 | X-H torsion
[ 10718 10713 10712 10709 ] final   38.31 input   66.30 | X-H torsion
[ 10763 10752 10751 10750 ] final  137.77 input  -60.55 | X-H torsion
[ 11005 11000 10999 10996 ] final -175.59 input  -57.11 | X-H torsion

> <Gold.Protein.ActiveResidues>
 VAL166  LYS551  ARG553  GLY616  TRP617  ASP618  TYR619  PRO620  LYS621  CYS622 
 ASP623  PHE694  ASN695  SER759  ASP760  ASP761  ALA762  ILE779  LEU786  VAL792 
 PHE793  MET794  SER795  GLU796  ALA797  LYS798  CYS799  TRP800  GLU811  SER814 

> <Gold.Protein.RotatedAtoms>
  151.8822  135.0449  160.0489 H   0  0  0  0  0  0  0  0  0  0  0  0  # atno 6907 bound_to 6896
  152.2504  133.5205  159.5330 H   0  0  0  0  0  0  0  0  0  0  0  0  # atno 6908 bound_to 6896
  150.7082  134.0885  159.3965 H   0  0  0  0  0  0  0  0  0  0  0  0  # atno 6909 bound_to 6896
  144.7949  140.5024  143.5747 H   0  0  0  0  0  0  0  0  0  0  0  0  # atno 7974 bound_to 7965
  156.2654  140.2825  156.1189 H   0  0  0  0  0  0  0  0  0  0  0  0  # atno 8008 bound_to 7997
  155.1176  140.0392  157.2759 H   0  0  0  0  0  0  0  0  0  0  0  0  # atno 8009 bound_to 7997
  154.6695  140.2584  155.7029 H   0  0  0  0  0  0  0  0  0  0  0  0  # atno 8010 bound_to 7997
  139.9958  143.5592  152.2323 H   0  0  0  0  0  0  0  0  0  0  0  0  # atno 10167 bound_to 10162
  157.3573  130.7630  149.7022 H   0  0  0  0  0  0  0  0  0  0  0  0  # atno 10718 bound_to 10713
  153.8786  135.3047  155.3444 H   0  0  0  0  0  0  0  0  0  0  0  0  # atno 10763 bound_to 10752
  154.7772  135.4855  153.9772 H   0  0  0  0  0  0  0  0  0  0  0  0  # atno 10764 bound_to 10752
  153.1365  135.6815  153.9192 H   0  0  0  0  0  0  0  0  0  0  0  0  # atno 10765 bound_to 10752
  140.4615  134.6250  157.4845 H   0  0  0  0  0  0  0  0  0  0  0  0  # atno 11005 bound_to 11000
  145.5700  139.1483  143.3294 LP  0  0  0  0  0  0  0  0  0  0  0  0  # atno 17320 bound_to 7965
  146.2213  140.5833  142.9016 LP  0  0  0  0  0  0  0  0  0  0  0  0  # atno 17321 bound_to 7965
  139.6307  144.7644  151.2543 LP  0  0  0  0  0  0  0  0  0  0  0  0  # atno 17342 bound_to 10162
  140.7437  143.6485  150.8270 LP  0  0  0  0  0  0  0  0  0  0  0  0  # atno 17343 bound_to 10162
  155.9731  130.4124  150.4028 LP  0  0  0  0  0  0  0  0  0  0  0  0  # atno 17370 bound_to 10713
  157.2100  131.0458  151.2604 LP  0  0  0  0  0  0  0  0  0  0  0  0  # atno 17371 bound_to 10713
  139.9942  134.6937  155.9638 LP  0  0  0  0  0  0  0  0  0  0  0  0  # atno 17394 bound_to 11000
  141.1619  133.6538  156.4347 LP  0  0  0  0  0  0  0  0  0  0  0  0  # atno 17395 bound_to 11000

$$$$
