AV-unprocessed.smi:1766|AV-procd|sdf|7137|dock4
  -GOLD-   22720 8373D 1   1.00000     0.00000
 Structure written by MMmdl.
 40 42  0  0  0  0  0  0  0  0  2 V2000
  146.2739  138.5177  151.2762 N   0  0  0  0  0  0  0  0  0  0  0  0
  146.1206  138.0707  152.5253 C   0  0  0  0  0  0  0  0  0  0  0  0
  146.9306  138.3190  153.4161 O   0  0  0  0  0  0  0  0  0  0  0  0
  144.8834  137.2197  152.8208 C   0  0  0  0  0  0  0  0  0  0  0  0
  145.0177  135.8513  152.2214 C   0  0  0  0  0  0  0  0  0  0  0  0
  146.1815  135.2843  151.7888 N   0  3  0  0  0  0  0  0  0  0  0  0
  145.9324  134.0078  151.2866 C   0  0  0  0  0  0  0  0  0  0  0  0
  146.7909  133.0622  150.7342 C   0  0  0  0  0  0  0  0  0  0  0  0
  146.2085  131.8488  150.3128 C   0  0  0  0  0  0  0  0  0  0  0  0
  144.8250  131.6128  150.4485 C   0  0  0  0  0  0  0  0  0  0  0  0
  143.9654  132.5786  151.0128 C   0  0  0  0  0  0  0  0  0  0  0  0
  144.5495  133.7757  151.4268 C   0  0  0  0  0  0  0  0  0  0  0  0
  144.0262  134.9326  152.0162 N   0  0  0  0  0  0  0  0  0  0  0  0
  142.5844  134.9855  152.3108 C   0  0  0  0  0  0  0  0  0  0  0  0
  142.2760  135.4909  153.7340 C   0  0  2  0  0  0  0  0  0  0  0  0
  141.9239  134.4026  154.5656 O   0  0  0  0  0  0  0  0  0  0  0  0
  141.2051  136.5700  153.7128 C   0  0  0  0  0  0  0  0  0  0  0  0
  141.5719  137.9226  153.5444 C   0  0  0  0  0  0  0  0  0  0  0  0
  140.5851  138.9273  153.5141 C   0  0  0  0  0  0  0  0  0  0  0  0
  139.2260  138.5852  153.6499 C   0  0  0  0  0  0  0  0  0  0  0  0
  138.2778  139.5513  153.6210 F   0  0  0  0  0  0  0  0  0  0  0  0
  138.8535  137.2374  153.8143 C   0  0  0  0  0  0  0  0  0  0  0  0
  139.8397  136.2321  153.8440 C   0  0  0  0  0  0  0  0  0  0  0  0
  147.0804  139.0779  151.0400 H   0  0  0  0  0  0  0  0  0  0  0  0
  145.5882  138.2911  150.5698 H   0  0  0  0  0  0  0  0  0  0  0  0
  144.7588  137.1245  153.8999 H   0  0  0  0  0  0  0  0  0  0  0  0
  143.9923  137.7204  152.4437 H   0  0  0  0  0  0  0  0  0  0  0  0
  147.8511  133.2417  150.6292 H   0  0  0  0  0  0  0  0  0  0  0  0
  146.8353  131.0846  149.8763 H   0  0  0  0  0  0  0  0  0  0  0  0
  144.4146  130.6713  150.1130 H   0  0  0  0  0  0  0  0  0  0  0  0
  142.9070  132.3874  151.1107 H   0  0  0  0  0  0  0  0  0  0  0  0
  142.1061  135.6212  151.5648 H   0  0  0  0  0  0  0  0  0  0  0  0
  142.1697  133.9892  152.1588 H   0  0  0  0  0  0  0  0  0  0  0  0
  143.1830  135.9220  154.1594 H   0  0  0  0  0  0  0  0  0  0  0  0
  142.5189  133.6892  154.3903 H   0  0  0  0  0  0  0  0  0  0  0  0
  142.6114  138.1957  153.4367 H   0  0  0  0  0  0  0  0  0  0  0  0
  140.8709  139.9609  153.3862 H   0  0  0  0  0  0  0  0  0  0  0  0
  137.8109  136.9746  153.9167 H   0  0  0  0  0  0  0  0  0  0  0  0
  139.5437  135.2004  153.9657 H   0  0  0  0  0  0  0  0  0  0  0  0
  147.0803  135.7481  151.8284 H   0  0  0  0  0  0  0  0  0  0  0  0
  1  2  1  0  0  0  0
  1 24  1  0  0  0  0
  1 25  1  0  0  0  0
  2  3  2  0  0  0  0
  2  4  1  0  0  0  0
  4  5  1  0  0  0  0
  4 26  1  0  0  0  0
  4 27  1  0  0  0  0
  5 13  1  0  0  0  0
  5  6  2  0  0  0  0
  6  7  1  0  0  0  0
  6 40  1  0  0  0  0
  7 12  2  0  0  0  0
  7  8  1  0  0  0  0
  8  9  2  0  0  0  0
  8 28  1  0  0  0  0
  9 10  1  0  0  0  0
  9 29  1  0  0  0  0
 10 11  2  0  0  0  0
 10 30  1  0  0  0  0
 11 12  1  0  0  0  0
 11 31  1  0  0  0  0
 12 13  1  0  0  0  0
 13 14  1  0  0  0  0
 14 15  1  0  0  0  0
 14 32  1  0  0  0  0
 14 33  1  0  0  0  0
 15 16  1  0  0  0  0
 15 17  1  0  0  0  0
 15 34  1  0  0  0  0
 16 35  1  0  0  0  0
 17 23  1  0  0  0  0
 17 18  2  0  0  0  0
 18 19  1  0  0  0  0
 18 36  1  0  0  0  0
 19 20  2  0  0  0  0
 19 37  1  0  0  0  0
 20 21  1  0  0  0  0
 20 22  1  0  0  0  0
 22 23  2  0  0  0  0
 22 38  1  0  0  0  0
 23 39  1  0  0  0  0
M  CHG  1   6   1
M  END
> <s_m_source_file>
AV-unprocessed.smi

> <i_m_source_file_index>
1766

> <i_lp_mmshare_version>
43012

> <i_f3d_flags>
0

> <s_epik_input>
W2NIXTFbY0hdW2NIXVtjSF1jKGMxMiluKGMobjIpW0NIMl1DKD1PKVtOSDJdKVtDSDJdW0NASF0oW09IXSljM1tjSF1bY0hdYyhGKVtjSF1bY0hdMw==

> <s_epik_cmdline>
J2VwaWtfcHl0aG9uJywgJy1waCcsICc3LjAnLCAnLXRuJywgJzgnLCAnLW1hJywgJzIwMCcsICctbWV0YWxfYmluZGluZycsICctaW1hZScsICc8aW5maWxlLm1hZT4nLCAnLW9tYWUnLCAnPG91dGZpbGUubWFlPic=

> <r_epik_Ionization_Penalty>
1.66646

> <r_epik_Ionization_Penalty_Charging>
1.66645

> <r_epik_Ionization_Penalty_Neutral>
2.12833e-06

> <r_epik_State_Penalty>
1.76975

> <r_epik_Charging_Adjusted_Penalty>
3.43621

> <i_epik_Tot_Q>
1

> <i_epik_Tot_abs_Q>
1

> <r_epik_Metal_State_Penalty>
1.80493

> <b_epik_Metal_Only>
0

> <s_lp_Force_Field>
OPLS_2005

> <r_lp_Energy>
14.4919

> <b_lp_Chiralities_Consistent>
1

> <s_lp_Variant>
AV-unprocessed.smi:1766-3

> <Gold.Version>
5.8.1

> <Gold.Id.Protein>
6NUR|6NUR_protein|mol2

> <Gold.PLP.Fitness>
55.9044

> <Gold.PLP.PLP>
-45.6399

> <Gold.PLP.part.hbond>
-4.0000

> <Gold.PLP.part.metal>
0.0000

> <Gold.PLP.part.buried>
-4.5667

> <Gold.PLP.part.nonpolar>
-37.4024

> <Gold.PLP.part.repulsive>
0.3495

> <Gold.PLP.ligand.clash>
0.0000

> <Gold.PLP.ligand.torsion>
1.8941

> <Gold.PLP.Chemscore.Hbond>
4.6560

> <Gold.PLP.Chemscore.CHOScore>
0.0000

> <Gold.PLP.Chemscore.Metal>
0.0000

> <Gold.Chemscore.Hbonds>
donor molecule, donor type, donor heavy atom, donor atom, acceptor molecule, acceptor atom, score
      L1  H     1    25       P1 10171  0.98
      L1  H     6    40       P1  7948  2.00
      L1  H    16    35       P1 10957  0.75
      P1  H 11000 11005       L1    16  0.91

> <Gold.PLP.Chemscore.Internal.Correction>
0.0846

> <Gold.Rescore>
     Score         DG    S(hbond)    S(metal)    S(lipo)     H(rot)  DE(clash)    DE(int)     intcor
     19.54     -21.42       3.51        0.00     102.77       3.05       0.20       1.68       ----

> <Gold.Chemscore.Fitness>
19.5366

> <Gold.Chemscore.DG>
-21.4177

> <Gold.Chemscore.ZeroCoef>
-5.4800

> <Gold.Chemscore.Hbond>
3.5072

> <Gold.Chemscore.Metal>
0.0000

> <Gold.Chemscore.Lipo>
102.7690

> <Gold.Chemscore.Internal_Hbond>
0.0000

> <Gold.Chemscore.DEClash>
0.1976

> <Gold.Chemscore.DEInternal>
1.6835

> <Gold.Chemscore.Rot>
3.0470

> <Gold.Chemscore.Internal.Correction>
   9.000000E+99

> <Gold.Chemscore.Hbonds>
donor molecule, donor type, donor heavy atom, donor atom, acceptor molecule, acceptor atom, score
      L1  H     1    25       P1 10171  0.93
      L1  H     6    40       P1  7948  1.00
      L1  H    16    35       P1 10957  0.73
      P1  H 11000 11005       L1    16  0.74

> <Gold.Chemscore.Hbond.Weighted>
-11.7141

> <Gold.Chemscore.Metal.Weighted>
-0.0000

> <Gold.Chemscore.Lipo.Weighted>
-12.0240

> <Gold.Chemscore.Internal_Hbond.Weighted>
0.0000

> <Gold.Chemscore.DEClash.Weighted>
0.1976

> <Gold.Chemscore.DEInternal.Weighted>
1.6835

> <Gold.Chemscore.Rot.Weighted>
7.8004

> <Gold.Chemscore.Internal.Correction.Weighted>
   9.000000E+99

> <Gold.Protein.RotatedTorsions>
[ 6907 6896 6895 6894 ] final   93.06 input  -60.11 | X-H torsion
[ 7974 7965 7964 7962 ] final  166.49 input  175.53 | X-H torsion
[ 8008 7997 7996 7995 ] final  121.32 input   59.86 | X-H torsion
[ 10167 10162 10161 10158 ] final  -82.84 input  -65.29 | X-H torsion
[ 10718 10713 10712 10709 ] final    9.26 input   66.30 | X-H torsion
[ 10763 10752 10751 10750 ] final   34.82 input  -60.55 | X-H torsion
[ 11005 11000 10999 10996 ] final   -0.99 input  -57.11 | X-H torsion

> <Gold.Protein.ActiveResidues>
 VAL166  LYS551  ARG553  GLY616  TRP617  ASP618  TYR619  PRO620  LYS621  CYS622 
 ASP623  PHE694  ASN695  SER759  ASP760  ASP761  ALA762  ILE779  LEU786  VAL792 
 PHE793  MET794  SER795  GLU796  ALA797  LYS798  CYS799  TRP800  GLU811  SER814 

> <Gold.Protein.RotatedAtoms>
  152.5453  134.1406  159.8477 H   0  0  0  0  0  0  0  0  0  0  0  0  # atno 6907 bound_to 6896
  151.1443  133.4943  159.2604 H   0  0  0  0  0  0  0  0  0  0  0  0  # atno 6908 bound_to 6896
  151.1540  135.0251  159.8736 H   0  0  0  0  0  0  0  0  0  0  0  0  # atno 6909 bound_to 6896
  144.7460  139.8623  143.6382 H   0  0  0  0  0  0  0  0  0  0  0  0  # atno 7974 bound_to 7965
  156.2681  140.2811  156.1289 H   0  0  0  0  0  0  0  0  0  0  0  0  # atno 8008 bound_to 7997
  155.1076  140.0390  157.2732 H   0  0  0  0  0  0  0  0  0  0  0  0  # atno 8009 bound_to 7997
  154.6767  140.2600  155.6956 H   0  0  0  0  0  0  0  0  0  0  0  0  # atno 8010 bound_to 7997
  140.4282  143.2558  151.8796 H   0  0  0  0  0  0  0  0  0  0  0  0  # atno 10167 bound_to 10162
  156.9637  130.5942  149.5664 H   0  0  0  0  0  0  0  0  0  0  0  0  # atno 10718 bound_to 10713
  153.0146  135.6350  154.1729 H   0  0  0  0  0  0  0  0  0  0  0  0  # atno 10763 bound_to 10752
  154.1469  135.2831  155.3147 H   0  0  0  0  0  0  0  0  0  0  0  0  # atno 10764 bound_to 10752
  154.6082  135.5565  153.7507 H   0  0  0  0  0  0  0  0  0  0  0  0  # atno 10765 bound_to 10752
  140.6423  133.9478  155.8333 H   0  0  0  0  0  0  0  0  0  0  0  0  # atno 11005 bound_to 11000
  146.1339  139.4381  143.0151 LP  0  0  0  0  0  0  0  0  0  0  0  0  # atno 17320 bound_to 7965
  145.7121  141.0103  143.1448 LP  0  0  0  0  0  0  0  0  0  0  0  0  # atno 17321 bound_to 7965
  139.4784  144.5363  151.8593 LP  0  0  0  0  0  0  0  0  0  0  0  0  # atno 17342 bound_to 10162
  140.4457  144.1925  150.5894 LP  0  0  0  0  0  0  0  0  0  0  0  0  # atno 17343 bound_to 10162
  156.0312  130.5403  150.8537 LP  0  0  0  0  0  0  0  0  0  0  0  0  # atno 17370 bound_to 10713
  157.5640  131.0946  150.9516 LP  0  0  0  0  0  0  0  0  0  0  0  0  # atno 17371 bound_to 10713
  141.0597  134.0364  157.3675 LP  0  0  0  0  0  0  0  0  0  0  0  0  # atno 17394 bound_to 11000
  139.9075  135.0183  156.7551 LP  0  0  0  0  0  0  0  0  0  0  0  0  # atno 17395 bound_to 11000

$$$$
