AV-unprocessed.smi:1267|AV-procd|sdf|5322|dock8
  -GOLD-   22720 4443D 1   1.00000     0.00000
 Structure written by MMmdl.
 37 38  0  0  0  0  0  0  0  0  1 V2000
  147.3249  133.3879  156.8472 C   0  0  0  0  0  0  0  0  0  0  0  0
  149.0945  133.8636  157.0097 S   0  0  0  0  0  0  0  0  0  0  0  0
  149.1897  135.3256  156.8807 O   0  0  0  0  0  0  0  0  0  0  0  0
  149.6395  133.2004  158.2042 O   0  0  0  0  0  0  0  0  0  0  0  0
  149.8557  133.1553  155.6139 N   0  0  0  0  0  0  0  0  0  0  0  0
  150.0406  131.6922  155.5373 C   0  0  0  0  0  0  0  0  0  0  0  0
  148.9825  131.0314  154.6361 C   0  0  0  0  0  0  0  0  0  0  0  0
  148.9446  131.6795  153.2445 C   0  0  0  0  0  0  0  0  0  0  0  0
  147.8893  131.0660  152.4448 N   0  0  0  0  0  0  0  0  0  0  0  0
  146.5936  130.9980  152.7885 C   0  0  0  0  0  0  0  0  0  0  0  0
  146.1457  131.4428  153.8452 O   0  0  0  0  0  0  0  0  0  0  0  0
  145.6585  130.3250  151.7838 C   0  0  0  0  0  0  0  0  0  0  0  0
  145.1068  131.2948  150.8553 N   0  0  0  0  0  0  0  0  0  0  0  0
  145.7736  132.0648  149.9252 C   0  0  0  0  0  0  0  0  0  0  0  0
  144.8386  132.8203  149.2776 C   0  0  0  0  0  0  0  0  0  0  0  0
  143.6120  132.4363  149.8881 C   0  0  0  0  0  0  0  0  0  0  0  0
  143.7751  131.5234  150.8320 N   0  0  0  0  0  0  0  0  0  0  0  0
  148.7128  133.1928  153.3957 C   0  0  0  0  0  0  0  0  0  0  0  0
  149.7747  133.8346  154.3053 C   0  0  0  0  0  0  0  0  0  0  0  0
  146.7690  133.7952  157.6912 H   0  0  0  0  0  0  0  0  0  0  0  0
  147.2295  132.3037  156.8525 H   0  0  0  0  0  0  0  0  0  0  0  0
  146.9139  133.7949  155.9252 H   0  0  0  0  0  0  0  0  0  0  0  0
  151.0352  131.4920  155.1374 H   0  0  0  0  0  0  0  0  0  0  0  0
  150.0167  131.2536  156.5344 H   0  0  0  0  0  0  0  0  0  0  0  0
  149.1992  129.9664  154.5441 H   0  0  0  0  0  0  0  0  0  0  0  0
  148.0013  131.1011  155.1044 H   0  0  0  0  0  0  0  0  0  0  0  0
  149.9064  131.5091  152.7568 H   0  0  0  0  0  0  0  0  0  0  0  0
  148.1605  130.6780  151.5527 H   0  0  0  0  0  0  0  0  0  0  0  0
  146.1908  129.5502  151.2295 H   0  0  0  0  0  0  0  0  0  0  0  0
  144.8375  129.8360  152.3099 H   0  0  0  0  0  0  0  0  0  0  0  0
  146.8455  132.0101  149.8033 H   0  0  0  0  0  0  0  0  0  0  0  0
  145.0054  133.5371  148.4876 H   0  0  0  0  0  0  0  0  0  0  0  0
  142.6148  132.7918  149.6743 H   0  0  0  0  0  0  0  0  0  0  0  0
  148.7387  133.6767  152.4188 H   0  0  0  0  0  0  0  0  0  0  0  0
  147.7172  133.3771  153.7982 H   0  0  0  0  0  0  0  0  0  0  0  0
  149.5678  134.8959  154.4392 H   0  0  0  0  0  0  0  0  0  0  0  0
  150.7514  133.7706  153.8242 H   0  0  0  0  0  0  0  0  0  0  0  0
  1  2  1  0  0  0  0
  1 20  1  0  0  0  0
  1 21  1  0  0  0  0
  1 22  1  0  0  0  0
  2  3  2  0  0  0  0
  2  4  2  0  0  0  0
  2  5  1  0  0  0  0
  5 19  1  0  0  0  0
  5  6  1  0  0  0  0
  6  7  1  0  0  0  0
  6 23  1  0  0  0  0
  6 24  1  0  0  0  0
  7  8  1  0  0  0  0
  7 25  1  0  0  0  0
  7 26  1  0  0  0  0
  8  9  1  0  0  0  0
  8 18  1  0  0  0  0
  8 27  1  0  0  0  0
  9 10  1  0  0  0  0
  9 28  1  0  0  0  0
 10 11  2  0  0  0  0
 10 12  1  0  0  0  0
 12 13  1  0  0  0  0
 12 29  1  0  0  0  0
 12 30  1  0  0  0  0
 13 17  1  0  0  0  0
 13 14  1  0  0  0  0
 14 15  2  0  0  0  0
 14 31  1  0  0  0  0
 15 16  1  0  0  0  0
 15 32  1  0  0  0  0
 16 17  2  0  0  0  0
 16 33  1  0  0  0  0
 18 19  1  0  0  0  0
 18 34  1  0  0  0  0
 18 35  1  0  0  0  0
 19 36  1  0  0  0  0
 19 37  1  0  0  0  0
M  END
> <s_m_source_file>
AV-unprocessed.smi

> <i_m_source_file_index>
1267

> <i_lp_mmshare_version>
43012

> <i_f3d_flags>
0

> <s_epik_input>
W0NIM11TKD1PKSg9TylOMVtDSDJdW0NIMl1bQ0hdKFtDSDJdW0NIMl0xKVtOSF1DKD1PKVtDSDJdbjJbY0hdW2NIXVtjSF1uMg==

> <s_epik_cmdline>
J2VwaWtfcHl0aG9uJywgJy1waCcsICc3LjAnLCAnLXRuJywgJzgnLCAnLW1hJywgJzIwMCcsICctbWV0YWxfYmluZGluZycsICctaW1hZScsICc8aW5maWxlLm1hZT4nLCAnLW9tYWUnLCAnPG91dGZpbGUubWFlPic=

> <r_lp_tautomer_probability>
1

> <r_epik_Ionization_Penalty>
1.58465e-05

> <r_epik_Ionization_Penalty_Charging>
0

> <r_epik_Ionization_Penalty_Neutral>
1.58465e-05

> <r_epik_State_Penalty>
-0

> <r_epik_Charging_Adjusted_Penalty>
0

> <i_epik_Tot_Q>
0

> <i_epik_Tot_abs_Q>
0

> <r_epik_Metal_State_Penalty>
-0

> <b_epik_Metal_Only>
0

> <s_lp_Force_Field>
OPLS_2005

> <r_lp_Energy>
-1.31745

> <b_lp_Chiralities_Consistent>
1

> <s_lp_Variant>
AV-unprocessed.smi:1267-1

> <Gold.Version>
5.8.1

> <Gold.Id.Protein>
6NUR|6NUR_protein|mol2

> <Gold.PLP.Fitness>
42.2170

> <Gold.PLP.PLP>
-31.0273

> <Gold.PLP.part.hbond>
-2.1067

> <Gold.PLP.part.metal>
0.0000

> <Gold.PLP.part.buried>
-1.3323

> <Gold.PLP.part.nonpolar>
-27.6248

> <Gold.PLP.part.repulsive>
0.3714

> <Gold.PLP.ligand.clash>
0.0000

> <Gold.PLP.ligand.torsion>
1.4317

> <Gold.PLP.Chemscore.Hbond>
2.0000

> <Gold.PLP.Chemscore.CHOScore>
2.0000

> <Gold.PLP.Chemscore.Metal>
0.0000

> <Gold.Chemscore.Hbonds>
donor molecule, donor type, donor heavy atom, donor atom, acceptor molecule, acceptor atom, score
      L1  H     9    28       P1 10747  0.91
      P1  H  6896  6908       L1     4  1.00
      L1  C    14    31       P1 10747  1.00
      L1  C    16    33       P1 10186  1.00

> <Gold.PLP.Chemscore.Internal.Correction>
2.0533

> <Gold.Rescore>
     Score         DG    S(hbond)    S(metal)    S(lipo)     H(rot)  DE(clash)    DE(int)     intcor
     13.82     -16.50       1.95        0.00      71.90       1.53       0.11       2.56       ----

> <Gold.Chemscore.Fitness>
13.8243

> <Gold.Chemscore.DG>
-16.4973

> <Gold.Chemscore.ZeroCoef>
-5.4800

> <Gold.Chemscore.Hbond>
1.9546

> <Gold.Chemscore.Metal>
0.0000

> <Gold.Chemscore.Lipo>
71.8970

> <Gold.Chemscore.Internal_Hbond>
0.0000

> <Gold.Chemscore.DEClash>
0.1087

> <Gold.Chemscore.DEInternal>
2.5644

> <Gold.Chemscore.Rot>
1.5324

> <Gold.Chemscore.Internal.Correction>
   9.000000E+99

> <Gold.Chemscore.Hbonds>
donor molecule, donor type, donor heavy atom, donor atom, acceptor molecule, acceptor atom, score
      L1  H     9    28       P1 10747  0.83
      P1  H  6896  6908       L1     4  1.00

> <Gold.Chemscore.Hbond.Weighted>
-6.5283

> <Gold.Chemscore.Metal.Weighted>
-0.0000

> <Gold.Chemscore.Lipo.Weighted>
-8.4119

> <Gold.Chemscore.Internal_Hbond.Weighted>
0.0000

> <Gold.Chemscore.DEClash.Weighted>
0.1087

> <Gold.Chemscore.DEInternal.Weighted>
2.5644

> <Gold.Chemscore.Rot.Weighted>
3.9229

> <Gold.Chemscore.Internal.Correction.Weighted>
   9.000000E+99

> <Gold.Protein.RotatedTorsions>
[ 6907 6896 6895 6894 ] final  121.88 input  -60.11 | X-H torsion
[ 7974 7965 7964 7962 ] final   41.99 input  175.53 | X-H torsion
[ 8008 7997 7996 7995 ] final  -51.32 input   59.86 | X-H torsion
[ 10167 10162 10161 10158 ] final   40.17 input  -65.29 | X-H torsion
[ 10718 10713 10712 10709 ] final   22.44 input   66.30 | X-H torsion
[ 10763 10752 10751 10750 ] final  -65.03 input  -60.55 | X-H torsion
[ 11005 11000 10999 10996 ] final   -0.96 input  -57.11 | X-H torsion

> <Gold.Protein.ActiveResidues>
 VAL166  LYS551  ARG553  GLY616  TRP617  ASP618  TYR619  PRO620  LYS621  CYS622 
 ASP623  PHE694  ASN695  SER759  ASP760  ASP761  ALA762  ILE779  LEU786  VAL792 
 PHE793  MET794  SER795  GLU796  ALA797  LYS798  CYS799  TRP800  GLU811  SER814 

> <Gold.Protein.RotatedAtoms>
  152.4287  133.7239  159.6548 H   0  0  0  0  0  0  0  0  0  0  0  0  # atno 6907 bound_to 6896
  150.8164  133.8318  159.3164 H   0  0  0  0  0  0  0  0  0  0  0  0  # atno 6908 bound_to 6896
  151.6013  135.1049  160.0112 H   0  0  0  0  0  0  0  0  0  0  0  0  # atno 6909 bound_to 6896
  146.0778  139.5352  142.9557 H   0  0  0  0  0  0  0  0  0  0  0  0  # atno 7974 bound_to 7965
  154.4080  140.1251  156.4809 H   0  0  0  0  0  0  0  0  0  0  0  0  # atno 8008 bound_to 7997
  155.7086  140.3494  155.4944 H   0  0  0  0  0  0  0  0  0  0  0  0  # atno 8009 bound_to 7997
  155.9321  140.1071  157.1114 H   0  0  0  0  0  0  0  0  0  0  0  0  # atno 8010 bound_to 7997
  140.3768  144.2032  150.6131 H   0  0  0  0  0  0  0  0  0  0  0  0  # atno 10167 bound_to 10162
  157.1524  130.6680  149.6016 H   0  0  0  0  0  0  0  0  0  0  0  0  # atno 10718 bound_to 10713
  154.3390  135.6160  153.5587 H   0  0  0  0  0  0  0  0  0  0  0  0  # atno 10763 bound_to 10752
  152.9805  135.5765  154.4875 H   0  0  0  0  0  0  0  0  0  0  0  0  # atno 10764 bound_to 10752
  154.4575  135.2855  155.1714 H   0  0  0  0  0  0  0  0  0  0  0  0  # atno 10765 bound_to 10752
  140.6420  133.9481  155.8331 H   0  0  0  0  0  0  0  0  0  0  0  0  # atno 11005 bound_to 11000
  145.6274  141.0311  143.1881 LP  0  0  0  0  0  0  0  0  0  0  0  0  # atno 17320 bound_to 7965
  144.7273  139.7836  143.7360 LP  0  0  0  0  0  0  0  0  0  0  0  0  # atno 17321 bound_to 7965
  140.4978  143.2327  151.8724 LP  0  0  0  0  0  0  0  0  0  0  0  0  # atno 17342 bound_to 10162
  139.4799  144.5094  151.8953 LP  0  0  0  0  0  0  0  0  0  0  0  0  # atno 17343 bound_to 10162
  155.9768  130.4740  150.6553 LP  0  0  0  0  0  0  0  0  0  0  0  0  # atno 17370 bound_to 10713
  157.4208  131.0836  151.1132 LP  0  0  0  0  0  0  0  0  0  0  0  0  # atno 17371 bound_to 10713
  141.0600  134.0361  157.3672 LP  0  0  0  0  0  0  0  0  0  0  0  0  # atno 17394 bound_to 11000
  139.9077  135.0183  156.7556 LP  0  0  0  0  0  0  0  0  0  0  0  0  # atno 17395 bound_to 11000

$$$$
