AV-unprocessed.smi:1724|AV-procd|sdf|6952|dock4
  -GOLD-   22720 8163D 1   1.00000     0.00000
 Structure written by MMmdl.
 37 38  0  0  0  0  0  0  0  0  2 V2000
  151.0541  140.7111  155.7800 O   0  0  0  0  0  0  0  0  0  0  0  0
  150.3405  141.7010  155.9388 C   0  0  0  0  0  0  0  0  0  0  0  0
  149.2872  141.9791  155.1568 N   0  0  0  0  0  0  0  0  0  0  0  0
  148.8271  141.1737  154.0291 C   0  0  0  0  0  0  0  0  0  0  0  0
  147.9235  140.0045  154.4714 C   0  0  1  0  0  0  0  0  0  0  0  0
  146.7424  140.4522  155.3536 C   0  0  0  0  0  0  0  0  0  0  0  0
  145.8367  139.2581  155.6748 C   0  0  0  0  0  0  0  0  0  0  0  0
  145.4188  138.5386  154.3840 C   0  0  0  0  0  0  0  0  0  0  0  0
  146.5775  138.1380  153.6619 O   0  0  0  0  0  0  0  0  0  0  0  0
  147.3829  139.2369  153.2478 C   0  0  0  0  0  0  0  0  0  0  0  0
  150.4842  142.6412  156.8908 N   0  0  0  0  0  0  0  0  0  0  0  0
  151.4417  142.7566  157.9145 C   0  0  0  0  0  0  0  0  0  0  0  0
  152.1602  141.7251  158.4398 C   0  0  0  0  0  0  0  0  0  0  0  0
  153.1411  141.9201  159.5009 C   0  0  0  0  0  0  0  0  0  0  0  0
  153.9660  140.8069  160.1204 C   0  0  0  0  0  0  0  0  0  0  0  0
  153.5962  139.6275  159.6223 F   0  0  0  0  0  0  0  0  0  0  0  0
  155.2576  140.9838  159.8451 F   0  0  0  0  0  0  0  0  0  0  0  0
  153.8194  140.7690  161.4449 F   0  0  0  0  0  0  0  0  0  0  0  0
  153.2465  143.2419  159.8841 C   0  0  0  0  0  0  0  0  0  0  0  0
  152.5796  144.3189  159.4158 N   0  5  0  0  0  0  0  0  0  0  0  0
  151.6629  144.1262  158.4258 C   0  0  0  0  0  0  0  0  0  0  0  0
  151.0210  145.0651  157.9529 O   0  0  0  0  0  0  0  0  0  0  0  0
  148.7566  142.8132  155.3620 H   0  0  0  0  0  0  0  0  0  0  0  0
  148.3161  141.7895  153.2870 H   0  0  0  0  0  0  0  0  0  0  0  0
  149.7141  140.7797  153.5324 H   0  0  0  0  0  0  0  0  0  0  0  0
  148.5332  139.3102  155.0519 H   0  0  0  0  0  0  0  0  0  0  0  0
  147.0974  140.8984  156.2829 H   0  0  0  0  0  0  0  0  0  0  0  0
  146.1659  141.2212  154.8376 H   0  0  0  0  0  0  0  0  0  0  0  0
  146.3665  138.5605  156.3248 H   0  0  0  0  0  0  0  0  0  0  0  0
  144.9554  139.5903  156.2240 H   0  0  0  0  0  0  0  0  0  0  0  0
  144.8282  137.6538  154.6214 H   0  0  0  0  0  0  0  0  0  0  0  0
  144.7933  139.1823  153.7635 H   0  0  0  0  0  0  0  0  0  0  0  0
  146.8068  139.8956  152.5958 H   0  0  0  0  0  0  0  0  0  0  0  0
  148.2101  138.8489  152.6530 H   0  0  0  0  0  0  0  0  0  0  0  0
  149.7948  143.3787  156.8926 H   0  0  0  0  0  0  0  0  0  0  0  0
  152.0320  140.7187  158.0806 H   0  0  0  0  0  0  0  0  0  0  0  0
  153.9786  143.4652  160.6896 H   0  0  0  0  0  0  0  0  0  0  0  0
  1  2  2  0  0  0  0
  2  3  1  0  0  0  0
  2 11  1  0  0  0  0
  3  4  1  0  0  0  0
  3 23  1  0  0  0  0
  4  5  1  0  0  0  0
  4 24  1  0  0  0  0
  4 25  1  0  0  0  0
  5 10  1  0  0  0  0
  5  6  1  0  0  0  0
  5 26  1  0  0  0  0
  6  7  1  0  0  0  0
  6 27  1  0  0  0  0
  6 28  1  0  0  0  0
  7  8  1  0  0  0  0
  7 29  1  0  0  0  0
  7 30  1  0  0  0  0
  8  9  1  0  0  0  0
  8 31  1  0  0  0  0
  8 32  1  0  0  0  0
  9 10  1  0  0  0  0
 10 33  1  0  0  0  0
 10 34  1  0  0  0  0
 11 12  1  0  0  0  0
 11 35  1  0  0  0  0
 12 21  1  0  0  0  0
 12 13  2  0  0  0  0
 13 14  1  0  0  0  0
 13 36  1  0  0  0  0
 14 15  1  0  0  0  0
 14 19  2  0  0  0  0
 15 16  1  0  0  0  0
 15 17  1  0  0  0  0
 15 18  1  0  0  0  0
 19 20  1  0  0  0  0
 19 37  1  0  0  0  0
 20 21  1  0  0  0  0
 21 22  2  0  0  0  0
M  CHG  1  20  -1
M  END
> <s_m_source_file>
AV-unprocessed.smi

> <i_m_source_file_index>
1724

> <i_lp_mmshare_version>
43012

> <i_f3d_flags>
0

> <s_epik_input>
Tz1jMVtuSF1bY0hdYyhDKEYpKEYpRilbY0hdYzFbTkhdQyg9TylbTkhdW0NIMl1bQ0BASF0yW0NIMl1bQ0gyXVtDSDJdT1tDSDJdMg==

> <s_epik_cmdline>
J2VwaWtfcHl0aG9uJywgJy1waCcsICc3LjAnLCAnLXRuJywgJzgnLCAnLW1hJywgJzIwMCcsICctbWV0YWxfYmluZGluZycsICctaW1hZScsICc8aW5maWxlLm1hZT4nLCAnLW9tYWUnLCAnPG91dGZpbGUubWFlPic=

> <r_lp_tautomer_probability>
1

> <r_epik_Ionization_Penalty>
3.16025

> <r_epik_Ionization_Penalty_Charging>
0.171172

> <r_epik_Ionization_Penalty_Neutral>
2.98908

> <r_epik_State_Penalty>
2.98521

> <r_epik_Charging_Adjusted_Penalty>
3.15638

> <i_epik_Tot_Q>
-1

> <i_epik_Tot_abs_Q>
1

> <r_epik_Metal_State_Penalty>
0.452642

> <b_epik_Metal_Only>
1

> <s_lp_Force_Field>
OPLS_2005

> <r_lp_Energy>
24.0618

> <b_lp_Chiralities_Consistent>
1

> <s_lp_Variant>
AV-unprocessed.smi:1724-4

> <Gold.Version>
5.8.1

> <Gold.Id.Protein>
6NUR|6NUR_protein|mol2

> <Gold.PLP.Fitness>
41.8199

> <Gold.PLP.PLP>
-36.8501

> <Gold.PLP.part.hbond>
-2.5480

> <Gold.PLP.part.metal>
0.0000

> <Gold.PLP.part.buried>
-2.7801

> <Gold.PLP.part.nonpolar>
-31.0163

> <Gold.PLP.part.repulsive>
0.7942

> <Gold.PLP.ligand.clash>
0.0000

> <Gold.PLP.ligand.torsion>
0.3696

> <Gold.PLP.Chemscore.Hbond>
1.8992

> <Gold.PLP.Chemscore.CHOScore>
0.0000

> <Gold.PLP.Chemscore.Metal>
0.0000

> <Gold.Chemscore.Hbonds>
donor molecule, donor type, donor heavy atom, donor atom, acceptor molecule, acceptor atom, score
      L1  H     3    23       P1  8028  0.90
      L1  H    11    35       P1  8028  0.85
      P1  H  7989  7998       L1     1  0.16

> <Gold.PLP.Chemscore.Internal.Correction>
0.0114

> <Gold.Rescore>
     Score         DG    S(hbond)    S(metal)    S(lipo)     H(rot)  DE(clash)    DE(int)     intcor
     14.59     -17.13       1.88        0.00      74.80       1.32       1.48       1.06       ----

> <Gold.Chemscore.Fitness>
14.5892

> <Gold.Chemscore.DG>
-17.1339

> <Gold.Chemscore.ZeroCoef>
-5.4800

> <Gold.Chemscore.Hbond>
1.8844

> <Gold.Chemscore.Metal>
0.0000

> <Gold.Chemscore.Lipo>
74.8002

> <Gold.Chemscore.Internal_Hbond>
0.0000

> <Gold.Chemscore.DEClash>
1.4801

> <Gold.Chemscore.DEInternal>
1.0646

> <Gold.Chemscore.Rot>
1.3248

> <Gold.Chemscore.Internal.Correction>
   9.000000E+99

> <Gold.Chemscore.Hbonds>
donor molecule, donor type, donor heavy atom, donor atom, acceptor molecule, acceptor atom, score
      L1  H     3    23       P1  8028  0.88
      L1  H    11    35       P1  8028  0.77
      P1  H  7989  7998       L1     1  0.06

> <Gold.Chemscore.Hbond.Weighted>
-6.2938

> <Gold.Chemscore.Metal.Weighted>
-0.0000

> <Gold.Chemscore.Lipo.Weighted>
-8.7516

> <Gold.Chemscore.Internal_Hbond.Weighted>
0.0000

> <Gold.Chemscore.DEClash.Weighted>
1.4801

> <Gold.Chemscore.DEInternal.Weighted>
1.0646

> <Gold.Chemscore.Rot.Weighted>
3.3915

> <Gold.Chemscore.Internal.Correction.Weighted>
   9.000000E+99

> <Gold.Protein.RotatedTorsions>
[ 6907 6896 6895 6894 ] final  -81.98 input  -60.11 | X-H torsion
[ 7974 7965 7964 7962 ] final  172.50 input  175.53 | X-H torsion
[ 8008 7997 7996 7995 ] final  -59.59 input   59.86 | X-H torsion
[ 10167 10162 10161 10158 ] final  -11.87 input  -65.29 | X-H torsion
[ 10718 10713 10712 10709 ] final  -63.11 input   66.30 | X-H torsion
[ 10763 10752 10751 10750 ] final -131.39 input  -60.55 | X-H torsion
[ 11005 11000 10999 10996 ] final   82.61 input  -57.11 | X-H torsion

> <Gold.Protein.ActiveResidues>
 VAL166  LYS551  ARG553  GLY616  TRP617  ASP618  TYR619  PRO620  LYS621  CYS622 
 ASP623  PHE694  ASN695  SER759  ASP760  ASP761  ALA762  ILE779  LEU786  VAL792 
 PHE793  MET794  SER795  GLU796  ALA797  LYS798  CYS799  TRP800  GLU811  SER814 

> <Gold.Protein.RotatedAtoms>
  150.6904  134.3735  159.5002 H   0  0  0  0  0  0  0  0  0  0  0  0  # atno 6907 bound_to 6896
  152.1547  134.8957  160.0555 H   0  0  0  0  0  0  0  0  0  0  0  0  # atno 6908 bound_to 6896
  152.0042  133.3802  159.4230 H   0  0  0  0  0  0  0  0  0  0  0  0  # atno 6909 bound_to 6896
  144.7266  139.9508  143.6432 H   0  0  0  0  0  0  0  0  0  0  0  0  # atno 7974 bound_to 7965
  154.4359  140.1058  156.6140 H   0  0  0  0  0  0  0  0  0  0  0  0  # atno 8008 bound_to 7997
  155.5779  140.3490  155.4514 H   0  0  0  0  0  0  0  0  0  0  0  0  # atno 8009 bound_to 7997
  156.0340  140.1267  157.0216 H   0  0  0  0  0  0  0  0  0  0  0  0  # atno 8010 bound_to 7997
  140.7148  143.5593  150.9213 H   0  0  0  0  0  0  0  0  0  0  0  0  # atno 10167 bound_to 10162
  156.0812  130.4217  150.1230 H   0  0  0  0  0  0  0  0  0  0  0  0  # atno 10718 bound_to 10713
  154.8751  135.3831  154.4239 H   0  0  0  0  0  0  0  0  0  0  0  0  # atno 10763 bound_to 10752
  153.4940  135.7030  153.5873 H   0  0  0  0  0  0  0  0  0  0  0  0  # atno 10764 bound_to 10752
  153.4235  135.3896  155.2093 H   0  0  0  0  0  0  0  0  0  0  0  0  # atno 10765 bound_to 10752
  139.9058  134.8084  156.2198 H   0  0  0  0  0  0  0  0  0  0  0  0  # atno 11005 bound_to 11000
  146.0713  139.3702  143.0521 LP  0  0  0  0  0  0  0  0  0  0  0  0  # atno 17320 bound_to 7965
  145.7964  140.9791  143.1022 LP  0  0  0  0  0  0  0  0  0  0  0  0  # atno 17321 bound_to 7965
  139.9318  143.6484  152.3074 LP  0  0  0  0  0  0  0  0  0  0  0  0  # atno 17342 bound_to 10162
  139.6937  144.7644  151.1393 LP  0  0  0  0  0  0  0  0  0  0  0  0  # atno 17343 bound_to 10162
  156.9261  130.9698  151.3541 LP  0  0  0  0  0  0  0  0  0  0  0  0  # atno 17370 bound_to 10713
  157.5929  130.8457  149.8686 LP  0  0  0  0  0  0  0  0  0  0  0  0  # atno 17371 bound_to 10713
  141.0413  133.6936  156.1603 LP  0  0  0  0  0  0  0  0  0  0  0  0  # atno 17394 bound_to 11000
  140.6951  134.4624  157.5588 LP  0  0  0  0  0  0  0  0  0  0  0  0  # atno 17395 bound_to 11000

$$$$
