AV-unprocessed.smi:701|AV-procd|sdf|3413|dock3
  -GOLD-   22720 0393D 1   1.00000     0.00000
 Structure written by MMmdl.
 48 50  0  0  0  0  0  0  0  0  2 V2000
  153.4287  138.4088  154.7688 C   0  0  0  0  0  0  0  0  0  0  0  0
  152.1634  139.1991  155.1082 C   0  0  0  0  0  0  0  0  0  0  0  0
  152.3365  139.8059  156.3774 O   0  0  0  0  0  0  0  0  0  0  0  0
  151.7585  141.1025  156.4663 C   0  0  1  0  0  0  0  0  0  0  0  0
  150.3729  141.1660  155.8121 C   0  0  0  0  0  0  0  0  0  0  0  0
  149.7684  140.8475  157.1871 C   0  0  1  0  0  0  0  0  0  0  0  0
  149.5452  139.4120  157.3629 N   0  0  0  0  0  0  0  0  0  0  0  0
  148.4849  138.7402  156.8934 C   0  0  0  0  0  0  0  0  0  0  0  0
  147.5750  139.2796  156.2617 O   0  0  0  0  0  0  0  0  0  0  0  0
  148.4816  137.2279  157.1576 C   0  0  0  0  0  0  0  0  0  0  0  0
  148.2491  136.8834  158.5695 N   0  0  0  0  0  0  0  0  0  0  0  0
  147.0480  136.2262  158.8894 C   0  0  0  0  0  0  0  0  0  0  0  0
  146.7418  135.8817  160.1544 C   0  0  0  0  0  0  0  0  0  0  0  0
  147.6954  136.2064  161.2078 C   0  0  0  0  0  0  0  0  0  0  0  0
  147.4351  135.8943  162.3682 O   0  0  0  0  0  0  0  0  0  0  0  0
  148.8450  136.8487  160.8476 N   0  5  0  0  0  0  0  0  0  0  0  0
  149.1406  137.1979  159.5569 C   0  0  0  0  0  0  0  0  0  0  0  0
  150.1807  137.7839  159.2547 O   0  0  0  0  0  0  0  0  0  0  0  0
  151.0835  141.3580  157.8405 C   0  0  0  0  0  0  0  0  0  0  0  0
  151.6412  140.5786  159.0526 C   0  0  0  0  0  0  0  0  0  0  0  0
  153.0262  141.0779  159.4967 C   0  0  0  0  0  0  0  0  0  0  0  0
  152.9879  142.5680  159.8557 C   0  0  0  0  0  0  0  0  0  0  0  0
  152.3971  143.3966  158.7090 C   0  0  0  0  0  0  0  0  0  0  0  0
  151.0322  142.8419  158.2638 C   0  0  0  0  0  0  0  0  0  0  0  0
  153.3380  137.9260  153.7957 H   0  0  0  0  0  0  0  0  0  0  0  0
  153.6156  137.6331  155.5118 H   0  0  0  0  0  0  0  0  0  0  0  0
  154.3013  139.0618  154.7384 H   0  0  0  0  0  0  0  0  0  0  0  0
  151.9848  139.9627  154.3499 H   0  0  0  0  0  0  0  0  0  0  0  0
  151.3013  138.5315  155.1137 H   0  0  0  0  0  0  0  0  0  0  0  0
  152.4384  141.8959  156.1532 H   0  0  0  0  0  0  0  0  0  0  0  0
  150.1186  142.1683  155.4649 H   0  0  0  0  0  0  0  0  0  0  0  0
  150.1861  140.4242  155.0349 H   0  0  0  0  0  0  0  0  0  0  0  0
  148.8965  141.4572  157.4296 H   0  0  0  0  0  0  0  0  0  0  0  0
  150.2533  138.8955  157.8642 H   0  0  0  0  0  0  0  0  0  0  0  0
  147.7132  136.7750  156.5297 H   0  0  0  0  0  0  0  0  0  0  0  0
  149.4230  136.7980  156.8103 H   0  0  0  0  0  0  0  0  0  0  0  0
  146.3945  136.0302  158.0521 H   0  0  0  0  0  0  0  0  0  0  0  0
  145.8126  135.3817  160.3841 H   0  0  0  0  0  0  0  0  0  0  0  0
  150.9482  140.6520  159.8917 H   0  0  0  0  0  0  0  0  0  0  0  0
  151.7202  139.5132  158.8360 H   0  0  0  0  0  0  0  0  0  0  0  0
  153.3737  140.4996  160.3532 H   0  0  0  0  0  0  0  0  0  0  0  0
  153.7494  140.9106  158.6974 H   0  0  0  0  0  0  0  0  0  0  0  0
  152.3826  142.7083  160.7521 H   0  0  0  0  0  0  0  0  0  0  0  0
  153.9896  142.9230  160.0992 H   0  0  0  0  0  0  0  0  0  0  0  0
  152.2921  144.4362  159.0204 H   0  0  0  0  0  0  0  0  0  0  0  0
  153.0892  143.3984  157.8666 H   0  0  0  0  0  0  0  0  0  0  0  0
  150.6547  143.4612  157.4496 H   0  0  0  0  0  0  0  0  0  0  0  0
  150.3164  142.9688  159.0772 H   0  0  0  0  0  0  0  0  0  0  0  0
  1  2  1  0  0  0  0
  1 25  1  0  0  0  0
  1 26  1  0  0  0  0
  1 27  1  0  0  0  0
  2  3  1  0  0  0  0
  2 28  1  0  0  0  0
  2 29  1  0  0  0  0
  3  4  1  0  0  0  0
  4 19  1  0  0  0  0
  4  5  1  0  0  0  0
  4 30  1  0  0  0  0
  5  6  1  0  0  0  0
  5 31  1  0  0  0  0
  5 32  1  0  0  0  0
  6  7  1  0  0  0  0
  6 19  1  0  0  0  0
  6 33  1  0  0  0  0
  7  8  1  0  0  0  0
  7 34  1  0  0  0  0
  8  9  2  0  0  0  0
  8 10  1  0  0  0  0
 10 11  1  0  0  0  0
 10 35  1  0  0  0  0
 10 36  1  0  0  0  0
 11 17  1  0  0  0  0
 11 12  1  0  0  0  0
 12 13  2  0  0  0  0
 12 37  1  0  0  0  0
 13 14  1  0  0  0  0
 13 38  1  0  0  0  0
 14 15  2  0  0  0  0
 14 16  1  0  0  0  0
 16 17  1  0  0  0  0
 17 18  2  0  0  0  0
 19 24  1  0  0  0  0
 19 20  1  0  0  0  0
 20 21  1  0  0  0  0
 20 39  1  0  0  0  0
 20 40  1  0  0  0  0
 21 22  1  0  0  0  0
 21 41  1  0  0  0  0
 21 42  1  0  0  0  0
 22 23  1  0  0  0  0
 22 43  1  0  0  0  0
 22 44  1  0  0  0  0
 23 24  1  0  0  0  0
 23 45  1  0  0  0  0
 23 46  1  0  0  0  0
 24 47  1  0  0  0  0
 24 48  1  0  0  0  0
M  CHG  1  16  -1
M  END
> <s_m_source_file>
AV-unprocessed.smi

> <i_m_source_file_index>
701

> <i_lp_mmshare_version>
43012

> <i_f3d_flags>
0

> <s_epik_input>
W0NIMl0xW0NIMl1bQ0gyXVtDSDJdW0NIMl1DMTJbQ0BIXShPW0NIMl1bQ0gzXSlbQ0gyXVtDQEhdMltOSF1DKD1PKVtDSDJdbjNbY0hdW2NIXWMoPU8pW25IXWMzPU8=

> <s_epik_cmdline>
J2VwaWtfcHl0aG9uJywgJy1waCcsICc3LjAnLCAnLXRuJywgJzgnLCAnLW1hJywgJzIwMCcsICctbWV0YWxfYmluZGluZycsICctaW1hZScsICc8aW5maWxlLm1hZT4nLCAnLW9tYWUnLCAnPG91dGZpbGUubWFlPic=

> <r_lp_tautomer_probability>
0.999537

> <r_epik_Ionization_Penalty>
3.12423

> <r_epik_Ionization_Penalty_Charging>
2.92877e-08

> <r_epik_Ionization_Penalty_Neutral>
3.12423

> <r_epik_State_Penalty>
3.12332

> <r_epik_Charging_Adjusted_Penalty>
3.12332

> <i_epik_Tot_Q>
-1

> <i_epik_Tot_abs_Q>
1

> <r_epik_Metal_State_Penalty>
0.463873

> <b_epik_Metal_Only>
1

> <s_lp_Force_Field>
OPLS_2005

> <r_lp_Energy>
39.3964

> <b_lp_Chiralities_Consistent>
1

> <s_lp_Variant>
AV-unprocessed.smi:701-6

> <Gold.Version>
5.8.1

> <Gold.Id.Protein>
6NUR|6NUR_protein|mol2

> <Gold.PLP.Fitness>
44.0422

> <Gold.PLP.PLP>
-36.8065

> <Gold.PLP.part.hbond>
-2.6408

> <Gold.PLP.part.metal>
0.0000

> <Gold.PLP.part.buried>
-4.6478

> <Gold.PLP.part.nonpolar>
-30.3557

> <Gold.PLP.part.repulsive>
0.0625

> <Gold.PLP.ligand.clash>
0.0000

> <Gold.PLP.ligand.torsion>
0.8963

> <Gold.PLP.Chemscore.Hbond>
2.8880

> <Gold.PLP.Chemscore.CHOScore>
0.0000

> <Gold.PLP.Chemscore.Metal>
0.0000

> <Gold.Chemscore.Hbonds>
donor molecule, donor type, donor heavy atom, donor atom, acceptor molecule, acceptor atom, score
      P1  H  6931  6943       L1    16  1.89
      P1  H  7997  8008       L1     3  1.00

> <Gold.PLP.Chemscore.Internal.Correction>
0.3643

> <Gold.Rescore>
     Score         DG    S(hbond)    S(metal)    S(lipo)     H(rot)  DE(clash)    DE(int)     intcor
     10.97     -13.69       0.79        0.00      92.19       2.04       0.22       2.50       ----

> <Gold.Chemscore.Fitness>
10.9655

> <Gold.Chemscore.DG>
-13.6912

> <Gold.Chemscore.ZeroCoef>
-5.4800

> <Gold.Chemscore.Hbond>
0.7927

> <Gold.Chemscore.Metal>
0.0000

> <Gold.Chemscore.Lipo>
92.1857

> <Gold.Chemscore.Internal_Hbond>
0.0000

> <Gold.Chemscore.DEClash>
0.2221

> <Gold.Chemscore.DEInternal>
2.5037

> <Gold.Chemscore.Rot>
2.0399

> <Gold.Chemscore.Internal.Correction>
   9.000000E+99

> <Gold.Chemscore.Hbonds>
donor molecule, donor type, donor heavy atom, donor atom, acceptor molecule, acceptor atom, score
      P1  H  6931  6943       L1    16  0.45
      P1  H  7997  8008       L1     3  0.19

> <Gold.Chemscore.Hbond.Weighted>
-2.6477

> <Gold.Chemscore.Metal.Weighted>
-0.0000

> <Gold.Chemscore.Lipo.Weighted>
-10.7857

> <Gold.Chemscore.Internal_Hbond.Weighted>
0.0000

> <Gold.Chemscore.DEClash.Weighted>
0.2221

> <Gold.Chemscore.DEInternal.Weighted>
2.5037

> <Gold.Chemscore.Rot.Weighted>
5.2222

> <Gold.Chemscore.Internal.Correction.Weighted>
   9.000000E+99

> <Gold.Protein.RotatedTorsions>
[ 6907 6896 6895 6894 ] final -165.25 input  -60.11 | X-H torsion
[ 7974 7965 7964 7962 ] final  113.28 input  175.53 | X-H torsion
[ 8008 7997 7996 7995 ] final  -51.88 input   59.86 | X-H torsion
[ 10167 10162 10161 10158 ] final   28.36 input  -65.29 | X-H torsion
[ 10718 10713 10712 10709 ] final  161.60 input   66.30 | X-H torsion
[ 10763 10752 10751 10750 ] final   45.42 input  -60.55 | X-H torsion
[ 11005 11000 10999 10996 ] final   81.94 input  -57.11 | X-H torsion

> <Gold.Protein.ActiveResidues>
 VAL166  LYS551  ARG553  GLY616  TRP617  ASP618  TYR619  PRO620  LYS621  CYS622 
 ASP623  PHE694  ASN695  SER759  ASP760  ASP761  ALA762  ILE779  LEU786  VAL792 
 PHE793  MET794  SER795  GLU796  ALA797  LYS798  CYS799  TRP800  GLU811  SER814 

> <Gold.Protein.RotatedAtoms>
  151.4247  133.3688  159.2760 H   0  0  0  0  0  0  0  0  0  0  0  0  # atno 6907 bound_to 6896
  150.9268  134.8686  159.7536 H   0  0  0  0  0  0  0  0  0  0  0  0  # atno 6908 bound_to 6896
  152.5009  134.4189  159.9526 H   0  0  0  0  0  0  0  0  0  0  0  0  # atno 6909 bound_to 6896
  145.2189  139.2871  143.4228 H   0  0  0  0  0  0  0  0  0  0  0  0  # atno 7974 bound_to 7965
  154.4093  140.1237  156.4901 H   0  0  0  0  0  0  0  0  0  0  0  0  # atno 8008 bound_to 7997
  155.6999  140.3495  155.4909 H   0  0  0  0  0  0  0  0  0  0  0  0  # atno 8009 bound_to 7997
  155.9395  140.1084  157.1057 H   0  0  0  0  0  0  0  0  0  0  0  0  # atno 8010 bound_to 7997
  140.4859  144.0543  150.6280 H   0  0  0  0  0  0  0  0  0  0  0  0  # atno 10167 bound_to 10162
  157.1342  131.0524  151.2357 H   0  0  0  0  0  0  0  0  0  0  0  0  # atno 10718 bound_to 10713
  152.9825  135.6040  154.3434 H   0  0  0  0  0  0  0  0  0  0  0  0  # atno 10763 bound_to 10752
  154.3129  135.2771  155.2559 H   0  0  0  0  0  0  0  0  0  0  0  0  # atno 10764 bound_to 10752
  154.4760  135.5929  153.6411 H   0  0  0  0  0  0  0  0  0  0  0  0  # atno 10765 bound_to 10752
  139.9081  134.8034  156.2108 H   0  0  0  0  0  0  0  0  0  0  0  0  # atno 11005 bound_to 11000
  146.3380  140.2489  142.8598 LP  0  0  0  0  0  0  0  0  0  0  0  0  # atno 17320 bound_to 7965
  144.9784  140.8436  143.5412 LP  0  0  0  0  0  0  0  0  0  0  0  0  # atno 17321 bound_to 7965
  140.3799  143.2808  152.0183 LP  0  0  0  0  0  0  0  0  0  0  0  0  # atno 17342 bound_to 10162
  139.4842  144.6163  151.7339 LP  0  0  0  0  0  0  0  0  0  0  0  0  # atno 17343 bound_to 10162
  157.4365  130.7520  149.7033 LP  0  0  0  0  0  0  0  0  0  0  0  0  # atno 17370 bound_to 10713
  155.9801  130.4032  150.3545 LP  0  0  0  0  0  0  0  0  0  0  0  0  # atno 17371 bound_to 10713
  141.0467  133.6910  156.1696 LP  0  0  0  0  0  0  0  0  0  0  0  0  # atno 17394 bound_to 11000
  140.6873  134.4703  157.5589 LP  0  0  0  0  0  0  0  0  0  0  0  0  # atno 17395 bound_to 11000

$$$$
