AV-unprocessed.smi:244|AV-procd|sdf|1867|dock5
  -GOLD-   2262020503D 1   1.00000     0.00000
 Structure written by MMmdl.
 57 61  0  0  0  0  0  0  0  0  2 V2000
  147.5176  132.3048  154.0904 C   0  0  0  0  0  0  0  0  0  0  0  0
  146.6792  132.2415  152.8745 N   0  3  2  0  0  0  0  0  0  0  0  0
  146.7189  130.9074  152.2265 C   0  0  0  0  0  0  0  0  0  0  0  0
  145.7124  130.8354  151.0682 C   0  0  0  0  0  0  0  0  0  0  0  0
  145.9567  131.9690  150.0481 C   0  0  1  0  0  0  0  0  0  0  0  0
  145.0146  131.9558  148.9734 O   0  0  0  0  0  0  0  0  0  0  0  0
  143.6876  132.3311  149.3377 C   0  0  0  0  0  0  0  0  0  0  0  0
  143.6938  133.7169  149.9987 C   0  0  0  0  0  0  0  0  0  0  0  0
  144.6221  133.7365  151.1231 N   0  0  0  0  0  0  0  0  0  0  0  0
  144.5177  134.8645  151.8583 C   0  0  0  0  0  0  0  0  0  0  0  0
  145.4031  135.8548  151.5897 N   0  0  0  0  0  0  0  0  0  0  0  0
  145.3424  137.0040  152.2692 C   0  0  0  0  0  0  0  0  0  0  0  0
  144.4894  137.3604  153.2320 N   0  0  0  0  0  0  0  0  0  0  0  0
  143.5938  136.3663  153.4977 C   0  0  0  0  0  0  0  0  0  0  0  0
  143.5367  135.0943  152.8633 C   0  0  0  0  0  0  0  0  0  0  0  0
  142.4917  134.3461  153.3908 N   0  0  0  0  0  0  0  0  0  0  0  0
  141.9670  135.1279  154.2948 C   0  0  0  0  0  0  0  0  0  0  0  0
  142.5590  136.3651  154.4162 N   0  0  0  0  0  0  0  0  0  0  0  0
  142.1753  137.4305  155.3299 C   0  0  0  0  0  0  0  0  0  0  0  0
  141.0336  138.3346  154.8013 C   0  0  0  0  0  0  0  0  0  0  0  0
  141.2986  138.6194  153.4385 O   0  0  0  0  0  0  0  0  0  0  0  0
  139.6481  137.6583  154.8961 C   0  0  0  0  0  0  0  0  0  0  0  0
  138.5027  138.6353  154.5757 C   0  0  0  0  0  0  0  0  0  0  0  0
  138.5844  139.7796  155.4162 O   0  0  0  0  0  0  0  0  0  0  0  0
  139.7789  140.5248  155.2144 C   0  0  0  0  0  0  0  0  0  0  0  0
  141.0021  139.6653  155.5799 C   0  0  0  0  0  0  0  0  0  0  0  0
  145.9834  133.3540  150.7360 C   0  0  1  0  0  0  0  0  0  0  0  0
  146.9914  133.3287  151.9133 C   0  0  0  0  0  0  0  0  0  0  0  0
  148.5709  132.1576  153.8480 H   0  0  0  0  0  0  0  0  0  0  0  0
  147.2191  131.5364  154.8042 H   0  0  0  0  0  0  0  0  0  0  0  0
  147.4097  133.2724  154.5817 H   0  0  0  0  0  0  0  0  0  0  0  0
  147.7281  130.7035  151.8652 H   0  0  0  0  0  0  0  0  0  0  0  0
  146.4829  130.1357  152.9604 H   0  0  0  0  0  0  0  0  0  0  0  0
  145.7827  129.8670  150.5724 H   0  0  0  0  0  0  0  0  0  0  0  0
  144.7084  130.8951  151.4871 H   0  0  0  0  0  0  0  0  0  0  0  0
  146.9346  131.7973  149.5964 H   0  0  0  0  0  0  0  0  0  0  0  0
  143.0725  132.3527  148.4380 H   0  0  0  0  0  0  0  0  0  0  0  0
  143.2396  131.5871  149.9958 H   0  0  0  0  0  0  0  0  0  0  0  0
  143.9852  134.4679  149.2635 H   0  0  0  0  0  0  0  0  0  0  0  0
  142.6885  133.9719  150.3371 H   0  0  0  0  0  0  0  0  0  0  0  0
  146.0805  137.7462  152.0024 H   0  0  0  0  0  0  0  0  0  0  0  0
  141.1211  134.8256  154.8954 H   0  0  0  0  0  0  0  0  0  0  0  0
  141.8802  136.9709  156.2742 H   0  0  0  0  0  0  0  0  0  0  0  0
  143.0609  138.0286  155.5497 H   0  0  0  0  0  0  0  0  0  0  0  0
  140.5892  139.1424  153.0971 H   0  0  0  0  0  0  0  0  0  0  0  0
  139.5882  136.7970  154.2300 H   0  0  0  0  0  0  0  0  0  0  0  0
  139.5047  137.2747  155.9071 H   0  0  0  0  0  0  0  0  0  0  0  0
  138.5252  138.9375  153.5276 H   0  0  0  0  0  0  0  0  0  0  0  0
  137.5419  138.1478  154.7410 H   0  0  0  0  0  0  0  0  0  0  0  0
  139.8352  140.8736  154.1821 H   0  0  0  0  0  0  0  0  0  0  0  0
  139.7472  141.4134  155.8451 H   0  0  0  0  0  0  0  0  0  0  0  0
  140.9653  139.4551  156.6496 H   0  0  0  0  0  0  0  0  0  0  0  0
  141.9204  140.2296  155.4118 H   0  0  0  0  0  0  0  0  0  0  0  0
  146.3323  134.0875  150.0075 H   0  0  0  0  0  0  0  0  0  0  0  0
  147.0163  134.2895  152.4288 H   0  0  0  0  0  0  0  0  0  0  0  0
  147.9996  133.1754  151.5251 H   0  0  0  0  0  0  0  0  0  0  0  0
  145.7268  132.3905  153.1776 H   0  0  0  0  0  0  0  0  0  0  0  0
  1  2  1  0  0  0  0
  1 29  1  0  0  0  0
  1 30  1  0  0  0  0
  1 31  1  0  0  0  0
  2 28  1  0  0  0  0
  2  3  1  0  0  0  0
  2 57  1  0  0  0  0
  3  4  1  0  0  0  0
  3 32  1  0  0  0  0
  3 33  1  0  0  0  0
  4  5  1  0  0  0  0
  4 34  1  0  0  0  0
  4 35  1  0  0  0  0
  5 27  1  0  0  0  0
  5  6  1  0  0  0  0
  5 36  1  0  0  0  0
  6  7  1  0  0  0  0
  7  8  1  0  0  0  0
  7 37  1  0  0  0  0
  7 38  1  0  0  0  0
  8  9  1  0  0  0  0
  8 39  1  0  0  0  0
  8 40  1  0  0  0  0
  9 10  1  0  0  0  0
  9 27  1  0  0  0  0
 10 15  1  0  0  0  0
 10 11  2  0  0  0  0
 11 12  1  0  0  0  0
 12 13  2  0  0  0  0
 12 41  1  0  0  0  0
 13 14  1  0  0  0  0
 14 18  1  0  0  0  0
 14 15  2  0  0  0  0
 15 16  1  0  0  0  0
 16 17  2  0  0  0  0
 17 18  1  0  0  0  0
 17 42  1  0  0  0  0
 18 19  1  0  0  0  0
 19 20  1  0  0  0  0
 19 43  1  0  0  0  0
 19 44  1  0  0  0  0
 20 26  1  0  0  0  0
 20 21  1  0  0  0  0
 20 22  1  0  0  0  0
 21 45  1  0  0  0  0
 22 23  1  0  0  0  0
 22 46  1  0  0  0  0
 22 47  1  0  0  0  0
 23 24  1  0  0  0  0
 23 48  1  0  0  0  0
 23 49  1  0  0  0  0
 24 25  1  0  0  0  0
 25 26  1  0  0  0  0
 25 50  1  0  0  0  0
 25 51  1  0  0  0  0
 26 52  1  0  0  0  0
 26 53  1  0  0  0  0
 27 28  1  0  0  0  0
 27 54  1  0  0  0  0
 28 55  1  0  0  0  0
 28 56  1  0  0  0  0
M  CHG  1   2   1
M  END
> <s_m_source_file>
AV-unprocessed.smi

> <i_m_source_file_index>
244

> <i_lp_mmshare_version>
43012

> <i_f3d_flags>
0

> <s_epik_input>
W0NIMl0xW0NIMl1OKFtDSDNdKVtDSDJdW0NAQEhdKFtDQEhdMTIpTihbQ0gyXVtDSDJdTzIpYyhuW2NIXW4zKWMoYzM0KW5bY0hdbjRbQ0gyXUM1KFtPSF0pW0NIMl1bQ0gyXU9bQ0gyXVtDSDJdNQ==

> <s_epik_cmdline>
J2VwaWtfcHl0aG9uJywgJy1waCcsICc3LjAnLCAnLXRuJywgJzgnLCAnLW1hJywgJzIwMCcsICctbWV0YWxfYmluZGluZycsICctaW1hZScsICc8aW5maWxlLm1hZT4nLCAnLW9tYWUnLCAnPG91dGZpbGUubWFlPic=

> <r_lp_tautomer_probability>
1

> <r_epik_Ionization_Penalty>
0.0136215

> <r_epik_Ionization_Penalty_Charging>
0.0131385

> <r_epik_Ionization_Penalty_Neutral>
0.000483022

> <r_epik_State_Penalty>
0.0104001

> <r_epik_Charging_Adjusted_Penalty>
0.0235387

> <i_epik_Tot_Q>
1

> <i_epik_Tot_abs_Q>
1

> <r_epik_Metal_State_Penalty>
0.0104469

> <b_epik_Metal_Only>
0

> <s_lp_Force_Field>
OPLS_2005

> <r_lp_Energy>
48.7962

> <b_lp_Chiralities_Consistent>
1

> <s_lp_Variant>
AV-unprocessed.smi:244-4

> <Gold.Version>
5.8.1

> <Gold.Id.Protein>
6NUR|6NUR_protein|mol2

> <Gold.PLP.Fitness>
43.5463

> <Gold.PLP.PLP>
-42.2822

> <Gold.PLP.part.hbond>
-2.6221

> <Gold.PLP.part.metal>
0.0000

> <Gold.PLP.part.buried>
-6.9196

> <Gold.PLP.part.nonpolar>
-35.2065

> <Gold.PLP.part.repulsive>
0.9801

> <Gold.PLP.ligand.clash>
0.0000

> <Gold.PLP.ligand.torsion>
1.2318

> <Gold.PLP.Chemscore.Hbond>
1.0000

> <Gold.PLP.Chemscore.CHOScore>
0.1970

> <Gold.PLP.Chemscore.Metal>
0.0000

> <Gold.Chemscore.Hbonds>
donor molecule, donor type, donor heavy atom, donor atom, acceptor molecule, acceptor atom, score
      L1  C    17    42       P1 11000  1.00

> <Gold.PLP.Chemscore.Internal.Correction>
0.1366

> <Gold.Rescore>
     Score         DG    S(hbond)    S(metal)    S(lipo)     H(rot)  DE(clash)    DE(int)     intcor
     11.59     -15.18       0.95        0.00     101.56       2.09       1.52       2.07       ----

> <Gold.Chemscore.Fitness>
11.5860

> <Gold.Chemscore.DG>
-15.1786

> <Gold.Chemscore.ZeroCoef>
-5.4800

> <Gold.Chemscore.Hbond>
0.9489

> <Gold.Chemscore.Metal>
0.0000

> <Gold.Chemscore.Lipo>
101.5587

> <Gold.Chemscore.Internal_Hbond>
0.0000

> <Gold.Chemscore.DEClash>
1.5177

> <Gold.Chemscore.DEInternal>
2.0749

> <Gold.Chemscore.Rot>
2.0911

> <Gold.Chemscore.Internal.Correction>
   9.000000E+99

> <Gold.Chemscore.Hbond.Weighted>
-3.1694

> <Gold.Chemscore.Metal.Weighted>
-0.0000

> <Gold.Chemscore.Lipo.Weighted>
-11.8824

> <Gold.Chemscore.Internal_Hbond.Weighted>
0.0000

> <Gold.Chemscore.DEClash.Weighted>
1.5177

> <Gold.Chemscore.DEInternal.Weighted>
2.0749

> <Gold.Chemscore.Rot.Weighted>
5.3531

> <Gold.Chemscore.Internal.Correction.Weighted>
   9.000000E+99

> <Gold.Protein.RotatedTorsions>
[ 6907 6896 6895 6894 ] final   64.35 input  -60.11 | X-H torsion
[ 7974 7965 7964 7962 ] final  101.85 input  175.53 | X-H torsion
[ 8008 7997 7996 7995 ] final  168.48 input   59.86 | X-H torsion
[ 10167 10162 10161 10158 ] final -141.61 input  -65.29 | X-H torsion
[ 10718 10713 10712 10709 ] final  -92.58 input   66.30 | X-H torsion
[ 10763 10752 10751 10750 ] final -152.61 input  -60.55 | X-H torsion
[ 11005 11000 10999 10996 ] final -133.08 input  -57.11 | X-H torsion

> <Gold.Protein.ActiveResidues>
 VAL166  LYS551  ARG553  GLY616  TRP617  ASP618  TYR619  PRO620  LYS621  CYS622 
 ASP623  PHE694  ASN695  SER759  ASP760  ASP761  ALA762  ILE779  LEU786  VAL792 
 PHE793  MET794  SER795  GLU796  ALA797  LYS798  CYS799  TRP800  GLU811  SER814 

> <Gold.Protein.RotatedAtoms>
  152.4325  134.5751  159.9931 H   0  0  0  0  0  0  0  0  0  0  0  0  # atno 6907 bound_to 6896
  151.5870  133.3365  159.3028 H   0  0  0  0  0  0  0  0  0  0  0  0  # atno 6908 bound_to 6896
  150.8219  134.7466  159.6844 H   0  0  0  0  0  0  0  0  0  0  0  0  # atno 6909 bound_to 6896
  145.3669  139.2406  143.3476 H   0  0  0  0  0  0  0  0  0  0  0  0  # atno 7974 bound_to 7965
  156.1543  140.1589  156.8718 H   0  0  0  0  0  0  0  0  0  0  0  0  # atno 8008 bound_to 7997
  154.5100  140.0803  156.8007 H   0  0  0  0  0  0  0  0  0  0  0  0  # atno 8009 bound_to 7997
  155.3834  140.3406  155.4250 H   0  0  0  0  0  0  0  0  0  0  0  0  # atno 8010 bound_to 7997
  139.8168  143.7627  152.2665 H   0  0  0  0  0  0  0  0  0  0  0  0  # atno 10167 bound_to 10162
  156.0004  130.4993  150.5647 H   0  0  0  0  0  0  0  0  0  0  0  0  # atno 10718 bound_to 10713
  154.7982  135.3232  154.7614 H   0  0  0  0  0  0  0  0  0  0  0  0  # atno 10763 bound_to 10752
  153.8288  135.6881  153.4821 H   0  0  0  0  0  0  0  0  0  0  0  0  # atno 10764 bound_to 10752
  153.1685  135.4632  154.9813 H   0  0  0  0  0  0  0  0  0  0  0  0  # atno 10765 bound_to 10752
  140.9113  134.1564  157.4387 H   0  0  0  0  0  0  0  0  0  0  0  0  # atno 11005 bound_to 11000
  146.2903  140.4313  142.8742 LP  0  0  0  0  0  0  0  0  0  0  0  0  # atno 17320 bound_to 7965
  144.8605  140.7133  143.6110 LP  0  0  0  0  0  0  0  0  0  0  0  0  # atno 17321 bound_to 7965
  139.7793  144.7450  151.0111 LP  0  0  0  0  0  0  0  0  0  0  0  0  # atno 17342 bound_to 10162
  140.7815  143.4559  151.0346 LP  0  0  0  0  0  0  0  0  0  0  0  0  # atno 17343 bound_to 10162
  157.3551  131.0740  151.1682 LP  0  0  0  0  0  0  0  0  0  0  0  0  # atno 17370 bound_to 10713
  157.2485  130.6603  149.5921 LP  0  0  0  0  0  0  0  0  0  0  0  0  # atno 17371 bound_to 10713
  139.8758  134.9937  156.5656 LP  0  0  0  0  0  0  0  0  0  0  0  0  # atno 17394 bound_to 11000
  140.8106  133.8432  155.8807 LP  0  0  0  0  0  0  0  0  0  0  0  0  # atno 17395 bound_to 11000

$$$$
