AV-unprocessed.smi:694|AV-procd|sdf|3380|dock5
  -GOLD-   22720 0363D 1   1.00000     0.00000
 Structure written by MMmdl.
 42 43  0  0  0  0  0  0  0  0  1 V2000
  151.3064  143.2570  157.1620 C   0  0  0  0  0  0  0  0  0  0  0  0
  151.4241  141.8022  157.1756 N   0  0  0  0  0  0  0  0  0  0  0  0
  152.2055  141.1479  158.2172 C   0  0  0  0  0  0  0  0  0  0  0  0
  150.6922  141.0298  156.2448 C   0  0  0  0  0  0  0  0  0  0  0  0
  149.4943  141.5125  155.6622 C   0  0  0  0  0  0  0  0  0  0  0  0
  148.8066  140.7056  154.7363 C   0  0  0  0  0  0  0  0  0  0  0  0
  149.3245  139.4395  154.4028 C   0  0  0  0  0  0  0  0  0  0  0  0
  148.5970  138.6488  153.4717 N   0  0  0  0  0  0  0  0  0  0  0  0
  147.2666  138.5503  153.3060 C   0  0  0  0  0  0  0  0  0  0  0  0
  146.4173  139.1509  153.9632 O   0  0  0  0  0  0  0  0  0  0  0  0
  146.9650  137.6855  152.3274 N   0  0  0  0  0  0  0  0  0  0  0  0
  145.6126  137.3386  151.9026 C   0  0  0  0  0  0  0  0  0  0  0  0
  145.4727  135.8407  151.5627 C   0  0  2  0  0  0  0  0  0  0  0  0
  144.0587  135.4251  151.1251 C   0  0  0  0  0  0  0  0  0  0  0  0
  143.8887  133.9553  151.5424 C   0  0  0  0  0  0  0  0  0  0  0  0
  145.1543  133.5769  152.3207 C   0  0  0  0  0  0  0  0  0  0  0  0
  145.7741  134.9099  152.7413 C   0  0  1  0  0  0  0  0  0  0  0  0
  147.1599  134.7791  152.9818 O   0  0  0  0  0  0  0  0  0  0  0  0
  150.5182  139.0335  155.0444 C   0  0  0  0  0  0  0  0  0  0  0  0
  151.1798  139.8042  155.9332 N   0  0  0  0  0  0  0  0  0  0  0  0
  150.2758  143.5590  157.3513 H   0  0  0  0  0  0  0  0  0  0  0  0
  151.6137  143.6583  156.1956 H   0  0  0  0  0  0  0  0  0  0  0  0
  151.9345  143.7147  157.9263 H   0  0  0  0  0  0  0  0  0  0  0  0
  152.9938  140.5365  157.7775 H   0  0  0  0  0  0  0  0  0  0  0  0
  151.5693  140.5105  158.8317 H   0  0  0  0  0  0  0  0  0  0  0  0
  152.6791  141.8768  158.8747 H   0  0  0  0  0  0  0  0  0  0  0  0
  149.0893  142.4828  155.9058 H   0  0  0  0  0  0  0  0  0  0  0  0
  147.8915  141.0613  154.2857 H   0  0  0  0  0  0  0  0  0  0  0  0
  149.1589  138.0433  152.8915 H   0  0  0  0  0  0  0  0  0  0  0  0
  147.7249  137.2321  151.8415 H   0  0  0  0  0  0  0  0  0  0  0  0
  144.8997  137.6194  152.6796 H   0  0  0  0  0  0  0  0  0  0  0  0
  145.3685  137.9446  151.0297 H   0  0  0  0  0  0  0  0  0  0  0  0
  146.1583  135.5898  150.7508 H   0  0  0  0  0  0  0  0  0  0  0  0
  143.3092  136.0321  151.6349 H   0  0  0  0  0  0  0  0  0  0  0  0
  143.9135  135.5654  150.0534 H   0  0  0  0  0  0  0  0  0  0  0  0
  143.0060  133.8474  152.1737 H   0  0  0  0  0  0  0  0  0  0  0  0
  143.7523  133.3038  150.6786 H   0  0  0  0  0  0  0  0  0  0  0  0
  144.9470  132.9251  153.1700 H   0  0  0  0  0  0  0  0  0  0  0  0
  145.8348  133.0430  151.6554 H   0  0  0  0  0  0  0  0  0  0  0  0
  145.2816  135.2746  153.6440 H   0  0  0  0  0  0  0  0  0  0  0  0
  147.6052  135.5110  152.5831 H   0  0  0  0  0  0  0  0  0  0  0  0
  150.9646  138.0672  154.8733 H   0  0  0  0  0  0  0  0  0  0  0  0
  1  2  1  0  0  0  0
  1 21  1  0  0  0  0
  1 22  1  0  0  0  0
  1 23  1  0  0  0  0
  2  3  1  0  0  0  0
  2  4  1  0  0  0  0
  3 24  1  0  0  0  0
  3 25  1  0  0  0  0
  3 26  1  0  0  0  0
  4 20  1  0  0  0  0
  4  5  2  0  0  0  0
  5  6  1  0  0  0  0
  5 27  1  0  0  0  0
  6  7  2  0  0  0  0
  6 28  1  0  0  0  0
  7  8  1  0  0  0  0
  7 19  1  0  0  0  0
  8  9  1  0  0  0  0
  8 29  1  0  0  0  0
  9 10  2  0  0  0  0
  9 11  1  0  0  0  0
 11 12  1  0  0  0  0
 11 30  1  0  0  0  0
 12 13  1  0  0  0  0
 12 31  1  0  0  0  0
 12 32  1  0  0  0  0
 13 17  1  0  0  0  0
 13 14  1  0  0  0  0
 13 33  1  0  0  0  0
 14 15  1  0  0  0  0
 14 34  1  0  0  0  0
 14 35  1  0  0  0  0
 15 16  1  0  0  0  0
 15 36  1  0  0  0  0
 15 37  1  0  0  0  0
 16 17  1  0  0  0  0
 16 38  1  0  0  0  0
 16 39  1  0  0  0  0
 17 18  1  0  0  0  0
 17 40  1  0  0  0  0
 18 41  1  0  0  0  0
 19 20  2  0  0  0  0
 19 42  1  0  0  0  0
M  END
> <s_m_source_file>
AV-unprocessed.smi

> <i_m_source_file_index>
694

> <i_lp_mmshare_version>
43012

> <i_f3d_flags>
0

> <s_epik_input>
W0NIM11OKFtDSDNdKWMxW2NIXVtjSF1jKFtjSF1uMSlbTkhdQyg9TylbTkhdW0NIMl1bQ0BASF0yW0NIMl1bQ0gyXVtDSDJdW0NASF0yW09IXQ==

> <s_epik_cmdline>
J2VwaWtfcHl0aG9uJywgJy1waCcsICc3LjAnLCAnLXRuJywgJzgnLCAnLW1hJywgJzIwMCcsICctbWV0YWxfYmluZGluZycsICctaW1hZScsICc8aW5maWxlLm1hZT4nLCAnLW9tYWUnLCAnPG91dGZpbGUubWFlPic=

> <r_lp_tautomer_probability>
1

> <r_epik_Ionization_Penalty>
0.60335

> <r_epik_Ionization_Penalty_Charging>
0

> <r_epik_Ionization_Penalty_Neutral>
0.60335

> <r_epik_State_Penalty>
0.616805

> <r_epik_Charging_Adjusted_Penalty>
0.616805

> <i_epik_Tot_Q>
0

> <i_epik_Tot_abs_Q>
0

> <r_epik_Metal_State_Penalty>
0.301709

> <b_epik_Metal_Only>
0

> <s_lp_Force_Field>
OPLS_2005

> <r_lp_Energy>
26.6001

> <b_lp_Chiralities_Consistent>
1

> <s_lp_Variant>
AV-unprocessed.smi:694-5

> <Gold.Version>
5.8.1

> <Gold.Id.Protein>
6NUR|6NUR_protein|mol2

> <Gold.PLP.Fitness>
40.8575

> <Gold.PLP.PLP>
-34.0321

> <Gold.PLP.part.hbond>
-3.5969

> <Gold.PLP.part.metal>
0.0000

> <Gold.PLP.part.buried>
-3.1421

> <Gold.PLP.part.nonpolar>
-29.0625

> <Gold.PLP.part.repulsive>
0.2910

> <Gold.PLP.ligand.clash>
0.0000

> <Gold.PLP.ligand.torsion>
0.7278

> <Gold.PLP.Chemscore.Hbond>
2.7533

> <Gold.PLP.Chemscore.CHOScore>
0.0000

> <Gold.PLP.Chemscore.Metal>
0.0000

> <Gold.Chemscore.Hbonds>
donor molecule, donor type, donor heavy atom, donor atom, acceptor molecule, acceptor atom, score
      L1  H     8    29       P1  7948  0.74
      L1  H    11    30       P1  7948  1.00
      L1  H    18    41       P1  7948  1.00

> <Gold.PLP.Chemscore.Internal.Correction>
0.0211

> <Gold.Rescore>
     Score         DG    S(hbond)    S(metal)    S(lipo)     H(rot)  DE(clash)    DE(int)     intcor
     15.45     -18.52       2.66        0.00      73.26       1.73       0.49       2.57       ----

> <Gold.Chemscore.Fitness>
15.4543

> <Gold.Chemscore.DG>
-18.5190

> <Gold.Chemscore.ZeroCoef>
-5.4800

> <Gold.Chemscore.Hbond>
2.6606

> <Gold.Chemscore.Metal>
0.0000

> <Gold.Chemscore.Lipo>
73.2553

> <Gold.Chemscore.Internal_Hbond>
0.0000

> <Gold.Chemscore.DEClash>
0.4944

> <Gold.Chemscore.DEInternal>
2.5703

> <Gold.Chemscore.Rot>
1.7259

> <Gold.Chemscore.Internal.Correction>
   9.000000E+99

> <Gold.Chemscore.Hbonds>
donor molecule, donor type, donor heavy atom, donor atom, acceptor molecule, acceptor atom, score
      L1  H     8    29       P1  7948  0.69
      L1  H    11    30       P1  7948  0.92
      L1  H    18    41       P1  7948  0.95

> <Gold.Chemscore.Hbond.Weighted>
-8.8865

> <Gold.Chemscore.Metal.Weighted>
-0.0000

> <Gold.Chemscore.Lipo.Weighted>
-8.5709

> <Gold.Chemscore.Internal_Hbond.Weighted>
0.0000

> <Gold.Chemscore.DEClash.Weighted>
0.4944

> <Gold.Chemscore.DEInternal.Weighted>
2.5703

> <Gold.Chemscore.Rot.Weighted>
4.4184

> <Gold.Chemscore.Internal.Correction.Weighted>
   9.000000E+99

> <Gold.Protein.RotatedTorsions>
[ 6907 6896 6895 6894 ] final  169.51 input  -60.11 | X-H torsion
[ 7974 7965 7964 7962 ] final  -57.44 input  175.53 | X-H torsion
[ 8008 7997 7996 7995 ] final  179.85 input   59.86 | X-H torsion
[ 10167 10162 10161 10158 ] final   51.09 input  -65.29 | X-H torsion
[ 10718 10713 10712 10709 ] final  -35.77 input   66.30 | X-H torsion
[ 10763 10752 10751 10750 ] final  122.36 input  -60.55 | X-H torsion
[ 11005 11000 10999 10996 ] final  119.18 input  -57.11 | X-H torsion

> <Gold.Protein.ActiveResidues>
 VAL166  LYS551  ARG553  GLY616  TRP617  ASP618  TYR619  PRO620  LYS621  CYS622 
 ASP623  PHE694  ASN695  SER759  ASP760  ASP761  ALA762  ILE779  LEU786  VAL792 
 PHE793  MET794  SER795  GLU796  ALA797  LYS798  CYS799  TRP800  GLU811  SER814 

> <Gold.Protein.RotatedAtoms>
  151.8307  133.3408  159.3612 H   0  0  0  0  0  0  0  0  0  0  0  0  # atno 6907 bound_to 6896
  150.7265  134.5486  159.5792 H   0  0  0  0  0  0  0  0  0  0  0  0  # atno 6908 bound_to 6896
  152.2938  134.7692  160.0423 H   0  0  0  0  0  0  0  0  0  0  0  0  # atno 6909 bound_to 6896
  145.8510  140.8352  142.9986 H   0  0  0  0  0  0  0  0  0  0  0  0  # atno 7974 bound_to 7965
  156.0387  140.1298  157.0180 H   0  0  0  0  0  0  0  0  0  0  0  0  # atno 8008 bound_to 7997
  154.4381  140.1035  156.6275 H   0  0  0  0  0  0  0  0  0  0  0  0  # atno 8009 bound_to 7997
  155.5700  140.3466  155.4515 H   0  0  0  0  0  0  0  0  0  0  0  0  # atno 8010 bound_to 7997
  140.2656  144.3324  150.6305 H   0  0  0  0  0  0  0  0  0  0  0  0  # atno 10167 bound_to 10162
  156.3347  130.4284  149.7841 H   0  0  0  0  0  0  0  0  0  0  0  0  # atno 10718 bound_to 10713
  153.6285  135.3400  155.3034 H   0  0  0  0  0  0  0  0  0  0  0  0  # atno 10763 bound_to 10752
  154.8585  135.4290  154.2131 H   0  0  0  0  0  0  0  0  0  0  0  0  # atno 10764 bound_to 10752
  153.3021  135.7025  153.7267 H   0  0  0  0  0  0  0  0  0  0  0  0  # atno 10765 bound_to 10752
  139.9137  134.9626  156.7617 H   0  0  0  0  0  0  0  0  0  0  0  0  # atno 11005 bound_to 11000
  144.6729  140.0953  143.7463 LP  0  0  0  0  0  0  0  0  0  0  0  0  # atno 17320 bound_to 7965
  145.9358  139.2636  143.1298 LP  0  0  0  0  0  0  0  0  0  0  0  0  # atno 17321 bound_to 7965
  140.5931  143.2167  151.7215 LP  0  0  0  0  0  0  0  0  0  0  0  0  # atno 17342 bound_to 10162
  139.5004  144.3909  152.0281 LP  0  0  0  0  0  0  0  0  0  0  0  0  # atno 17343 bound_to 10162
  156.5100  130.8168  151.3165 LP  0  0  0  0  0  0  0  0  0  0  0  0  # atno 17370 bound_to 10713
  157.7436  130.9917  150.2610 LP  0  0  0  0  0  0  0  0  0  0  0  0  # atno 17371 bound_to 10713
  140.6692  133.9575  155.7847 LP  0  0  0  0  0  0  0  0  0  0  0  0  # atno 17394 bound_to 11000
  141.0589  134.0375  157.3685 LP  0  0  0  0  0  0  0  0  0  0  0  0  # atno 17395 bound_to 11000

$$$$
