AV-unprocessed.smi:2340|AV-procd|sdf|9351|dock2
  -GOLD-   2272012573D 1   1.00000     0.00000
 Structure written by MMmdl.
 40 41  0  0  0  0  0  0  0  0  1 V2000
  148.9050  145.2724  160.9876 C   0  0  0  0  0  0  0  0  0  0  0  0
  150.1199  144.8028  160.2516 C   0  0  0  0  0  0  0  0  0  0  0  0
  150.4963  145.1372  158.9749 C   0  0  0  0  0  0  0  0  0  0  0  0
  151.9969  144.3772  158.5202 S   0  0  0  0  0  0  0  0  0  0  0  0
  152.0546  143.6100  160.1048 C   0  0  0  0  0  0  0  0  0  0  0  0
  153.1861  142.7419  160.5712 C   0  0  1  0  0  0  0  0  0  0  0  0
  153.0954  142.4292  162.0717 C   0  0  0  0  0  0  0  0  0  0  0  0
  153.3591  141.4650  159.7146 C   0  0  0  0  0  0  0  0  0  0  0  0
  152.0879  140.8852  159.2884 N   0  0  0  0  0  0  0  0  0  0  0  0
  151.9564  139.8433  158.4571 C   0  0  0  0  0  0  0  0  0  0  0  0
  152.8996  139.1785  158.0282 O   0  0  0  0  0  0  0  0  0  0  0  0
  150.6770  139.6461  158.1134 N   0  0  0  0  0  0  0  0  0  0  0  0
  150.2196  138.6922  157.1086 C   0  0  1  0  0  0  0  0  0  0  0  0
  148.7280  138.8048  156.8652 C   0  0  0  0  0  0  0  0  0  0  0  0
  148.5781  138.2735  155.4404 C   0  0  0  0  0  0  0  0  0  0  0  0
  149.8482  138.4277  154.8125 O   0  0  0  0  0  0  0  0  0  0  0  0
  150.7750  139.0164  155.7172 C   0  0  2  0  0  0  0  0  0  0  0  0
  152.1886  138.4841  155.4508 C   0  0  0  0  0  0  0  0  0  0  0  0
  151.0130  143.9306  160.8782 N   0  0  0  0  0  0  0  0  0  0  0  0
  148.3312  145.9865  160.3964 H   0  0  0  0  0  0  0  0  0  0  0  0
  149.1774  145.7631  161.9225 H   0  0  0  0  0  0  0  0  0  0  0  0
  148.2455  144.4391  161.2305 H   0  0  0  0  0  0  0  0  0  0  0  0
  149.9876  145.7876  158.2788 H   0  0  0  0  0  0  0  0  0  0  0  0
  154.0958  143.3310  160.4438 H   0  0  0  0  0  0  0  0  0  0  0  0
  153.0612  143.3458  162.6614 H   0  0  0  0  0  0  0  0  0  0  0  0
  153.9602  141.8546  162.4047 H   0  0  0  0  0  0  0  0  0  0  0  0
  152.2026  141.8485  162.3051 H   0  0  0  0  0  0  0  0  0  0  0  0
  153.9909  141.6644  158.8478 H   0  0  0  0  0  0  0  0  0  0  0  0
  153.8719  140.7024  160.3012 H   0  0  0  0  0  0  0  0  0  0  0  0
  151.2499  141.3638  159.5846 H   0  0  0  0  0  0  0  0  0  0  0  0
  149.9765  140.2470  158.5223 H   0  0  0  0  0  0  0  0  0  0  0  0
  150.4599  137.6640  157.3870 H   0  0  0  0  0  0  0  0  0  0  0  0
  148.1324  138.2494  157.5905 H   0  0  0  0  0  0  0  0  0  0  0  0
  148.4138  139.8493  156.8980 H   0  0  0  0  0  0  0  0  0  0  0  0
  148.3250  137.2129  155.4501 H   0  0  0  0  0  0  0  0  0  0  0  0
  147.7997  138.8009  154.8884 H   0  0  0  0  0  0  0  0  0  0  0  0
  150.7513  140.0952  155.5515 H   0  0  0  0  0  0  0  0  0  0  0  0
  152.9162  138.9445  156.1190 H   0  0  0  0  0  0  0  0  0  0  0  0
  152.4988  138.6998  154.4283 H   0  0  0  0  0  0  0  0  0  0  0  0
  152.2377  137.4045  155.5943 H   0  0  0  0  0  0  0  0  0  0  0  0
  1  2  1  0  0  0  0
  1 20  1  0  0  0  0
  1 21  1  0  0  0  0
  1 22  1  0  0  0  0
  2 19  1  0  0  0  0
  2  3  2  0  0  0  0
  3  4  1  0  0  0  0
  3 23  1  0  0  0  0
  4  5  1  0  0  0  0
  5  6  1  0  0  0  0
  5 19  2  0  0  0  0
  6  7  1  0  0  0  0
  6  8  1  0  0  0  0
  6 24  1  0  0  0  0
  7 25  1  0  0  0  0
  7 26  1  0  0  0  0
  7 27  1  0  0  0  0
  8  9  1  0  0  0  0
  8 28  1  0  0  0  0
  8 29  1  0  0  0  0
  9 10  1  0  0  0  0
  9 30  1  0  0  0  0
 10 11  2  0  0  0  0
 10 12  1  0  0  0  0
 12 13  1  0  0  0  0
 12 31  1  0  0  0  0
 13 17  1  0  0  0  0
 13 14  1  0  0  0  0
 13 32  1  0  0  0  0
 14 15  1  0  0  0  0
 14 33  1  0  0  0  0
 14 34  1  0  0  0  0
 15 16  1  0  0  0  0
 15 35  1  0  0  0  0
 15 36  1  0  0  0  0
 16 17  1  0  0  0  0
 17 18  1  0  0  0  0
 17 37  1  0  0  0  0
 18 38  1  0  0  0  0
 18 39  1  0  0  0  0
 18 40  1  0  0  0  0
M  END
> <s_m_source_file>
AV-unprocessed.smi

> <i_m_source_file_index>
2340

> <i_lp_mmshare_version>
43012

> <i_f3d_flags>
0

> <s_epik_input>
W0NIM11jMVtjSF1zYyhuMSlbQ0BIXShbQ0gzXSlbQ0gyXVtOSF1DKD1PKVtOSF1bQ0BASF0yW0NIMl1bQ0gyXU9bQ0BIXTJbQ0gzXQ==

> <s_epik_cmdline>
J2VwaWtfcHl0aG9uJywgJy1waCcsICc3LjAnLCAnLXRuJywgJzgnLCAnLW1hJywgJzIwMCcsICctbWV0YWxfYmluZGluZycsICctaW1hZScsICc8aW5maWxlLm1hZT4nLCAnLW9tYWUnLCAnPG91dGZpbGUubWFlPic=

> <r_epik_Ionization_Penalty>
0.00156622

> <r_epik_Ionization_Penalty_Charging>
0

> <r_epik_Ionization_Penalty_Neutral>
0.00156622

> <r_epik_State_Penalty>
0.00101902

> <r_epik_Charging_Adjusted_Penalty>
0.00101902

> <i_epik_Tot_Q>
0

> <i_epik_Tot_abs_Q>
0

> <r_epik_Metal_State_Penalty>
-0

> <b_epik_Metal_Only>
0

> <s_lp_Force_Field>
OPLS_2005

> <r_lp_Energy>
3.95119

> <b_lp_Chiralities_Consistent>
1

> <s_lp_Variant>
AV-unprocessed.smi:2340-8

> <Gold.Version>
5.8.1

> <Gold.Id.Protein>
6NUR|6NUR_protein|mol2

> <Gold.PLP.Fitness>
46.6615

> <Gold.PLP.PLP>
-41.5800

> <Gold.PLP.part.hbond>
-1.9704

> <Gold.PLP.part.metal>
0.0000

> <Gold.PLP.part.buried>
-4.1803

> <Gold.PLP.part.nonpolar>
-34.8990

> <Gold.PLP.part.repulsive>
0.5114

> <Gold.PLP.ligand.clash>
0.0000

> <Gold.PLP.ligand.torsion>
0.4195

> <Gold.PLP.Chemscore.Hbond>
1.0000

> <Gold.PLP.Chemscore.CHOScore>
0.9292

> <Gold.PLP.Chemscore.Metal>
0.0000

> <Gold.Chemscore.Hbonds>
donor molecule, donor type, donor heavy atom, donor atom, acceptor molecule, acceptor atom, score
      P1  H  7997  8010       L1    11  0.59
      L1  C     3    23       P1  8029  1.00

> <Gold.PLP.Chemscore.Internal.Correction>
0.1329

> <Gold.Rescore>
     Score         DG    S(hbond)    S(metal)    S(lipo)     H(rot)  DE(clash)    DE(int)     intcor
     16.06     -17.88       1.00        0.00     111.00       1.53       0.07       1.75       ----

> <Gold.Chemscore.Fitness>
16.0614

> <Gold.Chemscore.DG>
-17.8783

> <Gold.Chemscore.ZeroCoef>
-5.4800

> <Gold.Chemscore.Hbond>
0.9985

> <Gold.Chemscore.Metal>
0.0000

> <Gold.Chemscore.Lipo>
110.9978

> <Gold.Chemscore.Internal_Hbond>
0.0000

> <Gold.Chemscore.DEClash>
0.0664

> <Gold.Chemscore.DEInternal>
1.7505

> <Gold.Chemscore.Rot>
1.5325

> <Gold.Chemscore.Internal.Correction>
   9.000000E+99

> <Gold.Chemscore.Hbonds>
donor molecule, donor type, donor heavy atom, donor atom, acceptor molecule, acceptor atom, score
      P1  H  7997  8010       L1    11  0.57

> <Gold.Chemscore.Hbond.Weighted>
-3.3348

> <Gold.Chemscore.Metal.Weighted>
-0.0000

> <Gold.Chemscore.Lipo.Weighted>
-12.9867

> <Gold.Chemscore.Internal_Hbond.Weighted>
0.0000

> <Gold.Chemscore.DEClash.Weighted>
0.0664

> <Gold.Chemscore.DEInternal.Weighted>
1.7505

> <Gold.Chemscore.Rot.Weighted>
3.9233

> <Gold.Chemscore.Internal.Correction.Weighted>
   9.000000E+99

> <Gold.Protein.RotatedTorsions>
[ 6907 6896 6895 6894 ] final  -24.50 input  -60.11 | X-H torsion
[ 7974 7965 7964 7962 ] final   95.20 input  175.53 | X-H torsion
[ 8008 7997 7996 7995 ] final   57.85 input   59.86 | X-H torsion
[ 10167 10162 10161 10158 ] final  136.61 input  -65.29 | X-H torsion
[ 10718 10713 10712 10709 ] final  -62.52 input   66.30 | X-H torsion
[ 10763 10752 10751 10750 ] final -124.80 input  -60.55 | X-H torsion
[ 11005 11000 10999 10996 ] final   78.88 input  -57.11 | X-H torsion

> <Gold.Protein.ActiveResidues>
 VAL166  LYS551  ARG553  GLY616  TRP617  ASP618  TYR619  PRO620  LYS621  CYS622 
 ASP623  PHE694  ASN695  SER759  ASP760  ASP761  ALA762  ILE779  LEU786  VAL792 
 PHE793  MET794  SER795  GLU796  ALA797  LYS798  CYS799  TRP800  GLU811  SER814 

> <Gold.Protein.RotatedAtoms>
  151.1886  135.0393  159.8822 H   0  0  0  0  0  0  0  0  0  0  0  0  # atno 6907 bound_to 6896
  152.5441  134.0981  159.8316 H   0  0  0  0  0  0  0  0  0  0  0  0  # atno 6908 bound_to 6896
  151.1107  133.5128  159.2638 H   0  0  0  0  0  0  0  0  0  0  0  0  # atno 6909 bound_to 6896
  145.4554  139.2290  143.3016 H   0  0  0  0  0  0  0  0  0  0  0  0  # atno 7974 bound_to 7965
  155.5404  140.3484  155.4445 H   0  0  0  0  0  0  0  0  0  0  0  0  # atno 8008 bound_to 7997
  156.0655  140.1350  156.9917 H   0  0  0  0  0  0  0  0  0  0  0  0  # atno 8009 bound_to 7997
  154.4501  140.0976  156.6566 H   0  0  0  0  0  0  0  0  0  0  0  0  # atno 8010 bound_to 7997
  139.5174  144.6455  151.5451 H   0  0  0  0  0  0  0  0  0  0  0  0  # atno 10167 bound_to 10162
  156.0850  130.4210  150.1147 H   0  0  0  0  0  0  0  0  0  0  0  0  # atno 10718 bound_to 10713
  154.8728  135.4051  154.3164 H   0  0  0  0  0  0  0  0  0  0  0  0  # atno 10763 bound_to 10752
  153.3999  135.7017  153.6439 H   0  0  0  0  0  0  0  0  0  0  0  0  # atno 10764 bound_to 10752
  153.5186  135.3692  155.2592 H   0  0  0  0  0  0  0  0  0  0  0  0  # atno 10765 bound_to 10752
  139.9195  134.7798  156.1706 H   0  0  0  0  0  0  0  0  0  0  0  0  # atno 11005 bound_to 11000
  146.2481  140.5318  142.8905 LP  0  0  0  0  0  0  0  0  0  0  0  0  # atno 17320 bound_to 7965
  144.8035  140.6257  143.6462 LP  0  0  0  0  0  0  0  0  0  0  0  0  # atno 17321 bound_to 7965
  140.6239  143.9207  150.6548 LP  0  0  0  0  0  0  0  0  0  0  0  0  # atno 17342 bound_to 10162
  140.2489  143.3608  152.1423 LP  0  0  0  0  0  0  0  0  0  0  0  0  # atno 17343 bound_to 10162
  156.9170  130.9670  151.3554 LP  0  0  0  0  0  0  0  0  0  0  0  0  # atno 17370 bound_to 10713
  157.5981  130.8492  149.8759 LP  0  0  0  0  0  0  0  0  0  0  0  0  # atno 17371 bound_to 10713
  141.0702  133.6800  156.2125 LP  0  0  0  0  0  0  0  0  0  0  0  0  # atno 17394 bound_to 11000
  140.6519  134.5058  157.5578 LP  0  0  0  0  0  0  0  0  0  0  0  0  # atno 17395 bound_to 11000

$$$$
