#       Name:                AV-unprocessed.smi:1688
#       Creating user name   scv26
#       Creation time:       Fri Mar 27 07:53:07 2020


#       File generated by GOLD software.
#

@<TRIPOS>MOLECULE
AV-unprocessed.smi:1688
    38    40     1
SMALL
NO_CHARGES


@<TRIPOS>ATOM
      1 ****        -0.9928   0.6305   0.7645 O.3            1 S1                 0.0000
      2 ****        -0.5472  -0.7135   0.7219 C.3            1 S1                 0.0000
      3 ****         1.0026  -0.6964   0.6833 C.3            1 S1                 0.0000
      4 ****         1.5659  -0.0521  -0.4940 N.pl3          1 S1                 0.0000
      5 ****         1.9332  -0.6469  -1.6459 C.2            1 S1                 0.0000
      6 ****         2.4334   0.1294  -2.6026 N.2            1 S1                 0.0000
      7 ****         2.3939   1.3746  -1.9998 C.ar           1 S1                 0.0000
      8 ****         2.7892   2.6411  -2.4871 C.ar           1 S1                 0.0000
      9 ****         2.6583   3.7899  -1.6797 C.ar           1 S1                 0.0000
     10 ****         2.1323   3.6907  -0.3752 C.ar           1 S1                 0.0000
     11 ****         1.7319   2.4397   0.1321 C.ar           1 S1                 0.0000
     12 ****         1.8610   1.2955  -0.6775 C.ar           1 S1                 0.0000
     13 ****        -1.0332  -1.4212   2.0091 C.3            1 S1                 0.0000
     14 ****        -2.5636  -1.5715   2.0755 C.3            1 S1                 0.0000
     15 ****        -3.1068  -2.2836   0.8295 C.3            1 S1                 0.0000
     16 ****        -2.6881  -1.5441  -0.4485 C.3            1 S1                 0.0000
     17 ****        -1.1592  -1.3853  -0.5336 C.3            1 S1                 0.0000
     18 ****        -0.6302   1.0429   1.5334 H              1 S1                 0.0000
     19 ****         1.3994  -0.1959   1.5677 H              1 S1                 0.0000
     20 ****         1.3838  -1.7180   0.7196 H              1 S1                 0.0000
     21 ****         1.8216  -1.7114  -1.7920 H              1 S1                 0.0000
     22 ****         3.1945   2.7284  -3.4842 H              1 S1                 0.0000
     23 ****         2.9634   4.7524  -2.0631 H              1 S1                 0.0000
     24 ****         2.0350   4.5765   0.2353 H              1 S1                 0.0000
     25 ****         1.3268   2.3615   1.1299 H              1 S1                 0.0000
     26 ****        -0.5868  -2.4152   2.0613 H              1 S1                 0.0000
     27 ****        -0.6793  -0.8867   2.8916 H              1 S1                 0.0000
     28 ****        -2.8421  -2.1281   2.9709 H              1 S1                 0.0000
     29 ****        -3.0288  -0.5897   2.1685 H              1 S1                 0.0000
     30 ****        -2.7348  -3.3086   0.8002 H              1 S1                 0.0000
     31 ****        -4.1939  -2.3490   0.8821 H              1 S1                 0.0000
     32 ****        -3.0526  -2.0824  -1.3239 H              1 S1                 0.0000
     33 ****        -3.1620  -0.5621  -0.4742 H              1 S1                 0.0000
     34 ****        -0.9118  -0.8193  -1.4323 H              1 S1                 0.0000
     35 ****        -0.7126  -2.3717  -0.6642 H              1 S1                 0.0000
     36 ****        -1.9916   0.6533   0.8089 LP             1 S1                 0.0000
     37 ****        -0.6844   1.1141  -0.0546 LP             1 S1                 0.0000
     38 ****         2.7536  -0.1205  -3.5164 LP             1 S1                 0.0000
@<TRIPOS>BOND
    1    1    2 1     
    2    1   18 1     
    3    2   17 1     
    4    2    3 1     
    5    2   13 1     
    6    3    4 1     
    7    3   19 1     
    8    3   20 1     
    9    4   12 1     
   10    4    5 1     
   11    5    6 2     
   12    5   21 1     
   13    6    7 1     
   14    7   12 ar    
   15    7    8 ar    
   16    8    9 ar    
   17    8   22 1     
   18    9   10 ar    
   19    9   23 1     
   20   10   11 ar    
   21   10   24 1     
   22   11   12 ar    
   23   11   25 1     
   24   13   14 1     
   25   13   26 1     
   26   13   27 1     
   27   14   15 1     
   28   14   28 1     
   29   14   29 1     
   30   15   16 1     
   31   15   30 1     
   32   15   31 1     
   33   16   17 1     
   34   16   32 1     
   35   16   33 1     
   36   17   34 1     
   37   17   35 1     
   38    1   36 1     
   39    1   37 1     
   40    6   38 1     
@<TRIPOS>SUBSTRUCTURE
      1 S1             1
@<TRIPOS>SET
LONE_PAIRS      STATIC     ATOMS    <user>   **** ""
3 36 37 38
DONOR_HYDROGENS      STATIC     ATOMS    <user>   **** ""
1 18
ATOM$BLUE        STATIC     ATOMS    COLORGROUP SYSTEM
3 36 37 38
ATOM$RED        STATIC     ATOMS    COLORGROUP SYSTEM
1 18
