AV-unprocessed.smi:980|AV-procd|sdf|4312|dock10
  -GOLD-   22720 2223D 1   1.00000     0.00000
 Structure written by MMmdl.
 44 45  0  0  0  0  0  0  0  0  1 V2000
  152.2697  145.1280  158.5123 C   0  0  0  0  0  0  0  0  0  0  0  0
  151.5486  144.0856  159.3935 C   0  0  0  0  0  0  0  0  0  0  0  0
  151.3142  144.7162  160.7804 C   0  0  0  0  0  0  0  0  0  0  0  0
  150.1959  143.7572  158.7310 C   0  0  0  0  0  0  0  0  0  0  0  0
  152.3745  142.8218  159.5326 C   0  0  0  0  0  0  0  0  0  0  0  0
  153.6083  142.6743  160.1252 C   0  0  0  0  0  0  0  0  0  0  0  0
  154.1945  141.0364  160.0370 S   0  0  0  0  0  0  0  0  0  0  0  0
  152.7162  140.5870  159.2015 C   0  0  0  0  0  0  0  0  0  0  0  0
  152.4455  139.2075  158.7030 C   0  0  0  0  0  0  0  0  0  0  0  0
  153.7035  138.3240  158.7228 C   0  0  0  0  0  0  0  0  0  0  0  0
  154.1120  137.9901  160.0821 N   0  0  0  0  0  0  0  0  0  0  0  0
  154.1586  136.7502  160.5933 C   0  0  0  0  0  0  0  0  0  0  0  0
  153.8410  135.7452  159.9565 O   0  0  0  0  0  0  0  0  0  0  0  0
  154.6441  136.6264  162.0439 C   0  0  1  0  0  0  0  0  0  0  0  0
  153.8065  137.5125  162.9940 C   0  0  0  0  0  0  0  0  0  0  0  0
  154.1003  137.2203  164.4553 C   0  0  0  0  0  0  0  0  0  0  0  0
  154.7353  136.1123  164.8746 C   0  0  0  0  0  0  0  0  0  0  0  0
  155.2249  135.0235  163.9361 C   0  0  0  0  0  0  0  0  0  0  0  0
  154.6275  135.1604  162.5227 C   0  0  0  0  0  0  0  0  0  0  0  0
  151.8889  141.6163  159.0081 N   0  0  0  0  0  0  0  0  0  0  0  0
  151.6792  146.0394  158.4116 H   0  0  0  0  0  0  0  0  0  0  0  0
  152.4491  144.7471  157.5061 H   0  0  0  0  0  0  0  0  0  0  0  0
  153.2331  145.4130  158.9369 H   0  0  0  0  0  0  0  0  0  0  0  0
  152.2582  144.9598  161.2694 H   0  0  0  0  0  0  0  0  0  0  0  0
  150.7666  144.0433  161.4414 H   0  0  0  0  0  0  0  0  0  0  0  0
  150.7350  145.6371  160.7058 H   0  0  0  0  0  0  0  0  0  0  0  0
  149.5865  144.6527  158.6051 H   0  0  0  0  0  0  0  0  0  0  0  0
  149.6161  143.0526  159.3282 H   0  0  0  0  0  0  0  0  0  0  0  0
  150.3357  143.3135  157.7445 H   0  0  0  0  0  0  0  0  0  0  0  0
  154.2153  143.4279  160.6040 H   0  0  0  0  0  0  0  0  0  0  0  0
  151.6652  138.7632  159.3219 H   0  0  0  0  0  0  0  0  0  0  0  0
  152.0410  139.2764  157.6923 H   0  0  0  0  0  0  0  0  0  0  0  0
  153.5387  137.4112  158.1476 H   0  0  0  0  0  0  0  0  0  0  0  0
  154.5309  138.8479  158.2435 H   0  0  0  0  0  0  0  0  0  0  0  0
  154.3920  138.7577  160.6752 H   0  0  0  0  0  0  0  0  0  0  0  0
  155.6787  136.9728  162.0860 H   0  0  0  0  0  0  0  0  0  0  0  0
  154.0204  138.5644  162.8008 H   0  0  0  0  0  0  0  0  0  0  0  0
  152.7371  137.3710  162.8306 H   0  0  0  0  0  0  0  0  0  0  0  0
  153.7620  137.9503  165.1760 H   0  0  0  0  0  0  0  0  0  0  0  0
  154.9280  135.9700  165.9279 H   0  0  0  0  0  0  0  0  0  0  0  0
  156.3128  135.0801  163.8922 H   0  0  0  0  0  0  0  0  0  0  0  0
  154.9735  134.0482  164.3533 H   0  0  0  0  0  0  0  0  0  0  0  0
  153.5999  134.7929  162.5342 H   0  0  0  0  0  0  0  0  0  0  0  0
  155.1748  134.5193  161.8300 H   0  0  0  0  0  0  0  0  0  0  0  0
  1  2  1  0  0  0  0
  1 21  1  0  0  0  0
  1 22  1  0  0  0  0
  1 23  1  0  0  0  0
  2  3  1  0  0  0  0
  2  4  1  0  0  0  0
  2  5  1  0  0  0  0
  3 24  1  0  0  0  0
  3 25  1  0  0  0  0
  3 26  1  0  0  0  0
  4 27  1  0  0  0  0
  4 28  1  0  0  0  0
  4 29  1  0  0  0  0
  5 20  1  0  0  0  0
  5  6  2  0  0  0  0
  6  7  1  0  0  0  0
  6 30  1  0  0  0  0
  7  8  1  0  0  0  0
  8  9  1  0  0  0  0
  8 20  2  0  0  0  0
  9 10  1  0  0  0  0
  9 31  1  0  0  0  0
  9 32  1  0  0  0  0
 10 11  1  0  0  0  0
 10 33  1  0  0  0  0
 10 34  1  0  0  0  0
 11 12  1  0  0  0  0
 11 35  1  0  0  0  0
 12 13  2  0  0  0  0
 12 14  1  0  0  0  0
 14 19  1  0  0  0  0
 14 15  1  0  0  0  0
 14 36  1  0  0  0  0
 15 16  1  0  0  0  0
 15 37  1  0  0  0  0
 15 38  1  0  0  0  0
 16 17  2  0  0  0  0
 16 39  1  0  0  0  0
 17 18  1  0  0  0  0
 17 40  1  0  0  0  0
 18 19  1  0  0  0  0
 18 41  1  0  0  0  0
 18 42  1  0  0  0  0
 19 43  1  0  0  0  0
 19 44  1  0  0  0  0
M  END
> <s_m_source_file>
AV-unprocessed.smi

> <i_m_source_file_index>
980

> <i_lp_mmshare_version>
43012

> <i_f3d_flags>
0

> <s_epik_input>
W0NIM11DKFtDSDNdKShbQ0gzXSljMVtjSF1zYyhuMSlbQ0gyXVtDSDJdW05IXUMoPU8pW0NAQEhdMltDSDJdW0NIXT1bQ0hdW0NIMl1bQ0gyXTI=

> <s_epik_cmdline>
J2VwaWtfcHl0aG9uJywgJy1waCcsICc3LjAnLCAnLXRuJywgJzgnLCAnLW1hJywgJzIwMCcsICctbWV0YWxfYmluZGluZycsICctaW1hZScsICc8aW5maWxlLm1hZT4nLCAnLW9tYWUnLCAnPG91dGZpbGUubWFlPic=

> <r_epik_Ionization_Penalty>
0.000809238

> <r_epik_Ionization_Penalty_Charging>
0

> <r_epik_Ionization_Penalty_Neutral>
0.000809238

> <r_epik_State_Penalty>
0.000520038

> <r_epik_Charging_Adjusted_Penalty>
0.000520038

> <i_epik_Tot_Q>
0

> <i_epik_Tot_abs_Q>
0

> <r_epik_Metal_State_Penalty>
-0

> <b_epik_Metal_Only>
0

> <s_lp_Force_Field>
OPLS_2005

> <r_lp_Energy>
-0.741004

> <b_lp_Chiralities_Consistent>
1

> <s_lp_Variant>
AV-unprocessed.smi:980-2

> <Gold.Version>
5.8.1

> <Gold.Id.Protein>
6NUR|6NUR_protein|mol2

> <Gold.PLP.Fitness>
46.5992

> <Gold.PLP.PLP>
-44.1221

> <Gold.PLP.part.hbond>
-1.0000

> <Gold.PLP.part.metal>
0.0000

> <Gold.PLP.part.buried>
-3.4328

> <Gold.PLP.part.nonpolar>
-40.0070

> <Gold.PLP.part.repulsive>
0.0466

> <Gold.PLP.ligand.clash>
0.0000

> <Gold.PLP.ligand.torsion>
0.2777

> <Gold.PLP.Chemscore.Hbond>
1.0000

> <Gold.PLP.Chemscore.CHOScore>
0.0000

> <Gold.PLP.Chemscore.Metal>
0.0000

> <Gold.Chemscore.Hbonds>
donor molecule, donor type, donor heavy atom, donor atom, acceptor molecule, acceptor atom, score
      P1  H  6896  6909       L1    13  1.00

> <Gold.PLP.Chemscore.Internal.Correction>
0.0324

> <Gold.Rescore>
     Score         DG    S(hbond)    S(metal)    S(lipo)     H(rot)  DE(clash)    DE(int)     intcor
     21.82     -22.08       0.99        0.00     144.50       1.41       0.07       0.18       ----

> <Gold.Chemscore.Fitness>
21.8231

> <Gold.Chemscore.DG>
-22.0787

> <Gold.Chemscore.ZeroCoef>
-5.4800

> <Gold.Chemscore.Hbond>
0.9882

> <Gold.Chemscore.Metal>
0.0000

> <Gold.Chemscore.Lipo>
144.5025

> <Gold.Chemscore.Internal_Hbond>
0.0000

> <Gold.Chemscore.DEClash>
0.0714

> <Gold.Chemscore.DEInternal>
0.1841

> <Gold.Chemscore.Rot>
1.4097

> <Gold.Chemscore.Internal.Correction>
   9.000000E+99

> <Gold.Chemscore.Hbonds>
donor molecule, donor type, donor heavy atom, donor atom, acceptor molecule, acceptor atom, score
      P1  H  6896  6909       L1    13  1.00

> <Gold.Chemscore.Hbond.Weighted>
-3.3006

> <Gold.Chemscore.Metal.Weighted>
-0.0000

> <Gold.Chemscore.Lipo.Weighted>
-16.9068

> <Gold.Chemscore.Internal_Hbond.Weighted>
0.0000

> <Gold.Chemscore.DEClash.Weighted>
0.0714

> <Gold.Chemscore.DEInternal.Weighted>
0.1841

> <Gold.Chemscore.Rot.Weighted>
3.6087

> <Gold.Chemscore.Internal.Correction.Weighted>
   9.000000E+99

> <Gold.Protein.RotatedTorsions>
[ 6907 6896 6895 6894 ] final  179.27 input  -60.11 | X-H torsion
[ 7974 7965 7964 7962 ] final -120.94 input  175.53 | X-H torsion
[ 8008 7997 7996 7995 ] final  161.72 input   59.86 | X-H torsion
[ 10167 10162 10161 10158 ] final   17.46 input  -65.29 | X-H torsion
[ 10718 10713 10712 10709 ] final  -56.05 input   66.30 | X-H torsion
[ 10763 10752 10751 10750 ] final   63.15 input  -60.55 | X-H torsion
[ 11005 11000 10999 10996 ] final -114.62 input  -57.11 | X-H torsion

> <Gold.Protein.ActiveResidues>
 VAL166  LYS551  ARG553  GLY616  TRP617  ASP618  TYR619  PRO620  LYS621  CYS622 
 ASP623  PHE694  ASN695  SER759  ASP760  ASP761  ALA762  ILE779  LEU786  VAL792 
 PHE793  MET794  SER795  GLU796  ALA797  LYS798  CYS799  TRP800  GLU811  SER814 

> <Gold.Protein.RotatedAtoms>
  151.6744  133.3313  159.3203 H   0  0  0  0  0  0  0  0  0  0  0  0  # atno 6907 bound_to 6896
  150.7852  134.6835  159.6466 H   0  0  0  0  0  0  0  0  0  0  0  0  # atno 6908 bound_to 6896
  152.3920  134.6429  160.0156 H   0  0  0  0  0  0  0  0  0  0  0  0  # atno 6909 bound_to 6896
  145.0458  140.8180  143.4239 H   0  0  0  0  0  0  0  0  0  0  0  0  # atno 7974 bound_to 7965
  156.2083  140.1769  156.7752 H   0  0  0  0  0  0  0  0  0  0  0  0  # atno 8008 bound_to 7997
  154.5686  140.0686  156.8959 H   0  0  0  0  0  0  0  0  0  0  0  0  # atno 8009 bound_to 7997
  155.2715  140.3343  155.4267 H   0  0  0  0  0  0  0  0  0  0  0  0  # atno 8010 bound_to 7997
  140.5724  143.9136  150.6723 H   0  0  0  0  0  0  0  0  0  0  0  0  # atno 10167 bound_to 10162
  156.1319  130.4159  150.0253 H   0  0  0  0  0  0  0  0  0  0  0  0  # atno 10718 bound_to 10713
  153.0007  135.5439  154.6307 H   0  0  0  0  0  0  0  0  0  0  0  0  # atno 10763 bound_to 10752
  154.5585  135.2832  155.0944 H   0  0  0  0  0  0  0  0  0  0  0  0  # atno 10764 bound_to 10752
  154.2156  135.6459  153.5181 H   0  0  0  0  0  0  0  0  0  0  0  0  # atno 10765 bound_to 10752
  141.0540  133.9642  157.2786 H   0  0  0  0  0  0  0  0  0  0  0  0  # atno 11005 bound_to 11000
  145.1590  139.2469  143.5401 LP  0  0  0  0  0  0  0  0  0  0  0  0  # atno 17320 bound_to 7965
  146.3513  140.1312  142.8597 LP  0  0  0  0  0  0  0  0  0  0  0  0  # atno 17321 bound_to 7965
  140.2614  143.3521  152.1319 LP  0  0  0  0  0  0  0  0  0  0  0  0  # atno 17342 bound_to 10162
  139.5125  144.6917  151.5741 LP  0  0  0  0  0  0  0  0  0  0  0  0  # atno 17343 bound_to 10162
  156.8162  130.9342  151.3642 LP  0  0  0  0  0  0  0  0  0  0  0  0  # atno 17370 bound_to 10713
  157.6496  130.8873  149.9607 LP  0  0  0  0  0  0  0  0  0  0  0  0  # atno 17371 bound_to 10713
  139.9374  135.0195  156.8601 LP  0  0  0  0  0  0  0  0  0  0  0  0  # atno 17394 bound_to 11000
  140.6000  134.0181  155.7533 LP  0  0  0  0  0  0  0  0  0  0  0  0  # atno 17395 bound_to 11000

$$$$
