AV-unprocessed.smi:199|AV-procd|sdf|1574|dock2
  -GOLD-   2262019453D 1   1.00000     0.00000
 Structure written by MMmdl.
 51 55  0  0  0  0  0  0  0  0  1 V2000
  144.7562  136.7913  162.1084 C   0  0  0  0  0  0  0  0  0  0  0  0
  145.6418  135.7457  161.4077 C   0  0  2  0  0  0  0  0  0  0  0  0
  145.2692  134.4740  161.9424 O   0  0  0  0  0  0  0  0  0  0  0  0
  146.4016  133.8008  162.4754 C   0  0  0  0  0  0  0  0  0  0  0  0
  147.3784  134.9181  162.8094 C   0  0  0  0  0  0  0  0  0  0  0  0
  147.1651  135.8862  161.6518 C   0  0  2  0  0  0  0  0  0  0  0  0
  147.5346  137.1897  162.0660 O   0  0  0  0  0  0  0  0  0  0  0  0
  147.9708  135.5309  160.3731 C   0  0  0  0  0  0  0  0  0  0  0  0
  148.2660  136.6693  159.5159 N   0  0  0  0  0  0  0  0  0  0  0  0
  147.3548  137.4641  158.8587 C   0  0  0  0  0  0  0  0  0  0  0  0
  147.8699  138.4309  158.1503 N   0  0  0  0  0  0  0  0  0  0  0  0
  149.2411  138.3043  158.3405 C   0  0  0  0  0  0  0  0  0  0  0  0
  150.3835  139.0172  157.8741 C   0  0  0  0  0  0  0  0  0  0  0  0
  150.3135  140.0852  157.0352 N   0  0  0  0  0  0  0  0  0  0  0  0
  151.5106  140.7683  156.5706 C   0  0  2  0  0  0  0  0  0  0  0  0
  150.9241  142.0085  155.8741 C   0  0  0  0  0  0  0  0  0  0  0  0
  149.6241  141.4357  155.2833 C   0  0  0  0  0  0  0  0  0  0  0  0
  149.7205  139.9602  155.7116 C   0  0  1  0  0  0  0  0  0  0  0  0
  150.8051  139.2698  154.8458 C   0  0  2  0  0  0  0  0  0  0  0  0
  150.7109  137.7320  154.8243 C   0  0  0  0  0  0  0  0  0  0  0  0
  151.7648  137.1936  154.0550 O   0  0  0  0  0  0  0  0  0  0  0  0
  152.0890  139.8153  155.5043 C   0  0  0  0  0  0  0  0  0  0  0  0
  151.5995  138.6050  158.3214 N   0  0  0  0  0  0  0  0  0  0  0  0
  151.7010  137.5551  159.1406 C   0  0  0  0  0  0  0  0  0  0  0  0
  150.7291  136.7887  159.6367 N   0  0  0  0  0  0  0  0  0  0  0  0
  149.5039  137.2062  159.2091 C   0  0  0  0  0  0  0  0  0  0  0  0
  144.9441  137.7936  161.7227 H   0  0  0  0  0  0  0  0  0  0  0  0
  144.9304  136.8051  163.1848 H   0  0  0  0  0  0  0  0  0  0  0  0
  143.7001  136.5739  161.9471 H   0  0  0  0  0  0  0  0  0  0  0  0
  145.4188  135.7620  160.3400 H   0  0  0  0  0  0  0  0  0  0  0  0
  146.1357  133.2002  163.3453 H   0  0  0  0  0  0  0  0  0  0  0  0
  146.8161  133.1352  161.7173 H   0  0  0  0  0  0  0  0  0  0  0  0
  147.0770  135.3801  163.7509 H   0  0  0  0  0  0  0  0  0  0  0  0
  148.4031  134.5705  162.9329 H   0  0  0  0  0  0  0  0  0  0  0  0
  146.8692  137.7959  161.7781 H   0  0  0  0  0  0  0  0  0  0  0  0
  148.9172  135.0589  160.6387 H   0  0  0  0  0  0  0  0  0  0  0  0
  147.4266  134.7928  159.7819 H   0  0  0  0  0  0  0  0  0  0  0  0
  146.2884  137.2992  158.9168 H   0  0  0  0  0  0  0  0  0  0  0  0
  152.2240  141.0279  157.3537 H   0  0  0  0  0  0  0  0  0  0  0  0
  150.7025  142.7956  156.5960 H   0  0  0  0  0  0  0  0  0  0  0  0
  151.5914  142.4198  155.1159 H   0  0  0  0  0  0  0  0  0  0  0  0
  148.7561  141.9139  155.7389 H   0  0  0  0  0  0  0  0  0  0  0  0
  149.5518  141.5653  154.2030 H   0  0  0  0  0  0  0  0  0  0  0  0
  148.7524  139.4638  155.6701 H   0  0  0  0  0  0  0  0  0  0  0  0
  150.7271  139.6238  153.8164 H   0  0  0  0  0  0  0  0  0  0  0  0
  150.7543  137.3078  155.8267 H   0  0  0  0  0  0  0  0  0  0  0  0
  149.7649  137.4178  154.3826 H   0  0  0  0  0  0  0  0  0  0  0  0
  151.4743  137.1152  153.1590 H   0  0  0  0  0  0  0  0  0  0  0  0
  152.7424  140.3251  154.7957 H   0  0  0  0  0  0  0  0  0  0  0  0
  152.6678  139.0173  155.9714 H   0  0  0  0  0  0  0  0  0  0  0  0
  152.7043  137.2922  159.4416 H   0  0  0  0  0  0  0  0  0  0  0  0
  1  2  1  0  0  0  0
  1 27  1  0  0  0  0
  1 28  1  0  0  0  0
  1 29  1  0  0  0  0
  2  6  1  0  0  0  0
  2  3  1  0  0  0  0
  2 30  1  0  0  0  0
  3  4  1  0  0  0  0
  4  5  1  0  0  0  0
  4 31  1  0  0  0  0
  4 32  1  0  0  0  0
  5  6  1  0  0  0  0
  5 33  1  0  0  0  0
  5 34  1  0  0  0  0
  6  7  1  0  0  0  0
  6  8  1  0  0  0  0
  7 35  1  0  0  0  0
  8  9  1  0  0  0  0
  8 36  1  0  0  0  0
  8 37  1  0  0  0  0
  9 26  1  0  0  0  0
  9 10  1  0  0  0  0
 10 11  2  0  0  0  0
 10 38  1  0  0  0  0
 11 12  1  0  0  0  0
 12 26  2  0  0  0  0
 12 13  1  0  0  0  0
 13 14  1  0  0  0  0
 13 23  2  0  0  0  0
 14 18  1  0  0  0  0
 14 15  1  0  0  0  0
 15 22  1  0  0  0  0
 15 16  1  0  0  0  0
 15 39  1  0  0  0  0
 16 17  1  0  0  0  0
 16 40  1  0  0  0  0
 16 41  1  0  0  0  0
 17 18  1  0  0  0  0
 17 42  1  0  0  0  0
 17 43  1  0  0  0  0
 18 19  1  0  0  0  0
 18 44  1  0  0  0  0
 19 20  1  0  0  0  0
 19 22  1  0  0  0  0
 19 45  1  0  0  0  0
 20 21  1  0  0  0  0
 20 46  1  0  0  0  0
 20 47  1  0  0  0  0
 21 48  1  0  0  0  0
 22 49  1  0  0  0  0
 22 50  1  0  0  0  0
 23 24  1  0  0  0  0
 24 25  2  0  0  0  0
 24 51  1  0  0  0  0
 25 26  1  0  0  0  0
M  END
> <s_m_source_file>
AV-unprocessed.smi

> <i_m_source_file_index>
199

> <i_lp_mmshare_version>
43012

> <i_f3d_flags>
0

> <s_epik_input>
W0NIMl0xW0NIMl1PW0NAQEhdKFtDSDNdKVtDQEBdMShbT0hdKVtDSDJdbihbY0hdbjIpYyhjMjMpbltjSF1uYzNOKFtDQEBIXTQ1KVtDQEhdKFtDSDJdW0NIMl00KVtDQEhdKFtDSDJdNSlbQ0gyXVtPSF0=

> <s_epik_cmdline>
J2VwaWtfcHl0aG9uJywgJy1waCcsICc3LjAnLCAnLXRuJywgJzgnLCAnLW1hJywgJzIwMCcsICctbWV0YWxfYmluZGluZycsICctaW1hZScsICc8aW5maWxlLm1hZT4nLCAnLW9tYWUnLCAnPG91dGZpbGUubWFlPic=

> <r_lp_tautomer_probability>
1

> <r_epik_Ionization_Penalty>
0.00583903

> <r_epik_Ionization_Penalty_Charging>
0

> <r_epik_Ionization_Penalty_Neutral>
0.00583903

> <r_epik_State_Penalty>
-0

> <r_epik_Charging_Adjusted_Penalty>
0

> <i_epik_Tot_Q>
0

> <i_epik_Tot_abs_Q>
0

> <r_epik_Metal_State_Penalty>
-0

> <b_epik_Metal_Only>
0

> <s_lp_Force_Field>
OPLS_2005

> <r_lp_Energy>
84.8674

> <b_lp_Chiralities_Consistent>
1

> <s_lp_Variant>
AV-unprocessed.smi:199-15

> <Gold.Version>
5.8.1

> <Gold.Id.Protein>
6NUR|6NUR_protein|mol2

> <Gold.PLP.Fitness>
56.0012

> <Gold.PLP.PLP>
-45.2600

> <Gold.PLP.part.hbond>
-5.1971

> <Gold.PLP.part.metal>
0.0000

> <Gold.PLP.part.buried>
-5.9569

> <Gold.PLP.part.nonpolar>
-33.5926

> <Gold.PLP.part.repulsive>
0.0116

> <Gold.PLP.ligand.clash>
0.0000

> <Gold.PLP.ligand.torsion>
0.5435

> <Gold.PLP.Chemscore.Hbond>
3.9200

> <Gold.PLP.Chemscore.CHOScore>
0.0000

> <Gold.PLP.Chemscore.Metal>
0.0000

> <Gold.Chemscore.Hbonds>
donor molecule, donor type, donor heavy atom, donor atom, acceptor molecule, acceptor atom, score
      L1  H    21    48       P1  7949  0.99
      P1  H  6896  6909       L1    25  0.99
      P1  H  6931  6943       L1     7  0.93
      P1  H 10752 10763       L1    21  1.00

> <Gold.PLP.Chemscore.Internal.Correction>
0.0682

> <Gold.Rescore>
     Score         DG    S(hbond)    S(metal)    S(lipo)     H(rot)  DE(clash)    DE(int)     intcor
     16.63     -17.47       2.74        0.00      91.48       3.07       0.15       0.69       ----

> <Gold.Chemscore.Fitness>
16.6316

> <Gold.Chemscore.DG>
-17.4653

> <Gold.Chemscore.ZeroCoef>
-5.4800

> <Gold.Chemscore.Hbond>
2.7392

> <Gold.Chemscore.Metal>
0.0000

> <Gold.Chemscore.Lipo>
91.4802

> <Gold.Chemscore.Internal_Hbond>
0.0000

> <Gold.Chemscore.DEClash>
0.1465

> <Gold.Chemscore.DEInternal>
0.6871

> <Gold.Chemscore.Rot>
3.0729

> <Gold.Chemscore.Internal.Correction>
   9.000000E+99

> <Gold.Chemscore.Hbonds>
donor molecule, donor type, donor heavy atom, donor atom, acceptor molecule, acceptor atom, score
      L1  H    21    48       P1  7949  0.77
      P1  H  6896  6909       L1    25  0.86
      P1  H  6931  6943       L1     7  0.23
      P1  H 10752 10763       L1    21  0.29

> <Gold.Chemscore.Hbond.Weighted>
-9.1488

> <Gold.Chemscore.Metal.Weighted>
-0.0000

> <Gold.Chemscore.Lipo.Weighted>
-10.7032

> <Gold.Chemscore.Internal_Hbond.Weighted>
0.0000

> <Gold.Chemscore.DEClash.Weighted>
0.1465

> <Gold.Chemscore.DEInternal.Weighted>
0.6871

> <Gold.Chemscore.Rot.Weighted>
7.8667

> <Gold.Chemscore.Internal.Correction.Weighted>
   9.000000E+99

> <Gold.Protein.RotatedTorsions>
[ 6907 6896 6895 6894 ] final   77.51 input  -60.11 | X-H torsion
[ 7974 7965 7964 7962 ] final  -88.09 input  175.53 | X-H torsion
[ 8008 7997 7996 7995 ] final  105.38 input   59.86 | X-H torsion
[ 10167 10162 10161 10158 ] final   -7.14 input  -65.29 | X-H torsion
[ 10718 10713 10712 10709 ] final  -80.14 input   66.30 | X-H torsion
[ 10763 10752 10751 10750 ] final   35.74 input  -60.55 | X-H torsion
[ 11005 11000 10999 10996 ] final -153.67 input  -57.11 | X-H torsion

> <Gold.Protein.ActiveResidues>
 VAL166  LYS551  ARG553  GLY616  TRP617  ASP618  TYR619  PRO620  LYS621  CYS622 
 ASP623  PHE694  ASN695  SER759  ASP760  ASP761  ALA762  ILE779  LEU786  VAL792 
 PHE793  MET794  SER795  GLU796  ALA797  LYS798  CYS799  TRP800  GLU811  SER814 

> <Gold.Protein.RotatedAtoms>
  152.5120  134.3806  159.9349 H   0  0  0  0  0  0  0  0  0  0  0  0  # atno 6907 bound_to 6896
  151.3763  133.3831  159.2713 H   0  0  0  0  0  0  0  0  0  0  0  0  # atno 6908 bound_to 6896
  150.9539  134.8955  159.7747 H   0  0  0  0  0  0  0  0  0  0  0  0  # atno 6909 bound_to 6896
  145.4578  140.9561  143.1986 H   0  0  0  0  0  0  0  0  0  0  0  0  # atno 7974 bound_to 7965
  156.1654  140.3131  155.8879 H   0  0  0  0  0  0  0  0  0  0  0  0  # atno 8008 bound_to 7997
  155.3697  140.0481  157.3062 H   0  0  0  0  0  0  0  0  0  0  0  0  # atno 8009 bound_to 7997
  154.5187  140.2190  155.9027 H   0  0  0  0  0  0  0  0  0  0  0  0  # atno 8010 bound_to 7997
  140.7019  143.6115  150.8700 H   0  0  0  0  0  0  0  0  0  0  0  0  # atno 10167 bound_to 10162
  156.0076  130.4566  150.3755 H   0  0  0  0  0  0  0  0  0  0  0  0  # atno 10718 bound_to 10713
  153.0106  135.6325  154.1874 H   0  0  0  0  0  0  0  0  0  0  0  0  # atno 10763 bound_to 10752
  154.1616  135.2823  155.3109 H   0  0  0  0  0  0  0  0  0  0  0  0  # atno 10764 bound_to 10752
  154.5977  135.5597  153.7403 H   0  0  0  0  0  0  0  0  0  0  0  0  # atno 10765 bound_to 10752
  140.7056  134.3889  157.5204 H   0  0  0  0  0  0  0  0  0  0  0  0  # atno 11005 bound_to 11000
  144.8022  139.6120  143.7067 LP  0  0  0  0  0  0  0  0  0  0  0  0  # atno 17320 bound_to 7965
  146.2468  139.6115  142.9454 LP  0  0  0  0  0  0  0  0  0  0  0  0  # atno 17321 bound_to 7965
  139.9837  143.5923  152.2934 LP  0  0  0  0  0  0  0  0  0  0  0  0  # atno 17342 bound_to 10162
  139.6553  144.7662  151.2068 LP  0  0  0  0  0  0  0  0  0  0  0  0  # atno 17343 bound_to 10162
  157.1838  131.0398  151.2735 LP  0  0  0  0  0  0  0  0  0  0  0  0  # atno 17370 bound_to 10713
  157.4122  130.7391  149.6848 LP  0  0  0  0  0  0  0  0  0  0  0  0  # atno 17371 bound_to 10713
  139.8885  134.8855  156.2471 LP  0  0  0  0  0  0  0  0  0  0  0  0  # atno 17394 bound_to 11000
  141.0127  133.7086  156.1138 LP  0  0  0  0  0  0  0  0  0  0  0  0  # atno 17395 bound_to 11000

$$$$
