AV-unprocessed.smi:72|AV-procd|sdf|663|dock2
  -GOLD-   2262016563D 1   1.00000     0.00000
 Structure written by MMmdl.
 29 30  0  0  0  0  0  0  0  0  1 V2000
  145.3256  138.2386  152.6832 N   0  0  0  0  0  0  0  0  0  0  0  0
  146.3842  138.7623  153.1899 C   0  0  0  0  0  0  0  0  0  0  0  0
  147.5199  138.0520  153.6080 N   0  0  0  0  0  0  0  0  0  0  0  0
  148.5257  138.7145  154.0906 C   0  0  0  0  0  0  0  0  0  0  0  0
  148.5160  140.1649  154.2024 N   0  0  0  0  0  0  0  0  0  0  0  0
  149.6955  140.9152  154.7780 C   0  0  2  0  0  0  0  0  0  0  0  0
  150.8608  140.1706  154.5655 O   0  0  0  0  0  0  0  0  0  0  0  0
  151.5856  140.0704  155.7848 C   0  0  2  0  0  0  0  0  0  0  0  0
  152.5151  138.8431  155.7750 C   0  0  0  0  0  0  0  0  0  0  0  0
  153.2946  138.7537  156.9501 O   0  0  0  0  0  0  0  0  0  0  0  0
  150.5149  140.1273  156.8768 C   0  0  1  0  0  0  0  0  0  0  0  0
  151.0284  140.5169  158.1369 O   0  0  0  0  0  0  0  0  0  0  0  0
  149.5155  141.1229  156.2937 C   0  0  1  0  0  0  0  0  0  0  0  0
  149.8001  142.4622  156.6540 O   0  0  0  0  0  0  0  0  0  0  0  0
  147.3653  140.8943  153.8171 C   0  0  0  0  0  0  0  0  0  0  0  0
  147.2851  142.1170  153.9348 O   0  0  0  0  0  0  0  0  0  0  0  0
  146.3495  140.1578  153.3166 N   0  0  0  0  0  0  0  0  0  0  0  0
  149.7748  141.8456  154.2131 H   0  0  0  0  0  0  0  0  0  0  0  0
  152.2012  140.9699  155.8451 H   0  0  0  0  0  0  0  0  0  0  0  0
  150.0203  139.1611  156.9802 H   0  0  0  0  0  0  0  0  0  0  0  0
  148.4942  140.8963  156.6041 H   0  0  0  0  0  0  0  0  0  0  0  0
  144.6462  138.9525  152.4645 H   0  0  0  0  0  0  0  0  0  0  0  0
  149.4355  138.2287  154.4447 H   0  0  0  0  0  0  0  0  0  0  0  0
  151.9386  137.9264  155.6478 H   0  0  0  0  0  0  0  0  0  0  0  0
  153.1983  138.9098  154.9279 H   0  0  0  0  0  0  0  0  0  0  0  0
  152.7277  138.8754  157.6964 H   0  0  0  0  0  0  0  0  0  0  0  0
  151.8060  141.0350  157.9961 H   0  0  0  0  0  0  0  0  0  0  0  0
  149.2422  143.0339  156.1488 H   0  0  0  0  0  0  0  0  0  0  0  0
  145.5174  140.6500  153.0265 H   0  0  0  0  0  0  0  0  0  0  0  0
  1  2  2  0  0  0  0
  1 22  1  0  0  0  0
  2 17  1  0  0  0  0
  2  3  1  0  0  0  0
  3  4  2  0  0  0  0
  4  5  1  0  0  0  0
  4 23  1  0  0  0  0
  5  6  1  0  0  0  0
  5 15  1  0  0  0  0
  6 18  1  0  0  0  0
  6 13  1  0  0  0  0
  6  7  1  0  0  0  0
  7  8  1  0  0  0  0
  8 19  1  0  0  0  0
  8  9  1  0  0  0  0
  8 11  1  0  0  0  0
  9 10  1  0  0  0  0
  9 24  1  0  0  0  0
  9 25  1  0  0  0  0
 10 26  1  0  0  0  0
 11 20  1  0  0  0  0
 11 12  1  0  0  0  0
 11 13  1  0  0  0  0
 12 27  1  0  0  0  0
 13 21  1  0  0  0  0
 13 14  1  0  0  0  0
 14 28  1  0  0  0  0
 15 16  2  0  0  0  0
 15 17  1  0  0  0  0
 17 29  1  0  0  0  0
M  END
> <s_m_source_file>
AV-unprocessed.smi

> <i_m_source_file_index>
72

> <i_lp_mmshare_version>
43012

> <i_f3d_flags>
0

> <s_epik_input>
W05IMl1jMW5bY0hdbihjKD1PKW4xKVtDQEBIXTJPW0NASF0oW0NIMl1bT0hdKVtDQEBIXShbT0hdKVtDQEhdMltPSF0=

> <s_epik_cmdline>
J2VwaWtfcHl0aG9uJywgJy1waCcsICc3LjAnLCAnLXRuJywgJzgnLCAnLW1hJywgJzIwMCcsICctbWV0YWxfYmluZGluZycsICctaW1hZScsICc8aW5maWxlLm1hZT4nLCAnLW9tYWUnLCAnPG91dGZpbGUubWFlPic=

> <r_lp_tautomer_probability>
7.17554e-07

> <r_epik_Ionization_Penalty>
0.0066451

> <r_epik_Ionization_Penalty_Charging>
0.00663793

> <r_epik_Ionization_Penalty_Neutral>
7.17052e-06

> <r_epik_State_Penalty>
0.419231

> <r_epik_Charging_Adjusted_Penalty>
0.425868

> <i_epik_Tot_Q>
0

> <i_epik_Tot_abs_Q>
0

> <r_epik_Metal_State_Penalty>
1.44144

> <b_epik_Metal_Only>
0

> <s_epik_Chemistry_Notes>
This compound contains an acetal/aminal-like group ( X-CH(R)-Y where X, Y are N, S, or O) that may be acid/base labile, releasing an aldehyde.

> <s_lp_Force_Field>
OPLS_2005

> <r_lp_Energy>
44.3383

> <b_lp_Chiralities_Consistent>
1

> <s_lp_Variant>
AV-unprocessed.smi:72-1

> <Gold.Version>
5.8.1

> <Gold.Id.Protein>
6NUR|6NUR_protein|mol2

> <Gold.PLP.Fitness>
37.2435

> <Gold.PLP.PLP>
-24.0677

> <Gold.PLP.part.hbond>
-4.9747

> <Gold.PLP.part.metal>
0.0000

> <Gold.PLP.part.buried>
-4.2076

> <Gold.PLP.part.nonpolar>
-16.7565

> <Gold.PLP.part.repulsive>
0.4616

> <Gold.PLP.ligand.clash>
0.0000

> <Gold.PLP.ligand.torsion>
0.7236

> <Gold.PLP.Chemscore.Hbond>
4.8720

> <Gold.PLP.Chemscore.CHOScore>
0.0000

> <Gold.PLP.Chemscore.Metal>
0.0000

> <Gold.Chemscore.Hbonds>
donor molecule, donor type, donor heavy atom, donor atom, acceptor molecule, acceptor atom, score
      L1  H     1    22       P1 10175  1.00
      L1  H    14    28       P1  8028  0.93
      L1  H    17    29       P1 10175  0.93
      P1  H  7989  7998       L1     7  0.89
      P1  H  7997  8009       L1    10  0.75

> <Gold.PLP.Chemscore.Internal.Correction>
0.0070

> <Gold.Rescore>
     Score         DG    S(hbond)    S(metal)    S(lipo)     H(rot)  DE(clash)    DE(int)     intcor
      9.56     -10.28       3.73        0.00      23.35       4.06       0.00       0.72       ----

> <Gold.Chemscore.Fitness>
9.5592

> <Gold.Chemscore.DG>
-10.2777

> <Gold.Chemscore.ZeroCoef>
-5.4800

> <Gold.Chemscore.Hbond>
3.7304

> <Gold.Chemscore.Metal>
0.0000

> <Gold.Chemscore.Lipo>
23.3488

> <Gold.Chemscore.Internal_Hbond>
0.0000

> <Gold.Chemscore.DEClash>
0.0000

> <Gold.Chemscore.DEInternal>
0.7184

> <Gold.Chemscore.Rot>
4.0600

> <Gold.Chemscore.Internal.Correction>
   9.000000E+99

> <Gold.Chemscore.Hbonds>
donor molecule, donor type, donor heavy atom, donor atom, acceptor molecule, acceptor atom, score
      L1  H     1    22       P1 10175  1.00
      L1  H    14    28       P1  8028  0.91
      L1  H    17    29       P1 10175  0.66
      P1  H  7989  7998       L1     7  0.45
      P1  H  7997  8009       L1    10  0.09

> <Gold.Chemscore.Hbond.Weighted>
-12.4595

> <Gold.Chemscore.Metal.Weighted>
-0.0000

> <Gold.Chemscore.Lipo.Weighted>
-2.7318

> <Gold.Chemscore.Internal_Hbond.Weighted>
0.0000

> <Gold.Chemscore.DEClash.Weighted>
0.0000

> <Gold.Chemscore.DEInternal.Weighted>
0.7184

> <Gold.Chemscore.Rot.Weighted>
10.3936

> <Gold.Chemscore.Internal.Correction.Weighted>
   9.000000E+99

> <Gold.Protein.RotatedTorsions>
[ 6907 6896 6895 6894 ] final   32.51 input  -60.11 | X-H torsion
[ 7974 7965 7964 7962 ] final -126.64 input  175.53 | X-H torsion
[ 8008 7997 7996 7995 ] final -172.23 input   59.86 | X-H torsion
[ 10167 10162 10161 10158 ] final  160.33 input  -65.29 | X-H torsion
[ 10718 10713 10712 10709 ] final  148.65 input   66.30 | X-H torsion
[ 10763 10752 10751 10750 ] final  -85.90 input  -60.55 | X-H torsion
[ 11005 11000 10999 10996 ] final  -66.16 input  -57.11 | X-H torsion

> <Gold.Protein.ActiveResidues>
 VAL166  LYS551  ARG553  GLY616  TRP617  ASP618  TYR619  PRO620  LYS621  CYS622 
 ASP623  PHE694  ASN695  SER759  ASP760  ASP761  ALA762  ILE779  LEU786  VAL792 
 PHE793  MET794  SER795  GLU796  ALA797  LYS798  CYS799  TRP800  GLU811  SER814 

> <Gold.Protein.RotatedAtoms>
  152.0755  134.9505  160.0573 H   0  0  0  0  0  0  0  0  0  0  0  0  # atno 6907 bound_to 6896
  152.0814  133.4150  159.4511 H   0  0  0  0  0  0  0  0  0  0  0  0  # atno 6908 bound_to 6896
  150.6836  134.2897  159.4705 H   0  0  0  0  0  0  0  0  0  0  0  0  # atno 6909 bound_to 6896
  144.9852  140.7679  143.4588 H   0  0  0  0  0  0  0  0  0  0  0  0  # atno 7974 bound_to 7965
  155.9419  140.1110  157.1048 H   0  0  0  0  0  0  0  0  0  0  0  0  # atno 8008 bound_to 7997
  154.4091  140.1217  156.5004 H   0  0  0  0  0  0  0  0  0  0  0  0  # atno 8009 bound_to 7997
  155.6951  140.3472  155.4912 H   0  0  0  0  0  0  0  0  0  0  0  0  # atno 8010 bound_to 7997
  139.4839  144.4644  151.8661 H   0  0  0  0  0  0  0  0  0  0  0  0  # atno 10167 bound_to 10162
  157.3059  131.0879  151.1354 H   0  0  0  0  0  0  0  0  0  0  0  0  # atno 10718 bound_to 10713
  154.6164  135.5468  153.7528 H   0  0  0  0  0  0  0  0  0  0  0  0  # atno 10763 bound_to 10752
  153.0218  135.6402  154.1504 H   0  0  0  0  0  0  0  0  0  0  0  0  # atno 10764 bound_to 10752
  154.1440  135.2906  155.3133 H   0  0  0  0  0  0  0  0  0  0  0  0  # atno 10765 bound_to 10752
  141.1474  133.6694  156.6097 H   0  0  0  0  0  0  0  0  0  0  0  0  # atno 11005 bound_to 11000
  145.2364  139.2092  143.5015 LP  0  0  0  0  0  0  0  0  0  0  0  0  # atno 17320 bound_to 7965
  146.3418  140.2251  142.8592 LP  0  0  0  0  0  0  0  0  0  0  0  0  # atno 17321 bound_to 7965
  140.4109  144.2371  150.5889 LP  0  0  0  0  0  0  0  0  0  0  0  0  # atno 17342 bound_to 10162
  140.4967  143.2330  151.8738 LP  0  0  0  0  0  0  0  0  0  0  0  0  # atno 17343 bound_to 10162
  157.2694  130.6697  149.6012 LP  0  0  0  0  0  0  0  0  0  0  0  0  # atno 17370 bound_to 10713
  155.9674  130.4484  150.5616 LP  0  0  0  0  0  0  0  0  0  0  0  0  # atno 17371 bound_to 10713
  140.3624  134.7676  157.4543 LP  0  0  0  0  0  0  0  0  0  0  0  0  # atno 17394 bound_to 11000
  140.0774  134.5778  155.8576 LP  0  0  0  0  0  0  0  0  0  0  0  0  # atno 17395 bound_to 11000

$$$$
