AV-unprocessed.smi:1713|AV-procd|sdf|6905|dock1
  -GOLD-   22720 8113D 1   1.00000     0.00000
 Structure written by MMmdl.
 38 39  0  0  0  0  0  0  0  0  1 V2000
  151.4989  129.4492  154.6547 C   0  0  0  0  0  0  0  0  0  0  0  0
  151.5815  130.5285  155.7403 C   0  0  0  0  0  0  0  0  0  0  0  0
  150.8520  131.7228  155.3623 N   0  0  0  0  0  0  0  0  0  0  0  0
  150.0734  131.9276  154.2408 C   0  0  0  0  0  0  0  0  0  0  0  0
  149.6151  133.2070  154.3352 C   0  0  0  0  0  0  0  0  0  0  0  0
  148.7756  133.8377  153.3833 N   0  0  0  0  0  0  0  0  0  0  0  0
  147.6974  133.3148  152.7778 C   0  0  0  0  0  0  0  0  0  0  0  0
  147.2714  132.1732  152.9524 O   0  0  0  0  0  0  0  0  0  0  0  0
  147.1320  134.1988  151.9430 N   0  0  0  0  0  0  0  0  0  0  0  0
  145.9443  133.9522  151.1305 C   0  0  2  0  0  0  0  0  0  0  0  0
  144.7287  133.6321  152.0255 C   0  0  0  0  0  0  0  0  0  0  0  0
  143.4863  133.2915  151.1866 C   0  0  0  0  0  0  0  0  0  0  0  0
  143.7738  132.1361  150.2128 C   0  0  1  0  0  0  0  0  0  0  0  0
  142.6351  131.8978  149.4128 O   0  0  0  0  0  0  0  0  0  0  0  0
  144.9776  132.4595  149.3113 C   0  0  0  0  0  0  0  0  0  0  0  0
  146.2213  132.7968  150.1494 C   0  0  0  0  0  0  0  0  0  0  0  0
  150.1566  133.7257  155.5454 C   0  0  0  0  0  0  0  0  0  0  0  0
  150.9048  132.8197  156.1574 N   0  0  0  0  0  0  0  0  0  0  0  0
  152.0476  128.5560  154.9530 H   0  0  0  0  0  0  0  0  0  0  0  0
  151.9231  129.8022  153.7143 H   0  0  0  0  0  0  0  0  0  0  0  0
  150.4648  129.1578  154.4678 H   0  0  0  0  0  0  0  0  0  0  0  0
  151.1711  130.1525  156.6782 H   0  0  0  0  0  0  0  0  0  0  0  0
  152.6219  130.7940  155.9334 H   0  0  0  0  0  0  0  0  0  0  0  0
  149.9210  131.1642  153.4923 H   0  0  0  0  0  0  0  0  0  0  0  0
  149.0180  134.7876  153.1426 H   0  0  0  0  0  0  0  0  0  0  0  0
  147.5524  135.1133  151.8646 H   0  0  0  0  0  0  0  0  0  0  0  0
  145.7244  134.8468  150.5442 H   0  0  0  0  0  0  0  0  0  0  0  0
  144.9633  132.7922  152.6809 H   0  0  0  0  0  0  0  0  0  0  0  0
  144.5063  134.4782  152.6767 H   0  0  0  0  0  0  0  0  0  0  0  0
  142.6573  133.0297  151.8454 H   0  0  0  0  0  0  0  0  0  0  0  0
  143.1728  134.1763  150.6307 H   0  0  0  0  0  0  0  0  0  0  0  0
  143.9804  131.2279  150.7805 H   0  0  0  0  0  0  0  0  0  0  0  0
  142.0382  132.6232  149.5156 H   0  0  0  0  0  0  0  0  0  0  0  0
  145.1929  131.6149  148.6556 H   0  0  0  0  0  0  0  0  0  0  0  0
  144.7399  133.3036  148.6624 H   0  0  0  0  0  0  0  0  0  0  0  0
  147.0484  133.0581  149.4882 H   0  0  0  0  0  0  0  0  0  0  0  0
  146.5350  131.9094  150.7010 H   0  0  0  0  0  0  0  0  0  0  0  0
  150.0440  134.7004  155.9957 H   0  0  0  0  0  0  0  0  0  0  0  0
  1  2  1  0  0  0  0
  1 19  1  0  0  0  0
  1 20  1  0  0  0  0
  1 21  1  0  0  0  0
  2  3  1  0  0  0  0
  2 22  1  0  0  0  0
  2 23  1  0  0  0  0
  3 18  1  0  0  0  0
  3  4  1  0  0  0  0
  4  5  2  0  0  0  0
  4 24  1  0  0  0  0
  5  6  1  0  0  0  0
  5 17  1  0  0  0  0
  6  7  1  0  0  0  0
  6 25  1  0  0  0  0
  7  8  2  0  0  0  0
  7  9  1  0  0  0  0
  9 10  1  0  0  0  0
  9 26  1  0  0  0  0
 10 16  1  0  0  0  0
 10 11  1  0  0  0  0
 10 27  1  0  0  0  0
 11 12  1  0  0  0  0
 11 28  1  0  0  0  0
 11 29  1  0  0  0  0
 12 13  1  0  0  0  0
 12 30  1  0  0  0  0
 12 31  1  0  0  0  0
 13 14  1  0  0  0  0
 13 15  1  0  0  0  0
 13 32  1  0  0  0  0
 14 33  1  0  0  0  0
 15 16  1  0  0  0  0
 15 34  1  0  0  0  0
 15 35  1  0  0  0  0
 16 36  1  0  0  0  0
 16 37  1  0  0  0  0
 17 18  2  0  0  0  0
 17 38  1  0  0  0  0
M  END
> <s_m_source_file>
AV-unprocessed.smi

> <i_m_source_file_index>
1713

> <i_lp_mmshare_version>
43012

> <i_f3d_flags>
0

> <s_epik_input>
W0NIM11bQ0gyXW4xW2NIXWMoW2NIXW4xKVtOSF1DKD1PKVtOSF1bQ0BASF0yW0NIMl1bQ0gyXVtDQEBIXShbT0hdKVtDSDJdW0NIMl0y

> <s_epik_cmdline>
J2VwaWtfcHl0aG9uJywgJy1waCcsICc3LjAnLCAnLXRuJywgJzgnLCAnLW1hJywgJzIwMCcsICctbWV0YWxfYmluZGluZycsICctaW1hZScsICc8aW5maWxlLm1hZT4nLCAnLW9tYWUnLCAnPG91dGZpbGUubWFlPic=

> <r_lp_tautomer_probability>
1

> <r_epik_Ionization_Penalty>
0.000190859

> <r_epik_Ionization_Penalty_Charging>
0

> <r_epik_Ionization_Penalty_Neutral>
0.000190859

> <r_epik_State_Penalty>
-0

> <r_epik_Charging_Adjusted_Penalty>
0

> <i_epik_Tot_Q>
0

> <i_epik_Tot_abs_Q>
0

> <r_epik_Metal_State_Penalty>
-0

> <b_epik_Metal_Only>
0

> <s_lp_Force_Field>
OPLS_2005

> <r_lp_Energy>
11.7927

> <b_lp_Chiralities_Consistent>
1

> <s_lp_Variant>
AV-unprocessed.smi:1713-1

> <Gold.Version>
5.8.1

> <Gold.Id.Protein>
6NUR|6NUR_protein|mol2

> <Gold.PLP.Fitness>
45.1878

> <Gold.PLP.PLP>
-34.6810

> <Gold.PLP.part.hbond>
-4.5768

> <Gold.PLP.part.metal>
0.0000

> <Gold.PLP.part.buried>
-2.6355

> <Gold.PLP.part.nonpolar>
-27.6285

> <Gold.PLP.part.repulsive>
0.1421

> <Gold.PLP.ligand.clash>
0.0000

> <Gold.PLP.ligand.torsion>
0.3828

> <Gold.PLP.Chemscore.Hbond>
3.7553

> <Gold.PLP.Chemscore.CHOScore>
0.0000

> <Gold.PLP.Chemscore.Metal>
0.0000

> <Gold.Chemscore.Hbonds>
donor molecule, donor type, donor heavy atom, donor atom, acceptor molecule, acceptor atom, score
      L1  H     6    25       P1  7948  0.72
      L1  H     9    26       P1  7948  1.00
      L1  H    14    33       P1 10186  0.93
      P1  H 10785 10796       L1    14  0.85

> <Gold.PLP.Chemscore.Internal.Correction>
0.0066

> <Gold.Rescore>
     Score         DG    S(hbond)    S(metal)    S(lipo)     H(rot)  DE(clash)    DE(int)     intcor
     18.41     -20.30       3.43        0.00      65.66       1.69       0.01       1.88       ----

> <Gold.Chemscore.Fitness>
18.4142

> <Gold.Chemscore.DG>
-20.3038

> <Gold.Chemscore.ZeroCoef>
-5.4800

> <Gold.Chemscore.Hbond>
3.4300

> <Gold.Chemscore.Metal>
0.0000

> <Gold.Chemscore.Lipo>
65.6563

> <Gold.Chemscore.Internal_Hbond>
0.0000

> <Gold.Chemscore.DEClash>
0.0106

> <Gold.Chemscore.DEInternal>
1.8789

> <Gold.Chemscore.Rot>
1.6853

> <Gold.Chemscore.Internal.Correction>
   9.000000E+99

> <Gold.Chemscore.Hbonds>
donor molecule, donor type, donor heavy atom, donor atom, acceptor molecule, acceptor atom, score
      L1  H     6    25       P1  7948  0.09
      L1  H     9    26       P1  7948  0.85
      L1  H    14    33       P1 10186  0.89
      P1  H 10785 10796       L1    14  0.14

> <Gold.Chemscore.Hbond.Weighted>
-11.4564

> <Gold.Chemscore.Metal.Weighted>
-0.0000

> <Gold.Chemscore.Lipo.Weighted>
-7.6818

> <Gold.Chemscore.Internal_Hbond.Weighted>
0.0000

> <Gold.Chemscore.DEClash.Weighted>
0.0106

> <Gold.Chemscore.DEInternal.Weighted>
1.8789

> <Gold.Chemscore.Rot.Weighted>
4.3144

> <Gold.Chemscore.Internal.Correction.Weighted>
   9.000000E+99

> <Gold.Protein.RotatedTorsions>
[ 6907 6896 6895 6894 ] final    6.99 input  -60.11 | X-H torsion
[ 7974 7965 7964 7962 ] final   65.33 input  175.53 | X-H torsion
[ 8008 7997 7996 7995 ] final -174.11 input   59.86 | X-H torsion
[ 10167 10162 10161 10158 ] final -169.88 input  -65.29 | X-H torsion
[ 10718 10713 10712 10709 ] final  -14.08 input   66.30 | X-H torsion
[ 10763 10752 10751 10750 ] final  -93.78 input  -60.55 | X-H torsion
[ 11005 11000 10999 10996 ] final    4.02 input  -57.11 | X-H torsion

> <Gold.Protein.ActiveResidues>
 VAL166  LYS551  ARG553  GLY616  TRP617  ASP618  TYR619  PRO620  LYS621  CYS622 
 ASP623  PHE694  ASN695  SER759  ASP760  ASP761  ALA762  ILE779  LEU786  VAL792 
 PHE793  MET794  SER795  GLU796  ALA797  LYS798  CYS799  TRP800  GLU811  SER814 

> <Gold.Protein.RotatedAtoms>
  151.6826  135.0959  160.0218 H   0  0  0  0  0  0  0  0  0  0  0  0  # atno 6907 bound_to 6896
  152.3826  133.6563  159.6182 H   0  0  0  0  0  0  0  0  0  0  0  0  # atno 6908 bound_to 6896
  150.7759  133.9005  159.3381 H   0  0  0  0  0  0  0  0  0  0  0  0  # atno 6909 bound_to 6896
  145.8398  139.3188  143.0938 H   0  0  0  0  0  0  0  0  0  0  0  0  # atno 7974 bound_to 7965
  155.9659  140.1153  157.0855 H   0  0  0  0  0  0  0  0  0  0  0  0  # atno 8008 bound_to 7997
  154.4144  140.1172  156.5309 H   0  0  0  0  0  0  0  0  0  0  0  0  # atno 8009 bound_to 7997
  155.6659  140.3473  155.4802 H   0  0  0  0  0  0  0  0  0  0  0  0  # atno 8010 bound_to 7997
  139.5895  144.1244  152.1617 H   0  0  0  0  0  0  0  0  0  0  0  0  # atno 10167 bound_to 10162
  156.6210  130.4875  149.6165 H   0  0  0  0  0  0  0  0  0  0  0  0  # atno 10718 bound_to 10713
  154.6992  135.5182  153.8502 H   0  0  0  0  0  0  0  0  0  0  0  0  # atno 10763 bound_to 10752
  153.0690  135.6595  154.0298 H   0  0  0  0  0  0  0  0  0  0  0  0  # atno 10764 bound_to 10752
  154.0159  135.2998  155.3366 H   0  0  0  0  0  0  0  0  0  0  0  0  # atno 10765 bound_to 10752
  140.5866  133.9963  155.8070 H   0  0  0  0  0  0  0  0  0  0  0  0  # atno 11005 bound_to 11000
  145.9478  140.8931  143.0274 LP  0  0  0  0  0  0  0  0  0  0  0  0  # atno 17320 bound_to 7965
  144.6734  140.1638  143.7420 LP  0  0  0  0  0  0  0  0  0  0  0  0  # atno 17321 bound_to 7965
  140.0815  144.5696  150.7119 LP  0  0  0  0  0  0  0  0  0  0  0  0  # atno 17342 bound_to 10162
  140.7161  143.2546  151.4430 LP  0  0  0  0  0  0  0  0  0  0  0  0  # atno 17343 bound_to 10162
  156.2312  130.6795  151.1465 LP  0  0  0  0  0  0  0  0  0  0  0  0  # atno 17370 bound_to 10713
  157.7227  131.0670  150.6065 LP  0  0  0  0  0  0  0  0  0  0  0  0  # atno 17371 bound_to 10713
  141.0962  133.9839  157.3156 LP  0  0  0  0  0  0  0  0  0  0  0  0  # atno 17394 bound_to 11000
  139.9293  135.0200  156.8345 LP  0  0  0  0  0  0  0  0  0  0  0  0  # atno 17395 bound_to 11000

$$$$
