#       Name:                AV-unprocessed.smi:464
#       Creating user name   scv26
#       Creation time:       Thu Mar 26 23:04:41 2020


#       File generated by GOLD software.
#

@<TRIPOS>MOLECULE
AV-unprocessed.smi:464
    31    32     1
SMALL
NO_CHARGES


@<TRIPOS>ATOM
      1 ****        -4.7216   1.4049  -0.0167 O.2            1 S1                 0.0000
      2 ****        -3.5527   1.0254  -0.0128 C.2            1 S1                 0.0000
      3 ****        -3.3297  -0.3070  -0.0156 N.am           1 S1                 0.0000
      4 ****        -2.0374  -0.8353  -0.0095 C.2            1 S1                 0.0000
      5 ****        -0.9523  -0.0333  -0.0008 C.2            1 S1                 0.0000
      6 ****         0.3435  -0.5274   0.0088 N.pl3          1 S1                 0.0000
      7 ****         1.1222  -0.6993   1.2271 C.3            1 S1                 0.0000
      8 ****         2.3796   0.1871   1.1819 C.3            1 S1                 0.0000
      9 ****         3.1284  -0.1061   0.0052 O.3            1 S1                 0.0000
     10 ****         2.3821   0.1476  -1.1822 C.3            1 S1                 0.0000
     11 ****         1.1249  -0.7403  -1.2012 C.3            1 S1                 0.0000
     12 ****        -1.1784   1.4207  -0.0006 C.2            1 S1                 0.0000
     13 ****        -0.2200   2.1936   0.0036 O.2            1 S1                 0.0000
     14 ****        -2.4721   1.8650  -0.0060 N.pl3          1 S1                -1.0000
     15 ****        -4.1080  -0.9501  -0.0201 H              1 S1                 0.0000
     16 ****        -1.9983  -1.9144  -0.0103 H              1 S1                 0.0000
     17 ****         0.5182  -0.4503   2.1006 H              1 S1                 0.0000
     18 ****         1.4027  -1.7486   1.3242 H              1 S1                 0.0000
     19 ****         2.1129   1.2448   1.2020 H              1 S1                 0.0000
     20 ****         3.0033   0.0002   2.0561 H              1 S1                 0.0000
     21 ****         2.1147   1.2040  -1.2377 H              1 S1                 0.0000
     22 ****         3.0082  -0.0678  -2.0481 H              1 S1                 0.0000
     23 ****         1.4056  -1.7923  -1.2628 H              1 S1                 0.0000
     24 ****         0.5232  -0.5201  -2.0840 H              1 S1                 0.0000
     25 ****        -4.9297   2.3830  -0.0150 LP             1 S1                 0.0000
     26 ****        -5.4645   0.7356  -0.0217 LP             1 S1                 0.0000
     27 ****         3.3901  -1.0712   0.0216 LP             1 S1                 0.0000
     28 ****         3.9512   0.4622  -0.0035 LP             1 S1                 0.0000
     29 ****         0.7129   1.8333   0.0068 LP             1 S1                 0.0000
     30 ****        -0.3744   3.1816   0.0037 LP             1 S1                 0.0000
     31 ****        -2.6362   2.8514  -0.0050 LP             1 S1                 0.0000
@<TRIPOS>BOND
    1    1    2 2     
    2    2   14 1     
    3    2    3 am    
    4    3   15 1     
    5    3    4 1     
    6    4    5 2     
    7    4   16 1     
    8    5    6 1     
    9    5   12 1     
   10    6   11 1     
   11    6    7 1     
   12    7    8 1     
   13    7   17 1     
   14    7   18 1     
   15    8    9 1     
   16    8   19 1     
   17    8   20 1     
   18    9   10 1     
   19   10   11 1     
   20   10   21 1     
   21   10   22 1     
   22   11   23 1     
   23   11   24 1     
   24   12   13 2     
   25   12   14 1     
   26    1   25 1     
   27    1   26 1     
   28    9   27 1     
   29    9   28 1     
   30   13   29 1     
   31   13   30 1     
   32   14   31 1     
@<TRIPOS>SUBSTRUCTURE
      1 S1             1
@<TRIPOS>SET
LONE_PAIRS      STATIC     ATOMS    <user>   **** ""
7 25 26 27 28 29 30 31
DONOR_HYDROGENS      STATIC     ATOMS    <user>   **** ""
1 15
ATOM$BLUE        STATIC     ATOMS    COLORGROUP SYSTEM
7 25 26 27 28 29 30 31
ATOM$RED        STATIC     ATOMS    COLORGROUP SYSTEM
1 15
