AV-unprocessed.smi:353|AV-procd|sdf|2402|dock2
  -GOLD-   2262022333D 1   1.00000     0.00000
 Structure written by MMmdl.
 36 37  0  0  0  0  0  0  0  0  1 V2000
  146.6642  138.7531  151.7950 C   0  0  0  0  0  0  0  0  0  0  0  0
  146.8189  138.7008  153.3173 C   0  0  0  0  0  0  0  0  0  0  0  0
  148.2154  138.5941  153.7059 N   0  0  0  0  0  0  0  0  0  0  0  0
  148.9752  139.5134  154.4178 C   0  0  0  0  0  0  0  0  0  0  0  0
  148.4319  140.7761  154.8928 C   0  0  0  0  0  0  0  0  0  0  0  0
  149.1312  141.6317  155.5547 N   0  0  0  0  0  0  0  0  0  0  0  0
  150.4545  141.3577  155.8378 N   0  0  0  0  0  0  0  0  0  0  0  0
  151.1219  142.4008  156.6261 C   0  0  0  0  0  0  0  0  0  0  0  0
  151.6844  141.8427  157.9434 C   0  0  0  0  0  0  0  0  0  0  0  0
  151.8562  142.9058  158.8709 O   0  0  0  0  0  0  0  0  0  0  0  0
  152.5369  142.6511  160.0409 C   0  0  0  0  0  0  0  0  0  0  0  0
  152.3746  143.5808  161.0886 C   0  0  0  0  0  0  0  0  0  0  0  0
  153.0357  143.4029  162.3190 C   0  0  0  0  0  0  0  0  0  0  0  0
  153.8692  142.2861  162.5143 C   0  0  0  0  0  0  0  0  0  0  0  0
  154.6821  142.0660  164.0200 Cl  0  0  0  0  0  0  0  0  0  0  0  0
  154.0379  141.3486  161.4780 C   0  0  0  0  0  0  0  0  0  0  0  0
  153.3758  141.5267  160.2475 C   0  0  0  0  0  0  0  0  0  0  0  0
  151.1104  140.2195  155.4618 C   0  0  0  0  0  0  0  0  0  0  0  0
  152.2926  140.0143  155.7403 O   0  0  0  0  0  0  0  0  0  0  0  0
  150.2813  139.2685  154.7070 C   0  0  0  0  0  0  0  0  0  0  0  0
  151.0295  137.7941  154.1897 Cl  0  0  0  0  0  0  0  0  0  0  0  0
  145.6134  138.8321  151.5159 H   0  0  0  0  0  0  0  0  0  0  0  0
  147.0661  137.8544  151.3261 H   0  0  0  0  0  0  0  0  0  0  0  0
  147.1855  139.6137  151.3748 H   0  0  0  0  0  0  0  0  0  0  0  0
  146.3906  139.5988  153.7633 H   0  0  0  0  0  0  0  0  0  0  0  0
  146.2705  137.8469  153.7161 H   0  0  0  0  0  0  0  0  0  0  0  0
  148.6756  137.7397  153.4249 H   0  0  0  0  0  0  0  0  0  0  0  0
  147.3850  140.9659  154.6573 H   0  0  0  0  0  0  0  0  0  0  0  0
  151.9123  142.8926  156.0564 H   0  0  0  0  0  0  0  0  0  0  0  0
  150.4023  143.1892  156.8533 H   0  0  0  0  0  0  0  0  0  0  0  0
  150.9855  141.1125  158.3536 H   0  0  0  0  0  0  0  0  0  0  0  0
  152.6308  141.3329  157.7549 H   0  0  0  0  0  0  0  0  0  0  0  0
  151.7374  144.4413  160.9458 H   0  0  0  0  0  0  0  0  0  0  0  0
  152.9025  144.1253  163.1110 H   0  0  0  0  0  0  0  0  0  0  0  0
  154.6760  140.4898  161.6250 H   0  0  0  0  0  0  0  0  0  0  0  0
  153.5276  140.7854  159.4779 H   0  0  0  0  0  0  0  0  0  0  0  0
  1  2  1  0  0  0  0
  1 22  1  0  0  0  0
  1 23  1  0  0  0  0
  1 24  1  0  0  0  0
  2  3  1  0  0  0  0
  2 25  1  0  0  0  0
  2 26  1  0  0  0  0
  3  4  1  0  0  0  0
  3 27  1  0  0  0  0
  4 20  2  0  0  0  0
  4  5  1  0  0  0  0
  5  6  2  0  0  0  0
  5 28  1  0  0  0  0
  6  7  1  0  0  0  0
  7  8  1  0  0  0  0
  7 18  1  0  0  0  0
  8  9  1  0  0  0  0
  8 29  1  0  0  0  0
  8 30  1  0  0  0  0
  9 10  1  0  0  0  0
  9 31  1  0  0  0  0
  9 32  1  0  0  0  0
 10 11  1  0  0  0  0
 11 17  1  0  0  0  0
 11 12  2  0  0  0  0
 12 13  1  0  0  0  0
 12 33  1  0  0  0  0
 13 14  2  0  0  0  0
 13 34  1  0  0  0  0
 14 15  1  0  0  0  0
 14 16  1  0  0  0  0
 16 17  2  0  0  0  0
 16 35  1  0  0  0  0
 17 36  1  0  0  0  0
 18 19  2  0  0  0  0
 18 20  1  0  0  0  0
 20 21  1  0  0  0  0
M  END
> <s_m_source_file>
AV-unprocessed.smi

> <i_m_source_file_index>
353

> <i_lp_mmshare_version>
43012

> <i_f3d_flags>
0

> <s_epik_input>
W0NIM11bQ0gyXVtOSF1jMVtjSF1ubihjKD1PKWMxQ2wpW0NIMl1bQ0gyXU9jMltjSF1bY0hdYyhDbClbY0hdW2NIXTI=

> <s_epik_cmdline>
J2VwaWtfcHl0aG9uJywgJy1waCcsICc3LjAnLCAnLXRuJywgJzgnLCAnLW1hJywgJzIwMCcsICctbWV0YWxfYmluZGluZycsICctaW1hZScsICc8aW5maWxlLm1hZT4nLCAnLW9tYWUnLCAnPG91dGZpbGUubWFlPic=

> <r_lp_tautomer_probability>
1

> <r_epik_Ionization_Penalty>
1.47008e-05

> <r_epik_Ionization_Penalty_Charging>
1.08079e-09

> <r_epik_Ionization_Penalty_Neutral>
1.46998e-05

> <r_epik_State_Penalty>
-0

> <r_epik_Charging_Adjusted_Penalty>
1.08079e-09

> <i_epik_Tot_Q>
0

> <i_epik_Tot_abs_Q>
0

> <r_epik_Metal_State_Penalty>
-0

> <b_epik_Metal_Only>
0

> <s_lp_Force_Field>
OPLS_2005

> <r_lp_Energy>
29.5526

> <b_lp_Chiralities_Consistent>
1

> <s_lp_Variant>
AV-unprocessed.smi:353-1

> <Gold.Version>
5.8.1

> <Gold.Id.Protein>
6NUR|6NUR_protein|mol2

> <Gold.PLP.Fitness>
56.5149

> <Gold.PLP.PLP>
-52.3808

> <Gold.PLP.part.hbond>
-3.2727

> <Gold.PLP.part.metal>
0.0000

> <Gold.PLP.part.buried>
0.5122

> <Gold.PLP.part.nonpolar>
-49.1869

> <Gold.PLP.part.repulsive>
0.3998

> <Gold.PLP.ligand.clash>
0.0000

> <Gold.PLP.ligand.torsion>
0.3780

> <Gold.PLP.Chemscore.Hbond>
1.6199

> <Gold.PLP.Chemscore.CHOScore>
0.0000

> <Gold.PLP.Chemscore.Metal>
0.0000

> <Gold.Chemscore.Hbonds>
donor molecule, donor type, donor heavy atom, donor atom, acceptor molecule, acceptor atom, score
      L1  H     3    27       P1  7948  0.60
      P1  H  7997  8008       L1    19  0.80

> <Gold.PLP.Chemscore.Internal.Correction>
0.0303

> <Gold.Rescore>
     Score         DG    S(hbond)    S(metal)    S(lipo)     H(rot)  DE(clash)    DE(int)     intcor
     20.95     -22.95       1.76        0.00     134.85       1.64       0.31       1.69       ----

> <Gold.Chemscore.Fitness>
20.9452

> <Gold.Chemscore.DG>
-22.9456

> <Gold.Chemscore.ZeroCoef>
-5.4800

> <Gold.Chemscore.Hbond>
1.7611

> <Gold.Chemscore.Metal>
0.0000

> <Gold.Chemscore.Lipo>
134.8542

> <Gold.Chemscore.Internal_Hbond>
0.0000

> <Gold.Chemscore.DEClash>
0.3119

> <Gold.Chemscore.DEInternal>
1.6885

> <Gold.Chemscore.Rot>
1.6384

> <Gold.Chemscore.Internal.Correction>
   9.000000E+99

> <Gold.Chemscore.Hbonds>
donor molecule, donor type, donor heavy atom, donor atom, acceptor molecule, acceptor atom, score
      L1  H     3    27       P1  7948  0.59
      P1  H  7997  8008       L1    19  0.78

> <Gold.Chemscore.Hbond.Weighted>
-5.8820

> <Gold.Chemscore.Metal.Weighted>
-0.0000

> <Gold.Chemscore.Lipo.Weighted>
-15.7779

> <Gold.Chemscore.Internal_Hbond.Weighted>
0.0000

> <Gold.Chemscore.DEClash.Weighted>
0.3119

> <Gold.Chemscore.DEInternal.Weighted>
1.6885

> <Gold.Chemscore.Rot.Weighted>
4.1943

> <Gold.Chemscore.Internal.Correction.Weighted>
   9.000000E+99

> <Gold.Protein.RotatedTorsions>
[ 6907 6896 6895 6894 ] final   27.70 input  -60.11 | X-H torsion
[ 7974 7965 7964 7962 ] final  -74.47 input  175.53 | X-H torsion
[ 8008 7997 7996 7995 ] final  -37.34 input   59.86 | X-H torsion
[ 10167 10162 10161 10158 ] final   26.57 input  -65.29 | X-H torsion
[ 10718 10713 10712 10709 ] final  136.91 input   66.30 | X-H torsion
[ 10763 10752 10751 10750 ] final -172.32 input  -60.55 | X-H torsion
[ 11005 11000 10999 10996 ] final -156.92 input  -57.11 | X-H torsion

> <Gold.Protein.ActiveResidues>
 VAL166  LYS551  ARG553  GLY616  TRP617  ASP618  TYR619  PRO620  LYS621  CYS622 
 ASP623  PHE694  ASN695  SER759  ASP760  ASP761  ALA762  ILE779  LEU786  VAL792 
 PHE793  MET794  SER795  GLU796  ALA797  LYS798  CYS799  TRP800  GLU811  SER814 

> <Gold.Protein.RotatedAtoms>
  152.0062  134.9901  160.0566 H   0  0  0  0  0  0  0  0  0  0  0  0  # atno 6907 bound_to 6896
  152.1472  133.4495  159.4804 H   0  0  0  0  0  0  0  0  0  0  0  0  # atno 6908 bound_to 6896
  150.6871  134.2151  159.4417 H   0  0  0  0  0  0  0  0  0  0  0  0  # atno 6909 bound_to 6896
  145.6387  140.9317  143.1047 H   0  0  0  0  0  0  0  0  0  0  0  0  # atno 7974 bound_to 7965
  154.4055  140.1607  156.2521 H   0  0  0  0  0  0  0  0  0  0  0  0  # atno 8008 bound_to 7997
  155.9110  140.3427  155.6076 H   0  0  0  0  0  0  0  0  0  0  0  0  # atno 8009 bound_to 7997
  155.7336  140.0783  157.2268 H   0  0  0  0  0  0  0  0  0  0  0  0  # atno 8010 bound_to 7997
  140.5012  144.0312  150.6333 H   0  0  0  0  0  0  0  0  0  0  0  0  # atno 10167 bound_to 10162
  157.4417  131.1058  151.0135 H   0  0  0  0  0  0  0  0  0  0  0  0  # atno 10718 bound_to 10713
  154.6207  135.2875  155.0329 H   0  0  0  0  0  0  0  0  0  0  0  0  # atno 10763 bound_to 10752
  154.1526  135.6501  153.4971 H   0  0  0  0  0  0  0  0  0  0  0  0  # atno 10764 bound_to 10752
  153.0234  135.5359  154.6995 H   0  0  0  0  0  0  0  0  0  0  0  0  # atno 10765 bound_to 10752
  140.6703  134.4254  157.5232 H   0  0  0  0  0  0  0  0  0  0  0  0  # atno 11005 bound_to 11000
  144.7166  139.8177  143.7396 LP  0  0  0  0  0  0  0  0  0  0  0  0  # atno 17320 bound_to 7965
  146.1298  139.4331  143.0176 LP  0  0  0  0  0  0  0  0  0  0  0  0  # atno 17321 bound_to 7965
  140.3609  143.2909  152.0385 LP  0  0  0  0  0  0  0  0  0  0  0  0  # atno 17342 bound_to 10162
  139.4872  144.6304  151.7082 LP  0  0  0  0  0  0  0  0  0  0  0  0  # atno 17343 bound_to 10162
  157.0996  130.5976  149.5457 LP  0  0  0  0  0  0  0  0  0  0  0  0  # atno 17370 bound_to 10713
  155.9951  130.5017  150.7447 LP  0  0  0  0  0  0  0  0  0  0  0  0  # atno 17371 bound_to 10713
  139.8984  134.8615  156.2005 LP  0  0  0  0  0  0  0  0  0  0  0  0  # atno 17394 bound_to 11000
  141.0397  133.6944  156.1575 LP  0  0  0  0  0  0  0  0  0  0  0  0  # atno 17395 bound_to 11000

$$$$
