AV-unprocessed.smi:1043|AV-procd|sdf|4541|dock8
  -GOLD-   22720 2563D 1   1.00000     0.00000
 Structure written by MMmdl.
 34 35  0  0  0  0  0  0  0  0  2 V2000
  149.9069  135.6460  155.3145 C   0  0  0  0  0  0  0  0  0  0  0  0
  150.2608  137.0161  155.9389 C   0  0  0  0  0  0  0  0  0  0  0  0
  149.3493  137.2880  157.0610 N   0  0  0  0  0  0  0  0  0  0  0  0
  149.0991  136.5433  158.1510 C   0  0  0  0  0  0  0  0  0  0  0  0
  149.6625  135.4583  158.3099 O   0  0  0  0  0  0  0  0  0  0  0  0
  148.2151  137.1145  159.0003 N   0  5  0  0  0  0  0  0  0  0  0  0
  147.7999  136.4442  160.0876 C   0  0  0  0  0  0  0  0  0  0  0  0
  147.4229  137.0665  161.2159 N   0  0  0  0  0  0  0  0  0  0  0  0
  147.0346  136.1887  162.2192 N   0  0  0  0  0  0  0  0  0  0  0  0
  147.1388  134.9206  161.8226 C   0  0  0  0  0  0  0  0  0  0  0  0
  147.7201  134.6831  160.1885 S   0  0  0  0  0  0  0  0  0  0  0  0
  151.7585  137.0069  156.3631 C   0  0  0  0  0  0  0  0  0  0  0  0
  152.2431  138.0469  157.3984 C   0  0  0  0  0  0  0  0  0  0  0  0
  151.7102  139.4843  157.2698 C   0  0  0  0  0  0  0  0  0  0  0  0
  151.4965  139.9815  155.8339 C   0  0  0  0  0  0  0  0  0  0  0  0
  150.1342  139.5620  155.2589 C   0  0  0  0  0  0  0  0  0  0  0  0
  150.0318  138.0850  154.8375 C   0  0  0  0  0  0  0  0  0  0  0  0
  150.5092  135.4501  154.4268 H   0  0  0  0  0  0  0  0  0  0  0  0
  148.8589  135.6031  155.0150 H   0  0  0  0  0  0  0  0  0  0  0  0
  150.0801  134.8194  156.0036 H   0  0  0  0  0  0  0  0  0  0  0  0
  148.8501  138.1636  157.0078 H   0  0  0  0  0  0  0  0  0  0  0  0
  146.8737  134.1200  162.4967 H   0  0  0  0  0  0  0  0  0  0  0  0
  152.0123  136.0249  156.7649 H   0  0  0  0  0  0  0  0  0  0  0  0
  152.3744  137.0964  155.4676 H   0  0  0  0  0  0  0  0  0  0  0  0
  152.0146  137.6901  158.4033 H   0  0  0  0  0  0  0  0  0  0  0  0
  153.3322  138.0749  157.3503 H   0  0  0  0  0  0  0  0  0  0  0  0
  150.7791  139.5825  157.8294 H   0  0  0  0  0  0  0  0  0  0  0  0
  152.4134  140.1482  157.7737 H   0  0  0  0  0  0  0  0  0  0  0  0
  151.5261  141.0717  155.8499 H   0  0  0  0  0  0  0  0  0  0  0  0
  152.3142  139.6698  155.1834 H   0  0  0  0  0  0  0  0  0  0  0  0
  149.3393  139.8103  155.9631 H   0  0  0  0  0  0  0  0  0  0  0  0
  149.9368  140.1719  154.3772 H   0  0  0  0  0  0  0  0  0  0  0  0
  150.7219  137.9092  154.0112 H   0  0  0  0  0  0  0  0  0  0  0  0
  149.0373  137.9420  154.4120 H   0  0  0  0  0  0  0  0  0  0  0  0
  1  2  1  0  0  0  0
  1 18  1  0  0  0  0
  1 19  1  0  0  0  0
  1 20  1  0  0  0  0
  2 17  1  0  0  0  0
  2  3  1  0  0  0  0
  2 12  1  0  0  0  0
  3  4  1  0  0  0  0
  3 21  1  0  0  0  0
  4  5  2  0  0  0  0
  4  6  1  0  0  0  0
  6  7  1  0  0  0  0
  7 11  1  0  0  0  0
  7  8  2  0  0  0  0
  8  9  1  0  0  0  0
  9 10  2  0  0  0  0
 10 11  1  0  0  0  0
 10 22  1  0  0  0  0
 12 13  1  0  0  0  0
 12 23  1  0  0  0  0
 12 24  1  0  0  0  0
 13 14  1  0  0  0  0
 13 25  1  0  0  0  0
 13 26  1  0  0  0  0
 14 15  1  0  0  0  0
 14 27  1  0  0  0  0
 14 28  1  0  0  0  0
 15 16  1  0  0  0  0
 15 29  1  0  0  0  0
 15 30  1  0  0  0  0
 16 17  1  0  0  0  0
 16 31  1  0  0  0  0
 16 32  1  0  0  0  0
 17 33  1  0  0  0  0
 17 34  1  0  0  0  0
M  CHG  1   6  -1
M  END
> <s_m_source_file>
AV-unprocessed.smi

> <i_m_source_file_index>
1043

> <i_lp_mmshare_version>
43012

> <i_f3d_flags>
0

> <s_epik_input>
W0NIMl0xW0NIMl1bQ0gyXVtDSDJdW0NIMl1bQ0gyXUMxKFtDSDNdKVtOSF1DKD1PKVtOSF1jMm5uW2NIXXMy

> <s_epik_cmdline>
J2VwaWtfcHl0aG9uJywgJy1waCcsICc3LjAnLCAnLXRuJywgJzgnLCAnLW1hJywgJzIwMCcsICctbWV0YWxfYmluZGluZycsICctaW1hZScsICc8aW5maWxlLm1hZT4nLCAnLW9tYWUnLCAnPG91dGZpbGUubWFlPic=

> <r_lp_tautomer_probability>
1

> <r_epik_Ionization_Penalty>
4.55555

> <r_epik_Ionization_Penalty_Charging>
4.50588

> <r_epik_Ionization_Penalty_Neutral>
0.0496753

> <r_epik_State_Penalty>
4.50558

> <r_epik_Charging_Adjusted_Penalty>
9.01146

> <i_epik_Tot_Q>
-1

> <i_epik_Tot_abs_Q>
1

> <r_epik_Metal_State_Penalty>
0.822218

> <b_epik_Metal_Only>
1

> <s_lp_Force_Field>
OPLS_2005

> <r_lp_Energy>
17.5754

> <b_lp_Chiralities_Consistent>
1

> <s_lp_Variant>
AV-unprocessed.smi:1043-2

> <Gold.Version>
5.8.1

> <Gold.Id.Protein>
6NUR|6NUR_protein|mol2

> <Gold.PLP.Fitness>
32.1803

> <Gold.PLP.PLP>
-24.0769

> <Gold.PLP.part.hbond>
-3.0000

> <Gold.PLP.part.metal>
0.0000

> <Gold.PLP.part.buried>
-4.6357

> <Gold.PLP.part.nonpolar>
-17.0340

> <Gold.PLP.part.repulsive>
0.0121

> <Gold.PLP.ligand.clash>
0.0000

> <Gold.PLP.ligand.torsion>
0.2376

> <Gold.PLP.Chemscore.Hbond>
2.8560

> <Gold.PLP.Chemscore.CHOScore>
0.0000

> <Gold.PLP.Chemscore.Metal>
0.0000

> <Gold.Chemscore.Hbonds>
donor molecule, donor type, donor heavy atom, donor atom, acceptor molecule, acceptor atom, score
      P1  H  6896  6909       L1     5  1.00
      P1  H  6931  6943       L1     8  0.75
      P1  H  6934  6947       L1     8  0.99

> <Gold.PLP.Chemscore.Internal.Correction>
0.0106

> <Gold.Rescore>
     Score         DG    S(hbond)    S(metal)    S(lipo)     H(rot)  DE(clash)    DE(int)     intcor
     14.17     -16.89       2.26        0.00      54.85       1.00       0.00       2.72       ----

> <Gold.Chemscore.Fitness>
14.1701

> <Gold.Chemscore.DG>
-16.8930

> <Gold.Chemscore.ZeroCoef>
-5.4800

> <Gold.Chemscore.Hbond>
2.2622

> <Gold.Chemscore.Metal>
0.0000

> <Gold.Chemscore.Lipo>
54.8486

> <Gold.Chemscore.Internal_Hbond>
0.0000

> <Gold.Chemscore.DEClash>
0.0009

> <Gold.Chemscore.DEInternal>
2.7220

> <Gold.Chemscore.Rot>
1.0000

> <Gold.Chemscore.Internal.Correction>
   9.000000E+99

> <Gold.Chemscore.Hbonds>
donor molecule, donor type, donor heavy atom, donor atom, acceptor molecule, acceptor atom, score
      P1  H  6896  6909       L1     5  0.99
      P1  H  6931  6943       L1     8  0.35
      P1  H  6934  6947       L1     8  0.75

> <Gold.Chemscore.Hbond.Weighted>
-7.5558

> <Gold.Chemscore.Metal.Weighted>
-0.0000

> <Gold.Chemscore.Lipo.Weighted>
-6.4173

> <Gold.Chemscore.Internal_Hbond.Weighted>
0.0000

> <Gold.Chemscore.DEClash.Weighted>
0.0009

> <Gold.Chemscore.DEInternal.Weighted>
2.7220

> <Gold.Chemscore.Rot.Weighted>
2.5600

> <Gold.Chemscore.Internal.Correction.Weighted>
   9.000000E+99

> <Gold.Protein.RotatedTorsions>
[ 6907 6896 6895 6894 ] final   50.51 input  -60.11 | X-H torsion
[ 7974 7965 7964 7962 ] final  126.75 input  175.53 | X-H torsion
[ 8008 7997 7996 7995 ] final  -86.97 input   59.86 | X-H torsion
[ 10167 10162 10161 10158 ] final  169.72 input  -65.29 | X-H torsion
[ 10718 10713 10712 10709 ] final -143.38 input   66.30 | X-H torsion
[ 10763 10752 10751 10750 ] final   16.82 input  -60.55 | X-H torsion
[ 11005 11000 10999 10996 ] final -150.34 input  -57.11 | X-H torsion

> <Gold.Protein.ActiveResidues>
 VAL166  LYS551  ARG553  GLY616  TRP617  ASP618  TYR619  PRO620  LYS621  CYS622 
 ASP623  PHE694  ASN695  SER759  ASP760  ASP761  ALA762  ILE779  LEU786  VAL792 
 PHE793  MET794  SER795  GLU796  ALA797  LYS798  CYS799  TRP800  GLU811  SER814 

> <Gold.Protein.RotatedAtoms>
  152.3025  134.7594  160.0354 H   0  0  0  0  0  0  0  0  0  0  0  0  # atno 6907 bound_to 6896
  151.8102  133.3375  159.3561 H   0  0  0  0  0  0  0  0  0  0  0  0  # atno 6908 bound_to 6896
  150.7281  134.5601  159.5882 H   0  0  0  0  0  0  0  0  0  0  0  0  # atno 6909 bound_to 6896
  145.0582  139.3826  143.5019 H   0  0  0  0  0  0  0  0  0  0  0  0  # atno 7974 bound_to 7965
  154.6579  140.0571  157.0029 H   0  0  0  0  0  0  0  0  0  0  0  0  # atno 8008 bound_to 7997
  155.1272  140.3253  155.4464 H   0  0  0  0  0  0  0  0  0  0  0  0  # atno 8009 bound_to 7997
  156.2605  140.1987  156.6393 H   0  0  0  0  0  0  0  0  0  0  0  0  # atno 8010 bound_to 7997
  139.4999  144.3675  151.9760 H   0  0  0  0  0  0  0  0  0  0  0  0  # atno 10167 bound_to 10162
  156.3572  130.7719  151.1881 H   0  0  0  0  0  0  0  0  0  0  0  0  # atno 10718 bound_to 10713
  153.1396  135.6757  153.9049 H   0  0  0  0  0  0  0  0  0  0  0  0  # atno 10763 bound_to 10752
  153.8510  135.3093  155.3433 H   0  0  0  0  0  0  0  0  0  0  0  0  # atno 10764 bound_to 10752
  154.7776  135.4906  153.9860 H   0  0  0  0  0  0  0  0  0  0  0  0  # atno 10765 bound_to 10752
  140.7412  134.3512  157.5147 H   0  0  0  0  0  0  0  0  0  0  0  0  # atno 11005 bound_to 11000
  146.3523  140.0267  142.8654 LP  0  0  0  0  0  0  0  0  0  0  0  0  # atno 17320 bound_to 7965
  145.1441  140.9587  143.4471 LP  0  0  0  0  0  0  0  0  0  0  0  0  # atno 17321 bound_to 7965
  140.3111  144.3537  150.6033 LP  0  0  0  0  0  0  0  0  0  0  0  0  # atno 17342 bound_to 10162
  140.5798  143.2173  151.7449 LP  0  0  0  0  0  0  0  0  0  0  0  0  # atno 17343 bound_to 10162
  157.7469  131.0410  150.4627 LP  0  0  0  0  0  0  0  0  0  0  0  0  # atno 17370 bound_to 10713
  156.4832  130.4078  149.6449 LP  0  0  0  0  0  0  0  0  0  0  0  0  # atno 17371 bound_to 10713
  139.8806  134.9082  156.2962 LP  0  0  0  0  0  0  0  0  0  0  0  0  # atno 17394 bound_to 11000
  140.9835  133.7253  156.0707 LP  0  0  0  0  0  0  0  0  0  0  0  0  # atno 17395 bound_to 11000

$$$$
