#       Name:                AV-unprocessed.smi:193
#       Creating user name   scv26
#       Creation time:       Thu Mar 26 19:35:01 2020


#       File generated by GOLD software.
#

@<TRIPOS>MOLECULE
AV-unprocessed.smi:193
    69    73     1
SMALL
NO_CHARGES


@<TRIPOS>ATOM
      1 ****        -3.7770  -3.7700   2.0551 C.3            1 S1                 0.0000
      2 ****        -3.1745  -2.4571   1.5342 C.3            1 S1                 0.0000
      3 ****        -1.6602  -2.4294   1.8438 C.3            1 S1                 0.0000
      4 ****        -0.9553  -1.3149   1.2089 N.pl3          1 S1                 0.0000
      5 ****         0.3679  -1.4496   0.9381 C.ar           1 S1                 0.0000
      6 ****         1.1264  -2.2851   1.6966 N.ar           1 S1                 0.0000
      7 ****         2.4318  -2.4247   1.4473 C.ar           1 S1                 0.0000
      8 ****         3.1693  -1.8345   0.5049 N.ar           1 S1                 0.0000
      9 ****         2.4141  -0.9988  -0.2638 C.ar           1 S1                 0.0000
     10 ****         1.0187  -0.7551  -0.1213 C.ar           1 S1                 0.0000
     11 ****         0.5920   0.1332  -1.1019 N.2            1 S1                 0.0000
     12 ****         1.6744   0.4090  -1.7755 C.2            1 S1                 0.0000
     13 ****         2.8180  -0.2158  -1.3317 N.pl3          1 S1                 0.0000
     14 ****         4.1535  -0.0836  -1.8940 C.3            1 S1                 0.0000
     15 ****         5.0245   1.0121  -1.2183 C.3            1 S1                 0.0000
     16 ****         5.2445   0.6160   0.1221 O.3            1 S1                 0.0000
     17 ****         6.4038   1.1384  -1.8949 C.3            1 S1                 0.0000
     18 ****         6.3059   1.8597  -3.2524 C.3            1 S1                 0.0000
     19 ****         5.6882   3.1324  -3.0897 O.3            1 S1                 0.0000
     20 ****         4.3599   3.0525  -2.5838 C.3            1 S1                 0.0000
     21 ****         4.3738   2.4117  -1.1854 C.3            1 S1                 0.0000
     22 ****        -1.4566   0.0425   1.4111 C.3            1 S1                 0.0000
     23 ****        -2.7407   0.2598   0.5976 C.3            1 S1                 0.0000
     24 ****        -3.9615  -0.0360   1.3500 N.3            1 S1                 0.0000
     25 ****        -5.0766  -0.1044   0.4138 C.3            1 S1                 0.0000
     26 ****        -6.4632   0.1887   0.9419 C.3            1 S1                 0.0000
     27 ****        -5.7890   1.1781   0.0209 C.3            1 S1                 0.0000
     28 ****        -5.3842   2.5439   0.5414 C.3            1 S1                 0.0000
     29 ****        -3.9081  -1.2512   2.1723 C.3            1 S1                 0.0000
     30 ****        -3.6701  -3.8536   3.1372 H              1 S1                 0.0000
     31 ****        -3.2872  -4.6337   1.6048 H              1 S1                 0.0000
     32 ****        -4.8390  -3.8374   1.8176 H              1 S1                 0.0000
     33 ****        -3.3227  -2.4576   0.4534 H              1 S1                 0.0000
     34 ****        -1.4942  -2.3891   2.9210 H              1 S1                 0.0000
     35 ****        -1.2224  -3.3660   1.4953 H              1 S1                 0.0000
     36 ****         2.9616  -3.1065   2.0962 H              1 S1                 0.0000
     37 ****         1.6691   1.0867  -2.6166 H              1 S1                 0.0000
     38 ****         4.6493  -1.0530  -1.8262 H              1 S1                 0.0000
     39 ****         4.0404   0.1159  -2.9592 H              1 S1                 0.0000
     40 ****         5.7981   1.2578   0.5394 H              1 S1                 0.0000
     41 ****         7.0766   1.7101  -1.2535 H              1 S1                 0.0000
     42 ****         6.8629   0.1571  -2.0207 H              1 S1                 0.0000
     43 ****         7.3036   2.0083  -3.6657 H              1 S1                 0.0000
     44 ****         5.7533   1.2659  -3.9810 H              1 S1                 0.0000
     45 ****         3.9478   4.0601  -2.5270 H              1 S1                 0.0000
     46 ****         3.7273   2.4918  -3.2729 H              1 S1                 0.0000
     47 ****         3.3671   2.3777  -0.7695 H              1 S1                 0.0000
     48 ****         4.9444   3.0629  -0.5211 H              1 S1                 0.0000
     49 ****        -1.6185   0.2317   2.4728 H              1 S1                 0.0000
     50 ****        -0.7144   0.7774   1.1007 H              1 S1                 0.0000
     51 ****        -2.7927   1.3044   0.2916 H              1 S1                 0.0000
     52 ****        -2.6960  -0.3204  -0.3258 H              1 S1                 0.0000
     53 ****        -5.0412  -0.8650  -0.3645 H              1 S1                 0.0000
     54 ****        -7.2876  -0.3932   0.5352 H              1 S1                 0.0000
     55 ****        -6.5605   0.4595   1.9918 H              1 S1                 0.0000
     56 ****        -6.1589   1.2051  -1.0021 H              1 S1                 0.0000
     57 ****        -5.0710   2.4910   1.5845 H              1 S1                 0.0000
     58 ****        -6.2260   3.2327   0.4704 H              1 S1                 0.0000
     59 ****        -4.5609   2.9427  -0.0510 H              1 S1                 0.0000
     60 ****        -4.9291  -1.5280   2.4383 H              1 S1                 0.0000
     61 ****        -3.4314  -1.0051   3.1215 H              1 S1                 0.0000
     62 ****         0.7053  -2.7977   2.4448 LP             1 S1                 0.0000
     63 ****         4.1498  -1.9855   0.3785 LP             1 S1                 0.0000
     64 ****        -0.3328   0.4811  -1.2557 LP             1 S1                 0.0000
     65 ****         5.6926  -0.2778   0.1399 LP             1 S1                 0.0000
     66 ****         4.3704   0.5605   0.6046 LP             1 S1                 0.0000
     67 ****         5.6623   3.5888  -3.9791 LP             1 S1                 0.0000
     68 ****         6.2383   3.6733  -2.4535 LP             1 S1                 0.0000
     69 ****        -4.0776   0.7073   2.0088 LP             1 S1                 0.0000
@<TRIPOS>BOND
    1    1    2 1     
    2    1   30 1     
    3    1   31 1     
    4    1   32 1     
    5    2   29 1     
    6    2    3 1     
    7    2   33 1     
    8    3    4 1     
    9    3   34 1     
   10    3   35 1     
   11    4    5 1     
   12    4   22 1     
   13    5   10 ar    
   14    5    6 ar    
   15    6    7 ar    
   16    7    8 ar    
   17    7   36 1     
   18    8    9 ar    
   19    9   13 1     
   20    9   10 ar    
   21   10   11 1     
   22   11   12 2     
   23   12   13 1     
   24   12   37 1     
   25   13   14 1     
   26   14   15 1     
   27   14   38 1     
   28   14   39 1     
   29   15   21 1     
   30   15   16 1     
   31   15   17 1     
   32   16   40 1     
   33   17   18 1     
   34   17   41 1     
   35   17   42 1     
   36   18   19 1     
   37   18   43 1     
   38   18   44 1     
   39   19   20 1     
   40   20   21 1     
   41   20   45 1     
   42   20   46 1     
   43   21   47 1     
   44   21   48 1     
   45   22   23 1     
   46   22   49 1     
   47   22   50 1     
   48   23   24 1     
   49   23   51 1     
   50   23   52 1     
   51   24   25 1     
   52   24   29 1     
   53   25   27 1     
   54   25   26 1     
   55   25   53 1     
   56   26   27 1     
   57   26   54 1     
   58   26   55 1     
   59   27   28 1     
   60   27   56 1     
   61   28   57 1     
   62   28   58 1     
   63   28   59 1     
   64   29   60 1     
   65   29   61 1     
   66    6   62 1     
   67    8   63 1     
   68   11   64 1     
   69   16   65 1     
   70   16   66 1     
   71   19   67 1     
   72   19   68 1     
   73   24   69 1     
@<TRIPOS>SUBSTRUCTURE
      1 S1             1
@<TRIPOS>SET
LONE_PAIRS      STATIC     ATOMS    <user>   **** ""
8 62 63 64 65 66 67 68 69
DONOR_HYDROGENS      STATIC     ATOMS    <user>   **** ""
1 40
ATOM$BLUE        STATIC     ATOMS    COLORGROUP SYSTEM
8 62 63 64 65 66 67 68 69
ATOM$RED        STATIC     ATOMS    COLORGROUP SYSTEM
1 40
