AV-unprocessed.smi:1295|AV-procd|sdf|5411|dock6
  -GOLD-   22720 4573D 1   1.00000     0.00000
 Structure written by MMmdl.
 42 43  0  0  0  0  0  0  0  0  2 V2000
  151.5315  130.8174  156.5475 C   0  0  0  0  0  0  0  0  0  0  0  0
  150.9311  132.1612  156.1942 C   0  0  0  0  0  0  0  0  0  0  0  0
  150.2260  132.2714  155.1335 N   0  0  0  0  0  0  0  0  0  0  0  0
  149.6678  133.5170  154.8003 C   0  0  0  0  0  0  0  0  0  0  0  0
  148.8271  133.5513  153.5363 C   0  0  0  0  0  0  0  0  0  0  0  0
  149.8717  134.6140  155.5843 C   0  0  0  0  0  0  0  0  0  0  0  0
  149.2691  135.9868  155.2767 C   0  0  0  0  0  0  0  0  0  0  0  0
  150.2716  137.0920  154.9347 C   0  0  0  0  0  0  0  0  0  0  0  0
  151.4460  136.8085  154.7003 O   0  0  0  0  0  0  0  0  0  0  0  0
  149.7904  138.3437  154.9090 N   0  0  0  0  0  0  0  0  0  0  0  0
  150.5211  139.5532  154.5399 C   0  0  2  0  0  0  0  0  0  0  0  0
  151.8864  139.5952  155.2564 C   0  0  0  0  0  0  0  0  0  0  0  0
  151.7384  139.8167  156.7719 C   0  0  0  0  0  0  0  0  0  0  0  0
  150.9142  141.0775  157.0716 C   0  0  0  0  0  0  0  0  0  0  0  0
  149.5424  141.0279  156.3799 C   0  0  0  0  0  0  0  0  0  0  0  0
  149.6807  140.8152  154.8574 C   0  0  2  0  0  0  0  0  0  0  0  0
  148.3066  140.8045  154.1637 C   0  0  0  0  0  0  0  0  0  0  0  0
  150.6846  134.4429  156.8019 C   0  0  0  0  0  0  0  0  0  0  0  0
  150.8761  135.3941  157.5585 O   0  0  0  0  0  0  0  0  0  0  0  0
  151.1905  133.2028  157.0562 N   0  5  0  0  0  0  0  0  0  0  0  0
  151.1515  130.0326  155.8920 H   0  0  0  0  0  0  0  0  0  0  0  0
  151.2870  130.5494  157.5760 H   0  0  0  0  0  0  0  0  0  0  0  0
  152.6167  130.8519  156.4471 H   0  0  0  0  0  0  0  0  0  0  0  0
  149.2730  134.2186  152.7985 H   0  0  0  0  0  0  0  0  0  0  0  0
  147.8181  133.9000  153.7568 H   0  0  0  0  0  0  0  0  0  0  0  0
  148.7471  132.5605  153.0880 H   0  0  0  0  0  0  0  0  0  0  0  0
  148.5433  135.9176  154.4659 H   0  0  0  0  0  0  0  0  0  0  0  0
  148.6882  136.3111  156.1404 H   0  0  0  0  0  0  0  0  0  0  0  0
  148.8121  138.4651  155.1301 H   0  0  0  0  0  0  0  0  0  0  0  0
  150.7045  139.5395  153.4641 H   0  0  0  0  0  0  0  0  0  0  0  0
  152.4418  138.6761  155.0657 H   0  0  0  0  0  0  0  0  0  0  0  0
  152.4862  140.4030  154.8357 H   0  0  0  0  0  0  0  0  0  0  0  0
  151.2590  138.9493  157.2273 H   0  0  0  0  0  0  0  0  0  0  0  0
  152.7233  139.8995  157.2319 H   0  0  0  0  0  0  0  0  0  0  0  0
  150.7828  141.1876  158.1484 H   0  0  0  0  0  0  0  0  0  0  0  0
  151.4608  141.9591  156.7347 H   0  0  0  0  0  0  0  0  0  0  0  0
  148.9423  140.2278  156.8164 H   0  0  0  0  0  0  0  0  0  0  0  0
  149.0036  141.9550  156.5777 H   0  0  0  0  0  0  0  0  0  0  0  0
  150.2271  141.6718  154.4599 H   0  0  0  0  0  0  0  0  0  0  0  0
  147.6653  140.0090  154.5454 H   0  0  0  0  0  0  0  0  0  0  0  0
  148.4118  140.6594  153.0883 H   0  0  0  0  0  0  0  0  0  0  0  0
  147.7838  141.7484  154.3194 H   0  0  0  0  0  0  0  0  0  0  0  0
  1  2  1  0  0  0  0
  1 21  1  0  0  0  0
  1 22  1  0  0  0  0
  1 23  1  0  0  0  0
  2 20  1  0  0  0  0
  2  3  2  0  0  0  0
  3  4  1  0  0  0  0
  4  5  1  0  0  0  0
  4  6  2  0  0  0  0
  5 24  1  0  0  0  0
  5 25  1  0  0  0  0
  5 26  1  0  0  0  0
  6  7  1  0  0  0  0
  6 18  1  0  0  0  0
  7  8  1  0  0  0  0
  7 27  1  0  0  0  0
  7 28  1  0  0  0  0
  8  9  2  0  0  0  0
  8 10  1  0  0  0  0
 10 11  1  0  0  0  0
 10 29  1  0  0  0  0
 11 16  1  0  0  0  0
 11 12  1  0  0  0  0
 11 30  1  0  0  0  0
 12 13  1  0  0  0  0
 12 31  1  0  0  0  0
 12 32  1  0  0  0  0
 13 14  1  0  0  0  0
 13 33  1  0  0  0  0
 13 34  1  0  0  0  0
 14 15  1  0  0  0  0
 14 35  1  0  0  0  0
 14 36  1  0  0  0  0
 15 16  1  0  0  0  0
 15 37  1  0  0  0  0
 15 38  1  0  0  0  0
 16 17  1  0  0  0  0
 16 39  1  0  0  0  0
 17 40  1  0  0  0  0
 17 41  1  0  0  0  0
 17 42  1  0  0  0  0
 18 19  2  0  0  0  0
 18 20  1  0  0  0  0
M  CHG  1  20  -1
M  END
> <s_m_source_file>
AV-unprocessed.smi

> <i_m_source_file_index>
1295

> <i_lp_mmshare_version>
43012

> <i_f3d_flags>
0

> <s_epik_input>
W0NIM11jMW5jKFtDSDNdKWMoYyg9TylbbkhdMSlbQ0gyXUMoPU8pW05IXVtDQEBIXTJbQ0gyXVtDSDJdW0NIMl1bQ0gyXVtDQEhdMltDSDNd

> <s_epik_cmdline>
J2VwaWtfcHl0aG9uJywgJy1waCcsICc3LjAnLCAnLXRuJywgJzgnLCAnLW1hJywgJzIwMCcsICctbWV0YWxfYmluZGluZycsICctaW1hZScsICc8aW5maWxlLm1hZT4nLCAnLW9tYWUnLCAnPG91dGZpbGUubWFlPic=

> <r_lp_tautomer_probability>
0.839158

> <r_epik_Ionization_Penalty>
6.67742

> <r_epik_Ionization_Penalty_Charging>
7.78154e-08

> <r_epik_Ionization_Penalty_Neutral>
6.67742

> <r_epik_State_Penalty>
4.51991

> <r_epik_Charging_Adjusted_Penalty>
4.51991

> <i_epik_Tot_Q>
-1

> <i_epik_Tot_abs_Q>
1

> <r_epik_Metal_State_Penalty>
0.853272

> <b_epik_Metal_Only>
1

> <s_lp_Force_Field>
OPLS_2005

> <r_lp_Energy>
12.2009

> <b_lp_Chiralities_Consistent>
1

> <s_lp_Variant>
AV-unprocessed.smi:1295-11

> <Gold.Version>
5.8.1

> <Gold.Id.Protein>
6NUR|6NUR_protein|mol2

> <Gold.PLP.Fitness>
39.2189

> <Gold.PLP.PLP>
-31.4052

> <Gold.PLP.part.hbond>
-3.0000

> <Gold.PLP.part.metal>
0.0000

> <Gold.PLP.part.buried>
0.1444

> <Gold.PLP.part.nonpolar>
-29.0512

> <Gold.PLP.part.repulsive>
0.1753

> <Gold.PLP.ligand.clash>
0.0000

> <Gold.PLP.ligand.torsion>
0.2827

> <Gold.PLP.Chemscore.Hbond>
2.7901

> <Gold.PLP.Chemscore.CHOScore>
0.0000

> <Gold.PLP.Chemscore.Metal>
0.0000

> <Gold.Chemscore.Hbonds>
donor molecule, donor type, donor heavy atom, donor atom, acceptor molecule, acceptor atom, score
      P1  H  6896  6908       L1    20  0.95
      P1  H  6896  6909       L1    19  0.12
      P1  H 10752 10765       L1     9  1.00

> <Gold.PLP.Chemscore.Internal.Correction>
0.0089

> <Gold.Rescore>
     Score         DG    S(hbond)    S(metal)    S(lipo)     H(rot)  DE(clash)    DE(int)     intcor
     14.00     -15.97       1.81        0.00      69.68       1.45       0.33       1.65       ----

> <Gold.Chemscore.Fitness>
13.9984

> <Gold.Chemscore.DG>
-15.9722

> <Gold.Chemscore.ZeroCoef>
-5.4800

> <Gold.Chemscore.Hbond>
1.8079

> <Gold.Chemscore.Metal>
0.0000

> <Gold.Chemscore.Lipo>
69.6845

> <Gold.Chemscore.Internal_Hbond>
0.0000

> <Gold.Chemscore.DEClash>
0.3262

> <Gold.Chemscore.DEInternal>
1.6476

> <Gold.Chemscore.Rot>
1.4450

> <Gold.Chemscore.Internal.Correction>
   9.000000E+99

> <Gold.Chemscore.Hbonds>
donor molecule, donor type, donor heavy atom, donor atom, acceptor molecule, acceptor atom, score
      P1  H  6896  6908       L1    20  0.08
      P1  H  6896  6909       L1    19  0.11
      P1  H 10752 10765       L1     9  1.00

> <Gold.Chemscore.Hbond.Weighted>
-6.0383

> <Gold.Chemscore.Metal.Weighted>
-0.0000

> <Gold.Chemscore.Lipo.Weighted>
-8.1531

> <Gold.Chemscore.Internal_Hbond.Weighted>
0.0000

> <Gold.Chemscore.DEClash.Weighted>
0.3262

> <Gold.Chemscore.DEInternal.Weighted>
1.6476

> <Gold.Chemscore.Rot.Weighted>
3.6992

> <Gold.Chemscore.Internal.Correction.Weighted>
   9.000000E+99

> <Gold.Protein.RotatedTorsions>
[ 6907 6896 6895 6894 ] final   81.27 input  -60.11 | X-H torsion
[ 7974 7965 7964 7962 ] final   42.81 input  175.53 | X-H torsion
[ 8008 7997 7996 7995 ] final  137.80 input   59.86 | X-H torsion
[ 10167 10162 10161 10158 ] final  -79.42 input  -65.29 | X-H torsion
[ 10718 10713 10712 10709 ] final  -24.07 input   66.30 | X-H torsion
[ 10763 10752 10751 10750 ] final  165.52 input  -60.55 | X-H torsion
[ 11005 11000 10999 10996 ] final  -54.35 input  -57.11 | X-H torsion

> <Gold.Protein.ActiveResidues>
 VAL166  LYS551  ARG553  GLY616  TRP617  ASP618  TYR619  PRO620  LYS621  CYS622 
 ASP623  PHE694  ASN695  SER759  ASP760  ASP761  ALA762  ILE779  LEU786  VAL792 
 PHE793  MET794  SER795  GLU796  ALA797  LYS798  CYS799  TRP800  GLU811  SER814 

> <Gold.Protein.RotatedAtoms>
  152.5263  134.3230  159.9154 H   0  0  0  0  0  0  0  0  0  0  0  0  # atno 6907 bound_to 6896
  151.3179  133.4046  159.2660 H   0  0  0  0  0  0  0  0  0  0  0  0  # atno 6908 bound_to 6896
  150.9983  134.9319  159.7997 H   0  0  0  0  0  0  0  0  0  0  0  0  # atno 6909 bound_to 6896
  146.0709  139.5258  142.9598 H   0  0  0  0  0  0  0  0  0  0  0  0  # atno 7974 bound_to 7965
  156.3000  140.2410  156.3970 H   0  0  0  0  0  0  0  0  0  0  0  0  # atno 8008 bound_to 7997
  154.8562  140.0422  157.1656 H   0  0  0  0  0  0  0  0  0  0  0  0  # atno 8009 bound_to 7997
  154.8945  140.2968  155.5356 H   0  0  0  0  0  0  0  0  0  0  0  0  # atno 8010 bound_to 7997
  140.4595  143.2458  151.8370 H   0  0  0  0  0  0  0  0  0  0  0  0  # atno 10167 bound_to 10162
  156.4826  130.4548  149.6803 H   0  0  0  0  0  0  0  0  0  0  0  0  # atno 10718 bound_to 10713
  154.3253  135.2755  155.2499 H   0  0  0  0  0  0  0  0  0  0  0  0  # atno 10763 bound_to 10752
  154.4834  135.5852  153.6410 H   0  0  0  0  0  0  0  0  0  0  0  0  # atno 10764 bound_to 10752
  152.9872  135.6117  154.3441 H   0  0  0  0  0  0  0  0  0  0  0  0  # atno 10765 bound_to 10752
  141.1021  133.6617  156.4307 H   0  0  0  0  0  0  0  0  0  0  0  0  # atno 11005 bound_to 11000
  145.6393  141.0288  143.1820 LP  0  0  0  0  0  0  0  0  0  0  0  0  # atno 17320 bound_to 7965
  144.7231  139.7964  143.7375 LP  0  0  0  0  0  0  0  0  0  0  0  0  # atno 17321 bound_to 7965
  139.4805  144.5025  151.9042 LP  0  0  0  0  0  0  0  0  0  0  0  0  # atno 17342 bound_to 10162
  140.4110  144.2368  150.5889 LP  0  0  0  0  0  0  0  0  0  0  0  0  # atno 17343 bound_to 10162
  156.3507  130.7430  151.2389 LP  0  0  0  0  0  0  0  0  0  0  0  0  # atno 17370 bound_to 10713
  157.7482  131.0378  150.4472 LP  0  0  0  0  0  0  0  0  0  0  0  0  # atno 17371 bound_to 10713
  140.4995  134.6499  157.5243 LP  0  0  0  0  0  0  0  0  0  0  0  0  # atno 17394 bound_to 11000
  139.9877  134.7036  155.9745 LP  0  0  0  0  0  0  0  0  0  0  0  0  # atno 17395 bound_to 11000

$$$$
