#       Name:                AV-unprocessed.smi:2463
#       Creating user name   scv26
#       Creation time:       Fri Mar 27 13:36:03 2020


#       File generated by GOLD software.
#

@<TRIPOS>MOLECULE
AV-unprocessed.smi:2463
    52    53     1
SMALL
NO_CHARGES


@<TRIPOS>ATOM
      1 ****        -5.2646   5.7242  -0.1927 C.3            1 S1                 0.0000
      2 ****        -4.7334   4.3033  -0.4101 C.3            1 S1                 0.0000
      3 ****        -4.4572   3.5720   0.9120 C.3            1 S1                 0.0000
      4 ****        -3.9435   2.2344   0.6893 N.pl3          1 S1                 0.0000
      5 ****        -2.6292   1.8118   0.7082 C.2            1 S1                 0.0000
      6 ****        -2.6682   0.4728   0.4397 C.2            1 S1                 0.0000
      7 ****        -1.6020  -0.4565   0.3425 N.am           1 S1                 0.0000
      8 ****        -0.2892  -0.2071   0.4749 C.2            1 S1                 0.0000
      9 ****         0.2025   0.9005   0.6917 O.2            1 S1                 0.0000
     10 ****         0.4343  -1.3262   0.3351 N.am           1 S1                 0.0000
     11 ****         1.8926  -1.3984   0.3991 C.3            1 S1                 0.0000
     12 ****         2.3645  -2.7592   0.8718 C.3            1 S1                 0.0000
     13 ****         3.7916  -2.8440   0.3165 C.3            1 S1                 0.0000
     14 ****         4.8278  -2.2834   1.3059 C.3            1 S1                 0.0000
     15 ****         4.1635  -4.2691  -0.1206 C.3            1 S1                 0.0000
     16 ****         3.8027  -1.9992  -0.8336 O.3            1 S1                 0.0000
     17 ****         2.5870  -1.2649  -0.9735 C.3            1 S1                 0.0000
     18 ****         1.8158  -1.9135  -2.1423 C.3            1 S1                 0.0000
     19 ****         2.9503   0.1910  -1.3047 C.3            1 S1                 0.0000
     20 ****        -4.0397   0.1518   0.2686 C.2            1 S1                 0.0000
     21 ****        -4.8047   1.2223   0.4193 N.2            1 S1                 0.0000
     22 ****        -5.4501   6.2197  -1.1461 H              1 S1                 0.0000
     23 ****        -4.5503   6.3312   0.3647 H              1 S1                 0.0000
     24 ****        -6.2022   5.7124   0.3639 H              1 S1                 0.0000
     25 ****        -5.4552   3.7372  -1.0004 H              1 S1                 0.0000
     26 ****        -3.8182   4.3482  -1.0019 H              1 S1                 0.0000
     27 ****        -3.7303   4.1264   1.5072 H              1 S1                 0.0000
     28 ****        -5.3682   3.5029   1.5086 H              1 S1                 0.0000
     29 ****        -1.8120   2.4891   0.9071 H              1 S1                 0.0000
     30 ****        -1.8675  -1.4120   0.1541 H              1 S1                 0.0000
     31 ****        -0.0554  -2.1910   0.1582 H              1 S1                 0.0000
     32 ****         2.2807  -0.6483   1.0910 H              1 S1                 0.0000
     33 ****         2.3180  -2.8708   1.9558 H              1 S1                 0.0000
     34 ****         1.7412  -3.5418   0.4362 H              1 S1                 0.0000
     35 ****         4.8600  -2.8752   2.2211 H              1 S1                 0.0000
     36 ****         4.5999  -1.2543   1.5851 H              1 S1                 0.0000
     37 ****         5.8283  -2.2899   0.8726 H              1 S1                 0.0000
     38 ****         4.1465  -4.9579   0.7245 H              1 S1                 0.0000
     39 ****         5.1633  -4.2992  -0.5547 H              1 S1                 0.0000
     40 ****         3.4693  -4.6467  -0.8719 H              1 S1                 0.0000
     41 ****         0.8849  -1.3859  -2.3517 H              1 S1                 0.0000
     42 ****         1.5696  -2.9549  -1.9343 H              1 S1                 0.0000
     43 ****         2.4098  -1.8969  -3.0565 H              1 S1                 0.0000
     44 ****         2.0573   0.8040  -1.4271 H              1 S1                 0.0000
     45 ****         3.5233   0.2525  -2.2303 H              1 S1                 0.0000
     46 ****         3.5551   0.6375  -0.5149 H              1 S1                 0.0000
     47 ****        -4.4965  -0.8009   0.0447 H              1 S1                 0.0000
     48 ****        -0.3896   1.7013   0.7825 LP             1 S1                 0.0000
     49 ****         1.1939   0.9995   0.7769 LP             1 S1                 0.0000
     50 ****         3.9329  -2.5650  -1.6478 LP             1 S1                 0.0000
     51 ****         4.5617  -1.3532  -0.7517 LP             1 S1                 0.0000
     52 ****        -5.8010   1.2733   0.3492 LP             1 S1                 0.0000
@<TRIPOS>BOND
    1    1    2 1     
    2    1   22 1     
    3    1   23 1     
    4    1   24 1     
    5    2    3 1     
    6    2   25 1     
    7    2   26 1     
    8    3    4 1     
    9    3   27 1     
   10    3   28 1     
   11    4   21 1     
   12    4    5 1     
   13    5    6 2     
   14    5   29 1     
   15    6    7 1     
   16    6   20 1     
   17    7    8 am    
   18    7   30 1     
   19    8    9 2     
   20    8   10 am    
   21   10   11 1     
   22   10   31 1     
   23   11   17 1     
   24   11   12 1     
   25   11   32 1     
   26   12   13 1     
   27   12   33 1     
   28   12   34 1     
   29   13   14 1     
   30   13   15 1     
   31   13   16 1     
   32   14   35 1     
   33   14   36 1     
   34   14   37 1     
   35   15   38 1     
   36   15   39 1     
   37   15   40 1     
   38   16   17 1     
   39   17   18 1     
   40   17   19 1     
   41   18   41 1     
   42   18   42 1     
   43   18   43 1     
   44   19   44 1     
   45   19   45 1     
   46   19   46 1     
   47   20   21 2     
   48   20   47 1     
   49    9   48 1     
   50    9   49 1     
   51   16   50 1     
   52   16   51 1     
   53   21   52 1     
@<TRIPOS>SUBSTRUCTURE
      1 S1             1
@<TRIPOS>SET
LONE_PAIRS      STATIC     ATOMS    <user>   **** ""
5 48 49 50 51 52
DONOR_HYDROGENS      STATIC     ATOMS    <user>   **** ""
2 30 31
ATOM$BLUE        STATIC     ATOMS    COLORGROUP SYSTEM
5 48 49 50 51 52
ATOM$RED        STATIC     ATOMS    COLORGROUP SYSTEM
2 30 31
