AV-unprocessed.smi:2865|AV-procd|sdf|11018|dock6
  -GOLD-   2272015483D 1   1.00000     0.00000
 Structure written by MMmdl.
 38 41  0  0  0  0  0  0  0  0  1 V2000
  145.7564  138.2975  154.1931 O   0  0  0  0  0  0  0  0  0  0  0  0
  146.5567  137.8984  153.3506 C   0  0  0  0  0  0  0  0  0  0  0  0
  147.8494  138.2723  153.2797 N   0  0  0  0  0  0  0  0  0  0  0  0
  148.5468  139.2213  154.0745 C   0  0  0  0  0  0  0  0  0  0  0  0
  149.9488  139.1128  154.1883 C   0  0  0  0  0  0  0  0  0  0  0  0
  150.6793  139.9878  154.9121 N   0  0  0  0  0  0  0  0  0  0  0  0
  150.0111  140.9679  155.5259 C   0  0  0  0  0  0  0  0  0  0  0  0
  150.8273  141.9601  156.2945 C   0  0  0  0  0  0  0  0  0  0  0  0
  151.7138  141.5152  157.4399 C   0  0  0  0  0  0  0  0  0  0  0  0
  150.4732  142.3152  157.7242 C   0  0  0  0  0  0  0  0  0  0  0  0
  148.6944  141.1867  155.4739 N   0  0  0  0  0  0  0  0  0  0  0  0
  147.9553  140.3155  154.7532 C   0  0  0  0  0  0  0  0  0  0  0  0
  146.1932  137.0005  152.4183 N   0  0  0  0  0  0  0  0  0  0  0  0
  144.8769  136.3923  152.2172 C   0  0  1  0  0  0  0  0  0  0  0  0
  144.8663  135.3471  151.0939 C   0  0  0  0  0  0  0  0  0  0  0  0
  144.3988  134.0883  151.8366 C   0  0  2  0  0  0  0  0  0  0  0  0
  142.9258  134.1798  152.2619 C   0  0  0  0  0  0  0  0  0  0  0  0
  142.9906  135.1882  153.4092 C   0  0  0  0  0  0  0  0  0  0  0  0
  144.4852  135.5349  153.4326 C   0  0  1  0  0  0  0  0  0  0  0  0
  145.0425  134.2784  153.0833 O   0  0  0  0  0  0  0  0  0  0  0  0
  148.4061  137.8002  152.5824 H   0  0  0  0  0  0  0  0  0  0  0  0
  150.4914  138.3199  153.6944 H   0  0  0  0  0  0  0  0  0  0  0  0
  151.1920  142.7565  155.6484 H   0  0  0  0  0  0  0  0  0  0  0  0
  151.7028  140.4616  157.7127 H   0  0  0  0  0  0  0  0  0  0  0  0
  152.6724  142.0165  157.5559 H   0  0  0  0  0  0  0  0  0  0  0  0
  150.6020  143.3514  158.0301 H   0  0  0  0  0  0  0  0  0  0  0  0
  149.6368  141.7938  158.1859 H   0  0  0  0  0  0  0  0  0  0  0  0
  146.8987  140.5272  154.7176 H   0  0  0  0  0  0  0  0  0  0  0  0
  146.9196  136.6838  151.7922 H   0  0  0  0  0  0  0  0  0  0  0  0
  144.1303  137.1717  152.0546 H   0  0  0  0  0  0  0  0  0  0  0  0
  144.1994  135.6168  150.2743 H   0  0  0  0  0  0  0  0  0  0  0  0
  145.8636  135.1920  150.6797 H   0  0  0  0  0  0  0  0  0  0  0  0
  144.6582  133.1562  151.3338 H   0  0  0  0  0  0  0  0  0  0  0  0
  142.2788  134.5053  151.4466 H   0  0  0  0  0  0  0  0  0  0  0  0
  142.5643  133.2158  152.6217 H   0  0  0  0  0  0  0  0  0  0  0  0
  142.3599  136.0624  153.2442 H   0  0  0  0  0  0  0  0  0  0  0  0
  142.6876  134.7206  154.3466 H   0  0  0  0  0  0  0  0  0  0  0  0
  144.8258  135.9281  154.3913 H   0  0  0  0  0  0  0  0  0  0  0  0
  1  2  2  0  0  0  0
  2  3  1  0  0  0  0
  2 13  1  0  0  0  0
  3  4  1  0  0  0  0
  3 21  1  0  0  0  0
  4 12  1  0  0  0  0
  4  5  2  0  0  0  0
  5  6  1  0  0  0  0
  5 22  1  0  0  0  0
  6  7  2  0  0  0  0
  7  8  1  0  0  0  0
  7 11  1  0  0  0  0
  8 10  1  0  0  0  0
  8  9  1  0  0  0  0
  8 23  1  0  0  0  0
  9 10  1  0  0  0  0
  9 24  1  0  0  0  0
  9 25  1  0  0  0  0
 10 26  1  0  0  0  0
 10 27  1  0  0  0  0
 11 12  2  0  0  0  0
 12 28  1  0  0  0  0
 13 14  1  0  0  0  0
 13 29  1  0  0  0  0
 14 19  1  0  0  0  0
 14 15  1  0  0  0  0
 14 30  1  0  0  0  0
 15 16  1  0  0  0  0
 15 31  1  0  0  0  0
 15 32  1  0  0  0  0
 16 20  1  0  0  0  0
 16 17  1  0  0  0  0
 16 33  1  0  0  0  0
 17 18  1  0  0  0  0
 17 34  1  0  0  0  0
 17 35  1  0  0  0  0
 18 19  1  0  0  0  0
 18 36  1  0  0  0  0
 18 37  1  0  0  0  0
 19 20  1  0  0  0  0
 19 38  1  0  0  0  0
M  END
> <s_m_source_file>
AV-unprocessed.smi

> <i_m_source_file_index>
2865

> <i_lp_mmshare_version>
43012

> <i_f3d_flags>
0

> <s_epik_input>
W0NIMl0xW0NIMl1bQ0BIXShPMilbQ0BASF0oW0NIMl1bQ0BASF0xMilbTkhdQyg9TylbTkhdYzNbY0hdbmMobltjSF0zKVtDSF00W0NIMl1bQ0gyXTQ=

> <s_epik_cmdline>
J2VwaWtfcHl0aG9uJywgJy1waCcsICc3LjAnLCAnLXRuJywgJzgnLCAnLW1hJywgJzIwMCcsICctbWV0YWxfYmluZGluZycsICctaW1hZScsICc8aW5maWxlLm1hZT4nLCAnLW9tYWUnLCAnPG91dGZpbGUubWFlPic=

> <r_lp_tautomer_probability>
1

> <r_epik_Ionization_Penalty>
2.43104e-05

> <r_epik_Ionization_Penalty_Charging>
0

> <r_epik_Ionization_Penalty_Neutral>
2.43104e-05

> <r_epik_State_Penalty>
-0

> <r_epik_Charging_Adjusted_Penalty>
0

> <i_epik_Tot_Q>
0

> <i_epik_Tot_abs_Q>
0

> <r_epik_Metal_State_Penalty>
-0

> <b_epik_Metal_Only>
0

> <s_lp_Force_Field>
OPLS_2005

> <r_lp_Energy>
45.9934

> <b_lp_Chiralities_Consistent>
1

> <s_lp_Variant>
AV-unprocessed.smi:2865-4

> <Gold.Version>
5.8.1

> <Gold.Id.Protein>
6NUR|6NUR_protein|mol2

> <Gold.PLP.Fitness>
38.5250

> <Gold.PLP.PLP>
-30.1301

> <Gold.PLP.part.hbond>
-3.1027

> <Gold.PLP.part.metal>
0.0000

> <Gold.PLP.part.buried>
-6.2630

> <Gold.PLP.part.nonpolar>
-21.9934

> <Gold.PLP.part.repulsive>
0.4315

> <Gold.PLP.ligand.clash>
0.0000

> <Gold.PLP.ligand.torsion>
0.2199

> <Gold.PLP.Chemscore.Hbond>
2.8960

> <Gold.PLP.Chemscore.CHOScore>
0.0000

> <Gold.PLP.Chemscore.Metal>
0.0000

> <Gold.Chemscore.Hbonds>
donor molecule, donor type, donor heavy atom, donor atom, acceptor molecule, acceptor atom, score
      L1  H     3    21       P1  7948  0.99
      L1  H    13    29       P1  7948  0.74
      P1  H  7989  7998       L1     6  1.00

> <Gold.PLP.Chemscore.Internal.Correction>
0.1467

> <Gold.Rescore>
     Score         DG    S(hbond)    S(metal)    S(lipo)     H(rot)  DE(clash)    DE(int)     intcor
     15.85     -17.29       2.08        0.00      67.81       1.20       0.13       1.30       ----

> <Gold.Chemscore.Fitness>
15.8526

> <Gold.Chemscore.DG>
-17.2865

> <Gold.Chemscore.ZeroCoef>
-5.4800

> <Gold.Chemscore.Hbond>
2.0804

> <Gold.Chemscore.Metal>
0.0000

> <Gold.Chemscore.Lipo>
67.8053

> <Gold.Chemscore.Internal_Hbond>
0.0000

> <Gold.Chemscore.DEClash>
0.1315

> <Gold.Chemscore.DEInternal>
1.3025

> <Gold.Chemscore.Rot>
1.2012

> <Gold.Chemscore.Internal.Correction>
   9.000000E+99

> <Gold.Chemscore.Hbonds>
donor molecule, donor type, donor heavy atom, donor atom, acceptor molecule, acceptor atom, score
      L1  H     3    21       P1  7948  0.93
      L1  H    13    29       P1  7948  0.70
      P1  H  7989  7998       L1     6  0.11

> <Gold.Chemscore.Hbond.Weighted>
-6.9484

> <Gold.Chemscore.Metal.Weighted>
-0.0000

> <Gold.Chemscore.Lipo.Weighted>
-7.9332

> <Gold.Chemscore.Internal_Hbond.Weighted>
0.0000

> <Gold.Chemscore.DEClash.Weighted>
0.1315

> <Gold.Chemscore.DEInternal.Weighted>
1.3025

> <Gold.Chemscore.Rot.Weighted>
3.0752

> <Gold.Chemscore.Internal.Correction.Weighted>
   9.000000E+99

> <Gold.Protein.RotatedTorsions>
[ 6907 6896 6895 6894 ] final -108.52 input  -60.11 | X-H torsion
[ 7974 7965 7964 7962 ] final   -4.90 input  175.53 | X-H torsion
[ 8008 7997 7996 7995 ] final  -76.59 input   59.86 | X-H torsion
[ 10167 10162 10161 10158 ] final    4.47 input  -65.29 | X-H torsion
[ 10718 10713 10712 10709 ] final   11.03 input   66.30 | X-H torsion
[ 10763 10752 10751 10750 ] final  -87.68 input  -60.55 | X-H torsion
[ 11005 11000 10999 10996 ] final  119.61 input  -57.11 | X-H torsion

> <Gold.Protein.ActiveResidues>
 VAL166  LYS551  ARG553  GLY616  TRP617  ASP618  TYR619  PRO620  LYS621  CYS622 
 ASP623  PHE694  ASN695  SER759  ASP760  ASP761  ALA762  ILE779  LEU786  VAL792 
 PHE793  MET794  SER795  GLU796  ALA797  LYS798  CYS799  TRP800  GLU811  SER814 

> <Gold.Protein.RotatedAtoms>
  150.7507  133.9665  159.3531 H   0  0  0  0  0  0  0  0  0  0  0  0  # atno 6907 bound_to 6896
  151.7595  135.0811  160.0353 H   0  0  0  0  0  0  0  0  0  0  0  0  # atno 6908 bound_to 6896
  152.3413  133.6033  159.5914 H   0  0  0  0  0  0  0  0  0  0  0  0  # atno 6909 bound_to 6896
  146.2363  140.1941  142.8333 H   0  0  0  0  0  0  0  0  0  0  0  0  # atno 7974 bound_to 7965
  154.5519  140.0724  156.8681 H   0  0  0  0  0  0  0  0  0  0  0  0  # atno 8008 bound_to 7997
  155.2976  140.3382  155.4231 H   0  0  0  0  0  0  0  0  0  0  0  0  # atno 8009 bound_to 7997
  156.1969  140.1707  156.7966 H   0  0  0  0  0  0  0  0  0  0  0  0  # atno 8010 bound_to 7997
  140.6533  143.7490  150.7611 H   0  0  0  0  0  0  0  0  0  0  0  0  # atno 10167 bound_to 10162
  156.9896  130.6037  149.5684 H   0  0  0  0  0  0  0  0  0  0  0  0  # atno 10718 bound_to 10713
  154.6362  135.5404  153.7737 H   0  0  0  0  0  0  0  0  0  0  0  0  # atno 10763 bound_to 10752
  153.0310  135.6448  154.1227 H   0  0  0  0  0  0  0  0  0  0  0  0  # atno 10764 bound_to 10752
  154.1154  135.2924  155.3201 H   0  0  0  0  0  0  0  0  0  0  0  0  # atno 10765 bound_to 10752
  139.9153  134.9629  156.7681 H   0  0  0  0  0  0  0  0  0  0  0  0  # atno 11005 bound_to 11000
  144.9834  140.8480  143.5383 LP  0  0  0  0  0  0  0  0  0  0  0  0  # atno 17320 bound_to 7965
  145.1937  139.2287  143.5229 LP  0  0  0  0  0  0  0  0  0  0  0  0  # atno 17321 bound_to 7965
  140.1145  143.4669  152.2350 LP  0  0  0  0  0  0  0  0  0  0  0  0  # atno 17342 bound_to 10162
  139.5751  144.7483  151.3785 LP  0  0  0  0  0  0  0  0  0  0  0  0  # atno 17343 bound_to 10162
  156.0212  130.5307  150.8281 LP  0  0  0  0  0  0  0  0  0  0  0  0  # atno 17370 bound_to 10713
  157.5468  131.0942  150.9751 LP  0  0  0  0  0  0  0  0  0  0  0  0  # atno 17371 bound_to 10713
  140.6643  133.9617  155.7821 LP  0  0  0  0  0  0  0  0  0  0  0  0  # atno 17394 bound_to 11000
  141.0622  134.0330  157.3643 LP  0  0  0  0  0  0  0  0  0  0  0  0  # atno 17395 bound_to 11000

$$$$
