AV-unprocessed.smi:3032|AV-procd|sdf|11560|dock1
  -GOLD-   2272016523D 1   1.00000     0.00000
 Structure written by MMmdl.
 37 38  0  0  0  0  0  0  0  0  1 V2000
  153.0546  142.0597  161.1201 C   0  0  0  0  0  0  0  0  0  0  0  0
  152.1753  142.5458  159.9591 C   0  0  1  0  0  0  0  0  0  0  0  0
  152.0360  144.0794  159.9655 C   0  0  0  0  0  0  0  0  0  0  0  0
  151.1574  144.5722  158.8063 C   0  0  0  0  0  0  0  0  0  0  0  0
  151.6981  144.0884  157.4484 C   0  0  0  0  0  0  0  0  0  0  0  0
  151.9164  142.5588  157.3788 C   0  0  2  0  0  0  0  0  0  0  0  0
  150.6062  141.7741  157.1768 C   0  0  0  0  0  0  0  0  0  0  0  0
  149.8860  141.4852  158.1322 O   0  0  0  0  0  0  0  0  0  0  0  0
  150.3099  141.4287  155.9139 N   0  0  0  0  0  0  0  0  0  0  0  0
  149.1354  140.6668  155.5053 C   0  0  0  0  0  0  0  0  0  0  0  0
  149.3669  139.9477  154.1664 C   0  0  0  0  0  0  0  0  0  0  0  0
  150.7181  139.3172  154.0803 C   0  0  0  0  0  0  0  0  0  0  0  0
  150.9238  138.1530  153.4610 N   0  0  0  0  0  0  0  0  0  0  0  0
  152.2296  137.8241  153.5527 N   0  0  0  0  0  0  0  0  0  0  0  0
  152.7265  138.8467  154.2462 C   0  0  0  0  0  0  0  0  0  0  0  0
  151.8309  139.8127  154.6108 N   0  0  0  0  0  0  0  0  0  0  0  0
  152.7249  142.0597  158.5999 C   0  0  0  0  0  0  0  0  0  0  0  0
  150.2417  137.5784  152.9868 H   0  0  0  0  0  0  0  0  0  0  0  0
  154.0684  142.4539  161.0430 H   0  0  0  0  0  0  0  0  0  0  0  0
  153.1201  140.9715  161.1332 H   0  0  0  0  0  0  0  0  0  0  0  0
  152.6470  142.3761  162.0805 H   0  0  0  0  0  0  0  0  0  0  0  0
  151.1847  142.1170  160.1098 H   0  0  0  0  0  0  0  0  0  0  0  0
  151.6084  144.4114  160.9123 H   0  0  0  0  0  0  0  0  0  0  0  0
  153.0225  144.5398  159.8944 H   0  0  0  0  0  0  0  0  0  0  0  0
  150.1322  144.2314  158.9504 H   0  0  0  0  0  0  0  0  0  0  0  0
  151.1149  145.6617  158.8157 H   0  0  0  0  0  0  0  0  0  0  0  0
  151.0279  144.4118  156.6508 H   0  0  0  0  0  0  0  0  0  0  0  0
  152.6494  144.5856  157.2546 H   0  0  0  0  0  0  0  0  0  0  0  0
  152.5288  142.3690  156.4955 H   0  0  0  0  0  0  0  0  0  0  0  0
  150.9494  141.7080  155.1840 H   0  0  0  0  0  0  0  0  0  0  0  0
  148.8614  139.9518  156.2829 H   0  0  0  0  0  0  0  0  0  0  0  0
  148.3000  141.3610  155.4130 H   0  0  0  0  0  0  0  0  0  0  0  0
  148.6082  139.1782  154.0179 H   0  0  0  0  0  0  0  0  0  0  0  0
  149.2623  140.6490  153.3374 H   0  0  0  0  0  0  0  0  0  0  0  0
  153.7749  138.8992  154.5017 H   0  0  0  0  0  0  0  0  0  0  0  0
  153.7563  142.3988  158.4937 H   0  0  0  0  0  0  0  0  0  0  0  0
  152.7715  140.9695  158.5920 H   0  0  0  0  0  0  0  0  0  0  0  0
  1  2  1  0  0  0  0
  1 19  1  0  0  0  0
  1 20  1  0  0  0  0
  1 21  1  0  0  0  0
  2 17  1  0  0  0  0
  2  3  1  0  0  0  0
  2 22  1  0  0  0  0
  3  4  1  0  0  0  0
  3 23  1  0  0  0  0
  3 24  1  0  0  0  0
  4  5  1  0  0  0  0
  4 25  1  0  0  0  0
  4 26  1  0  0  0  0
  5  6  1  0  0  0  0
  5 27  1  0  0  0  0
  5 28  1  0  0  0  0
  6  7  1  0  0  0  0
  6 17  1  0  0  0  0
  6 29  1  0  0  0  0
  7  8  2  0  0  0  0
  7  9  1  0  0  0  0
  9 10  1  0  0  0  0
  9 30  1  0  0  0  0
 10 11  1  0  0  0  0
 10 31  1  0  0  0  0
 10 32  1  0  0  0  0
 11 33  1  0  0  0  0
 11 34  1  0  0  0  0
 11 12  1  0  0  0  0
 12 16  2  0  0  0  0
 12 13  1  0  0  0  0
 13 18  1  0  0  0  0
 13 14  1  0  0  0  0
 14 15  2  0  0  0  0
 15 16  1  0  0  0  0
 15 35  1  0  0  0  0
 17 36  1  0  0  0  0
 17 37  1  0  0  0  0
M  END
> <s_m_source_file>
AV-unprocessed.smi

> <i_m_source_file_index>
3032

> <i_lp_mmshare_version>
43012

> <i_f3d_flags>
0

> <s_epik_input>
W0NIM11bQ0BASF0xW0NIMl1bQ0gyXVtDSDJdW0NASF0oW0NIMl0xKUMoPU8pW05IXVtDSDJdW0NIMl1jMm5uW2NIXVtuSF0y

> <s_epik_cmdline>
J2VwaWtfcHl0aG9uJywgJy1waCcsICc3LjAnLCAnLXRuJywgJzgnLCAnLW1hJywgJzIwMCcsICctbWV0YWxfYmluZGluZycsICctaW1hZScsICc8aW5maWxlLm1hZT4nLCAnLW9tYWUnLCAnPG91dGZpbGUubWFlPic=

> <r_lp_tautomer_probability>
0.948284

> <r_epik_Ionization_Penalty>
0.000474052

> <r_epik_Ionization_Penalty_Charging>
0

> <r_epik_Ionization_Penalty_Neutral>
0.000474052

> <r_epik_State_Penalty>
0.271807

> <r_epik_Charging_Adjusted_Penalty>
0.271807

> <i_epik_Tot_Q>
0

> <i_epik_Tot_abs_Q>
0

> <r_epik_Metal_State_Penalty>
0.397201

> <b_epik_Metal_Only>
0

> <s_lp_Force_Field>
OPLS_2005

> <r_lp_Energy>
9.09743

> <b_lp_Chiralities_Consistent>
1

> <s_lp_Variant>
AV-unprocessed.smi:3032-4

> <Gold.Version>
5.8.1

> <Gold.Id.Protein>
6NUR|6NUR_protein|mol2

> <Gold.PLP.Fitness>
42.6038

> <Gold.PLP.PLP>
-38.3672

> <Gold.PLP.part.hbond>
-3.6163

> <Gold.PLP.part.metal>
0.0000

> <Gold.PLP.part.buried>
-7.1158

> <Gold.PLP.part.nonpolar>
-29.3807

> <Gold.PLP.part.repulsive>
0.8075

> <Gold.PLP.ligand.clash>
0.0000

> <Gold.PLP.ligand.torsion>
1.1466

> <Gold.PLP.Chemscore.Hbond>
2.1471

> <Gold.PLP.Chemscore.CHOScore>
0.0000

> <Gold.PLP.Chemscore.Metal>
0.0000

> <Gold.Chemscore.Hbonds>
donor molecule, donor type, donor heavy atom, donor atom, acceptor molecule, acceptor atom, score
      L1  H    13    18       P1  7948  0.55
      P1  H  7989  7998       L1    16  0.15
      P1  H 10752 10765       L1    14  0.21

> <Gold.PLP.Chemscore.Internal.Correction>
0.0885

> <Gold.Rescore>
     Score         DG    S(hbond)    S(metal)    S(lipo)     H(rot)  DE(clash)    DE(int)     intcor
     11.13     -14.33       1.27        0.00      88.49       2.25       0.67       2.53       ----

> <Gold.Chemscore.Fitness>
11.1332

> <Gold.Chemscore.DG>
-14.3295

> <Gold.Chemscore.ZeroCoef>
-5.4800

> <Gold.Chemscore.Hbond>
1.2742

> <Gold.Chemscore.Metal>
0.0000

> <Gold.Chemscore.Lipo>
88.4947

> <Gold.Chemscore.Internal_Hbond>
0.0000

> <Gold.Chemscore.DEClash>
0.6707

> <Gold.Chemscore.DEInternal>
2.5255

> <Gold.Chemscore.Rot>
2.2501

> <Gold.Chemscore.Internal.Correction>
   9.000000E+99

> <Gold.Chemscore.Hbonds>
donor molecule, donor type, donor heavy atom, donor atom, acceptor molecule, acceptor atom, score
      L1  H    13    18       P1  7948  0.06
      P1  H 10752 10765       L1    14  0.20

> <Gold.Chemscore.Hbond.Weighted>
-4.2559

> <Gold.Chemscore.Metal.Weighted>
-0.0000

> <Gold.Chemscore.Lipo.Weighted>
-10.3539

> <Gold.Chemscore.Internal_Hbond.Weighted>
0.0000

> <Gold.Chemscore.DEClash.Weighted>
0.6707

> <Gold.Chemscore.DEInternal.Weighted>
2.5255

> <Gold.Chemscore.Rot.Weighted>
5.7603

> <Gold.Chemscore.Internal.Correction.Weighted>
   9.000000E+99

> <Gold.Protein.RotatedTorsions>
[ 6907 6896 6895 6894 ] final  -20.43 input  -60.11 | X-H torsion
[ 7974 7965 7964 7962 ] final  162.90 input  175.53 | X-H torsion
[ 8008 7997 7996 7995 ] final -170.84 input   59.86 | X-H torsion
[ 10167 10162 10161 10158 ] final -169.09 input  -65.29 | X-H torsion
[ 10718 10713 10712 10709 ] final   23.69 input   66.30 | X-H torsion
[ 10763 10752 10751 10750 ] final  154.14 input  -60.55 | X-H torsion
[ 11005 11000 10999 10996 ] final   60.66 input  -57.11 | X-H torsion

> <Gold.Protein.ActiveResidues>
 VAL166  LYS551  ARG553  GLY616  TRP617  ASP618  TYR619  PRO620  LYS621  CYS622 
 ASP623  PHE694  ASN695  SER759  ASP760  ASP761  ALA762  ILE779  LEU786  VAL792 
 PHE793  MET794  SER795  GLU796  ALA797  LYS798  CYS799  TRP800  GLU811  SER814 

> <Gold.Protein.RotatedAtoms>
  151.2482  135.0613  159.9051 H   0  0  0  0  0  0  0  0  0  0  0  0  # atno 6907 bound_to 6896
  152.5384  134.0360  159.8056 H   0  0  0  0  0  0  0  0  0  0  0  0  # atno 6908 bound_to 6896
  151.0565  133.5531  159.2669 H   0  0  0  0  0  0  0  0  0  0  0  0  # atno 6909 bound_to 6896
  144.7614  139.8106  143.6331 H   0  0  0  0  0  0  0  0  0  0  0  0  # atno 7974 bound_to 7965
  155.9237  140.1078  157.1187 H   0  0  0  0  0  0  0  0  0  0  0  0  # atno 8008 bound_to 7997
  154.4058  140.1251  156.4777 H   0  0  0  0  0  0  0  0  0  0  0  0  # atno 8009 bound_to 7997
  155.7165  140.3470  155.4999 H   0  0  0  0  0  0  0  0  0  0  0  0  # atno 8010 bound_to 7997
  139.5944  144.1143  152.1672 H   0  0  0  0  0  0  0  0  0  0  0  0  # atno 10167 bound_to 10162
  157.1695  130.6753  149.6073 H   0  0  0  0  0  0  0  0  0  0  0  0  # atno 10718 bound_to 10713
  154.1475  135.2817  155.3144 H   0  0  0  0  0  0  0  0  0  0  0  0  # atno 10763 bound_to 10752
  154.6241  135.5457  153.7611 H   0  0  0  0  0  0  0  0  0  0  0  0  # atno 10764 bound_to 10752
  153.0231  135.6446  154.1620 H   0  0  0  0  0  0  0  0  0  0  0  0  # atno 10765 bound_to 10752
  140.0216  134.6144  155.9631 H   0  0  0  0  0  0  0  0  0  0  0  0  # atno 11005 bound_to 11000
  146.1681  139.4821  142.9945 LP  0  0  0  0  0  0  0  0  0  0  0  0  # atno 17320 bound_to 7965
  145.6606  141.0241  143.1711 LP  0  0  0  0  0  0  0  0  0  0  0  0  # atno 17321 bound_to 7965
  140.0725  144.5767  150.7181 LP  0  0  0  0  0  0  0  0  0  0  0  0  # atno 17342 bound_to 10162
  140.7200  143.2579  151.4310 LP  0  0  0  0  0  0  0  0  0  0  0  0  # atno 17343 bound_to 10162
  155.9740  130.4684  150.6358 LP  0  0  0  0  0  0  0  0  0  0  0  0  # atno 17370 bound_to 10713
  157.4057  131.0816  151.1268 LP  0  0  0  0  0  0  0  0  0  0  0  0  # atno 17371 bound_to 10713
  141.1777  133.6542  156.4895 LP  0  0  0  0  0  0  0  0  0  0  0  0  # atno 17394 bound_to 11000
  140.4377  134.7044  157.4975 LP  0  0  0  0  0  0  0  0  0  0  0  0  # atno 17395 bound_to 11000

$$$$
