AV-unprocessed.smi:1447|AV-procd|sdf|5893|dock1
  -GOLD-   22720 5573D 1   1.00000     0.00000
 Structure written by MMmdl.
 47 49  0  0  0  0  0  0  0  0  1 V2000
  149.0882  133.3125  153.8758 C   0  0  0  0  0  0  0  0  0  0  0  0
  147.9731  134.1768  154.0007 O   0  0  0  0  0  0  0  0  0  0  0  0
  148.0671  135.0286  155.1320 C   0  0  0  0  0  0  0  0  0  0  0  0
  146.8672  135.9998  155.1541 C   0  0  0  0  0  0  0  0  0  0  0  0
  147.0216  137.2337  154.3586 N   0  0  0  0  0  0  0  0  0  0  0  0
  148.0090  138.1142  154.7757 N   0  0  0  0  0  0  0  0  0  0  0  0
  148.2052  139.2274  154.1483 C   0  0  0  0  0  0  0  0  0  0  0  0
  149.2429  140.1992  154.5902 C   0  0  0  0  0  0  0  0  0  0  0  0
  149.5198  141.2026  153.9308 O   0  0  0  0  0  0  0  0  0  0  0  0
  149.8451  139.9004  155.7557 N   0  0  0  0  0  0  0  0  0  0  0  0
  150.8740  140.7005  156.4106 C   0  0  0  0  0  0  0  0  0  0  0  0
  151.3992  139.9987  157.6755 C   0  0  0  0  0  0  0  0  0  0  0  0
  152.3695  140.9095  158.4478 C   0  0  0  0  0  0  0  0  0  0  0  0
  151.7076  142.1620  158.8142 N   0  0  0  0  0  0  0  0  0  0  0  0
  152.6386  142.9775  159.5769 C   0  0  0  0  0  0  0  0  0  0  0  0
  152.7697  142.6915  161.0555 C   0  0  0  0  0  0  0  0  0  0  0  0
  152.0597  143.9393  160.5894 C   0  0  0  0  0  0  0  0  0  0  0  0
  151.3193  142.8905  157.6061 C   0  0  0  0  0  0  0  0  0  0  0  0
  150.2979  142.0720  156.7970 C   0  0  0  0  0  0  0  0  0  0  0  0
  147.4101  139.5730  152.9833 C   0  0  0  0  0  0  0  0  0  0  0  0
  146.4626  138.7008  152.5744 C   0  0  0  0  0  0  0  0  0  0  0  0
  146.2193  137.4352  153.2700 C   0  0  0  0  0  0  0  0  0  0  0  0
  145.3697  136.6223  152.9066 O   0  0  0  0  0  0  0  0  0  0  0  0
  148.9739  132.6944  152.9854 H   0  0  0  0  0  0  0  0  0  0  0  0
  149.1682  132.6478  154.7373 H   0  0  0  0  0  0  0  0  0  0  0  0
  150.0168  133.8764  153.7786 H   0  0  0  0  0  0  0  0  0  0  0  0
  148.1203  134.4521  156.0574 H   0  0  0  0  0  0  0  0  0  0  0  0
  148.9932  135.6019  155.0683 H   0  0  0  0  0  0  0  0  0  0  0  0
  145.9859  135.4717  154.7867 H   0  0  0  0  0  0  0  0  0  0  0  0
  146.6584  136.2608  156.1932 H   0  0  0  0  0  0  0  0  0  0  0  0
  149.5573  139.0554  156.2286 H   0  0  0  0  0  0  0  0  0  0  0  0
  151.7029  140.8578  155.7178 H   0  0  0  0  0  0  0  0  0  0  0  0
  150.5665  139.7228  158.3245 H   0  0  0  0  0  0  0  0  0  0  0  0
  151.9045  139.0697  157.4088 H   0  0  0  0  0  0  0  0  0  0  0  0
  152.7062  140.3981  159.3505 H   0  0  0  0  0  0  0  0  0  0  0  0
  153.2567  141.1136  157.8459 H   0  0  0  0  0  0  0  0  0  0  0  0
  153.5517  143.3150  159.0888 H   0  0  0  0  0  0  0  0  0  0  0  0
  152.1583  141.8964  161.4783 H   0  0  0  0  0  0  0  0  0  0  0  0
  153.7538  142.8108  161.5041 H   0  0  0  0  0  0  0  0  0  0  0  0
  152.5706  144.8902  160.7257 H   0  0  0  0  0  0  0  0  0  0  0  0
  150.9777  143.9715  160.7032 H   0  0  0  0  0  0  0  0  0  0  0  0
  150.8775  143.8480  157.8846 H   0  0  0  0  0  0  0  0  0  0  0  0
  152.1983  143.1086  156.9972 H   0  0  0  0  0  0  0  0  0  0  0  0
  150.0108  142.6233  155.9010 H   0  0  0  0  0  0  0  0  0  0  0  0
  149.3885  141.9448  157.3868 H   0  0  0  0  0  0  0  0  0  0  0  0
  147.5674  140.5003  152.4518 H   0  0  0  0  0  0  0  0  0  0  0  0
  145.8642  138.9433  151.7086 H   0  0  0  0  0  0  0  0  0  0  0  0
  1  2  1  0  0  0  0
  1 24  1  0  0  0  0
  1 25  1  0  0  0  0
  1 26  1  0  0  0  0
  2  3  1  0  0  0  0
  3  4  1  0  0  0  0
  3 27  1  0  0  0  0
  3 28  1  0  0  0  0
  4  5  1  0  0  0  0
  4 29  1  0  0  0  0
  4 30  1  0  0  0  0
  5 22  1  0  0  0  0
  5  6  1  0  0  0  0
  6  7  2  0  0  0  0
  7  8  1  0  0  0  0
  7 20  1  0  0  0  0
  8  9  2  0  0  0  0
  8 10  1  0  0  0  0
 10 11  1  0  0  0  0
 10 31  1  0  0  0  0
 11 19  1  0  0  0  0
 11 12  1  0  0  0  0
 11 32  1  0  0  0  0
 12 13  1  0  0  0  0
 12 33  1  0  0  0  0
 12 34  1  0  0  0  0
 13 14  1  0  0  0  0
 13 35  1  0  0  0  0
 13 36  1  0  0  0  0
 14 15  1  0  0  0  0
 14 18  1  0  0  0  0
 15 17  1  0  0  0  0
 15 16  1  0  0  0  0
 15 37  1  0  0  0  0
 16 17  1  0  0  0  0
 16 38  1  0  0  0  0
 16 39  1  0  0  0  0
 17 40  1  0  0  0  0
 17 41  1  0  0  0  0
 18 19  1  0  0  0  0
 18 42  1  0  0  0  0
 18 43  1  0  0  0  0
 19 44  1  0  0  0  0
 19 45  1  0  0  0  0
 20 21  2  0  0  0  0
 20 46  1  0  0  0  0
 21 22  1  0  0  0  0
 21 47  1  0  0  0  0
 22 23  2  0  0  0  0
M  END
> <s_m_source_file>
AV-unprocessed.smi

> <i_m_source_file_index>
1447

> <i_lp_mmshare_version>
43012

> <i_f3d_flags>
0

> <s_epik_input>
W0NIM11PW0NIMl1bQ0gyXW4xbmMoW2NIXVtjSF1jMT1PKUMoPU8pW05IXVtDSF0yW0NIMl1bQ0gyXU4oW0NIMl1bQ0gyXTIpW0NIXTNbQ0gyXVtDSDJdMw==

> <s_epik_cmdline>
J2VwaWtfcHl0aG9uJywgJy1waCcsICc3LjAnLCAnLXRuJywgJzgnLCAnLW1hJywgJzIwMCcsICctbWV0YWxfYmluZGluZycsICctaW1hZScsICc8aW5maWxlLm1hZT4nLCAnLW9tYWUnLCAnPG91dGZpbGUubWFlPic=

> <r_lp_tautomer_probability>
1

> <r_epik_Ionization_Penalty>
0.826878

> <r_epik_Ionization_Penalty_Charging>
6.86753e-09

> <r_epik_Ionization_Penalty_Neutral>
0.826878

> <r_epik_State_Penalty>
0.8604

> <r_epik_Charging_Adjusted_Penalty>
0.8604

> <i_epik_Tot_Q>
0

> <i_epik_Tot_abs_Q>
0

> <r_epik_Metal_State_Penalty>
0.8604

> <b_epik_Metal_Only>
0

> <s_lp_Force_Field>
OPLS_2005

> <r_lp_Energy>
44.3131

> <b_lp_Chiralities_Consistent>
1

> <s_lp_Variant>
AV-unprocessed.smi:1447-3

> <Gold.Version>
5.8.1

> <Gold.Id.Protein>
6NUR|6NUR_protein|mol2

> <Gold.PLP.Fitness>
39.1724

> <Gold.PLP.PLP>
-36.2526

> <Gold.PLP.part.hbond>
-2.0000

> <Gold.PLP.part.metal>
0.0000

> <Gold.PLP.part.buried>
-2.0889

> <Gold.PLP.part.nonpolar>
-33.8679

> <Gold.PLP.part.repulsive>
2.0155

> <Gold.PLP.ligand.clash>
0.0000

> <Gold.PLP.ligand.torsion>
0.7919

> <Gold.PLP.Chemscore.Hbond>
1.0722

> <Gold.PLP.Chemscore.CHOScore>
0.0000

> <Gold.PLP.Chemscore.Metal>
0.0000

> <Gold.Chemscore.Hbonds>
donor molecule, donor type, donor heavy atom, donor atom, acceptor molecule, acceptor atom, score
      P1  H  7989  7998       L1     9  0.22
      P1  H  8011  8017       L1     9  0.83

> <Gold.PLP.Chemscore.Internal.Correction>
1.2867

> <Gold.Rescore>
     Score         DG    S(hbond)    S(metal)    S(lipo)     H(rot)  DE(clash)    DE(int)     intcor
     14.43     -15.70       0.85        0.00     100.55       1.71       0.39       0.88       ----

> <Gold.Chemscore.Fitness>
14.4304

> <Gold.Chemscore.DG>
-15.6986

> <Gold.Chemscore.ZeroCoef>
-5.4800

> <Gold.Chemscore.Hbond>
0.8513

> <Gold.Chemscore.Metal>
0.0000

> <Gold.Chemscore.Lipo>
100.5451

> <Gold.Chemscore.Internal_Hbond>
0.0000

> <Gold.Chemscore.DEClash>
0.3922

> <Gold.Chemscore.DEInternal>
0.8759

> <Gold.Chemscore.Rot>
1.7143

> <Gold.Chemscore.Internal.Correction>
   9.000000E+99

> <Gold.Chemscore.Hbonds>
donor molecule, donor type, donor heavy atom, donor atom, acceptor molecule, acceptor atom, score
      P1  H  7989  7998       L1     9  0.09
      P1  H  8011  8017       L1     9  0.76

> <Gold.Chemscore.Hbond.Weighted>
-2.8435

> <Gold.Chemscore.Metal.Weighted>
-0.0000

> <Gold.Chemscore.Lipo.Weighted>
-11.7638

> <Gold.Chemscore.Internal_Hbond.Weighted>
0.0000

> <Gold.Chemscore.DEClash.Weighted>
0.3922

> <Gold.Chemscore.DEInternal.Weighted>
0.8759

> <Gold.Chemscore.Rot.Weighted>
4.3887

> <Gold.Chemscore.Internal.Correction.Weighted>
   9.000000E+99

> <Gold.Protein.RotatedTorsions>
[ 6907 6896 6895 6894 ] final   68.01 input  -60.11 | X-H torsion
[ 7974 7965 7964 7962 ] final -143.55 input  175.53 | X-H torsion
[ 8008 7997 7996 7995 ] final   64.88 input   59.86 | X-H torsion
[ 10167 10162 10161 10158 ] final  -97.39 input  -65.29 | X-H torsion
[ 10718 10713 10712 10709 ] final   89.00 input   66.30 | X-H torsion
[ 10763 10752 10751 10750 ] final  -53.59 input  -60.55 | X-H torsion
[ 11005 11000 10999 10996 ] final  -92.64 input  -57.11 | X-H torsion

> <Gold.Protein.ActiveResidues>
 VAL166  LYS551  ARG553  GLY616  TRP617  ASP618  TYR619  PRO620  LYS621  CYS622 
 ASP623  PHE694  ASN695  SER759  ASP760  ASP761  ALA762  ILE779  LEU786  VAL792 
 PHE793  MET794  SER795  GLU796  ALA797  LYS798  CYS799  TRP800  GLU811  SER814 

> <Gold.Protein.RotatedAtoms>
  152.4591  134.5224  159.9786 H   0  0  0  0  0  0  0  0  0  0  0  0  # atno 6907 bound_to 6896
  151.5277  133.3449  159.2920 H   0  0  0  0  0  0  0  0  0  0  0  0  # atno 6908 bound_to 6896
  150.8547  134.7912  159.7099 H   0  0  0  0  0  0  0  0  0  0  0  0  # atno 6909 bound_to 6896
  144.8362  140.5821  143.5483 H   0  0  0  0  0  0  0  0  0  0  0  0  # atno 7974 bound_to 7965
  155.6530  140.3497  155.4755 H   0  0  0  0  0  0  0  0  0  0  0  0  # atno 8008 bound_to 7997
  155.9832  140.1179  157.0730 H   0  0  0  0  0  0  0  0  0  0  0  0  # atno 8009 bound_to 7997
  154.4197  140.1134  156.5450 H   0  0  0  0  0  0  0  0  0  0  0  0  # atno 8010 bound_to 7997
  140.2839  143.3264  152.0413 H   0  0  0  0  0  0  0  0  0  0  0  0  # atno 10167 bound_to 10162
  157.6953  131.0316  150.3359 H   0  0  0  0  0  0  0  0  0  0  0  0  # atno 10718 bound_to 10713
  154.1613  135.6474  153.4986 H   0  0  0  0  0  0  0  0  0  0  0  0  # atno 10763 bound_to 10752
  153.0110  135.5361  154.6708 H   0  0  0  0  0  0  0  0  0  0  0  0  # atno 10764 bound_to 10752
  154.6022  135.2945  155.0495 H   0  0  0  0  0  0  0  0  0  0  0  0  # atno 10765 bound_to 10752
  141.1517  133.7834  157.0048 H   0  0  0  0  0  0  0  0  0  0  0  0  # atno 11005 bound_to 11000
  145.4791  139.1497  143.3772 LP  0  0  0  0  0  0  0  0  0  0  0  0  # atno 17320 bound_to 7965
  146.2660  140.4926  142.8834 LP  0  0  0  0  0  0  0  0  0  0  0  0  # atno 17321 bound_to 7965
  139.4955  144.6572  151.6545 LP  0  0  0  0  0  0  0  0  0  0  0  0  # atno 17342 bound_to 10162
  140.5788  143.9981  150.6257 LP  0  0  0  0  0  0  0  0  0  0  0  0  # atno 17343 bound_to 10162
  156.3826  130.3883  149.7090 LP  0  0  0  0  0  0  0  0  0  0  0  0  # atno 17370 bound_to 10713
  156.4467  130.7887  151.2908 LP  0  0  0  0  0  0  0  0  0  0  0  0  # atno 17371 bound_to 10713
  140.0916  134.9589  157.1785 LP  0  0  0  0  0  0  0  0  0  0  0  0  # atno 17394 bound_to 11000
  140.3438  134.2674  155.7208 LP  0  0  0  0  0  0  0  0  0  0  0  0  # atno 17395 bound_to 11000

$$$$
