AV-unprocessed.smi:917|AV-procd|sdf|4162|dock9
  -GOLD-   22720 2 73D 1   1.00000     0.00000
 Structure written by MMmdl.
 43 44  0  0  0  0  0  0  0  0  1 V2000
  148.2362  136.1952  155.0184 C   0  0  0  0  0  0  0  0  0  0  0  0
  149.3932  136.1082  155.9719 C   0  0  0  0  0  0  0  0  0  0  0  0
  149.2833  135.3788  157.0695 N   0  0  0  0  0  0  0  0  0  0  0  0
  150.5085  135.4980  157.7323 O   0  0  0  0  0  0  0  0  0  0  0  0
  151.3173  136.3050  157.0000 C   0  0  0  0  0  0  0  0  0  0  0  0
  152.6825  136.5503  157.5477 C   0  0  0  0  0  0  0  0  0  0  0  0
  150.6704  136.7309  155.8720 C   0  0  0  0  0  0  0  0  0  0  0  0
  151.1746  137.6344  154.7760 C   0  0  0  0  0  0  0  0  0  0  0  0
  151.2087  139.0780  155.2782 C   0  0  0  0  0  0  0  0  0  0  0  0
  150.7966  139.9893  154.5604 O   0  0  0  0  0  0  0  0  0  0  0  0
  151.7190  139.2735  156.5036 N   0  0  0  0  0  0  0  0  0  0  0  0
  151.9024  140.5734  157.1366 C   0  0  0  0  0  0  0  0  0  0  0  0
  151.9082  140.4490  158.6685 C   0  0  0  0  0  0  0  0  0  0  0  0
  152.7519  141.5414  159.3433 C   0  0  0  0  0  0  0  0  0  0  0  0
  152.0040  142.8776  159.4975 C   0  0  0  0  0  0  0  0  0  0  0  0
  152.0286  143.7395  158.2337 C   0  0  0  0  0  0  0  0  0  0  0  0
  151.6620  145.1457  158.7151 C   0  0  0  0  0  0  0  0  0  0  0  0
  152.0947  145.2172  160.1874 C   0  0  0  0  0  0  0  0  0  0  0  0
  152.5839  143.8127  160.5643 C   0  0  0  0  0  0  0  0  0  0  0  0
  148.5656  136.0405  153.9908 H   0  0  0  0  0  0  0  0  0  0  0  0
  147.7628  137.1756  155.0710 H   0  0  0  0  0  0  0  0  0  0  0  0
  147.4746  135.4452  155.2367 H   0  0  0  0  0  0  0  0  0  0  0  0
  153.3509  136.9348  156.7776 H   0  0  0  0  0  0  0  0  0  0  0  0
  153.1154  135.6283  157.9364 H   0  0  0  0  0  0  0  0  0  0  0  0
  152.6476  137.2772  158.3591 H   0  0  0  0  0  0  0  0  0  0  0  0
  152.1795  137.3544  154.4586 H   0  0  0  0  0  0  0  0  0  0  0  0
  150.5478  137.5645  153.8861 H   0  0  0  0  0  0  0  0  0  0  0  0
  152.0302  138.4652  157.0228 H   0  0  0  0  0  0  0  0  0  0  0  0
  152.8245  141.0394  156.7852 H   0  0  0  0  0  0  0  0  0  0  0  0
  151.0863  141.2229  156.8190 H   0  0  0  0  0  0  0  0  0  0  0  0
  150.8837  140.4986  159.0399 H   0  0  0  0  0  0  0  0  0  0  0  0
  152.2912  139.4676  158.9508 H   0  0  0  0  0  0  0  0  0  0  0  0
  153.0901  141.1918  160.3196 H   0  0  0  0  0  0  0  0  0  0  0  0
  153.6527  141.7091  158.7518 H   0  0  0  0  0  0  0  0  0  0  0  0
  150.9608  142.6755  159.7459 H   0  0  0  0  0  0  0  0  0  0  0  0
  153.0343  143.7514  157.8104 H   0  0  0  0  0  0  0  0  0  0  0  0
  151.3501  143.3734  157.4626 H   0  0  0  0  0  0  0  0  0  0  0  0
  152.1356  145.9174  158.1075 H   0  0  0  0  0  0  0  0  0  0  0  0
  150.5831  145.2903  158.6442 H   0  0  0  0  0  0  0  0  0  0  0  0
  152.8806  145.9576  160.3416 H   0  0  0  0  0  0  0  0  0  0  0  0
  151.2478  145.5080  160.8103 H   0  0  0  0  0  0  0  0  0  0  0  0
  152.2847  143.5296  161.5739 H   0  0  0  0  0  0  0  0  0  0  0  0
  153.6741  143.7883  160.5268 H   0  0  0  0  0  0  0  0  0  0  0  0
  1  2  1  0  0  0  0
  1 20  1  0  0  0  0
  1 21  1  0  0  0  0
  1 22  1  0  0  0  0
  2  7  1  0  0  0  0
  2  3  2  0  0  0  0
  3  4  1  0  0  0  0
  4  5  1  0  0  0  0
  5  6  1  0  0  0  0
  5  7  2  0  0  0  0
  6 23  1  0  0  0  0
  6 24  1  0  0  0  0
  6 25  1  0  0  0  0
  7  8  1  0  0  0  0
  8  9  1  0  0  0  0
  8 26  1  0  0  0  0
  8 27  1  0  0  0  0
  9 10  2  0  0  0  0
  9 11  1  0  0  0  0
 11 12  1  0  0  0  0
 11 28  1  0  0  0  0
 12 13  1  0  0  0  0
 12 29  1  0  0  0  0
 12 30  1  0  0  0  0
 13 14  1  0  0  0  0
 13 31  1  0  0  0  0
 13 32  1  0  0  0  0
 14 15  1  0  0  0  0
 14 33  1  0  0  0  0
 14 34  1  0  0  0  0
 15 19  1  0  0  0  0
 15 16  1  0  0  0  0
 15 35  1  0  0  0  0
 16 17  1  0  0  0  0
 16 36  1  0  0  0  0
 16 37  1  0  0  0  0
 17 18  1  0  0  0  0
 17 38  1  0  0  0  0
 17 39  1  0  0  0  0
 18 19  1  0  0  0  0
 18 40  1  0  0  0  0
 18 41  1  0  0  0  0
 19 42  1  0  0  0  0
 19 43  1  0  0  0  0
M  END
> <s_m_source_file>
AV-unprocessed.smi

> <i_m_source_file_index>
917

> <i_lp_mmshare_version>
43012

> <i_f3d_flags>
0

> <s_epik_input>
W0NIM11jMW5vYyhbQ0gzXSljMVtDSDJdQyg9TylbTkhdW0NIMl1bQ0gyXVtDSDJdW0NIXTJbQ0gyXVtDSDJdW0NIMl1bQ0gyXTI=

> <s_epik_cmdline>
J2VwaWtfcHl0aG9uJywgJy1waCcsICc3LjAnLCAnLXRuJywgJzgnLCAnLW1hJywgJzIwMCcsICctbWV0YWxfYmluZGluZycsICctaW1hZScsICc8aW5maWxlLm1hZT4nLCAnLW9tYWUnLCAnPG91dGZpbGUubWFlPic=

> <r_lp_tautomer_probability>
1

> <r_epik_Ionization_Penalty>
1.90047e-08

> <r_epik_Ionization_Penalty_Charging>
0

> <r_epik_Ionization_Penalty_Neutral>
1.90047e-08

> <r_epik_State_Penalty>
-0

> <r_epik_Charging_Adjusted_Penalty>
0

> <i_epik_Tot_Q>
0

> <i_epik_Tot_abs_Q>
0

> <r_epik_Metal_State_Penalty>
-0

> <b_epik_Metal_Only>
0

> <s_lp_Force_Field>
OPLS_2005

> <r_lp_Energy>
14.8475

> <b_lp_Chiralities_Consistent>
1

> <s_lp_Variant>
AV-unprocessed.smi:917-1

> <Gold.Version>
5.8.1

> <Gold.Id.Protein>
6NUR|6NUR_protein|mol2

> <Gold.PLP.Fitness>
40.3031

> <Gold.PLP.PLP>
-37.9795

> <Gold.PLP.part.hbond>
-2.0000

> <Gold.PLP.part.metal>
0.0000

> <Gold.PLP.part.buried>
-5.8665

> <Gold.PLP.part.nonpolar>
-30.4918

> <Gold.PLP.part.repulsive>
0.1943

> <Gold.PLP.ligand.clash>
0.0000

> <Gold.PLP.ligand.torsion>
1.0415

> <Gold.PLP.Chemscore.Hbond>
1.4480

> <Gold.PLP.Chemscore.CHOScore>
0.0000

> <Gold.PLP.Chemscore.Metal>
0.0000

> <Gold.Chemscore.Hbonds>
donor molecule, donor type, donor heavy atom, donor atom, acceptor molecule, acceptor atom, score
      P1  H  6896  6907       L1     4  0.58
      P1  H  7989  7998       L1    10  1.00

> <Gold.PLP.Chemscore.Internal.Correction>
0.0626

> <Gold.Rescore>
     Score         DG    S(hbond)    S(metal)    S(lipo)     H(rot)  DE(clash)    DE(int)     intcor
     18.14     -19.32       1.70        0.00     105.74       1.65       0.04       1.14       ----

> <Gold.Chemscore.Fitness>
18.1385

> <Gold.Chemscore.DG>
-19.3154

> <Gold.Chemscore.ZeroCoef>
-5.4800

> <Gold.Chemscore.Hbond>
1.7026

> <Gold.Chemscore.Metal>
0.0000

> <Gold.Chemscore.Lipo>
105.7383

> <Gold.Chemscore.Internal_Hbond>
0.0000

> <Gold.Chemscore.DEClash>
0.0407

> <Gold.Chemscore.DEInternal>
1.1361

> <Gold.Chemscore.Rot>
1.6495

> <Gold.Chemscore.Internal.Correction>
   9.000000E+99

> <Gold.Chemscore.Hbonds>
donor molecule, donor type, donor heavy atom, donor atom, acceptor molecule, acceptor atom, score
      P1  H  6896  6907       L1     4  0.52
      P1  H  7989  7998       L1    10  0.99

> <Gold.Chemscore.Hbond.Weighted>
-5.6868

> <Gold.Chemscore.Metal.Weighted>
-0.0000

> <Gold.Chemscore.Lipo.Weighted>
-12.3714

> <Gold.Chemscore.Internal_Hbond.Weighted>
0.0000

> <Gold.Chemscore.DEClash.Weighted>
0.0407

> <Gold.Chemscore.DEInternal.Weighted>
1.1361

> <Gold.Chemscore.Rot.Weighted>
4.2228

> <Gold.Chemscore.Internal.Correction.Weighted>
   9.000000E+99

> <Gold.Protein.RotatedTorsions>
[ 6907 6896 6895 6894 ] final  -71.45 input  -60.11 | X-H torsion
[ 7974 7965 7964 7962 ] final -169.67 input  175.53 | X-H torsion
[ 8008 7997 7996 7995 ] final -113.29 input   59.86 | X-H torsion
[ 10167 10162 10161 10158 ] final  -81.48 input  -65.29 | X-H torsion
[ 10718 10713 10712 10709 ] final  159.13 input   66.30 | X-H torsion
[ 10763 10752 10751 10750 ] final   55.03 input  -60.55 | X-H torsion
[ 11005 11000 10999 10996 ] final -143.14 input  -57.11 | X-H torsion

> <Gold.Protein.ActiveResidues>
 VAL166  LYS551  ARG553  GLY616  TRP617  ASP618  TYR619  PRO620  LYS621  CYS622 
 ASP623  PHE694  ASN695  SER759  ASP760  ASP761  ALA762  ILE779  LEU786  VAL792 
 PHE793  MET794  SER795  GLU796  ALA797  LYS798  CYS799  TRP800  GLU811  SER814 

> <Gold.Protein.RotatedAtoms>
  150.7212  134.5307  159.5698 H   0  0  0  0  0  0  0  0  0  0  0  0  # atno 6907 bound_to 6896
  152.2840  134.7793  160.0400 H   0  0  0  0  0  0  0  0  0  0  0  0  # atno 6908 bound_to 6896
  151.8430  133.3391  159.3686 H   0  0  0  0  0  0  0  0  0  0  0  0  # atno 6909 bound_to 6896
  144.7182  140.2186  143.6319 H   0  0  0  0  0  0  0  0  0  0  0  0  # atno 7974 bound_to 7965
  155.0184  140.0393  157.2427 H   0  0  0  0  0  0  0  0  0  0  0  0  # atno 8008 bound_to 7997
  154.7399  140.2747  155.6359 H   0  0  0  0  0  0  0  0  0  0  0  0  # atno 8009 bound_to 7997
  156.2862  140.2667  156.2123 H   0  0  0  0  0  0  0  0  0  0  0  0  # atno 8010 bound_to 7997
  140.4408  143.2515  151.8628 H   0  0  0  0  0  0  0  0  0  0  0  0  # atno 10167 bound_to 10162
  157.1684  131.0604  151.2195 H   0  0  0  0  0  0  0  0  0  0  0  0  # atno 10718 bound_to 10713
  152.9811  135.5725  154.5000 H   0  0  0  0  0  0  0  0  0  0  0  0  # atno 10763 bound_to 10752
  154.4521  135.2779  155.1776 H   0  0  0  0  0  0  0  0  0  0  0  0  # atno 10764 bound_to 10752
  154.3399  135.6231  153.5645 H   0  0  0  0  0  0  0  0  0  0  0  0  # atno 10765 bound_to 10752
  140.8155  134.2693  157.4923 H   0  0  0  0  0  0  0  0  0  0  0  0  # atno 11005 bound_to 11000
  145.8522  139.2181  143.1765 LP  0  0  0  0  0  0  0  0  0  0  0  0  # atno 17320 bound_to 7965
  146.0250  140.8312  142.9904 LP  0  0  0  0  0  0  0  0  0  0  0  0  # atno 17321 bound_to 7965
  139.4789  144.5231  151.8774 LP  0  0  0  0  0  0  0  0  0  0  0  0  # atno 17342 bound_to 10162
  140.4320  144.2102  150.5888 LP  0  0  0  0  0  0  0  0  0  0  0  0  # atno 17343 bound_to 10162
  157.4066  130.7362  149.6807 LP  0  0  0  0  0  0  0  0  0  0  0  0  # atno 17370 bound_to 10713
  155.9742  130.4106  150.3940 LP  0  0  0  0  0  0  0  0  0  0  0  0  # atno 17371 bound_to 10713
  139.8711  134.9507  156.4062 LP  0  0  0  0  0  0  0  0  0  0  0  0  # atno 17394 bound_to 11000
  140.9153  133.7682  155.9841 LP  0  0  0  0  0  0  0  0  0  0  0  0  # atno 17395 bound_to 11000

$$$$
