AV-unprocessed.smi:1255|AV-procd|sdf|5282|dock8
  -GOLD-   22720 4403D 1   1.00000     0.00000
 Structure written by MMmdl.
 40 41  0  0  0  0  0  0  0  0  1 V2000
  156.7458  140.5027  167.0454 C   0  0  0  0  0  0  0  0  0  0  0  0
  156.5025  139.9284  165.6396 C   0  0  1  0  0  0  0  0  0  0  0  0
  155.8165  138.6454  165.7867 N   0  0  0  0  0  0  0  0  0  0  0  0
  155.5922  137.7749  164.7914 C   0  0  0  0  0  0  0  0  0  0  0  0
  154.9181  136.6997  165.1997 N   0  0  0  0  0  0  0  0  0  0  0  0
  155.9575  137.9362  163.6287 O   0  0  0  0  0  0  0  0  0  0  0  0
  155.6267  140.9251  164.8618 C   0  0  0  0  0  0  0  0  0  0  0  0
  155.3065  141.9965  165.3786 O   0  0  0  0  0  0  0  0  0  0  0  0
  155.2623  140.5337  163.6269 N   0  0  0  0  0  0  0  0  0  0  0  0
  154.4680  141.2263  162.6731 C   0  0  0  0  0  0  0  0  0  0  0  0
  153.6784  142.3623  162.9654 C   0  0  0  0  0  0  0  0  0  0  0  0
  152.9496  142.9725  161.9264 C   0  0  0  0  0  0  0  0  0  0  0  0
  153.0283  142.4405  160.6175 C   0  0  0  0  0  0  0  0  0  0  0  0
  152.3038  143.0361  159.5613 N   0  0  0  0  0  0  0  0  0  0  0  0
  152.4994  144.4637  159.3135 C   0  0  0  0  0  0  0  0  0  0  0  0
  151.4280  144.9918  158.3449 C   0  0  0  0  0  0  0  0  0  0  0  0
  151.4446  144.2220  157.1477 O   0  0  0  0  0  0  0  0  0  0  0  0
  151.1420  142.8530  157.3956 C   0  0  0  0  0  0  0  0  0  0  0  0
  152.1964  142.2453  158.3372 C   0  0  0  0  0  0  0  0  0  0  0  0
  153.8034  141.3638  160.3383 N   0  0  0  0  0  0  0  0  0  0  0  0
  154.4996  140.7813  161.3368 C   0  0  0  0  0  0  0  0  0  0  0  0
  157.2607  141.4633  166.9972 H   0  0  0  0  0  0  0  0  0  0  0  0
  157.3691  139.8315  167.6369 H   0  0  0  0  0  0  0  0  0  0  0  0
  155.8131  140.6522  167.5919 H   0  0  0  0  0  0  0  0  0  0  0  0
  157.4589  139.7841  165.1326 H   0  0  0  0  0  0  0  0  0  0  0  0
  155.4680  138.4198  166.7067 H   0  0  0  0  0  0  0  0  0  0  0  0
  154.6904  135.9636  164.5476 H   0  0  0  0  0  0  0  0  0  0  0  0
  154.6430  136.6243  166.1682 H   0  0  0  0  0  0  0  0  0  0  0  0
  155.5336  139.5969  163.3650 H   0  0  0  0  0  0  0  0  0  0  0  0
  153.6295  142.7886  163.9550 H   0  0  0  0  0  0  0  0  0  0  0  0
  152.3579  143.8491  162.1430 H   0  0  0  0  0  0  0  0  0  0  0  0
  152.4451  145.0216  160.2491 H   0  0  0  0  0  0  0  0  0  0  0  0
  153.4934  144.6241  158.8938 H   0  0  0  0  0  0  0  0  0  0  0  0
  150.4374  144.9540  158.8016 H   0  0  0  0  0  0  0  0  0  0  0  0
  151.6251  146.0353  158.0995 H   0  0  0  0  0  0  0  0  0  0  0  0
  150.1420  142.7620  157.8225 H   0  0  0  0  0  0  0  0  0  0  0  0
  151.1323  142.3156  156.4474 H   0  0  0  0  0  0  0  0  0  0  0  0
  153.1695  142.2268  157.8448 H   0  0  0  0  0  0  0  0  0  0  0  0
  151.9276  141.2108  158.5451 H   0  0  0  0  0  0  0  0  0  0  0  0
  155.0998  139.9278  161.0571 H   0  0  0  0  0  0  0  0  0  0  0  0
  1  2  1  0  0  0  0
  1 22  1  0  0  0  0
  1 23  1  0  0  0  0
  1 24  1  0  0  0  0
  2  3  1  0  0  0  0
  2  7  1  0  0  0  0
  2 25  1  0  0  0  0
  3  4  1  0  0  0  0
  3 26  1  0  0  0  0
  4  5  1  0  0  0  0
  4  6  2  0  0  0  0
  5 27  1  0  0  0  0
  5 28  1  0  0  0  0
  7  8  2  0  0  0  0
  7  9  1  0  0  0  0
  9 10  1  0  0  0  0
  9 29  1  0  0  0  0
 10 21  1  0  0  0  0
 10 11  2  0  0  0  0
 11 12  1  0  0  0  0
 11 30  1  0  0  0  0
 12 13  2  0  0  0  0
 12 31  1  0  0  0  0
 13 14  1  0  0  0  0
 13 20  1  0  0  0  0
 14 19  1  0  0  0  0
 14 15  1  0  0  0  0
 15 16  1  0  0  0  0
 15 32  1  0  0  0  0
 15 33  1  0  0  0  0
 16 17  1  0  0  0  0
 16 34  1  0  0  0  0
 16 35  1  0  0  0  0
 17 18  1  0  0  0  0
 18 19  1  0  0  0  0
 18 36  1  0  0  0  0
 18 37  1  0  0  0  0
 19 38  1  0  0  0  0
 19 39  1  0  0  0  0
 20 21  2  0  0  0  0
 21 40  1  0  0  0  0
M  END
> <s_m_source_file>
AV-unprocessed.smi

> <i_m_source_file_index>
1255

> <i_lp_mmshare_version>
43012

> <i_f3d_flags>
0

> <s_epik_input>
W05IMl1DKD1PKVtOSF1bQ0BASF0oW0NIM10pQyg9TylbTkhdYzFbY0hdW2NIXWMobltjSF0xKU4yW0NIMl1bQ0gyXU9bQ0gyXVtDSDJdMg==

> <s_epik_cmdline>
J2VwaWtfcHl0aG9uJywgJy1waCcsICc3LjAnLCAnLXRuJywgJzgnLCAnLW1hJywgJzIwMCcsICctbWV0YWxfYmluZGluZycsICctaW1hZScsICc8aW5maWxlLm1hZT4nLCAnLW9tYWUnLCAnPG91dGZpbGUubWFlPic=

> <r_lp_tautomer_probability>
1

> <r_epik_Ionization_Penalty>
0.00069351

> <r_epik_Ionization_Penalty_Charging>
0

> <r_epik_Ionization_Penalty_Neutral>
0.00069351

> <r_epik_State_Penalty>
0.000408291

> <r_epik_Charging_Adjusted_Penalty>
0.000408291

> <i_epik_Tot_Q>
0

> <i_epik_Tot_abs_Q>
0

> <r_epik_Metal_State_Penalty>
-0

> <b_epik_Metal_Only>
0

> <s_lp_Force_Field>
OPLS_2005

> <r_lp_Energy>
18.2011

> <b_lp_Chiralities_Consistent>
1

> <s_lp_Variant>
AV-unprocessed.smi:1255-2

> <Gold.Version>
5.8.1

> <Gold.Id.Protein>
6NUR|6NUR_protein|mol2

> <Gold.PLP.Fitness>
38.1292

> <Gold.PLP.PLP>
-38.4749

> <Gold.PLP.part.hbond>
-1.1244

> <Gold.PLP.part.metal>
0.0000

> <Gold.PLP.part.buried>
-6.7722

> <Gold.PLP.part.nonpolar>
-30.7898

> <Gold.PLP.part.repulsive>
1.4515

> <Gold.PLP.ligand.clash>
0.0000

> <Gold.PLP.ligand.torsion>
0.3516

> <Gold.PLP.Chemscore.Hbond>
0.0000

> <Gold.PLP.Chemscore.CHOScore>
0.0000

> <Gold.PLP.Chemscore.Metal>
0.0000

> <Gold.PLP.Chemscore.Internal.Correction>
0.3575

> <Gold.Rescore>
     Score         DG    S(hbond)    S(metal)    S(lipo)     H(rot)  DE(clash)    DE(int)     intcor
      9.14     -11.48       0.00        0.00      92.96       1.91       0.68       1.65       ----

> <Gold.Chemscore.Fitness>
9.1435

> <Gold.Chemscore.DG>
-11.4750

> <Gold.Chemscore.ZeroCoef>
-5.4800

> <Gold.Chemscore.Hbond>
0.0000

> <Gold.Chemscore.Metal>
0.0000

> <Gold.Chemscore.Lipo>
92.9585

> <Gold.Chemscore.Internal_Hbond>
0.0000

> <Gold.Chemscore.DEClash>
0.6773

> <Gold.Chemscore.DEInternal>
1.6542

> <Gold.Chemscore.Rot>
1.9067

> <Gold.Chemscore.Internal.Correction>
   9.000000E+99

> <Gold.Chemscore.Hbond.Weighted>
-0.0000

> <Gold.Chemscore.Metal.Weighted>
-0.0000

> <Gold.Chemscore.Lipo.Weighted>
-10.8761

> <Gold.Chemscore.Internal_Hbond.Weighted>
0.0000

> <Gold.Chemscore.DEClash.Weighted>
0.6773

> <Gold.Chemscore.DEInternal.Weighted>
1.6542

> <Gold.Chemscore.Rot.Weighted>
4.8811

> <Gold.Chemscore.Internal.Correction.Weighted>
   9.000000E+99

> <Gold.Protein.RotatedTorsions>
[ 6907 6896 6895 6894 ] final  171.32 input  -60.11 | X-H torsion
[ 7974 7965 7964 7962 ] final   79.25 input  175.53 | X-H torsion
[ 8008 7997 7996 7995 ] final -129.61 input   59.86 | X-H torsion
[ 10167 10162 10161 10158 ] final   53.16 input  -65.29 | X-H torsion
[ 10718 10713 10712 10709 ] final  -91.69 input   66.30 | X-H torsion
[ 10763 10752 10751 10750 ] final -109.48 input  -60.55 | X-H torsion
[ 11005 11000 10999 10996 ] final  176.88 input  -57.11 | X-H torsion

> <Gold.Protein.ActiveResidues>
 VAL166  LYS551  ARG553  GLY616  TRP617  ASP618  TYR619  PRO620  LYS621  CYS622 
 ASP623  PHE694  ASN695  SER759  ASP760  ASP761  ALA762  ILE779  LEU786  VAL792 
 PHE793  MET794  SER795  GLU796  ALA797  LYS798  CYS799  TRP800  GLU811  SER814 

> <Gold.Protein.RotatedAtoms>
  151.8021  133.3371  159.3529 H   0  0  0  0  0  0  0  0  0  0  0  0  # atno 6907 bound_to 6896
  150.7355  134.5744  159.5916 H   0  0  0  0  0  0  0  0  0  0  0  0  # atno 6908 bound_to 6896
  152.3135  134.7469  160.0382 H   0  0  0  0  0  0  0  0  0  0  0  0  # atno 6909 bound_to 6896
  145.6667  139.2485  143.1892 H   0  0  0  0  0  0  0  0  0  0  0  0  # atno 7974 bound_to 7965
  155.2820  140.0444  157.3016 H   0  0  0  0  0  0  0  0  0  0  0  0  # atno 8008 bound_to 7997
  154.5591  140.2340  155.8332 H   0  0  0  0  0  0  0  0  0  0  0  0  # atno 8009 bound_to 7997
  156.2032  140.3020  155.9578 H   0  0  0  0  0  0  0  0  0  0  0  0  # atno 8010 bound_to 7997
  140.2437  144.3555  150.6371 H   0  0  0  0  0  0  0  0  0  0  0  0  # atno 10167 bound_to 10162
  155.9996  130.4958  150.5512 H   0  0  0  0  0  0  0  0  0  0  0  0  # atno 10718 bound_to 10713
  154.8195  135.4599  154.0738 H   0  0  0  0  0  0  0  0  0  0  0  0  # atno 10763 bound_to 10752
  153.2104  135.6881  153.8128 H   0  0  0  0  0  0  0  0  0  0  0  0  # atno 10764 bound_to 10752
  153.7581  135.3288  155.3309 H   0  0  0  0  0  0  0  0  0  0  0  0  # atno 10765 bound_to 10752
  140.3780  134.6972  157.4433 H   0  0  0  0  0  0  0  0  0  0  0  0  # atno 11005 bound_to 11000
  146.1080  140.7463  142.9517 LP  0  0  0  0  0  0  0  0  0  0  0  0  # atno 17320 bound_to 7965
  144.7071  140.3893  143.7110 LP  0  0  0  0  0  0  0  0  0  0  0  0  # atno 17321 bound_to 7965
  140.6094  143.2169  151.6917 LP  0  0  0  0  0  0  0  0  0  0  0  0  # atno 17342 bound_to 10162
  139.5069  144.3666  152.0510 LP  0  0  0  0  0  0  0  0  0  0  0  0  # atno 17343 bound_to 10162
  157.3435  131.0721  151.1769 LP  0  0  0  0  0  0  0  0  0  0  0  0  # atno 17370 bound_to 10713
  157.2610  130.6659  149.5974 LP  0  0  0  0  0  0  0  0  0  0  0  0  # atno 17371 bound_to 10713
  140.0500  134.6144  155.8873 LP  0  0  0  0  0  0  0  0  0  0  0  0  # atno 17394 bound_to 11000
  141.1933  133.6578  156.5541 LP  0  0  0  0  0  0  0  0  0  0  0  0  # atno 17395 bound_to 11000

$$$$
