AV-unprocessed.smi:1274|AV-procd|sdf|5341|dock9
  -GOLD-   22720 4473D 1   1.00000     0.00000
 Structure written by MMmdl.
 36 37  0  0  0  0  0  0  0  0  2 V2000
  152.7599  139.8047  154.9643 O   0  0  0  0  0  0  0  0  0  0  0  0
  151.8302  138.7258  155.3364 S   0  0  0  0  0  0  0  0  0  0  0  0
  151.9587  137.4367  154.6368 O   0  0  0  0  0  0  0  0  0  0  0  0
  151.6452  138.5902  156.9397 N   0  5  0  0  0  0  0  0  0  0  0  0
  152.0479  139.6892  157.7997 C   0  0  0  0  0  0  0  0  0  0  0  0
  151.3213  140.9852  157.3778 C   0  0  0  0  0  0  0  0  0  0  0  0
  151.6506  142.2051  158.2331 C   0  0  0  0  0  0  0  0  0  0  0  0
  152.4110  142.0787  159.4166 C   0  0  0  0  0  0  0  0  0  0  0  0
  152.6866  143.2315  160.1765 C   0  0  0  0  0  0  0  0  0  0  0  0
  152.1844  144.4674  159.7237 C   0  0  0  0  0  0  0  0  0  0  0  0
  151.4493  144.6033  158.5991 N   0  0  0  0  0  0  0  0  0  0  0  0
  151.1927  143.4927  157.8745 C   0  0  0  0  0  0  0  0  0  0  0  0
  150.2275  139.2998  154.9788 N   0  0  0  0  0  0  0  0  0  0  0  0
  150.0859  140.7317  154.6417 C   0  0  0  0  0  0  0  0  0  0  0  0
  148.6197  141.1908  154.7190 C   0  0  0  0  0  0  0  0  0  0  0  0
  147.7152  140.3173  153.8462 C   0  0  0  0  0  0  0  0  0  0  0  0
  147.8768  138.8535  154.2629 C   0  0  0  0  0  0  0  0  0  0  0  0
  149.3470  138.4134  154.1817 C   0  0  0  0  0  0  0  0  0  0  0  0
  151.8284  139.4886  158.8490 H   0  0  0  0  0  0  0  0  0  0  0  0
  153.1243  139.8555  157.7480 H   0  0  0  0  0  0  0  0  0  0  0  0
  151.5778  141.2161  156.3433 H   0  0  0  0  0  0  0  0  0  0  0  0
  150.2420  140.8256  157.3861 H   0  0  0  0  0  0  0  0  0  0  0  0
  152.7825  141.1146  159.7321 H   0  0  0  0  0  0  0  0  0  0  0  0
  153.2698  143.1693  161.0831 H   0  0  0  0  0  0  0  0  0  0  0  0
  152.3763  145.3716  160.2820 H   0  0  0  0  0  0  0  0  0  0  0  0
  150.6037  143.6360  156.9805 H   0  0  0  0  0  0  0  0  0  0  0  0
  150.6804  141.3347  155.3273 H   0  0  0  0  0  0  0  0  0  0  0  0
  150.4868  140.9003  153.6416 H   0  0  0  0  0  0  0  0  0  0  0  0
  148.2796  141.1492  155.7546 H   0  0  0  0  0  0  0  0  0  0  0  0
  148.5410  142.2332  154.4097 H   0  0  0  0  0  0  0  0  0  0  0  0
  146.6751  140.6280  153.9495 H   0  0  0  0  0  0  0  0  0  0  0  0
  147.9800  140.4384  152.7952 H   0  0  0  0  0  0  0  0  0  0  0  0
  147.5114  138.7171  155.2815 H   0  0  0  0  0  0  0  0  0  0  0  0
  147.2637  138.2152  153.6264 H   0  0  0  0  0  0  0  0  0  0  0  0
  149.6862  138.4213  153.1452 H   0  0  0  0  0  0  0  0  0  0  0  0
  149.4298  137.3832  154.5261 H   0  0  0  0  0  0  0  0  0  0  0  0
  1  2  2  0  0  0  0
  2  3  2  0  0  0  0
  2  4  1  0  0  0  0
  2 13  1  0  0  0  0
  4  5  1  0  0  0  0
  5  6  1  0  0  0  0
  5 19  1  0  0  0  0
  5 20  1  0  0  0  0
  6  7  1  0  0  0  0
  6 21  1  0  0  0  0
  6 22  1  0  0  0  0
  7 12  1  0  0  0  0
  7  8  2  0  0  0  0
  8  9  1  0  0  0  0
  8 23  1  0  0  0  0
  9 10  2  0  0  0  0
  9 24  1  0  0  0  0
 10 11  1  0  0  0  0
 10 25  1  0  0  0  0
 11 12  2  0  0  0  0
 12 26  1  0  0  0  0
 13 18  1  0  0  0  0
 13 14  1  0  0  0  0
 14 15  1  0  0  0  0
 14 27  1  0  0  0  0
 14 28  1  0  0  0  0
 15 16  1  0  0  0  0
 15 29  1  0  0  0  0
 15 30  1  0  0  0  0
 16 17  1  0  0  0  0
 16 31  1  0  0  0  0
 16 32  1  0  0  0  0
 17 18  1  0  0  0  0
 17 33  1  0  0  0  0
 17 34  1  0  0  0  0
 18 35  1  0  0  0  0
 18 36  1  0  0  0  0
M  CHG  1   4  -1
M  END
> <s_m_source_file>
AV-unprocessed.smi

> <i_m_source_file_index>
1274

> <i_lp_mmshare_version>
43012

> <i_f3d_flags>
0

> <s_epik_input>
W0NIMl0xW0NIMl1bQ0gyXVtDSDJdW0NIMl1OMVMoPU8pKD1PKVtOSF1bQ0gyXVtDSDJdYzJbY0hdW2NIXVtjSF1uW2NIXTI=

> <s_epik_cmdline>
J2VwaWtfcHl0aG9uJywgJy1waCcsICc3LjAnLCAnLXRuJywgJzgnLCAnLW1hJywgJzIwMCcsICctbWV0YWxfYmluZGluZycsICctaW1hZScsICc8aW5maWxlLm1hZT4nLCAnLW9tYWUnLCAnPG91dGZpbGUubWFlPic=

> <r_epik_Ionization_Penalty>
1.98317

> <r_epik_Ionization_Penalty_Charging>
1.95606

> <r_epik_Ionization_Penalty_Neutral>
0.027117

> <r_epik_State_Penalty>
2.28376

> <r_epik_Charging_Adjusted_Penalty>
4.23982

> <i_epik_Tot_Q>
-1

> <i_epik_Tot_abs_Q>
1

> <r_epik_Metal_State_Penalty>
0.598332

> <b_epik_Metal_Only>
0

> <s_lp_Force_Field>
OPLS_2005

> <r_lp_Energy>
4.69546

> <b_lp_Chiralities_Consistent>
1

> <s_lp_Variant>
AV-unprocessed.smi:1274-2

> <Gold.Version>
5.8.1

> <Gold.Id.Protein>
6NUR|6NUR_protein|mol2

> <Gold.PLP.Fitness>
44.0933

> <Gold.PLP.PLP>
-34.2502

> <Gold.PLP.part.hbond>
-3.0000

> <Gold.PLP.part.metal>
0.0000

> <Gold.PLP.part.buried>
-2.0611

> <Gold.PLP.part.nonpolar>
-30.2202

> <Gold.PLP.part.repulsive>
0.3368

> <Gold.PLP.ligand.clash>
0.0000

> <Gold.PLP.ligand.torsion>
0.8668

> <Gold.PLP.Chemscore.Hbond>
2.3390

> <Gold.PLP.Chemscore.CHOScore>
1.0000

> <Gold.PLP.Chemscore.Metal>
0.0000

> <Gold.Chemscore.Hbonds>
donor molecule, donor type, donor heavy atom, donor atom, acceptor molecule, acceptor atom, score
      P1  H  7989  7998       L1     1  0.41
      P1  H  7997  8008       L1     1  1.00
      P1  H 10752 10765       L1     3  0.86
      L1  C    12    26       P1  8028  1.00

> <Gold.PLP.Chemscore.Internal.Correction>
1.5598

> <Gold.Rescore>
     Score         DG    S(hbond)    S(metal)    S(lipo)     H(rot)  DE(clash)    DE(int)     intcor
     18.69     -20.01       2.11        0.00      95.82       1.45       0.47       0.85       ----

> <Gold.Chemscore.Fitness>
18.6876

> <Gold.Chemscore.DG>
-20.0089

> <Gold.Chemscore.ZeroCoef>
-5.4800

> <Gold.Chemscore.Hbond>
2.1080

> <Gold.Chemscore.Metal>
0.0000

> <Gold.Chemscore.Lipo>
95.8220

> <Gold.Chemscore.Internal_Hbond>
0.0000

> <Gold.Chemscore.DEClash>
0.4675

> <Gold.Chemscore.DEInternal>
0.8538

> <Gold.Chemscore.Rot>
1.4544

> <Gold.Chemscore.Internal.Correction>
   9.000000E+99

> <Gold.Chemscore.Hbonds>
donor molecule, donor type, donor heavy atom, donor atom, acceptor molecule, acceptor atom, score
      P1  H  7989  7998       L1     1  0.16
      P1  H  7997  8008       L1     1  0.97
      P1  H 10752 10765       L1     3  0.80

> <Gold.Chemscore.Hbond.Weighted>
-7.0409

> <Gold.Chemscore.Metal.Weighted>
-0.0000

> <Gold.Chemscore.Lipo.Weighted>
-11.2112

> <Gold.Chemscore.Internal_Hbond.Weighted>
0.0000

> <Gold.Chemscore.DEClash.Weighted>
0.4675

> <Gold.Chemscore.DEInternal.Weighted>
0.8538

> <Gold.Chemscore.Rot.Weighted>
3.7232

> <Gold.Chemscore.Internal.Correction.Weighted>
   9.000000E+99

> <Gold.Protein.RotatedTorsions>
[ 6907 6896 6895 6894 ] final   93.63 input  -60.11 | X-H torsion
[ 7974 7965 7964 7962 ] final  -16.47 input  175.53 | X-H torsion
[ 8008 7997 7996 7995 ] final   -7.02 input   59.86 | X-H torsion
[ 10167 10162 10161 10158 ] final  -92.20 input  -65.29 | X-H torsion
[ 10718 10713 10712 10709 ] final  -55.43 input   66.30 | X-H torsion
[ 10763 10752 10751 10750 ] final  163.34 input  -60.55 | X-H torsion
[ 11005 11000 10999 10996 ] final    0.14 input  -57.11 | X-H torsion

> <Gold.Protein.ActiveResidues>
 VAL166  LYS551  ARG553  GLY616  TRP617  ASP618  TYR619  PRO620  LYS621  CYS622 
 ASP623  PHE694  ASN695  SER759  ASP760  ASP761  ALA762  ILE779  LEU786  VAL792 
 PHE793  MET794  SER795  GLU796  ALA797  LYS798  CYS799  TRP800  GLU811  SER814 

> <Gold.Protein.RotatedAtoms>
  152.5452  134.1318  159.8441 H   0  0  0  0  0  0  0  0  0  0  0  0  # atno 6907 bound_to 6896
  151.1363  133.4995  159.2605 H   0  0  0  0  0  0  0  0  0  0  0  0  # atno 6908 bound_to 6896
  151.1621  135.0288  159.8769 H   0  0  0  0  0  0  0  0  0  0  0  0  # atno 6909 bound_to 6896
  146.1986  140.3640  142.8431 H   0  0  0  0  0  0  0  0  0  0  0  0  # atno 7974 bound_to 7965
  154.5879  140.2418  155.7961 H   0  0  0  0  0  0  0  0  0  0  0  0  # atno 8008 bound_to 7997
  156.2226  140.2992  155.9945 H   0  0  0  0  0  0  0  0  0  0  0  0  # atno 8009 bound_to 7997
  155.2425  140.0407  157.2967 H   0  0  0  0  0  0  0  0  0  0  0  0  # atno 8010 bound_to 7997
  140.3372  143.2962  151.9876 H   0  0  0  0  0  0  0  0  0  0  0  0  # atno 10167 bound_to 10162
  156.1370  130.4156  150.0169 H   0  0  0  0  0  0  0  0  0  0  0  0  # atno 10718 bound_to 10713
  154.2922  135.2761  155.2649 H   0  0  0  0  0  0  0  0  0  0  0  0  # atno 10763 bound_to 10752
  154.5123  135.5779  153.6618 H   0  0  0  0  0  0  0  0  0  0  0  0  # atno 10764 bound_to 10752
  152.9912  135.6184  154.3088 H   0  0  0  0  0  0  0  0  0  0  0  0  # atno 10765 bound_to 10752
  140.6298  133.9585  155.8268 H   0  0  0  0  0  0  0  0  0  0  0  0  # atno 11005 bound_to 11000
  144.8634  140.7171  143.6093 LP  0  0  0  0  0  0  0  0  0  0  0  0  # atno 17320 bound_to 7965
  145.3560  139.1694  143.4409 LP  0  0  0  0  0  0  0  0  0  0  0  0  # atno 17321 bound_to 7965
  139.4846  144.6187  151.7297 LP  0  0  0  0  0  0  0  0  0  0  0  0  # atno 17342 bound_to 10162
  140.5343  144.0681  150.6064 LP  0  0  0  0  0  0  0  0  0  0  0  0  # atno 17343 bound_to 10162
  156.8066  130.9309  151.3645 LP  0  0  0  0  0  0  0  0  0  0  0  0  # atno 17370 bound_to 10713
  157.6541  130.8909  149.9692 LP  0  0  0  0  0  0  0  0  0  0  0  0  # atno 17371 bound_to 10713
  141.0683  134.0243  157.3562 LP  0  0  0  0  0  0  0  0  0  0  0  0  # atno 17394 bound_to 11000
  139.9120  135.0191  156.7731 LP  0  0  0  0  0  0  0  0  0  0  0  0  # atno 17395 bound_to 11000

$$$$
