AV-unprocessed.smi:290|AV-procd|sdf|2234|dock8
  -GOLD-   2262022103D 1   1.00000     0.00000
 Structure written by MMmdl.
 59 62  0  0  0  0  0  0  0  0  2 V2000
  149.8644  141.7672  157.0043 C   0  0  0  0  0  0  0  0  0  0  0  0
  150.5284  141.2426  155.7218 C   0  0  1  0  0  0  0  0  0  0  0  0
  151.6080  140.3942  156.1020 O   0  0  0  0  0  0  0  0  0  0  0  0
  151.8088  139.4345  155.0803 C   0  0  0  0  0  0  0  0  0  0  0  0
  150.3835  139.0571  154.7077 C   0  0  0  0  0  0  0  0  0  0  0  0
  149.6433  140.3921  154.7660 C   0  0  2  0  0  0  0  0  0  0  0  0
  149.7125  140.9820  153.4787 O   0  0  0  0  0  0  0  0  0  0  0  0
  148.1471  140.2531  155.1526 C   0  0  0  0  0  0  0  0  0  0  0  0
  147.4011  139.3662  154.2719 N   0  0  0  0  0  0  0  0  0  0  0  0
  147.1064  139.5800  152.9458 C   0  0  0  0  0  0  0  0  0  0  0  0
  146.4168  138.6334  152.3722 N   0  0  0  0  0  0  0  0  0  0  0  0
  146.2306  137.6812  153.3699 C   0  0  0  0  0  0  0  0  0  0  0  0
  145.5749  136.4143  153.4448 C   0  0  0  0  0  0  0  0  0  0  0  0
  144.9272  135.7936  152.4221 N   0  0  0  0  0  0  0  0  0  0  0  0
  145.2107  136.1716  151.0473 C   0  0  0  0  0  0  0  0  0  0  0  0
  145.0997  134.8772  150.2531 C   0  0  0  0  0  0  0  0  0  0  0  0
  144.0696  134.0416  151.0306 C   0  0  1  0  0  0  0  0  0  0  0  0
  144.2143  132.5810  150.7452 N   0  3  1  0  0  0  0  0  0  0  0  0
  143.8226  132.1745  149.3735 C   0  0  0  0  0  0  0  0  0  0  0  0
  145.5562  132.0460  151.1039 C   0  0  0  0  0  0  0  0  0  0  0  0
  145.5674  130.5090  151.1374 C   0  0  0  0  0  0  0  0  0  0  0  0
  146.8665  130.0466  151.4411 O   0  0  0  0  0  0  0  0  0  0  0  0
  144.3412  134.4581  152.5003 C   0  0  2  0  0  0  0  0  0  0  0  0
  143.0687  134.4883  153.3750 C   0  0  0  0  0  0  0  0  0  0  0  0
  145.6021  135.7731  154.6428 N   0  0  0  0  0  0  0  0  0  0  0  0
  146.2246  136.3147  155.6927 C   0  0  0  0  0  0  0  0  0  0  0  0
  146.8737  137.4765  155.7665 N   0  0  0  0  0  0  0  0  0  0  0  0
  146.8484  138.1335  154.5728 C   0  0  0  0  0  0  0  0  0  0  0  0
  143.0671  134.3670  150.7462 H   0  0  0  0  0  0  0  0  0  0  0  0
  145.0861  133.7838  152.9207 H   0  0  0  0  0  0  0  0  0  0  0  0
  149.0315  142.4330  156.7774 H   0  0  0  0  0  0  0  0  0  0  0  0
  150.5793  142.3331  157.6019 H   0  0  0  0  0  0  0  0  0  0  0  0
  149.4934  140.9529  157.6268 H   0  0  0  0  0  0  0  0  0  0  0  0
  150.9557  142.0925  155.1859 H   0  0  0  0  0  0  0  0  0  0  0  0
  152.3304  139.8914  154.2378 H   0  0  0  0  0  0  0  0  0  0  0  0
  152.3929  138.5847  155.4334 H   0  0  0  0  0  0  0  0  0  0  0  0
  150.3110  138.5510  153.7440 H   0  0  0  0  0  0  0  0  0  0  0  0
  149.9945  138.3790  155.4683 H   0  0  0  0  0  0  0  0  0  0  0  0
  149.4625  140.3347  152.8372 H   0  0  0  0  0  0  0  0  0  0  0  0
  148.0507  139.8628  156.1659 H   0  0  0  0  0  0  0  0  0  0  0  0
  147.6590  141.2285  155.1494 H   0  0  0  0  0  0  0  0  0  0  0  0
  147.4153  140.4687  152.4145 H   0  0  0  0  0  0  0  0  0  0  0  0
  144.4628  136.8944  150.7196 H   0  0  0  0  0  0  0  0  0  0  0  0
  146.1977  136.6204  150.9265 H   0  0  0  0  0  0  0  0  0  0  0  0
  144.8216  135.0658  149.2163 H   0  0  0  0  0  0  0  0  0  0  0  0
  146.0671  134.3721  150.2534 H   0  0  0  0  0  0  0  0  0  0  0  0
  144.4092  132.7097  148.6257 H   0  0  0  0  0  0  0  0  0  0  0  0
  142.7645  132.3568  149.1898 H   0  0  0  0  0  0  0  0  0  0  0  0
  143.9818  131.1079  149.2176 H   0  0  0  0  0  0  0  0  0  0  0  0
  146.2965  132.4135  150.3915 H   0  0  0  0  0  0  0  0  0  0  0  0
  145.8890  132.4082  152.0756 H   0  0  0  0  0  0  0  0  0  0  0  0
  144.8575  130.1096  151.8613 H   0  0  0  0  0  0  0  0  0  0  0  0
  145.2829  130.1144  150.1616 H   0  0  0  0  0  0  0  0  0  0  0  0
  147.4725  130.4146  150.8154 H   0  0  0  0  0  0  0  0  0  0  0  0
  142.6079  133.5084  153.4782 H   0  0  0  0  0  0  0  0  0  0  0  0
  142.3194  135.1578  152.9516 H   0  0  0  0  0  0  0  0  0  0  0  0
  143.2802  134.8426  154.3833 H   0  0  0  0  0  0  0  0  0  0  0  0
  146.1987  135.7344  156.6033 H   0  0  0  0  0  0  0  0  0  0  0  0
  143.5637  132.1243  151.3690 H   0  0  0  0  0  0  0  0  0  0  0  0
  1  2  1  0  0  0  0
  1 31  1  0  0  0  0
  1 32  1  0  0  0  0
  1 33  1  0  0  0  0
  2  6  1  0  0  0  0
  2  3  1  0  0  0  0
  2 34  1  0  0  0  0
  3  4  1  0  0  0  0
  4  5  1  0  0  0  0
  4 35  1  0  0  0  0
  4 36  1  0  0  0  0
  5  6  1  0  0  0  0
  5 37  1  0  0  0  0
  5 38  1  0  0  0  0
  6  7  1  0  0  0  0
  6  8  1  0  0  0  0
  7 39  1  0  0  0  0
  8  9  1  0  0  0  0
  8 40  1  0  0  0  0
  8 41  1  0  0  0  0
  9 28  1  0  0  0  0
  9 10  1  0  0  0  0
 10 11  2  0  0  0  0
 10 42  1  0  0  0  0
 11 12  1  0  0  0  0
 12 28  2  0  0  0  0
 12 13  1  0  0  0  0
 13 14  1  0  0  0  0
 13 25  2  0  0  0  0
 14 23  1  0  0  0  0
 14 15  1  0  0  0  0
 15 16  1  0  0  0  0
 15 43  1  0  0  0  0
 15 44  1  0  0  0  0
 16 17  1  0  0  0  0
 16 45  1  0  0  0  0
 16 46  1  0  0  0  0
 17 29  1  0  0  0  0
 17 18  1  0  0  0  0
 17 23  1  0  0  0  0
 18 19  1  0  0  0  0
 18 20  1  0  0  0  0
 18 59  1  0  0  0  0
 19 47  1  0  0  0  0
 19 48  1  0  0  0  0
 19 49  1  0  0  0  0
 20 21  1  0  0  0  0
 20 50  1  0  0  0  0
 20 51  1  0  0  0  0
 21 22  1  0  0  0  0
 21 52  1  0  0  0  0
 21 53  1  0  0  0  0
 22 54  1  0  0  0  0
 23 30  1  0  0  0  0
 23 24  1  0  0  0  0
 24 55  1  0  0  0  0
 24 56  1  0  0  0  0
 24 57  1  0  0  0  0
 25 26  1  0  0  0  0
 26 27  2  0  0  0  0
 26 58  1  0  0  0  0
 27 28  1  0  0  0  0
M  CHG  1  18   1
M  END
> <s_m_source_file>
AV-unprocessed.smi

> <i_m_source_file_index>
290

> <i_lp_mmshare_version>
43012

> <i_f3d_flags>
0

> <s_epik_input>
W0NIMl0xW0NIMl1PW0NAQEhdKFtDSDNdKVtDQEBdMShbT0hdKVtDSDJdbihbY0hdbjIpYyhjMjMpbltjSF1uYzNONFtDSDJdW0NIMl1bQ0BIXShbQ0BIXTRbQ0gzXSlOKFtDSDNdKVtDSDJdW0NIMl1bT0hd

> <s_epik_cmdline>
J2VwaWtfcHl0aG9uJywgJy1waCcsICc3LjAnLCAnLXRuJywgJzgnLCAnLW1hJywgJzIwMCcsICctbWV0YWxfYmluZGluZycsICctaW1hZScsICc8aW5maWxlLm1hZT4nLCAnLW9tYWUnLCAnPG91dGZpbGUubWFlPic=

> <r_lp_tautomer_probability>
1

> <r_epik_Ionization_Penalty>
0.0036983

> <r_epik_Ionization_Penalty_Charging>
0.0032725

> <r_epik_Ionization_Penalty_Neutral>
0.000425798

> <r_epik_State_Penalty>
-0

> <r_epik_Charging_Adjusted_Penalty>
0.0032725

> <i_epik_Tot_Q>
1

> <i_epik_Tot_abs_Q>
1

> <r_epik_Metal_State_Penalty>
-0

> <b_epik_Metal_Only>
0

> <s_lp_Force_Field>
OPLS_2005

> <r_lp_Energy>
60.3603

> <b_lp_Chiralities_Consistent>
1

> <s_lp_Variant>
AV-unprocessed.smi:290-20

> <Gold.Version>
5.8.1

> <Gold.Id.Protein>
6NUR|6NUR_protein|mol2

> <Gold.PLP.Fitness>
50.9277

> <Gold.PLP.PLP>
-40.1201

> <Gold.PLP.part.hbond>
-3.4908

> <Gold.PLP.part.metal>
0.0000

> <Gold.PLP.part.buried>
-0.4160

> <Gold.PLP.part.nonpolar>
-36.6316

> <Gold.PLP.part.repulsive>
0.3927

> <Gold.PLP.ligand.clash>
0.0000

> <Gold.PLP.ligand.torsion>
0.2438

> <Gold.PLP.Chemscore.Hbond>
2.9580

> <Gold.PLP.Chemscore.CHOScore>
0.7087

> <Gold.PLP.Chemscore.Metal>
0.0000

> <Gold.Chemscore.Hbonds>
donor molecule, donor type, donor heavy atom, donor atom, acceptor molecule, acceptor atom, score
      L1  H     7    39       P1  7957  0.78
      L1  H    22    54       P1 10747  1.00
      P1  H  7989  7998       L1     7  0.17
      P1  H  8011  8017       L1     7  0.85
      L1  C    10    42       P1  7957  0.60

> <Gold.PLP.Chemscore.Internal.Correction>
0.2951

> <Gold.Rescore>
     Score         DG    S(hbond)    S(metal)    S(lipo)     H(rot)  DE(clash)    DE(int)     intcor
     12.32     -14.20       1.87        0.00      94.39       3.35       0.76       1.11       ----

> <Gold.Chemscore.Fitness>
12.3205

> <Gold.Chemscore.DG>
-14.1968

> <Gold.Chemscore.ZeroCoef>
-5.4800

> <Gold.Chemscore.Hbond>
1.8724

> <Gold.Chemscore.Metal>
0.0000

> <Gold.Chemscore.Lipo>
94.3898

> <Gold.Chemscore.Internal_Hbond>
0.0000

> <Gold.Chemscore.DEClash>
0.7620

> <Gold.Chemscore.DEInternal>
1.1142

> <Gold.Chemscore.Rot>
3.3518

> <Gold.Chemscore.Internal.Correction>
   9.000000E+99

> <Gold.Chemscore.Hbonds>
donor molecule, donor type, donor heavy atom, donor atom, acceptor molecule, acceptor atom, score
      L1  H     7    39       P1  7957  0.78
      L1  H    22    54       P1 10747  0.97
      P1  H  7989  7998       L1     7  0.01
      P1  H  8011  8017       L1     7  0.14

> <Gold.Chemscore.Hbond.Weighted>
-6.2537

> <Gold.Chemscore.Metal.Weighted>
-0.0000

> <Gold.Chemscore.Lipo.Weighted>
-11.0436

> <Gold.Chemscore.Internal_Hbond.Weighted>
0.0000

> <Gold.Chemscore.DEClash.Weighted>
0.7620

> <Gold.Chemscore.DEInternal.Weighted>
1.1142

> <Gold.Chemscore.Rot.Weighted>
8.5806

> <Gold.Chemscore.Internal.Correction.Weighted>
   9.000000E+99

> <Gold.Protein.RotatedTorsions>
[ 6907 6896 6895 6894 ] final  -13.99 input  -60.11 | X-H torsion
[ 7974 7965 7964 7962 ] final  144.32 input  175.53 | X-H torsion
[ 8008 7997 7996 7995 ] final  -70.22 input   59.86 | X-H torsion
[ 10167 10162 10161 10158 ] final   61.83 input  -65.29 | X-H torsion
[ 10718 10713 10712 10709 ] final   41.28 input   66.30 | X-H torsion
[ 10763 10752 10751 10750 ] final   -2.58 input  -60.55 | X-H torsion
[ 11005 11000 10999 10996 ] final -121.40 input  -57.11 | X-H torsion

> <Gold.Protein.ActiveResidues>
 VAL166  LYS551  ARG553  GLY616  TRP617  ASP618  TYR619  PRO620  LYS621  CYS622 
 ASP623  PHE694  ASN695  SER759  ASP760  ASP761  ALA762  ILE779  LEU786  VAL792 
 PHE793  MET794  SER795  GLU796  ALA797  LYS798  CYS799  TRP800  GLU811  SER814 

> <Gold.Protein.RotatedAtoms>
  151.3464  135.0875  159.9387 H   0  0  0  0  0  0  0  0  0  0  0  0  # atno 6907 bound_to 6896
  152.5198  133.9396  159.7630 H   0  0  0  0  0  0  0  0  0  0  0  0  # atno 6908 bound_to 6896
  150.9763  133.6238  159.2759 H   0  0  0  0  0  0  0  0  0  0  0  0  # atno 6909 bound_to 6896
  144.8845  139.5649  143.5827 H   0  0  0  0  0  0  0  0  0  0  0  0  # atno 7974 bound_to 7965
  154.4996  140.0838  156.7770 H   0  0  0  0  0  0  0  0  0  0  0  0  # atno 8008 bound_to 7997
  155.4034  140.3438  155.4240 H   0  0  0  0  0  0  0  0  0  0  0  0  # atno 8009 bound_to 7997
  156.1439  140.1538  156.8865 H   0  0  0  0  0  0  0  0  0  0  0  0  # atno 8010 bound_to 7997
  140.1505  144.4467  150.6762 H   0  0  0  0  0  0  0  0  0  0  0  0  # atno 10167 bound_to 10162
  157.3918  130.7810  149.7275 H   0  0  0  0  0  0  0  0  0  0  0  0  # atno 10718 bound_to 10713
  153.3599  135.6990  153.6721 H   0  0  0  0  0  0  0  0  0  0  0  0  # atno 10763 bound_to 10752
  153.5413  135.3572  155.2720 H   0  0  0  0  0  0  0  0  0  0  0  0  # atno 10764 bound_to 10752
  154.8666  135.4204  154.2854 H   0  0  0  0  0  0  0  0  0  0  0  0  # atno 10765 bound_to 10752
  141.0073  134.0317  157.3461 H   0  0  0  0  0  0  0  0  0  0  0  0  # atno 11005 bound_to 11000
  146.3016  139.7444  142.9087 LP  0  0  0  0  0  0  0  0  0  0  0  0  # atno 17320 bound_to 7965
  145.3893  141.0370  143.3133 LP  0  0  0  0  0  0  0  0  0  0  0  0  # atno 17321 bound_to 7965
  140.6705  143.2284  151.5636 LP  0  0  0  0  0  0  0  0  0  0  0  0  # atno 17342 bound_to 10162
  139.5428  144.2601  152.1384 LP  0  0  0  0  0  0  0  0  0  0  0  0  # atno 17343 bound_to 10162
  155.9800  130.4034  150.3553 LP  0  0  0  0  0  0  0  0  0  0  0  0  # atno 17370 bound_to 10713
  157.1670  131.0359  151.2813 LP  0  0  0  0  0  0  0  0  0  0  0  0  # atno 17371 bound_to 10713
  139.9070  135.0182  156.7529 LP  0  0  0  0  0  0  0  0  0  0  0  0  # atno 17394 bound_to 11000
  140.6792  133.9489  155.7901 LP  0  0  0  0  0  0  0  0  0  0  0  0  # atno 17395 bound_to 11000

$$$$
