AV-unprocessed.smi:400|AV-procd|sdf|2493|dock2
  -GOLD-   2262022443D 1   1.00000     0.00000
 Structure written by MMmdl.
 40 41  0  0  0  0  0  0  0  0  1 V2000
  145.1075  136.6155  152.0574 C   0  0  0  0  0  0  0  0  0  0  0  0
  145.6401  137.7572  152.9379 C   0  0  0  0  0  0  0  0  0  0  0  0
  146.8803  138.4775  152.3633 C   0  0  1  0  0  0  0  0  0  0  0  0
  146.5547  139.1384  151.0125 C   0  0  0  0  0  0  0  0  0  0  0  0
  147.4411  139.5197  153.3438 C   0  0  0  0  0  0  0  0  0  0  0  0
  146.7548  140.4942  153.6546 O   0  0  0  0  0  0  0  0  0  0  0  0
  148.6832  139.2814  153.8063 N   0  0  0  0  0  0  0  0  0  0  0  0
  149.4319  140.0363  154.7475 C   0  0  0  0  0  0  0  0  0  0  0  0
  150.7173  139.5305  155.0348 C   0  0  0  0  0  0  0  0  0  0  0  0
  151.5336  140.1978  155.9677 C   0  0  0  0  0  0  0  0  0  0  0  0
  151.0517  141.3642  156.6083 C   0  0  0  0  0  0  0  0  0  0  0  0
  151.8096  142.0839  157.5578 N   0  0  0  0  0  0  0  0  0  0  0  0
  151.4641  143.4954  157.7085 C   0  0  0  0  0  0  0  0  0  0  0  0
  152.5514  144.2307  158.5115 C   0  0  0  0  0  0  0  0  0  0  0  0
  152.7572  143.5741  159.7579 O   0  0  0  0  0  0  0  0  0  0  0  0
  153.2054  142.2347  159.5815 C   0  0  0  0  0  0  0  0  0  0  0  0
  152.1406  141.4273  158.8193 C   0  0  0  0  0  0  0  0  0  0  0  0
  149.7542  141.7943  156.2464 C   0  0  0  0  0  0  0  0  0  0  0  0
  148.9712  141.1576  155.3510 N   0  0  0  0  0  0  0  0  0  0  0  0
  144.1960  136.1947  152.4822 H   0  0  0  0  0  0  0  0  0  0  0  0
  145.8297  135.8040  151.9671 H   0  0  0  0  0  0  0  0  0  0  0  0
  144.8723  136.9696  151.0533 H   0  0  0  0  0  0  0  0  0  0  0  0
  144.8397  138.4856  153.0726 H   0  0  0  0  0  0  0  0  0  0  0  0
  145.8598  137.3709  153.9343 H   0  0  0  0  0  0  0  0  0  0  0  0
  147.6504  137.7258  152.1806 H   0  0  0  0  0  0  0  0  0  0  0  0
  147.4217  139.6600  150.6050 H   0  0  0  0  0  0  0  0  0  0  0  0
  145.7430  139.8613  151.1043 H   0  0  0  0  0  0  0  0  0  0  0  0
  146.2492  138.3930  150.2778 H   0  0  0  0  0  0  0  0  0  0  0  0
  149.1390  138.4533  153.4520 H   0  0  0  0  0  0  0  0  0  0  0  0
  151.0790  138.6352  154.5499 H   0  0  0  0  0  0  0  0  0  0  0  0
  152.5110  139.7926  156.1819 H   0  0  0  0  0  0  0  0  0  0  0  0
  151.3421  143.9884  156.7450 H   0  0  0  0  0  0  0  0  0  0  0  0
  150.5067  143.5690  158.2259 H   0  0  0  0  0  0  0  0  0  0  0  0
  153.4867  144.2732  157.9510 H   0  0  0  0  0  0  0  0  0  0  0  0
  152.2466  145.2602  158.6993 H   0  0  0  0  0  0  0  0  0  0  0  0
  154.1565  142.2257  159.0471 H   0  0  0  0  0  0  0  0  0  0  0  0
  153.3857  141.7888  160.5597 H   0  0  0  0  0  0  0  0  0  0  0  0
  151.2395  141.3349  159.4272 H   0  0  0  0  0  0  0  0  0  0  0  0
  152.5179  140.4209  158.6332 H   0  0  0  0  0  0  0  0  0  0  0  0
  149.3244  142.6892  156.6716 H   0  0  0  0  0  0  0  0  0  0  0  0
  1  2  1  0  0  0  0
  1 20  1  0  0  0  0
  1 21  1  0  0  0  0
  1 22  1  0  0  0  0
  2  3  1  0  0  0  0
  2 23  1  0  0  0  0
  2 24  1  0  0  0  0
  3  4  1  0  0  0  0
  3  5  1  0  0  0  0
  3 25  1  0  0  0  0
  4 26  1  0  0  0  0
  4 27  1  0  0  0  0
  4 28  1  0  0  0  0
  5  6  2  0  0  0  0
  5  7  1  0  0  0  0
  7  8  1  0  0  0  0
  7 29  1  0  0  0  0
  8 19  1  0  0  0  0
  8  9  2  0  0  0  0
  9 10  1  0  0  0  0
  9 30  1  0  0  0  0
 10 11  2  0  0  0  0
 10 31  1  0  0  0  0
 11 12  1  0  0  0  0
 11 18  1  0  0  0  0
 12 17  1  0  0  0  0
 12 13  1  0  0  0  0
 13 14  1  0  0  0  0
 13 32  1  0  0  0  0
 13 33  1  0  0  0  0
 14 15  1  0  0  0  0
 14 34  1  0  0  0  0
 14 35  1  0  0  0  0
 15 16  1  0  0  0  0
 16 17  1  0  0  0  0
 16 36  1  0  0  0  0
 16 37  1  0  0  0  0
 17 38  1  0  0  0  0
 17 39  1  0  0  0  0
 18 19  2  0  0  0  0
 18 40  1  0  0  0  0
M  END
> <s_m_source_file>
AV-unprocessed.smi

> <i_m_source_file_index>
400

> <i_lp_mmshare_version>
43012

> <i_f3d_flags>
0

> <s_epik_input>
W0NIM11bQ0gyXVtDQEhdKFtDSDNdKUMoPU8pW05IXWMxW2NIXVtjSF1jKFtjSF1uMSlOMltDSDJdW0NIMl1PW0NIMl1bQ0gyXTI=

> <s_epik_cmdline>
J2VwaWtfcHl0aG9uJywgJy1waCcsICc3LjAnLCAnLXRuJywgJzgnLCAnLW1hJywgJzIwMCcsICctbWV0YWxfYmluZGluZycsICctaW1hZScsICc8aW5maWxlLm1hZT4nLCAnLW9tYWUnLCAnPG91dGZpbGUubWFlPic=

> <r_lp_tautomer_probability>
1

> <r_epik_Ionization_Penalty>
0.00393323

> <r_epik_Ionization_Penalty_Charging>
0

> <r_epik_Ionization_Penalty_Neutral>
0.00393323

> <r_epik_State_Penalty>
0.00357844

> <r_epik_Charging_Adjusted_Penalty>
0.00357844

> <i_epik_Tot_Q>
0

> <i_epik_Tot_abs_Q>
0

> <r_epik_Metal_State_Penalty>
-0

> <b_epik_Metal_Only>
0

> <s_lp_Force_Field>
OPLS_2005

> <r_lp_Energy>
25.3606

> <b_lp_Chiralities_Consistent>
1

> <s_lp_Variant>
AV-unprocessed.smi:400-2

> <Gold.Version>
5.8.1

> <Gold.Id.Protein>
6NUR|6NUR_protein|mol2

> <Gold.PLP.Fitness>
37.8086

> <Gold.PLP.PLP>
-35.4637

> <Gold.PLP.part.hbond>
-1.0000

> <Gold.PLP.part.metal>
0.0000

> <Gold.PLP.part.buried>
3.6276

> <Gold.PLP.part.nonpolar>
-37.7565

> <Gold.PLP.part.repulsive>
0.3644

> <Gold.PLP.ligand.clash>
0.0000

> <Gold.PLP.ligand.torsion>
0.3916

> <Gold.PLP.Chemscore.Hbond>
0.0000

> <Gold.PLP.Chemscore.CHOScore>
0.9117

> <Gold.PLP.Chemscore.Metal>
0.0000

> <Gold.Chemscore.Hbonds>
donor molecule, donor type, donor heavy atom, donor atom, acceptor molecule, acceptor atom, score
      L1  C    18    40       P1  8028  0.99

> <Gold.PLP.Chemscore.Internal.Correction>
0.3930

> <Gold.Rescore>
     Score         DG    S(hbond)    S(metal)    S(lipo)     H(rot)  DE(clash)    DE(int)     intcor
     11.89     -13.90       0.00        0.00     100.52       1.30       0.41       1.61       ----

> <Gold.Chemscore.Fitness>
11.8894

> <Gold.Chemscore.DG>
-13.9022

> <Gold.Chemscore.ZeroCoef>
-5.4800

> <Gold.Chemscore.Hbond>
0.0000

> <Gold.Chemscore.Metal>
0.0000

> <Gold.Chemscore.Lipo>
100.5192

> <Gold.Chemscore.Internal_Hbond>
0.0000

> <Gold.Chemscore.DEClash>
0.4055

> <Gold.Chemscore.DEInternal>
1.6074

> <Gold.Chemscore.Rot>
1.3041

> <Gold.Chemscore.Internal.Correction>
   9.000000E+99

> <Gold.Chemscore.Hbond.Weighted>
-0.0000

> <Gold.Chemscore.Metal.Weighted>
-0.0000

> <Gold.Chemscore.Lipo.Weighted>
-11.7608

> <Gold.Chemscore.Internal_Hbond.Weighted>
0.0000

> <Gold.Chemscore.DEClash.Weighted>
0.4055

> <Gold.Chemscore.DEInternal.Weighted>
1.6074

> <Gold.Chemscore.Rot.Weighted>
3.3385

> <Gold.Chemscore.Internal.Correction.Weighted>
   9.000000E+99

> <Gold.Protein.RotatedTorsions>
[ 6907 6896 6895 6894 ] final  -14.26 input  -60.11 | X-H torsion
[ 7974 7965 7964 7962 ] final  -90.09 input  175.53 | X-H torsion
[ 8008 7997 7996 7995 ] final  -19.71 input   59.86 | X-H torsion
[ 10167 10162 10161 10158 ] final  -56.08 input  -65.29 | X-H torsion
[ 10718 10713 10712 10709 ] final -140.55 input   66.30 | X-H torsion
[ 10763 10752 10751 10750 ] final  -47.61 input  -60.55 | X-H torsion
[ 11005 11000 10999 10996 ] final   53.05 input  -57.11 | X-H torsion

> <Gold.Protein.ActiveResidues>
 VAL166  LYS551  ARG553  GLY616  TRP617  ASP618  TYR619  PRO620  LYS621  CYS622 
 ASP623  PHE694  ASN695  SER759  ASP760  ASP761  ALA762  ILE779  LEU786  VAL792 
 PHE793  MET794  SER795  GLU796  ALA797  LYS798  CYS799  TRP800  GLU811  SER814 

> <Gold.Protein.RotatedAtoms>
  151.3421  135.0866  159.9374 H   0  0  0  0  0  0  0  0  0  0  0  0  # atno 6907 bound_to 6896
  152.5209  133.9437  159.7649 H   0  0  0  0  0  0  0  0  0  0  0  0  # atno 6908 bound_to 6896
  150.9795  133.6206  159.2754 H   0  0  0  0  0  0  0  0  0  0  0  0  # atno 6909 bound_to 6896
  145.4311  140.9556  143.2127 H   0  0  0  0  0  0  0  0  0  0  0  0  # atno 7974 bound_to 7965
  154.4818  140.2081  155.9746 H   0  0  0  0  0  0  0  0  0  0  0  0  # atno 8008 bound_to 7997
  156.1176  140.3218  155.8131 H   0  0  0  0  0  0  0  0  0  0  0  0  # atno 8009 bound_to 7997
  155.4524  140.0518  157.2990 H   0  0  0  0  0  0  0  0  0  0  0  0  # atno 8010 bound_to 7997
  140.6338  143.2472  151.5172 H   0  0  0  0  0  0  0  0  0  0  0  0  # atno 10167 bound_to 10162
  156.3237  130.7548  151.1651 H   0  0  0  0  0  0  0  0  0  0  0  0  # atno 10718 bound_to 10713
  154.0642  135.6614  153.4815 H   0  0  0  0  0  0  0  0  0  0  0  0  # atno 10763 bound_to 10752
  153.0415  135.5142  154.7630 H   0  0  0  0  0  0  0  0  0  0  0  0  # atno 10764 bound_to 10752
  154.6676  135.3024  154.9752 H   0  0  0  0  0  0  0  0  0  0  0  0  # atno 10765 bound_to 10752
  140.0799  134.5353  155.8957 H   0  0  0  0  0  0  0  0  0  0  0  0  # atno 11005 bound_to 11000
  144.8182  139.5839  143.6999 LP  0  0  0  0  0  0  0  0  0  0  0  0  # atno 17320 bound_to 7965
  146.2606  139.6402  142.9364 LP  0  0  0  0  0  0  0  0  0  0  0  0  # atno 17321 bound_to 7965
  139.5550  144.2299  152.1596 LP  0  0  0  0  0  0  0  0  0  0  0  0  # atno 17342 bound_to 10162
  140.1550  144.5079  150.6665 LP  0  0  0  0  0  0  0  0  0  0  0  0  # atno 17343 bound_to 10162
  157.7417  131.0500  150.5079 LP  0  0  0  0  0  0  0  0  0  0  0  0  # atno 17370 bound_to 10713
  156.5235  130.4167  149.6238 LP  0  0  0  0  0  0  0  0  0  0  0  0  # atno 17371 bound_to 10713
  141.2043  133.6638  156.6112 LP  0  0  0  0  0  0  0  0  0  0  0  0  # atno 17394 bound_to 11000
  140.3503  134.7774  157.4462 LP  0  0  0  0  0  0  0  0  0  0  0  0  # atno 17395 bound_to 11000

$$$$
