AV-unprocessed.smi:1102|AV-procd|sdf|4769|dock7
  -GOLD-   22720 3313D 1   1.00000     0.00000
 Structure written by MMmdl.
 39 40  0  0  0  0  0  0  0  0  1 V2000
  154.0788  141.0729  161.6513 C   0  0  0  0  0  0  0  0  0  0  0  0
  153.2159  142.2158  161.3815 N   0  0  0  0  0  0  0  0  0  0  0  0
  153.0527  143.2583  162.3898 C   0  0  0  0  0  0  0  0  0  0  0  0
  152.4949  142.2935  160.1679 C   0  0  0  0  0  0  0  0  0  0  0  0
  152.1059  141.1280  159.4619 C   0  0  0  0  0  0  0  0  0  0  0  0
  151.3892  141.2610  158.2574 C   0  0  0  0  0  0  0  0  0  0  0  0
  151.0817  142.5472  157.7746 C   0  0  0  0  0  0  0  0  0  0  0  0
  150.3385  142.6498  156.5677 N   0  0  0  0  0  0  0  0  0  0  0  0
  149.5727  141.7175  155.9755 C   0  0  0  0  0  0  0  0  0  0  0  0
  149.3315  140.6002  156.4317 O   0  0  0  0  0  0  0  0  0  0  0  0
  149.0756  142.1661  154.8142 N   0  0  0  0  0  0  0  0  0  0  0  0
  148.2231  141.3973  153.9140 C   0  0  0  0  0  0  0  0  0  0  0  0
  146.7420  141.7782  154.0766 C   0  0  2  0  0  0  0  0  0  0  0  0
  146.4544  143.2510  153.7879 C   0  0  0  0  0  0  0  0  0  0  0  0
  145.1924  143.4798  154.5872 C   0  0  0  0  0  0  0  0  0  0  0  0
  145.4681  142.6529  155.8386 C   0  0  0  0  0  0  0  0  0  0  0  0
  146.3019  141.5766  155.4185 O   0  0  0  0  0  0  0  0  0  0  0  0
  151.4997  143.6536  158.5506 C   0  0  0  0  0  0  0  0  0  0  0  0
  152.1856  143.5300  159.7064 N   0  0  0  0  0  0  0  0  0  0  0  0
  153.5031  140.1468  161.6392 H   0  0  0  0  0  0  0  0  0  0  0  0
  154.5537  141.1561  162.6289 H   0  0  0  0  0  0  0  0  0  0  0  0
  154.8696  141.0036  160.9039 H   0  0  0  0  0  0  0  0  0  0  0  0
  152.0142  143.3137  162.7184 H   0  0  0  0  0  0  0  0  0  0  0  0
  153.3414  144.2296  161.9868 H   0  0  0  0  0  0  0  0  0  0  0  0
  153.6703  143.0652  163.2669 H   0  0  0  0  0  0  0  0  0  0  0  0
  152.3408  140.1369  159.8190 H   0  0  0  0  0  0  0  0  0  0  0  0
  151.0828  140.3810  157.7108 H   0  0  0  0  0  0  0  0  0  0  0  0
  150.3674  143.5528  156.1174 H   0  0  0  0  0  0  0  0  0  0  0  0
  149.3197  143.1006  154.5211 H   0  0  0  0  0  0  0  0  0  0  0  0
  148.5417  141.5173  152.8771 H   0  0  0  0  0  0  0  0  0  0  0  0
  148.3565  140.3427  154.1564 H   0  0  0  0  0  0  0  0  0  0  0  0
  146.1198  141.1621  153.4251 H   0  0  0  0  0  0  0  0  0  0  0  0
  147.2561  143.8838  154.1716 H   0  0  0  0  0  0  0  0  0  0  0  0
  146.3322  143.4604  152.7248 H   0  0  0  0  0  0  0  0  0  0  0  0
  145.0032  144.5316  154.8031 H   0  0  0  0  0  0  0  0  0  0  0  0
  144.3313  143.0784  154.0513 H   0  0  0  0  0  0  0  0  0  0  0  0
  146.0135  143.2446  156.5746 H   0  0  0  0  0  0  0  0  0  0  0  0
  144.5534  142.2895  156.3070 H   0  0  0  0  0  0  0  0  0  0  0  0
  151.2711  144.6699  158.2706 H   0  0  0  0  0  0  0  0  0  0  0  0
  1  2  1  0  0  0  0
  1 20  1  0  0  0  0
  1 21  1  0  0  0  0
  1 22  1  0  0  0  0
  2  3  1  0  0  0  0
  2  4  1  0  0  0  0
  3 23  1  0  0  0  0
  3 24  1  0  0  0  0
  3 25  1  0  0  0  0
  4 19  1  0  0  0  0
  4  5  2  0  0  0  0
  5  6  1  0  0  0  0
  5 26  1  0  0  0  0
  6  7  2  0  0  0  0
  6 27  1  0  0  0  0
  7  8  1  0  0  0  0
  7 18  1  0  0  0  0
  8  9  1  0  0  0  0
  8 28  1  0  0  0  0
  9 10  2  0  0  0  0
  9 11  1  0  0  0  0
 11 12  1  0  0  0  0
 11 29  1  0  0  0  0
 12 13  1  0  0  0  0
 12 30  1  0  0  0  0
 12 31  1  0  0  0  0
 13 17  1  0  0  0  0
 13 14  1  0  0  0  0
 13 32  1  0  0  0  0
 14 15  1  0  0  0  0
 14 33  1  0  0  0  0
 14 34  1  0  0  0  0
 15 16  1  0  0  0  0
 15 35  1  0  0  0  0
 15 36  1  0  0  0  0
 16 17  1  0  0  0  0
 16 37  1  0  0  0  0
 16 38  1  0  0  0  0
 18 19  2  0  0  0  0
 18 39  1  0  0  0  0
M  END
> <s_m_source_file>
AV-unprocessed.smi

> <i_m_source_file_index>
1102

> <i_lp_mmshare_version>
43012

> <i_f3d_flags>
0

> <s_epik_input>
W0NIM11OKFtDSDNdKWMxW2NIXVtjSF1jKFtjSF1uMSlbTkhdQyg9TylbTkhdW0NIMl1bQ0BASF0yW0NIMl1bQ0gyXVtDSDJdTzI=

> <s_epik_cmdline>
J2VwaWtfcHl0aG9uJywgJy1waCcsICc3LjAnLCAnLXRuJywgJzgnLCAnLW1hJywgJzIwMCcsICctbWV0YWxfYmluZGluZycsICctaW1hZScsICc8aW5maWxlLm1hZT4nLCAnLW9tYWUnLCAnPG91dGZpbGUubWFlPic=

> <r_lp_tautomer_probability>
1

> <r_epik_Ionization_Penalty>
0.605145

> <r_epik_Ionization_Penalty_Charging>
0

> <r_epik_Ionization_Penalty_Neutral>
0.605145

> <r_epik_State_Penalty>
0.618734

> <r_epik_Charging_Adjusted_Penalty>
0.618734

> <i_epik_Tot_Q>
0

> <i_epik_Tot_abs_Q>
0

> <r_epik_Metal_State_Penalty>
0.302184

> <b_epik_Metal_Only>
0

> <s_lp_Force_Field>
OPLS_2005

> <r_lp_Energy>
22.0104

> <b_lp_Chiralities_Consistent>
1

> <s_lp_Variant>
AV-unprocessed.smi:1102-3

> <Gold.Version>
5.8.1

> <Gold.Id.Protein>
6NUR|6NUR_protein|mol2

> <Gold.PLP.Fitness>
45.5845

> <Gold.PLP.PLP>
-43.0284

> <Gold.PLP.part.hbond>
-2.0000

> <Gold.PLP.part.metal>
0.0000

> <Gold.PLP.part.buried>
-5.1481

> <Gold.PLP.part.nonpolar>
-35.3033

> <Gold.PLP.part.repulsive>
0.6751

> <Gold.PLP.ligand.clash>
0.0000

> <Gold.PLP.ligand.torsion>
0.5744

> <Gold.PLP.Chemscore.Hbond>
1.2320

> <Gold.PLP.Chemscore.CHOScore>
0.0000

> <Gold.PLP.Chemscore.Metal>
0.0000

> <Gold.Chemscore.Hbonds>
donor molecule, donor type, donor heavy atom, donor atom, acceptor molecule, acceptor atom, score
      L1  H     8    28       P1  8028  0.59
      L1  H    11    29       P1  8028  0.45

> <Gold.PLP.Chemscore.Internal.Correction>
0.0089

> <Gold.Rescore>
     Score         DG    S(hbond)    S(metal)    S(lipo)     H(rot)  DE(clash)    DE(int)     intcor
     16.04     -18.04       1.92        0.00      79.05       1.21       0.02       1.98       ----

> <Gold.Chemscore.Fitness>
16.0405

> <Gold.Chemscore.DG>
-18.0407

> <Gold.Chemscore.ZeroCoef>
-5.4800

> <Gold.Chemscore.Hbond>
1.9225

> <Gold.Chemscore.Metal>
0.0000

> <Gold.Chemscore.Lipo>
79.0510

> <Gold.Chemscore.Internal_Hbond>
0.0000

> <Gold.Chemscore.DEClash>
0.0164

> <Gold.Chemscore.DEInternal>
1.9838

> <Gold.Chemscore.Rot>
1.2146

> <Gold.Chemscore.Internal.Correction>
   9.000000E+99

> <Gold.Chemscore.Hbonds>
donor molecule, donor type, donor heavy atom, donor atom, acceptor molecule, acceptor atom, score
      L1  H     8    28       P1  8028  0.58
      L1  H    11    29       P1  8028  0.44

> <Gold.Chemscore.Hbond.Weighted>
-6.4211

> <Gold.Chemscore.Metal.Weighted>
-0.0000

> <Gold.Chemscore.Lipo.Weighted>
-9.2490

> <Gold.Chemscore.Internal_Hbond.Weighted>
0.0000

> <Gold.Chemscore.DEClash.Weighted>
0.0164

> <Gold.Chemscore.DEInternal.Weighted>
1.9838

> <Gold.Chemscore.Rot.Weighted>
3.1093

> <Gold.Chemscore.Internal.Correction.Weighted>
   9.000000E+99

> <Gold.Protein.RotatedTorsions>
[ 6907 6896 6895 6894 ] final  126.71 input  -60.11 | X-H torsion
[ 7974 7965 7964 7962 ] final   63.08 input  175.53 | X-H torsion
[ 8008 7997 7996 7995 ] final   -5.22 input   59.86 | X-H torsion
[ 10167 10162 10161 10158 ] final   39.64 input  -65.29 | X-H torsion
[ 10718 10713 10712 10709 ] final   75.83 input   66.30 | X-H torsion
[ 10763 10752 10751 10750 ] final  179.73 input  -60.55 | X-H torsion
[ 11005 11000 10999 10996 ] final  -80.15 input  -57.11 | X-H torsion

> <Gold.Protein.ActiveResidues>
 VAL166  LYS551  ARG553  GLY616  TRP617  ASP618  TYR619  PRO620  LYS621  CYS622 
 ASP623  PHE694  ASN695  SER759  ASP760  ASP761  ALA762  ILE779  LEU786  VAL792 
 PHE793  MET794  SER795  GLU796  ALA797  LYS798  CYS799  TRP800  GLU811  SER814 

> <Gold.Protein.RotatedAtoms>
  152.3879  133.6637  159.6213 H   0  0  0  0  0  0  0  0  0  0  0  0  # atno 6907 bound_to 6896
  150.7794  133.9004  159.3348 H   0  0  0  0  0  0  0  0  0  0  0  0  # atno 6908 bound_to 6896
  151.6797  135.0965  160.0265 H   0  0  0  0  0  0  0  0  0  0  0  0  # atno 6909 bound_to 6896
  145.8660  139.3346  143.0791 H   0  0  0  0  0  0  0  0  0  0  0  0  # atno 7974 bound_to 7965
  154.6062  140.2464  155.7728 H   0  0  0  0  0  0  0  0  0  0  0  0  # atno 8008 bound_to 7997
  156.2342  140.2956  156.0219 H   0  0  0  0  0  0  0  0  0  0  0  0  # atno 8009 bound_to 7997
  155.2129  140.0398  157.2926 H   0  0  0  0  0  0  0  0  0  0  0  0  # atno 8010 bound_to 7997
  140.3819  144.1968  150.6130 H   0  0  0  0  0  0  0  0  0  0  0  0  # atno 10167 bound_to 10162
  157.6650  130.9745  150.1409 H   0  0  0  0  0  0  0  0  0  0  0  0  # atno 10718 bound_to 10713
  154.5245  135.2796  155.1234 H   0  0  0  0  0  0  0  0  0  0  0  0  # atno 10763 bound_to 10752
  154.2778  135.6291  153.5339 H   0  0  0  0  0  0  0  0  0  0  0  0  # atno 10764 bound_to 10752
  152.9943  135.5644  154.5742 H   0  0  0  0  0  0  0  0  0  0  0  0  # atno 10765 bound_to 10752
  141.1668  133.7137  156.8230 H   0  0  0  0  0  0  0  0  0  0  0  0  # atno 11005 bound_to 11000
  145.9193  140.9126  143.0413 LP  0  0  0  0  0  0  0  0  0  0  0  0  # atno 17320 bound_to 7965
  144.6726  140.1266  143.7446 LP  0  0  0  0  0  0  0  0  0  0  0  0  # atno 17321 bound_to 7965
  140.4928  143.2342  151.8793 LP  0  0  0  0  0  0  0  0  0  0  0  0  # atno 17342 bound_to 10162
  139.4795  144.5147  151.8885 LP  0  0  0  0  0  0  0  0  0  0  0  0  # atno 17343 bound_to 10162
  156.2232  130.3676  149.8531 LP  0  0  0  0  0  0  0  0  0  0  0  0  # atno 17370 bound_to 10713
  156.6378  130.8692  151.3508 LP  0  0  0  0  0  0  0  0  0  0  0  0  # atno 17371 bound_to 10713
  140.2105  134.8831  157.3269 LP  0  0  0  0  0  0  0  0  0  0  0  0  # atno 17394 bound_to 11000
  140.2091  134.4160  155.7622 LP  0  0  0  0  0  0  0  0  0  0  0  0  # atno 17395 bound_to 11000

$$$$
