AV-unprocessed.smi:623|AV-procd|sdf|3096|dock10
  -GOLD-   22720 0 13D 1   1.00000     0.00000
 Structure written by MMmdl.
 44 46  0  0  0  0  0  0  0  0  2 V2000
  144.6919  132.4049  148.9131 C   0  0  0  0  0  0  0  0  0  0  0  0
  145.7122  132.5412  150.0783 C   0  0  0  0  0  0  0  0  0  0  0  0
  147.0618  132.0336  149.4967 C   0  0  0  0  0  0  0  0  0  0  0  0
  145.7803  133.9502  150.7011 C   0  0  1  0  0  0  0  0  0  0  0  0
  144.3649  134.1546  151.2874 C   0  0  0  0  0  0  0  0  0  0  0  0
  143.9973  132.7384  151.7781 C   0  0  0  0  0  0  0  0  0  0  0  0
  145.2649  131.9157  151.4298 C   0  0  1  0  0  0  0  0  0  0  0  0
  144.9988  130.3969  151.4148 C   0  0  0  0  0  0  0  0  0  0  0  0
  146.3419  132.3888  152.4539 C   0  0  1  0  0  0  0  0  0  0  0  0
  147.4637  131.4635  152.5565 N   0  0  0  0  0  0  0  0  0  0  0  0
  147.7311  130.6327  153.5755 C   0  0  0  0  0  0  0  0  0  0  0  0
  147.0134  130.5415  154.5708 O   0  0  0  0  0  0  0  0  0  0  0  0
  149.0113  129.7833  153.4805 C   0  0  0  0  0  0  0  0  0  0  0  0
  148.8018  128.4376  152.9126 N   0  0  0  0  0  0  0  0  0  0  0  0
  148.1198  128.3528  151.6859 C   0  0  0  0  0  0  0  0  0  0  0  0
  147.8334  127.1691  151.1117 C   0  0  0  0  0  0  0  0  0  0  0  0
  148.2518  125.9517  151.7954 C   0  0  0  0  0  0  0  0  0  0  0  0
  147.9955  124.8617  151.2880 O   0  0  0  0  0  0  0  0  0  0  0  0
  148.9141  126.0856  152.9815 N   0  5  0  0  0  0  0  0  0  0  0  0
  149.1941  127.2962  153.5560 C   0  0  0  0  0  0  0  0  0  0  0  0
  149.7738  127.3937  154.6377 O   0  0  0  0  0  0  0  0  0  0  0  0
  146.7385  133.7778  151.9020 C   0  0  0  0  0  0  0  0  0  0  0  0
  145.0035  133.0052  148.0579 H   0  0  0  0  0  0  0  0  0  0  0  0
  143.6758  132.7125  149.1483 H   0  0  0  0  0  0  0  0  0  0  0  0
  144.6312  131.3708  148.5724 H   0  0  0  0  0  0  0  0  0  0  0  0
  147.9217  132.1426  150.1514 H   0  0  0  0  0  0  0  0  0  0  0  0
  147.3139  132.5756  148.5849 H   0  0  0  0  0  0  0  0  0  0  0  0
  146.9998  130.9774  149.2337 H   0  0  0  0  0  0  0  0  0  0  0  0
  146.0842  134.7427  150.0166 H   0  0  0  0  0  0  0  0  0  0  0  0
  144.3545  134.8852  152.0971 H   0  0  0  0  0  0  0  0  0  0  0  0
  143.6635  134.5063  150.5304 H   0  0  0  0  0  0  0  0  0  0  0  0
  143.7633  132.7211  152.8433 H   0  0  0  0  0  0  0  0  0  0  0  0
  143.1134  132.3617  151.2630 H   0  0  0  0  0  0  0  0  0  0  0  0
  144.7191  130.0408  152.4067 H   0  0  0  0  0  0  0  0  0  0  0  0
  145.8755  129.8319  151.0973 H   0  0  0  0  0  0  0  0  0  0  0  0
  144.1866  130.1439  150.7336 H   0  0  0  0  0  0  0  0  0  0  0  0
  145.9065  132.4829  153.4506 H   0  0  0  0  0  0  0  0  0  0  0  0
  148.1087  131.4581  151.7790 H   0  0  0  0  0  0  0  0  0  0  0  0
  149.7386  130.3291  152.8780 H   0  0  0  0  0  0  0  0  0  0  0  0
  149.4592  129.7166  154.4731 H   0  0  0  0  0  0  0  0  0  0  0  0
  147.8361  129.3005  151.2523 H   0  0  0  0  0  0  0  0  0  0  0  0
  147.3025  127.1215  150.1724 H   0  0  0  0  0  0  0  0  0  0  0  0
  147.7816  133.8170  151.5875 H   0  0  0  0  0  0  0  0  0  0  0  0
  146.6094  134.5619  152.6489 H   0  0  0  0  0  0  0  0  0  0  0  0
  1  2  1  0  0  0  0
  1 23  1  0  0  0  0
  1 24  1  0  0  0  0
  1 25  1  0  0  0  0
  2  7  1  0  0  0  0
  2  3  1  0  0  0  0
  2  4  1  0  0  0  0
  3 26  1  0  0  0  0
  3 27  1  0  0  0  0
  3 28  1  0  0  0  0
  4 22  1  0  0  0  0
  4  5  1  0  0  0  0
  4 29  1  0  0  0  0
  5  6  1  0  0  0  0
  5 30  1  0  0  0  0
  5 31  1  0  0  0  0
  6  7  1  0  0  0  0
  6 32  1  0  0  0  0
  6 33  1  0  0  0  0
  7  8  1  0  0  0  0
  7  9  1  0  0  0  0
  8 34  1  0  0  0  0
  8 35  1  0  0  0  0
  8 36  1  0  0  0  0
  9 10  1  0  0  0  0
  9 22  1  0  0  0  0
  9 37  1  0  0  0  0
 10 11  1  0  0  0  0
 10 38  1  0  0  0  0
 11 12  2  0  0  0  0
 11 13  1  0  0  0  0
 13 14  1  0  0  0  0
 13 39  1  0  0  0  0
 13 40  1  0  0  0  0
 14 20  1  0  0  0  0
 14 15  1  0  0  0  0
 15 16  2  0  0  0  0
 15 41  1  0  0  0  0
 16 17  1  0  0  0  0
 16 42  1  0  0  0  0
 17 18  2  0  0  0  0
 17 19  1  0  0  0  0
 19 20  1  0  0  0  0
 20 21  2  0  0  0  0
 22 43  1  0  0  0  0
 22 44  1  0  0  0  0
M  CHG  1  19  -1
M  END
> <s_m_source_file>
AV-unprocessed.smi

> <i_m_source_file_index>
623

> <i_lp_mmshare_version>
43012

> <i_f3d_flags>
0

> <s_epik_input>
W0NIM11bQ0BdMTJDKFtDSDNdKShbQ0gzXSlbQ0BIXShbQ0gyXVtDSDJdMSlbQ0gyXVtDQEBIXTJbTkhdQyg9TylbQ0gyXW4zW2NIXVtjSF1jKD1PKVtuSF1jMz1P

> <s_epik_cmdline>
J2VwaWtfcHl0aG9uJywgJy1waCcsICc3LjAnLCAnLXRuJywgJzgnLCAnLW1hJywgJzIwMCcsICctbWV0YWxfYmluZGluZycsICctaW1hZScsICc8aW5maWxlLm1hZT4nLCAnLW9tYWUnLCAnPG91dGZpbGUubWFlPic=

> <r_lp_tautomer_probability>
0.999537

> <r_epik_Ionization_Penalty>
3.12624

> <r_epik_Ionization_Penalty_Charging>
3.01273e-08

> <r_epik_Ionization_Penalty_Neutral>
3.12624

> <r_epik_State_Penalty>
3.12534

> <r_epik_Charging_Adjusted_Penalty>
3.12534

> <i_epik_Tot_Q>
-1

> <i_epik_Tot_abs_Q>
1

> <r_epik_Metal_State_Penalty>
0.46406

> <b_epik_Metal_Only>
1

> <s_lp_Force_Field>
OPLS_2005

> <r_lp_Energy>
63.0449

> <b_lp_Chiralities_Consistent>
1

> <s_lp_Variant>
AV-unprocessed.smi:623-6

> <Gold.Version>
5.8.1

> <Gold.Id.Protein>
6NUR|6NUR_protein|mol2

> <Gold.PLP.Fitness>
40.3027

> <Gold.PLP.PLP>
-35.4875

> <Gold.PLP.part.hbond>
-1.4552

> <Gold.PLP.part.metal>
0.0000

> <Gold.PLP.part.buried>
3.0356

> <Gold.PLP.part.nonpolar>
-35.6200

> <Gold.PLP.part.repulsive>
0.2484

> <Gold.PLP.ligand.clash>
0.0000

> <Gold.PLP.ligand.torsion>
0.5991

> <Gold.PLP.Chemscore.Hbond>
1.0000

> <Gold.PLP.Chemscore.CHOScore>
1.0000

> <Gold.PLP.Chemscore.Metal>
0.0000

> <Gold.Chemscore.Hbonds>
donor molecule, donor type, donor heavy atom, donor atom, acceptor molecule, acceptor atom, score
      L1  H    10    38       P1 10747  1.00
      L1  C    15    41       P1 10747  1.00

> <Gold.PLP.Chemscore.Internal.Correction>
0.0134

> <Gold.Rescore>
     Score         DG    S(hbond)    S(metal)    S(lipo)     H(rot)  DE(clash)    DE(int)     intcor
     13.98     -17.03       1.00        0.00     105.92       1.63       2.44       0.61       ----

> <Gold.Chemscore.Fitness>
13.9825

> <Gold.Chemscore.DG>
-17.0321

> <Gold.Chemscore.ZeroCoef>
-5.4800

> <Gold.Chemscore.Hbond>
0.9994

> <Gold.Chemscore.Metal>
0.0000

> <Gold.Chemscore.Lipo>
105.9166

> <Gold.Chemscore.Internal_Hbond>
0.0000

> <Gold.Chemscore.DEClash>
2.4358

> <Gold.Chemscore.DEInternal>
0.6138

> <Gold.Chemscore.Rot>
1.6322

> <Gold.Chemscore.Internal.Correction>
   9.000000E+99

> <Gold.Chemscore.Hbonds>
donor molecule, donor type, donor heavy atom, donor atom, acceptor molecule, acceptor atom, score
      L1  H    10    38       P1 10747  0.99

> <Gold.Chemscore.Hbond.Weighted>
-3.3381

> <Gold.Chemscore.Metal.Weighted>
-0.0000

> <Gold.Chemscore.Lipo.Weighted>
-12.3922

> <Gold.Chemscore.Internal_Hbond.Weighted>
0.0000

> <Gold.Chemscore.DEClash.Weighted>
2.4358

> <Gold.Chemscore.DEInternal.Weighted>
0.6138

> <Gold.Chemscore.Rot.Weighted>
4.1783

> <Gold.Chemscore.Internal.Correction.Weighted>
   9.000000E+99

> <Gold.Protein.RotatedTorsions>
[ 6907 6896 6895 6894 ] final  -36.05 input  -60.11 | X-H torsion
[ 7974 7965 7964 7962 ] final -106.46 input  175.53 | X-H torsion
[ 8008 7997 7996 7995 ] final   -5.75 input   59.86 | X-H torsion
[ 10167 10162 10161 10158 ] final -103.91 input  -65.29 | X-H torsion
[ 10718 10713 10712 10709 ] final   75.98 input   66.30 | X-H torsion
[ 10763 10752 10751 10750 ] final -174.53 input  -60.55 | X-H torsion
[ 11005 11000 10999 10996 ] final   99.09 input  -57.11 | X-H torsion

> <Gold.Protein.ActiveResidues>
 VAL166  LYS551  ARG553  GLY616  TRP617  ASP618  TYR619  PRO620  LYS621  CYS622 
 ASP623  PHE694  ASN695  SER759  ASP760  ASP761  ALA762  ILE779  LEU786  VAL792 
 PHE793  MET794  SER795  GLU796  ALA797  LYS798  CYS799  TRP800  GLU811  SER814 

> <Gold.Protein.RotatedAtoms>
  151.0320  134.9546  159.8115 H   0  0  0  0  0  0  0  0  0  0  0  0  # atno 6907 bound_to 6896
  152.5347  134.2768  159.9002 H   0  0  0  0  0  0  0  0  0  0  0  0  # atno 6908 bound_to 6896
  151.2778  133.4182  159.2659 H   0  0  0  0  0  0  0  0  0  0  0  0  # atno 6909 bound_to 6896
  145.2175  140.9121  143.3278 H   0  0  0  0  0  0  0  0  0  0  0  0  # atno 7974 bound_to 7965
  154.6007  140.2450  155.7796 H   0  0  0  0  0  0  0  0  0  0  0  0  # atno 8008 bound_to 7997
  156.2309  140.2967  156.0138 H   0  0  0  0  0  0  0  0  0  0  0  0  # atno 8009 bound_to 7997
  155.2216  140.0400  157.2939 H   0  0  0  0  0  0  0  0  0  0  0  0  # atno 8010 bound_to 7997
  140.2149  143.3719  152.1019 H   0  0  0  0  0  0  0  0  0  0  0  0  # atno 10167 bound_to 10162
  157.6656  130.9752  150.1432 H   0  0  0  0  0  0  0  0  0  0  0  0  # atno 10718 bound_to 10713
  154.5951  135.2849  155.0595 H   0  0  0  0  0  0  0  0  0  0  0  0  # atno 10763 bound_to 10752
  154.1880  135.6445  153.5056 H   0  0  0  0  0  0  0  0  0  0  0  0  # atno 10764 bound_to 10752
  153.0135  135.5439  154.6650 H   0  0  0  0  0  0  0  0  0  0  0  0  # atno 10765 bound_to 10752
  139.8771  134.9079  156.4554 H   0  0  0  0  0  0  0  0  0  0  0  0  # atno 11005 bound_to 11000
  144.9796  139.3796  143.6268 LP  0  0  0  0  0  0  0  0  0  0  0  0  # atno 17320 bound_to 7965
  146.3383  139.8931  142.8806 LP  0  0  0  0  0  0  0  0  0  0  0  0  # atno 17321 bound_to 7965
  139.5166  144.6979  151.5576 LP  0  0  0  0  0  0  0  0  0  0  0  0  # atno 17342 bound_to 10162
  140.6297  143.9100  150.6595 LP  0  0  0  0  0  0  0  0  0  0  0  0  # atno 17343 bound_to 10162
  156.2249  130.3677  149.8512 LP  0  0  0  0  0  0  0  0  0  0  0  0  # atno 17370 bound_to 10713
  156.6355  130.8683  151.3504 LP  0  0  0  0  0  0  0  0  0  0  0  0  # atno 17371 bound_to 10713
  140.8902  133.7854  155.9563 LP  0  0  0  0  0  0  0  0  0  0  0  0  # atno 17394 bound_to 11000
  140.8762  134.2667  157.5167 LP  0  0  0  0  0  0  0  0  0  0  0  0  # atno 17395 bound_to 11000

$$$$
