#       Name:                AV-unprocessed.smi:713
#       Creating user name   scv26
#       Creation time:       Fri Mar 27 00:47:01 2020


#       File generated by GOLD software.
#

@<TRIPOS>MOLECULE
AV-unprocessed.smi:713
    44    45     1
SMALL
NO_CHARGES


@<TRIPOS>ATOM
      1 ****        -3.3480  -1.7733   1.5075 C.3            1 S1                 0.0000
      2 ****        -2.8080  -1.1099   0.2273 C.3            1 S1                 0.0000
      3 ****        -1.2760  -1.0031   0.2218 C.2            1 S1                 0.0000
      4 ****        -0.5849  -1.8666   0.7643 O.2            1 S1                 0.0000
      5 ****        -0.7580   0.0669  -0.4018 N.am           1 S1                 0.0000
      6 ****         0.6656   0.3587  -0.5359 C.3            1 S1                 0.0000
      7 ****         0.8885   1.3055  -1.7289 C.3            1 S1                 0.0000
      8 ****         2.3725   1.6744  -1.8781 C.3            1 S1                 0.0000
      9 ****         2.9281   2.2851  -0.5823 C.3            1 S1                 0.0000
     10 ****         2.7126   1.3479   0.6202 C.3            1 S1                 0.0000
     11 ****         3.3566   2.1487   2.1592 S.o2           1 S1                 0.0000
     12 ****         3.2404   0.7956   3.4024 C.3            1 S1                 0.0000
     13 ****         4.7771   2.4683   1.9519 O.2            1 S1                 0.0000
     14 ****         2.4249   3.2137   2.5606 O.2            1 S1                 0.0000
     15 ****         1.2232   0.9763   0.7633 C.3            1 S1                 0.0000
     16 ****        -3.2706  -1.8113  -0.9633 N.pl3          1 S1                 0.0000
     17 ****        -3.0273  -3.1145  -1.3529 C.2            1 S1                 0.0000
     18 ****        -3.6726  -3.3148  -2.5393 C.2            1 S1                 0.0000
     19 ****        -4.2916  -2.0615  -2.8023 C.2            1 S1                 0.0000
     20 ****        -4.0500  -1.1653  -1.8593 N.2            1 S1                 0.0000
     21 ****        -3.0072  -1.2456   2.3988 H              1 S1                 0.0000
     22 ****        -3.0291  -2.8128   1.5939 H              1 S1                 0.0000
     23 ****        -4.4383  -1.7619   1.5185 H              1 S1                 0.0000
     24 ****        -3.2067  -0.0935   0.1985 H              1 S1                 0.0000
     25 ****        -1.3992   0.7240  -0.8229 H              1 S1                 0.0000
     26 ****         1.1963  -0.5734  -0.7400 H              1 S1                 0.0000
     27 ****         0.5319   0.8401  -2.6486 H              1 S1                 0.0000
     28 ****         0.3017   2.2156  -1.5949 H              1 S1                 0.0000
     29 ****         2.9468   0.7843  -2.1380 H              1 S1                 0.0000
     30 ****         2.4995   2.3759  -2.7030 H              1 S1                 0.0000
     31 ****         3.9904   2.4979  -0.7050 H              1 S1                 0.0000
     32 ****         2.4421   3.2431  -0.3932 H              1 S1                 0.0000
     33 ****         3.2960   0.4393   0.4673 H              1 S1                 0.0000
     34 ****         3.6872   1.1300   4.3383 H              1 S1                 0.0000
     35 ****         3.7772  -0.0812   3.0412 H              1 S1                 0.0000
     36 ****         2.1969   0.5399   3.5815 H              1 S1                 0.0000
     37 ****         0.6460   1.8653   1.0214 H              1 S1                 0.0000
     38 ****         1.0927   0.2741   1.5858 H              1 S1                 0.0000
     39 ****        -2.4218  -3.7837  -0.7590 H              1 S1                 0.0000
     40 ****        -3.6984  -4.2192  -3.1288 H              1 S1                 0.0000
     41 ****        -4.9059  -1.7782  -3.6442 H              1 S1                 0.0000
     42 ****        -1.0208  -2.6464   1.2138 LP             1 S1                 0.0000
     43 ****         0.4119  -1.7878   0.7551 LP             1 S1                 0.0000
     44 ****        -4.3725  -0.2196  -1.8185 LP             1 S1                 0.0000
@<TRIPOS>BOND
    1    1    2 1     
    2    1   21 1     
    3    1   22 1     
    4    1   23 1     
    5    2    3 1     
    6    2   16 1     
    7    2   24 1     
    8    3    4 2     
    9    3    5 am    
   10    5    6 1     
   11    5   25 1     
   12    6   15 1     
   13    6    7 1     
   14    6   26 1     
   15    7    8 1     
   16    7   27 1     
   17    7   28 1     
   18    8    9 1     
   19    8   29 1     
   20    8   30 1     
   21    9   10 1     
   22    9   31 1     
   23    9   32 1     
   24   10   11 1     
   25   10   15 1     
   26   10   33 1     
   27   11   12 1     
   28   11   13 2     
   29   11   14 2     
   30   12   34 1     
   31   12   35 1     
   32   12   36 1     
   33   15   37 1     
   34   15   38 1     
   35   16   20 1     
   36   16   17 1     
   37   17   18 2     
   38   17   39 1     
   39   18   19 1     
   40   18   40 1     
   41   19   20 2     
   42   19   41 1     
   43    4   42 1     
   44    4   43 1     
   45   20   44 1     
@<TRIPOS>SUBSTRUCTURE
      1 S1             1
@<TRIPOS>SET
LONE_PAIRS      STATIC     ATOMS    <user>   **** ""
5 42 43 13 14 44
DONOR_HYDROGENS      STATIC     ATOMS    <user>   **** ""
1 25
ATOM$BLUE        STATIC     ATOMS    COLORGROUP SYSTEM
5 42 43 13 14 44
ATOM$RED        STATIC     ATOMS    COLORGROUP SYSTEM
1 25
