AV-unprocessed.smi:2973|AV-procd|sdf|11340|dock7
  -GOLD-   2272016253D 1   1.00000     0.00000
 Structure written by MMmdl.
 49 51  0  0  0  0  0  0  0  0  1 V2000
  143.3622  134.4804  153.5458 C   0  0  0  0  0  0  0  0  0  0  0  0
  143.8744  135.4256  152.4385 C   0  0  1  0  0  0  0  0  0  0  0  0
  144.7206  136.5667  153.0434 C   0  0  0  0  0  0  0  0  0  0  0  0
  145.1601  137.5766  151.9718 C   0  0  0  0  0  0  0  0  0  0  0  0
  145.9280  136.8900  150.8338 C   0  0  0  0  0  0  0  0  0  0  0  0
  145.1036  135.7464  150.2156 C   0  0  0  0  0  0  0  0  0  0  0  0
  144.6151  134.7130  151.2622 C   0  0  2  0  0  0  0  0  0  0  0  0
  143.7555  133.7355  150.6173 N   0  0  0  0  0  0  0  0  0  0  0  0
  144.2477  132.4911  150.6552 C   0  0  0  0  0  0  0  0  0  0  0  0
  143.7060  131.4995  150.1696 O   0  0  0  0  0  0  0  0  0  0  0  0
  145.4204  132.5210  151.3118 N   0  0  0  0  0  0  0  0  0  0  0  0
  146.2668  131.3428  151.5425 C   0  0  0  0  0  0  0  0  0  0  0  0
  146.8756  131.2897  152.9511 C   0  0  0  0  0  0  0  0  0  0  0  0
  146.1621  131.3139  153.9552 O   0  0  0  0  0  0  0  0  0  0  0  0
  148.2133  131.2081  153.0034 N   0  0  0  0  0  0  0  0  0  0  0  0
  149.0033  131.1456  154.2276 C   0  0  0  0  0  0  0  0  0  0  0  0
  149.8130  129.8410  154.3151 C   0  0  0  0  0  0  0  0  0  0  0  0
  151.1842  130.0563  154.9273 C   0  0  0  0  0  0  0  0  0  0  0  0
  152.3199  129.4049  154.3996 C   0  0  0  0  0  0  0  0  0  0  0  0
  153.5703  129.6428  155.0025 C   0  0  0  0  0  0  0  0  0  0  0  0
  153.6372  130.5193  156.1026 C   0  0  0  0  0  0  0  0  0  0  0  0
  152.4455  131.1217  156.5529 C   0  0  0  0  0  0  0  0  0  0  0  0
  151.2416  130.8997  155.9826 N   0  0  0  0  0  0  0  0  0  0  0  0
  145.7339  133.7647  151.7004 C   0  0  0  0  0  0  0  0  0  0  0  0
  146.7452  134.1108  152.3113 O   0  0  0  0  0  0  0  0  0  0  0  0
  144.1818  133.9901  154.0719 H   0  0  0  0  0  0  0  0  0  0  0  0
  142.7107  133.7041  153.1441 H   0  0  0  0  0  0  0  0  0  0  0  0
  142.7841  135.0312  154.2881 H   0  0  0  0  0  0  0  0  0  0  0  0
  142.9859  135.8917  152.0096 H   0  0  0  0  0  0  0  0  0  0  0  0
  144.1444  137.0876  153.8089 H   0  0  0  0  0  0  0  0  0  0  0  0
  145.5975  136.1634  153.5503 H   0  0  0  0  0  0  0  0  0  0  0  0
  144.2828  138.0823  151.5664 H   0  0  0  0  0  0  0  0  0  0  0  0
  145.7804  138.3509  152.4238 H   0  0  0  0  0  0  0  0  0  0  0  0
  146.1767  137.6212  150.0643 H   0  0  0  0  0  0  0  0  0  0  0  0
  146.8790  136.5112  151.2081 H   0  0  0  0  0  0  0  0  0  0  0  0
  144.2403  136.1732  149.7029 H   0  0  0  0  0  0  0  0  0  0  0  0
  145.6953  135.2550  149.4414 H   0  0  0  0  0  0  0  0  0  0  0  0
  142.8811  133.9849  150.1784 H   0  0  0  0  0  0  0  0  0  0  0  0
  145.6929  130.4293  151.3785 H   0  0  0  0  0  0  0  0  0  0  0  0
  147.0734  131.3206  150.8076 H   0  0  0  0  0  0  0  0  0  0  0  0
  148.7222  131.1933  152.1313 H   0  0  0  0  0  0  0  0  0  0  0  0
  149.6791  132.0011  154.2356 H   0  0  0  0  0  0  0  0  0  0  0  0
  148.3537  131.2553  155.0978 H   0  0  0  0  0  0  0  0  0  0  0  0
  149.2763  129.1003  154.9099 H   0  0  0  0  0  0  0  0  0  0  0  0
  149.9288  129.4079  153.3207 H   0  0  0  0  0  0  0  0  0  0  0  0
  152.2374  128.7390  153.5529 H   0  0  0  0  0  0  0  0  0  0  0  0
  154.4618  129.1619  154.6277 H   0  0  0  0  0  0  0  0  0  0  0  0
  154.5787  130.7251  156.5899 H   0  0  0  0  0  0  0  0  0  0  0  0
  152.4596  131.8002  157.3930 H   0  0  0  0  0  0  0  0  0  0  0  0
  1  2  1  0  0  0  0
  1 26  1  0  0  0  0
  1 27  1  0  0  0  0
  1 28  1  0  0  0  0
  2  7  1  0  0  0  0
  2  3  1  0  0  0  0
  2 29  1  0  0  0  0
  3  4  1  0  0  0  0
  3 30  1  0  0  0  0
  3 31  1  0  0  0  0
  4  5  1  0  0  0  0
  4 32  1  0  0  0  0
  4 33  1  0  0  0  0
  5  6  1  0  0  0  0
  5 34  1  0  0  0  0
  5 35  1  0  0  0  0
  6  7  1  0  0  0  0
  6 36  1  0  0  0  0
  6 37  1  0  0  0  0
  7 24  1  0  0  0  0
  7  8  1  0  0  0  0
  8  9  1  0  0  0  0
  8 38  1  0  0  0  0
  9 10  2  0  0  0  0
  9 11  1  0  0  0  0
 11 12  1  0  0  0  0
 11 24  1  0  0  0  0
 12 13  1  0  0  0  0
 12 39  1  0  0  0  0
 12 40  1  0  0  0  0
 13 14  2  0  0  0  0
 13 15  1  0  0  0  0
 15 16  1  0  0  0  0
 15 41  1  0  0  0  0
 16 17  1  0  0  0  0
 16 42  1  0  0  0  0
 16 43  1  0  0  0  0
 17 18  1  0  0  0  0
 17 44  1  0  0  0  0
 17 45  1  0  0  0  0
 18 23  1  0  0  0  0
 18 19  2  0  0  0  0
 19 20  1  0  0  0  0
 19 46  1  0  0  0  0
 20 21  2  0  0  0  0
 20 47  1  0  0  0  0
 21 22  1  0  0  0  0
 21 48  1  0  0  0  0
 22 23  2  0  0  0  0
 22 49  1  0  0  0  0
 24 25  2  0  0  0  0
M  END
> <s_m_source_file>
AV-unprocessed.smi

> <i_m_source_file_index>
2973

> <i_lp_mmshare_version>
43012

> <i_f3d_flags>
0

> <s_epik_input>
W0NIMl0xW0NIMl1bQ0gyXVtDSDJdW0NAQEhdKFtDSDNdKVtDQF0xMltOSF1DKD1PKU4oQzI9TylbQ0gyXUMoPU8pW05IXVtDSDJdW0NIMl1jM1tjSF1bY0hdW2NIXVtjSF1uMw==

> <s_epik_cmdline>
J2VwaWtfcHl0aG9uJywgJy1waCcsICc3LjAnLCAnLXRuJywgJzgnLCAnLW1hJywgJzIwMCcsICctbWV0YWxfYmluZGluZycsICctaW1hZScsICc8aW5maWxlLm1hZT4nLCAnLW9tYWUnLCAnPG91dGZpbGUubWFlPic=

> <r_lp_tautomer_probability>
1

> <r_epik_Ionization_Penalty>
0.0245152

> <r_epik_Ionization_Penalty_Charging>
0

> <r_epik_Ionization_Penalty_Neutral>
0.0245152

> <r_epik_State_Penalty>
0.0198648

> <r_epik_Charging_Adjusted_Penalty>
0.0198648

> <i_epik_Tot_Q>
0

> <i_epik_Tot_abs_Q>
0

> <r_epik_Metal_State_Penalty>
0.0400162

> <b_epik_Metal_Only>
0

> <s_lp_Force_Field>
OPLS_2005

> <r_lp_Energy>
16.769

> <b_lp_Chiralities_Consistent>
1

> <s_lp_Variant>
AV-unprocessed.smi:2973-4

> <Gold.Version>
5.8.1

> <Gold.Id.Protein>
6NUR|6NUR_protein|mol2

> <Gold.PLP.Fitness>
40.8305

> <Gold.PLP.PLP>
-33.8710

> <Gold.PLP.part.hbond>
-3.0000

> <Gold.PLP.part.metal>
0.0000

> <Gold.PLP.part.buried>
6.5716

> <Gold.PLP.part.nonpolar>
-37.7845

> <Gold.PLP.part.repulsive>
0.9688

> <Gold.PLP.ligand.clash>
0.0000

> <Gold.PLP.ligand.torsion>
0.7800

> <Gold.PLP.Chemscore.Hbond>
2.8320

> <Gold.PLP.Chemscore.CHOScore>
0.0000

> <Gold.PLP.Chemscore.Metal>
0.0000

> <Gold.Chemscore.Hbonds>
donor molecule, donor type, donor heavy atom, donor atom, acceptor molecule, acceptor atom, score
      L1  H     8    38       P1 10186  1.00
      L1  H    15    41       P1 10747  1.00
      P1  H 10785 10796       L1    10  0.83

> <Gold.PLP.Chemscore.Internal.Correction>
0.0234

> <Gold.Rescore>
     Score         DG    S(hbond)    S(metal)    S(lipo)     H(rot)  DE(clash)    DE(int)     intcor
     12.56     -19.54       2.54        0.00      88.13       1.86       4.96       2.01       ----

> <Gold.Chemscore.Fitness>
12.5585

> <Gold.Chemscore.DG>
-19.5378

> <Gold.Chemscore.ZeroCoef>
-5.4800

> <Gold.Chemscore.Hbond>
2.5438

> <Gold.Chemscore.Metal>
0.0000

> <Gold.Chemscore.Lipo>
88.1304

> <Gold.Chemscore.Internal_Hbond>
0.0000

> <Gold.Chemscore.DEClash>
4.9646

> <Gold.Chemscore.DEInternal>
2.0148

> <Gold.Chemscore.Rot>
1.8553

> <Gold.Chemscore.Internal.Correction>
   9.000000E+99

> <Gold.Chemscore.Hbonds>
donor molecule, donor type, donor heavy atom, donor atom, acceptor molecule, acceptor atom, score
      L1  H     8    38       P1 10186  0.93
      L1  H    15    41       P1 10747  0.87
      P1  H 10785 10796       L1    10  0.78

> <Gold.Chemscore.Hbond.Weighted>
-8.4962

> <Gold.Chemscore.Metal.Weighted>
-0.0000

> <Gold.Chemscore.Lipo.Weighted>
-10.3113

> <Gold.Chemscore.Internal_Hbond.Weighted>
0.0000

> <Gold.Chemscore.DEClash.Weighted>
4.9646

> <Gold.Chemscore.DEInternal.Weighted>
2.0148

> <Gold.Chemscore.Rot.Weighted>
4.7497

> <Gold.Chemscore.Internal.Correction.Weighted>
   9.000000E+99

> <Gold.Protein.RotatedTorsions>
[ 6907 6896 6895 6894 ] final -176.71 input  -60.11 | X-H torsion
[ 7974 7965 7964 7962 ] final  -35.83 input  175.53 | X-H torsion
[ 8008 7997 7996 7995 ] final  -79.40 input   59.86 | X-H torsion
[ 10167 10162 10161 10158 ] final   82.73 input  -65.29 | X-H torsion
[ 10718 10713 10712 10709 ] final   84.80 input   66.30 | X-H torsion
[ 10763 10752 10751 10750 ] final  139.91 input  -60.55 | X-H torsion
[ 11005 11000 10999 10996 ] final   96.85 input  -57.11 | X-H torsion

> <Gold.Protein.ActiveResidues>
 VAL166  LYS551  ARG553  GLY616  TRP617  ASP618  TYR619  PRO620  LYS621  CYS622 
 ASP623  PHE694  ASN695  SER759  ASP760  ASP761  ALA762  ILE779  LEU786  VAL792 
 PHE793  MET794  SER795  GLU796  ALA797  LYS798  CYS799  TRP800  GLU811  SER814 

> <Gold.Protein.RotatedAtoms>
  151.6092  133.3349  159.3063 H   0  0  0  0  0  0  0  0  0  0  0  0  # atno 6907 bound_to 6896
  150.8166  134.7354  159.6746 H   0  0  0  0  0  0  0  0  0  0  0  0  # atno 6908 bound_to 6896
  152.4261  134.5870  160.0015 H   0  0  0  0  0  0  0  0  0  0  0  0  # atno 6909 bound_to 6896
  146.0713  140.6206  142.8951 H   0  0  0  0  0  0  0  0  0  0  0  0  # atno 7974 bound_to 7965
  154.5781  140.0679  156.9064 H   0  0  0  0  0  0  0  0  0  0  0  0  # atno 8008 bound_to 7997
  155.2511  140.3352  155.4264 H   0  0  0  0  0  0  0  0  0  0  0  0  # atno 8009 bound_to 7997
  156.2169  140.1782  156.7552 H   0  0  0  0  0  0  0  0  0  0  0  0  # atno 8010 bound_to 7997
  139.9257  144.6184  150.8395 H   0  0  0  0  0  0  0  0  0  0  0  0  # atno 10167 bound_to 10162
  157.6904  131.0148  150.2727 H   0  0  0  0  0  0  0  0  0  0  0  0  # atno 10718 bound_to 10713
  153.9139  135.3008  155.3448 H   0  0  0  0  0  0  0  0  0  0  0  0  # atno 10763 bound_to 10752
  154.7609  135.4934  153.9466 H   0  0  0  0  0  0  0  0  0  0  0  0  # atno 10764 bound_to 10752
  153.1178  135.6775  153.9490 H   0  0  0  0  0  0  0  0  0  0  0  0  # atno 10765 bound_to 10752
  139.8779  134.8972  156.4221 H   0  0  0  0  0  0  0  0  0  0  0  0  # atno 11005 bound_to 11000
  144.7234  140.4446  143.6991 LP  0  0  0  0  0  0  0  0  0  0  0  0  # atno 17320 bound_to 7965
  145.6386  139.1546  143.2928 LP  0  0  0  0  0  0  0  0  0  0  0  0  # atno 17321 bound_to 7965
  140.7650  143.3265  151.2504 LP  0  0  0  0  0  0  0  0  0  0  0  0  # atno 17342 bound_to 10162
  139.6824  143.9832  152.2815 LP  0  0  0  0  0  0  0  0  0  0  0  0  # atno 17343 bound_to 10162
  156.3287  130.3797  149.7510 LP  0  0  0  0  0  0  0  0  0  0  0  0  # atno 17370 bound_to 10713
  156.5057  130.8149  151.3149 LP  0  0  0  0  0  0  0  0  0  0  0  0  # atno 17371 bound_to 10713
  140.9127  133.7700  155.9810 LP  0  0  0  0  0  0  0  0  0  0  0  0  # atno 17394 bound_to 11000
  140.8529  134.2933  157.5268 LP  0  0  0  0  0  0  0  0  0  0  0  0  # atno 17395 bound_to 11000

$$$$
