AV-unprocessed.smi:1732|AV-procd|sdf|6977|dock9
  -GOLD-   22720 8193D 1   1.00000     0.00000
 Structure written by MMmdl.
 35 36  0  0  0  0  0  0  0  0  2 V2000
  153.2055  139.1851  155.9643 O   0  0  0  0  0  0  0  0  0  0  0  0
  152.0123  139.4625  155.8472 C   0  0  0  0  0  0  0  0  0  0  0  0
  151.2067  138.8284  154.7166 C   0  0  0  0  0  0  0  0  0  0  0  0
  150.5816  139.8646  153.9747 O   0  0  0  0  0  0  0  0  0  0  0  0
  149.1971  140.0110  154.2537 C   0  0  0  0  0  0  0  0  0  0  0  0
  148.3986  138.8852  153.5984 C   0  0  0  0  0  0  0  0  0  0  0  0
  146.9731  139.4339  153.4733 C   0  0  0  0  0  0  0  0  0  0  0  0
  147.0987  140.9658  153.4871 C   0  0  0  0  0  0  0  0  0  0  0  0
  148.5928  141.2749  153.6355 C   0  0  0  0  0  0  0  0  0  0  0  0
  151.3164  140.2820  156.6593 N   0  0  0  0  0  0  0  0  0  0  0  0
  151.7606  141.0302  157.7625 C   0  0  0  0  0  0  0  0  0  0  0  0
  151.3783  142.3084  158.0361 C   0  0  0  0  0  0  0  0  0  0  0  0
  151.8582  143.0325  159.2065 C   0  0  0  0  0  0  0  0  0  0  0  0
  151.5275  144.4859  159.4963 C   0  0  0  0  0  0  0  0  0  0  0  0
  152.0992  145.2925  158.6019 F   0  0  0  0  0  0  0  0  0  0  0  0
  150.2109  144.6935  159.4694 F   0  0  0  0  0  0  0  0  0  0  0  0
  151.9775  144.8215  160.7045 F   0  0  0  0  0  0  0  0  0  0  0  0
  152.7291  142.2787  159.9689 C   0  0  0  0  0  0  0  0  0  0  0  0
  153.1365  141.0036  159.7842 N   0  5  0  0  0  0  0  0  0  0  0  0
  152.6781  140.3344  158.6887 C   0  0  0  0  0  0  0  0  0  0  0  0
  153.0112  139.1713  158.4581 O   0  0  0  0  0  0  0  0  0  0  0  0
  151.8682  138.2460  154.0731 H   0  0  0  0  0  0  0  0  0  0  0  0
  150.4684  138.1447  155.1379 H   0  0  0  0  0  0  0  0  0  0  0  0
  149.0135  139.9930  155.3299 H   0  0  0  0  0  0  0  0  0  0  0  0
  148.7965  138.6840  152.6025 H   0  0  0  0  0  0  0  0  0  0  0  0
  148.4430  137.9548  154.1653 H   0  0  0  0  0  0  0  0  0  0  0  0
  146.4857  139.0718  152.5674 H   0  0  0  0  0  0  0  0  0  0  0  0
  146.3698  139.1064  154.3210 H   0  0  0  0  0  0  0  0  0  0  0  0
  146.6893  141.4164  152.5825 H   0  0  0  0  0  0  0  0  0  0  0  0
  146.5444  141.3732  154.3332 H   0  0  0  0  0  0  0  0  0  0  0  0
  148.7763  142.1677  154.2338 H   0  0  0  0  0  0  0  0  0  0  0  0
  149.0275  141.4428  152.6490 H   0  0  0  0  0  0  0  0  0  0  0  0
  150.3240  140.3479  156.4839 H   0  0  0  0  0  0  0  0  0  0  0  0
  150.6802  142.8234  157.3968 H   0  0  0  0  0  0  0  0  0  0  0  0
  153.1654  142.7768  160.8610 H   0  0  0  0  0  0  0  0  0  0  0  0
  1  2  2  0  0  0  0
  2  3  1  0  0  0  0
  2 10  1  0  0  0  0
  3  4  1  0  0  0  0
  3 22  1  0  0  0  0
  3 23  1  0  0  0  0
  4  5  1  0  0  0  0
  5  9  1  0  0  0  0
  5  6  1  0  0  0  0
  5 24  1  0  0  0  0
  6  7  1  0  0  0  0
  6 25  1  0  0  0  0
  6 26  1  0  0  0  0
  7  8  1  0  0  0  0
  7 27  1  0  0  0  0
  7 28  1  0  0  0  0
  8  9  1  0  0  0  0
  8 29  1  0  0  0  0
  8 30  1  0  0  0  0
  9 31  1  0  0  0  0
  9 32  1  0  0  0  0
 10 11  1  0  0  0  0
 10 33  1  0  0  0  0
 11 20  1  0  0  0  0
 11 12  2  0  0  0  0
 12 13  1  0  0  0  0
 12 34  1  0  0  0  0
 13 14  1  0  0  0  0
 13 18  2  0  0  0  0
 14 15  1  0  0  0  0
 14 16  1  0  0  0  0
 14 17  1  0  0  0  0
 18 19  1  0  0  0  0
 18 35  1  0  0  0  0
 19 20  1  0  0  0  0
 20 21  2  0  0  0  0
M  CHG  1  19  -1
M  END
> <s_m_source_file>
AV-unprocessed.smi

> <i_m_source_file_index>
1732

> <i_lp_mmshare_version>
43012

> <i_f3d_flags>
0

> <s_epik_input>
W0NIMl0xW0NIMl1bQ0gyXVtDSDJdW0NIXTFPW0NIMl1DKD1PKVtOSF1jMltjSF1jKEMoRikoRilGKVtjSF1bbkhdYzI9Tw==

> <s_epik_cmdline>
J2VwaWtfcHl0aG9uJywgJy1waCcsICc3LjAnLCAnLXRuJywgJzgnLCAnLW1hJywgJzIwMCcsICctbWV0YWxfYmluZGluZycsICctaW1hZScsICc8aW5maWxlLm1hZT4nLCAnLW9tYWUnLCAnPG91dGZpbGUubWFlPic=

> <r_epik_Ionization_Penalty>
2.40879

> <r_epik_Ionization_Penalty_Charging>
0.039975

> <r_epik_Ionization_Penalty_Neutral>
2.36882

> <r_epik_State_Penalty>
2.52443

> <r_epik_Charging_Adjusted_Penalty>
2.5644

> <i_epik_Tot_Q>
-1

> <i_epik_Tot_abs_Q>
1

> <r_epik_Metal_State_Penalty>
0.506326

> <b_epik_Metal_Only>
0

> <s_lp_Force_Field>
OPLS_2005

> <r_lp_Energy>
39.1091

> <b_lp_Chiralities_Consistent>
1

> <s_lp_Variant>
AV-unprocessed.smi:1732-2

> <Gold.Version>
5.8.1

> <Gold.Id.Protein>
6NUR|6NUR_protein|mol2

> <Gold.PLP.Fitness>
51.5104

> <Gold.PLP.PLP>
-47.5217

> <Gold.PLP.part.hbond>
-2.0261

> <Gold.PLP.part.metal>
0.0000

> <Gold.PLP.part.buried>
-6.3687

> <Gold.PLP.part.nonpolar>
-39.3408

> <Gold.PLP.part.repulsive>
0.7741

> <Gold.PLP.ligand.clash>
0.0000

> <Gold.PLP.ligand.torsion>
1.0403

> <Gold.PLP.Chemscore.Hbond>
2.0000

> <Gold.PLP.Chemscore.CHOScore>
0.0000

> <Gold.PLP.Chemscore.Metal>
0.0000

> <Gold.Chemscore.Hbonds>
donor molecule, donor type, donor heavy atom, donor atom, acceptor molecule, acceptor atom, score
      P1  H  7989  7998       L1     4  0.98
      P1  H  7997  8009       L1     1  0.96

> <Gold.PLP.Chemscore.Internal.Correction>
0.0693

> <Gold.Rescore>
     Score         DG    S(hbond)    S(metal)    S(lipo)     H(rot)  DE(clash)    DE(int)     intcor
     12.03     -17.42       1.90        0.00      82.43       1.58       0.63       4.75       ----

> <Gold.Chemscore.Fitness>
12.0334

> <Gold.Chemscore.DG>
-17.4158

> <Gold.Chemscore.ZeroCoef>
-5.4800

> <Gold.Chemscore.Hbond>
1.8955

> <Gold.Chemscore.Metal>
0.0000

> <Gold.Chemscore.Lipo>
82.4328

> <Gold.Chemscore.Internal_Hbond>
0.0000

> <Gold.Chemscore.DEClash>
0.6290

> <Gold.Chemscore.DEInternal>
4.7533

> <Gold.Chemscore.Rot>
1.5781

> <Gold.Chemscore.Internal.Correction>
   9.000000E+99

> <Gold.Chemscore.Hbonds>
donor molecule, donor type, donor heavy atom, donor atom, acceptor molecule, acceptor atom, score
      P1  H  7989  7998       L1     4  0.71
      P1  H  7997  8009       L1     1  0.91

> <Gold.Chemscore.Hbond.Weighted>
-6.3311

> <Gold.Chemscore.Metal.Weighted>
-0.0000

> <Gold.Chemscore.Lipo.Weighted>
-9.6446

> <Gold.Chemscore.Internal_Hbond.Weighted>
0.0000

> <Gold.Chemscore.DEClash.Weighted>
0.6290

> <Gold.Chemscore.DEInternal.Weighted>
4.7533

> <Gold.Chemscore.Rot.Weighted>
4.0399

> <Gold.Chemscore.Internal.Correction.Weighted>
   9.000000E+99

> <Gold.Protein.RotatedTorsions>
[ 6907 6896 6895 6894 ] final -144.39 input  -60.11 | X-H torsion
[ 7974 7965 7964 7962 ] final  -26.14 input  175.53 | X-H torsion
[ 8008 7997 7996 7995 ] final -165.25 input   59.86 | X-H torsion
[ 10167 10162 10161 10158 ] final   -8.78 input  -65.29 | X-H torsion
[ 10718 10713 10712 10709 ] final   28.02 input   66.30 | X-H torsion
[ 10763 10752 10751 10750 ] final -177.97 input  -60.55 | X-H torsion
[ 11005 11000 10999 10996 ] final  -81.70 input  -57.11 | X-H torsion

> <Gold.Protein.ActiveResidues>
 VAL166  LYS551  ARG553  GLY616  TRP617  ASP618  TYR619  PRO620  LYS621  CYS622 
 ASP623  PHE694  ASN695  SER759  ASP760  ASP761  ALA762  ILE779  LEU786  VAL792 
 PHE793  MET794  SER795  GLU796  ALA797  LYS798  CYS799  TRP800  GLU811  SER814 

> <Gold.Protein.RotatedAtoms>
  151.1134  133.5156  159.2604 H   0  0  0  0  0  0  0  0  0  0  0  0  # atno 6907 bound_to 6896
  151.1941  135.0414  159.8855 H   0  0  0  0  0  0  0  0  0  0  0  0  # atno 6908 bound_to 6896
  152.5451  134.0971  159.8355 H   0  0  0  0  0  0  0  0  0  0  0  0  # atno 6909 bound_to 6896
  146.1445  140.4980  142.8638 H   0  0  0  0  0  0  0  0  0  0  0  0  # atno 7974 bound_to 7965
  155.8472  140.0957  157.1698 H   0  0  0  0  0  0  0  0  0  0  0  0  # atno 8008 bound_to 7997
  154.3984  140.1390  156.3862 H   0  0  0  0  0  0  0  0  0  0  0  0  # atno 8009 bound_to 7997
  155.8001  140.3453  155.5400 H   0  0  0  0  0  0  0  0  0  0  0  0  # atno 8010 bound_to 7997
  140.7069  143.5930  150.8874 H   0  0  0  0  0  0  0  0  0  0  0  0  # atno 10167 bound_to 10162
  157.2280  130.7010  149.6300 H   0  0  0  0  0  0  0  0  0  0  0  0  # atno 10718 bound_to 10713
  154.5536  135.2814  155.0986 H   0  0  0  0  0  0  0  0  0  0  0  0  # atno 10763 bound_to 10752
  154.2422  135.6355  153.5215 H   0  0  0  0  0  0  0  0  0  0  0  0  # atno 10764 bound_to 10752
  153.0009  135.5562  154.6109 H   0  0  0  0  0  0  0  0  0  0  0  0  # atno 10765 bound_to 10752
  141.1666  133.7209  156.8461 H   0  0  0  0  0  0  0  0  0  0  0  0  # atno 11005 bound_to 11000
  144.7830  140.5879  143.6592 LP  0  0  0  0  0  0  0  0  0  0  0  0  # atno 17320 bound_to 7965
  145.4970  139.1485  143.3678 LP  0  0  0  0  0  0  0  0  0  0  0  0  # atno 17321 bound_to 7965
  139.9656  143.6115  152.2989 LP  0  0  0  0  0  0  0  0  0  0  0  0  # atno 17342 bound_to 10162
  139.6683  144.7661  151.1831 LP  0  0  0  0  0  0  0  0  0  0  0  0  # atno 17343 bound_to 10162
  155.9677  130.4498  150.5673 LP  0  0  0  0  0  0  0  0  0  0  0  0  # atno 17370 bound_to 10713
  157.3508  131.0733  151.1715 LP  0  0  0  0  0  0  0  0  0  0  0  0  # atno 17371 bound_to 10713
  140.1949  134.8939  157.3102 LP  0  0  0  0  0  0  0  0  0  0  0  0  # atno 17394 bound_to 11000
  140.2250  134.3977  155.7548 LP  0  0  0  0  0  0  0  0  0  0  0  0  # atno 17395 bound_to 11000

$$$$
