AV-unprocessed.smi:101|AV-procd|sdf|918|dock1
  -GOLD-   2262017423D 1   1.00000     0.00000
 Structure written by MMmdl.
 44 46  0  0  0  0  0  0  0  0  1 V2000
  145.2986  141.8971  158.6314 C   0  0  0  0  0  0  0  0  0  0  0  0
  145.3815  142.3832  157.1941 C   0  0  0  0  0  0  0  0  0  0  0  0
  146.3318  141.9428  156.3306 C   0  0  0  0  0  0  0  0  0  0  0  0
  146.4312  142.3669  155.0129 N   0  0  0  0  0  0  0  0  0  0  0  0
  147.5243  141.8334  154.1115 C   0  0  1  0  0  0  0  0  0  0  0  0
  148.6907  141.7314  154.8655 O   0  0  0  0  0  0  0  0  0  0  0  0
  149.4276  140.6028  154.4243 C   0  0  1  0  0  0  0  0  0  0  0  0
  150.3782  140.1418  155.5347 C   0  0  0  0  0  0  0  0  0  0  0  0
  150.8328  141.2721  156.2600 O   0  0  0  0  0  0  0  0  0  0  0  0
  151.5275  141.1051  157.4023 C   0  0  0  0  0  0  0  0  0  0  0  0
  151.9644  140.0167  157.7817 O   0  0  0  0  0  0  0  0  0  0  0  0
  151.7123  142.3757  158.1609 C   0  0  0  0  0  0  0  0  0  0  0  0
  152.3012  142.3360  159.4463 C   0  0  0  0  0  0  0  0  0  0  0  0
  152.4895  143.5195  160.1863 C   0  0  0  0  0  0  0  0  0  0  0  0
  152.0920  144.7575  159.6494 C   0  0  0  0  0  0  0  0  0  0  0  0
  151.5047  144.8107  158.3719 C   0  0  0  0  0  0  0  0  0  0  0  0
  151.3150  143.6280  157.6307 C   0  0  0  0  0  0  0  0  0  0  0  0
  148.3405  139.5787  154.0881 C   0  0  2  0  0  0  0  0  0  0  0  0
  148.8111  138.6691  153.1131 O   0  0  0  0  0  0  0  0  0  0  0  0
  147.2104  140.4361  153.5267 C   0  0  1  0  0  0  0  0  0  0  0  0
  145.9502  139.9094  153.9031 O   0  0  0  0  0  0  0  0  0  0  0  0
  145.4949  143.2941  154.5109 C   0  0  0  0  0  0  0  0  0  0  0  0
  145.5029  143.6937  153.3473 O   0  0  0  0  0  0  0  0  0  0  0  0
  144.5211  143.7497  155.3981 N   0  0  0  0  0  0  0  0  0  0  0  0
  144.3906  143.3601  156.7336 C   0  0  0  0  0  0  0  0  0  0  0  0
  143.4868  143.8358  157.4190 O   0  0  0  0  0  0  0  0  0  0  0  0
  143.8497  144.4158  155.0450 H   0  0  0  0  0  0  0  0  0  0  0  0
  146.0817  141.1734  158.8593 H   0  0  0  0  0  0  0  0  0  0  0  0
  144.3367  141.4181  158.8172 H   0  0  0  0  0  0  0  0  0  0  0  0
  145.4049  142.7333  159.3235 H   0  0  0  0  0  0  0  0  0  0  0  0
  147.0465  141.2139  156.6858 H   0  0  0  0  0  0  0  0  0  0  0  0
  147.7046  142.5786  153.3351 H   0  0  0  0  0  0  0  0  0  0  0  0
  149.9800  140.8757  153.5225 H   0  0  0  0  0  0  0  0  0  0  0  0
  149.8774  139.4308  156.1936 H   0  0  0  0  0  0  0  0  0  0  0  0
  151.2412  139.6362  155.0997 H   0  0  0  0  0  0  0  0  0  0  0  0
  152.6146  141.3972  159.8798 H   0  0  0  0  0  0  0  0  0  0  0  0
  152.9397  143.4764  161.1671 H   0  0  0  0  0  0  0  0  0  0  0  0
  152.2367  145.6649  160.2169 H   0  0  0  0  0  0  0  0  0  0  0  0
  151.1989  145.7606  157.9588 H   0  0  0  0  0  0  0  0  0  0  0  0
  150.8614  143.7045  156.6534 H   0  0  0  0  0  0  0  0  0  0  0  0
  148.0222  139.0530  154.9902 H   0  0  0  0  0  0  0  0  0  0  0  0
  148.9263  139.1333  152.2979 H   0  0  0  0  0  0  0  0  0  0  0  0
  147.2661  140.5110  152.4395 H   0  0  0  0  0  0  0  0  0  0  0  0
  145.2954  140.2540  153.3149 H   0  0  0  0  0  0  0  0  0  0  0  0
  1  2  1  0  0  0  0
  1 28  1  0  0  0  0
  1 29  1  0  0  0  0
  1 30  1  0  0  0  0
  2 25  1  0  0  0  0
  2  3  2  0  0  0  0
  3  4  1  0  0  0  0
  3 31  1  0  0  0  0
  4  5  1  0  0  0  0
  4 22  1  0  0  0  0
  5 20  1  0  0  0  0
  5  6  1  0  0  0  0
  5 32  1  0  0  0  0
  6  7  1  0  0  0  0
  7  8  1  0  0  0  0
  7 18  1  0  0  0  0
  7 33  1  0  0  0  0
  8  9  1  0  0  0  0
  8 34  1  0  0  0  0
  8 35  1  0  0  0  0
  9 10  1  0  0  0  0
 10 11  2  0  0  0  0
 10 12  1  0  0  0  0
 12 17  1  0  0  0  0
 12 13  2  0  0  0  0
 13 14  1  0  0  0  0
 13 36  1  0  0  0  0
 14 15  2  0  0  0  0
 14 37  1  0  0  0  0
 15 16  1  0  0  0  0
 15 38  1  0  0  0  0
 16 17  2  0  0  0  0
 16 39  1  0  0  0  0
 17 40  1  0  0  0  0
 18 19  1  0  0  0  0
 18 20  1  0  0  0  0
 18 41  1  0  0  0  0
 19 42  1  0  0  0  0
 20 21  1  0  0  0  0
 20 43  1  0  0  0  0
 21 44  1  0  0  0  0
 22 23  2  0  0  0  0
 22 24  1  0  0  0  0
 24 27  1  0  0  0  0
 24 25  1  0  0  0  0
 25 26  2  0  0  0  0
M  END
> <s_m_source_file>
AV-unprocessed.smi

> <i_m_source_file_index>
101

> <i_lp_mmshare_version>
43012

> <i_f3d_flags>
0

> <s_epik_input>
Tz1jMVtuSF1jKD1PKW4oW2NIXWMxW0NIM10pW0NAQEhdMk9bQ0BIXShbQ0BASF0oW09IXSlbQ0BIXTJbT0hdKVtDSDJdT0MoPU8pYzNbY0hdW2NIXVtjSF1bY0hdW2NIXTM=

> <s_epik_cmdline>
J2VwaWtfcHl0aG9uJywgJy1waCcsICc3LjAnLCAnLXRuJywgJzgnLCAnLW1hJywgJzIwMCcsICctbWV0YWxfYmluZGluZycsICctaW1hZScsICc8aW5maWxlLm1hZT4nLCAnLW9tYWUnLCAnPG91dGZpbGUubWFlPic=

> <r_lp_tautomer_probability>
0.999537

> <r_epik_Ionization_Penalty>
0.00263537

> <r_epik_Ionization_Penalty_Charging>
0.00263428

> <r_epik_Ionization_Penalty_Neutral>
1.09111e-06

> <r_epik_State_Penalty>
0.00183335

> <r_epik_Charging_Adjusted_Penalty>
0.00446763

> <i_epik_Tot_Q>
0

> <i_epik_Tot_abs_Q>
0

> <r_epik_Metal_State_Penalty>
1.00528

> <b_epik_Metal_Only>
0

> <s_epik_Chemistry_Notes>
This compound has an ester and may undergo hydrolysis at high or low pH. This compound contains an acetal/aminal-like group ( X-CH(R)-Y where X, Y are N, S, or O) that may be acid/base labile, releasing an aldehyde.

> <s_lp_Force_Field>
OPLS_2005

> <r_lp_Energy>
35.8325

> <b_lp_Chiralities_Consistent>
1

> <s_lp_Variant>
AV-unprocessed.smi:101-6

> <Gold.Version>
5.8.1

> <Gold.Id.Protein>
6NUR|6NUR_protein|mol2

> <Gold.PLP.Fitness>
54.2916

> <Gold.PLP.PLP>
-50.0102

> <Gold.PLP.part.hbond>
-3.2312

> <Gold.PLP.part.metal>
0.0000

> <Gold.PLP.part.buried>
-7.8336

> <Gold.PLP.part.nonpolar>
-40.1030

> <Gold.PLP.part.repulsive>
0.8776

> <Gold.PLP.ligand.clash>
0.0000

> <Gold.PLP.ligand.torsion>
1.0778

> <Gold.PLP.Chemscore.Hbond>
2.0000

> <Gold.PLP.Chemscore.CHOScore>
0.0000

> <Gold.PLP.Chemscore.Metal>
0.0000

> <Gold.Chemscore.Hbonds>
donor molecule, donor type, donor heavy atom, donor atom, acceptor molecule, acceptor atom, score
      L1  H    19    42       P1  7957  1.00
      L1  H    21    44       P1 10175  1.00

> <Gold.PLP.Chemscore.Internal.Correction>
0.4369

> <Gold.Rescore>
     Score         DG    S(hbond)    S(metal)    S(lipo)     H(rot)  DE(clash)    DE(int)     intcor
     14.57     -15.57       1.99        0.00     102.04       3.32       0.01       0.98       ----

> <Gold.Chemscore.Fitness>
14.5696

> <Gold.Chemscore.DG>
-15.5660

> <Gold.Chemscore.ZeroCoef>
-5.4800

> <Gold.Chemscore.Hbond>
1.9878

> <Gold.Chemscore.Metal>
0.0000

> <Gold.Chemscore.Lipo>
102.0422

> <Gold.Chemscore.Internal_Hbond>
0.0000

> <Gold.Chemscore.DEClash>
0.0145

> <Gold.Chemscore.DEInternal>
0.9819

> <Gold.Chemscore.Rot>
3.3172

> <Gold.Chemscore.Internal.Correction>
   9.000000E+99

> <Gold.Chemscore.Hbonds>
donor molecule, donor type, donor heavy atom, donor atom, acceptor molecule, acceptor atom, score
      L1  H    19    42       P1  7957  0.98
      L1  H    21    44       P1 10175  0.99

> <Gold.Chemscore.Hbond.Weighted>
-6.6391

> <Gold.Chemscore.Metal.Weighted>
-0.0000

> <Gold.Chemscore.Lipo.Weighted>
-11.9389

> <Gold.Chemscore.Internal_Hbond.Weighted>
0.0000

> <Gold.Chemscore.DEClash.Weighted>
0.0145

> <Gold.Chemscore.DEInternal.Weighted>
0.9819

> <Gold.Chemscore.Rot.Weighted>
8.4920

> <Gold.Chemscore.Internal.Correction.Weighted>
   9.000000E+99

> <Gold.Protein.RotatedTorsions>
[ 6907 6896 6895 6894 ] final  -83.68 input  -60.11 | X-H torsion
[ 7974 7965 7964 7962 ] final  112.33 input  175.53 | X-H torsion
[ 8008 7997 7996 7995 ] final  -51.87 input   59.86 | X-H torsion
[ 10167 10162 10161 10158 ] final   28.29 input  -65.29 | X-H torsion
[ 10718 10713 10712 10709 ] final   15.03 input   66.30 | X-H torsion
[ 10763 10752 10751 10750 ] final  -40.10 input  -60.55 | X-H torsion
[ 11005 11000 10999 10996 ] final  -50.72 input  -57.11 | X-H torsion

> <Gold.Protein.ActiveResidues>
 VAL166  LYS551  ARG553  GLY616  TRP617  ASP618  TYR619  PRO620  LYS621  CYS622 
 ASP623  PHE694  ASN695  SER759  ASP760  ASP761  ALA762  ILE779  LEU786  VAL792 
 PHE793  MET794  SER795  GLU796  ALA797  LYS798  CYS799  TRP800  GLU811  SER814 

> <Gold.Protein.RotatedAtoms>
  150.6883  134.3475  159.4894 H   0  0  0  0  0  0  0  0  0  0  0  0  # atno 6907 bound_to 6896
  152.1321  134.9124  160.0567 H   0  0  0  0  0  0  0  0  0  0  0  0  # atno 6908 bound_to 6896
  152.0290  133.3895  159.4326 H   0  0  0  0  0  0  0  0  0  0  0  0  # atno 6909 bound_to 6896
  145.2309  139.2820  143.4168 H   0  0  0  0  0  0  0  0  0  0  0  0  # atno 7974 bound_to 7965
  154.4093  140.1237  156.4900 H   0  0  0  0  0  0  0  0  0  0  0  0  # atno 8008 bound_to 7997
  155.7000  140.3495  155.4909 H   0  0  0  0  0  0  0  0  0  0  0  0  # atno 8009 bound_to 7997
  155.9393  140.1084  157.1058 H   0  0  0  0  0  0  0  0  0  0  0  0  # atno 8010 bound_to 7997
  140.4865  144.0534  150.6282 H   0  0  0  0  0  0  0  0  0  0  0  0  # atno 10167 bound_to 10162
  157.0477  130.6257  149.5762 H   0  0  0  0  0  0  0  0  0  0  0  0  # atno 10718 bound_to 10713
  153.9403  135.6762  153.4744 H   0  0  0  0  0  0  0  0  0  0  0  0  # atno 10763 bound_to 10752
  153.0935  135.4863  154.8731 H   0  0  0  0  0  0  0  0  0  0  0  0  # atno 10764 bound_to 10752
  154.7380  135.3154  154.8735 H   0  0  0  0  0  0  0  0  0  0  0  0  # atno 10765 bound_to 10752
  141.0831  133.6648  156.3772 H   0  0  0  0  0  0  0  0  0  0  0  0  # atno 11005 bound_to 11000
  146.3353  140.2644  142.8603 LP  0  0  0  0  0  0  0  0  0  0  0  0  # atno 17320 bound_to 7965
  144.9677  140.8338  143.5474 LP  0  0  0  0  0  0  0  0  0  0  0  0  # atno 17321 bound_to 7965
  140.3791  143.2812  152.0191 LP  0  0  0  0  0  0  0  0  0  0  0  0  # atno 17342 bound_to 10162
  139.4843  144.6169  151.7329 LP  0  0  0  0  0  0  0  0  0  0  0  0  # atno 17343 bound_to 10162
  156.0017  130.5098  150.7688 LP  0  0  0  0  0  0  0  0  0  0  0  0  # atno 17370 bound_to 10713
  157.5055  131.0922  151.0262 LP  0  0  0  0  0  0  0  0  0  0  0  0  # atno 17371 bound_to 10713
  140.5423  134.6108  157.5383 LP  0  0  0  0  0  0  0  0  0  0  0  0  # atno 17394 bound_to 11000
  139.9647  134.7393  156.0164 LP  0  0  0  0  0  0  0  0  0  0  0  0  # atno 17395 bound_to 11000

$$$$
