AV-unprocessed.smi:61|AV-procd|sdf|598|dock1
  -GOLD-   2262016493D 1   1.00000     0.00000
 Structure written by MMmdl.
 28 29  0  0  0  0  0  0  0  0  1 V2000
  141.9468  135.8162  154.6747 N   0  0  0  0  0  0  0  0  0  0  0  0
  142.8653  135.8420  153.6538 C   0  0  0  0  0  0  0  0  0  0  0  0
  143.3152  137.0420  153.2857 N   0  0  0  0  0  0  0  0  0  0  0  0
  144.2176  137.0653  152.2818 C   0  0  0  0  0  0  0  0  0  0  0  0
  144.6627  135.8840  151.6546 C   0  0  0  0  0  0  0  0  0  0  0  0
  144.1179  134.6653  152.1245 C   0  0  0  0  0  0  0  0  0  0  0  0
  144.5117  133.4370  151.5534 N   0  0  0  0  0  0  0  0  0  0  0  0
  143.5087  132.7186  150.7737 C   0  0  0  0  0  0  0  0  0  0  0  0
  144.2487  132.1020  149.5811 C   0  0  0  0  0  0  0  0  0  0  0  0
  145.6963  132.0159  150.0551 C   0  0  0  0  0  0  0  0  0  0  0  0
  145.8269  133.2610  150.9394 C   0  0  2  0  0  0  0  0  0  0  0  0
  146.9966  133.2295  151.9490 C   0  0  0  0  0  0  0  0  0  0  0  0
  147.1558  134.4681  152.6105 O   0  0  0  0  0  0  0  0  0  0  0  0
  143.2129  134.6634  153.1340 N   0  0  0  0  0  0  0  0  0  0  0  0
  141.5683  134.9380  154.9980 H   0  0  0  0  0  0  0  0  0  0  0  0
  141.6823  136.6694  155.1449 H   0  0  0  0  0  0  0  0  0  0  0  0
  144.5861  138.0330  151.9748 H   0  0  0  0  0  0  0  0  0  0  0  0
  145.3804  135.9203  150.8484 H   0  0  0  0  0  0  0  0  0  0  0  0
  143.0776  131.9379  151.4012 H   0  0  0  0  0  0  0  0  0  0  0  0
  142.6980  133.3648  150.4342 H   0  0  0  0  0  0  0  0  0  0  0  0
  143.8392  131.1370  149.2816 H   0  0  0  0  0  0  0  0  0  0  0  0
  144.1860  132.7737  148.7237 H   0  0  0  0  0  0  0  0  0  0  0  0
  145.8306  131.1015  150.6340 H   0  0  0  0  0  0  0  0  0  0  0  0
  146.4131  132.0034  149.2336 H   0  0  0  0  0  0  0  0  0  0  0  0
  145.9821  134.1127  150.2752 H   0  0  0  0  0  0  0  0  0  0  0  0
  146.8031  132.4684  152.7052 H   0  0  0  0  0  0  0  0  0  0  0  0
  147.9378  132.9594  151.4720 H   0  0  0  0  0  0  0  0  0  0  0  0
  147.8961  134.9172  152.2321 H   0  0  0  0  0  0  0  0  0  0  0  0
  1  2  1  0  0  0  0
  1 15  1  0  0  0  0
  1 16  1  0  0  0  0
  2 14  1  0  0  0  0
  2  3  2  0  0  0  0
  3  4  1  0  0  0  0
  4  5  2  0  0  0  0
  4 17  1  0  0  0  0
  5  6  1  0  0  0  0
  5 18  1  0  0  0  0
  6  7  1  0  0  0  0
  6 14  2  0  0  0  0
  7 11  1  0  0  0  0
  7  8  1  0  0  0  0
  8  9  1  0  0  0  0
  8 19  1  0  0  0  0
  8 20  1  0  0  0  0
  9 10  1  0  0  0  0
  9 21  1  0  0  0  0
  9 22  1  0  0  0  0
 10 11  1  0  0  0  0
 10 23  1  0  0  0  0
 10 24  1  0  0  0  0
 11 12  1  0  0  0  0
 11 25  1  0  0  0  0
 12 13  1  0  0  0  0
 12 26  1  0  0  0  0
 12 27  1  0  0  0  0
 13 28  1  0  0  0  0
M  END
> <s_m_source_file>
AV-unprocessed.smi

> <i_m_source_file_index>
61

> <i_lp_mmshare_version>
43012

> <i_f3d_flags>
0

> <s_epik_input>
W05IMl1jMW5bY0hdW2NIXWMobjEpTjJbQ0gyXVtDSDJdW0NIMl1bQ0BIXTJbQ0gyXVtPSF0=

> <s_epik_cmdline>
J2VwaWtfcHl0aG9uJywgJy1waCcsICc3LjAnLCAnLXRuJywgJzgnLCAnLW1hJywgJzIwMCcsICctbWV0YWxfYmluZGluZycsICctaW1hZScsICc8aW5maWxlLm1hZT4nLCAnLW9tYWUnLCAnPG91dGZpbGUubWFlPic=

> <r_lp_tautomer_probability>
1

> <r_epik_Ionization_Penalty>
0.76024

> <r_epik_Ionization_Penalty_Charging>
0

> <r_epik_Ionization_Penalty_Neutral>
0.76024

> <r_epik_State_Penalty>
0.587668

> <r_epik_Charging_Adjusted_Penalty>
0.587668

> <i_epik_Tot_Q>
0

> <i_epik_Tot_abs_Q>
0

> <r_epik_Metal_State_Penalty>
0.307814

> <b_epik_Metal_Only>
0

> <s_lp_Force_Field>
OPLS_2005

> <r_lp_Energy>
26.7573

> <b_lp_Chiralities_Consistent>
1

> <s_lp_Variant>
AV-unprocessed.smi:61-4

> <Gold.Version>
5.8.1

> <Gold.Id.Protein>
6NUR|6NUR_protein|mol2

> <Gold.PLP.Fitness>
33.7526

> <Gold.PLP.PLP>
-24.4252

> <Gold.PLP.part.hbond>
-2.0000

> <Gold.PLP.part.metal>
0.0000

> <Gold.PLP.part.buried>
-3.2214

> <Gold.PLP.part.nonpolar>
-19.8975

> <Gold.PLP.part.repulsive>
0.4385

> <Gold.PLP.ligand.clash>
0.0000

> <Gold.PLP.ligand.torsion>
0.4630

> <Gold.PLP.Chemscore.Hbond>
1.6240

> <Gold.PLP.Chemscore.CHOScore>
1.6787

> <Gold.PLP.Chemscore.Metal>
0.0000

> <Gold.Chemscore.Hbonds>
donor molecule, donor type, donor heavy atom, donor atom, acceptor molecule, acceptor atom, score
      L1  H     1    15       P1 11000  0.42
      L1  H    13    28       P1  7948  1.00
      L1  C     4    17       P1 10171  0.64
      L1  C     4    17       P1 10175  0.78

> <Gold.PLP.Chemscore.Internal.Correction>
0.3454

> <Gold.Rescore>
     Score         DG    S(hbond)    S(metal)    S(lipo)     H(rot)  DE(clash)    DE(int)     intcor
     10.30     -10.90       1.35        0.00      50.62       1.96       0.00       0.59       ----

> <Gold.Chemscore.Fitness>
10.3002

> <Gold.Chemscore.DG>
-10.8977

> <Gold.Chemscore.ZeroCoef>
-5.4800

> <Gold.Chemscore.Hbond>
1.3483

> <Gold.Chemscore.Metal>
0.0000

> <Gold.Chemscore.Lipo>
50.6154

> <Gold.Chemscore.Internal_Hbond>
0.0000

> <Gold.Chemscore.DEClash>
0.0048

> <Gold.Chemscore.DEInternal>
0.5927

> <Gold.Chemscore.Rot>
1.9561

> <Gold.Chemscore.Internal.Correction>
   9.000000E+99

> <Gold.Chemscore.Hbonds>
donor molecule, donor type, donor heavy atom, donor atom, acceptor molecule, acceptor atom, score
      L1  H     1    15       P1 11000  0.10
      L1  H    13    28       P1  7948  0.74

> <Gold.Chemscore.Hbond.Weighted>
-4.5033

> <Gold.Chemscore.Metal.Weighted>
-0.0000

> <Gold.Chemscore.Lipo.Weighted>
-5.9220

> <Gold.Chemscore.Internal_Hbond.Weighted>
0.0000

> <Gold.Chemscore.DEClash.Weighted>
0.0048

> <Gold.Chemscore.DEInternal.Weighted>
0.5927

> <Gold.Chemscore.Rot.Weighted>
5.0077

> <Gold.Chemscore.Internal.Correction.Weighted>
   9.000000E+99

> <Gold.Protein.RotatedTorsions>
[ 6907 6896 6895 6894 ] final -106.91 input  -60.11 | X-H torsion
[ 7974 7965 7964 7962 ] final  119.23 input  175.53 | X-H torsion
[ 8008 7997 7996 7995 ] final  -73.09 input   59.86 | X-H torsion
[ 10167 10162 10161 10158 ] final  128.03 input  -65.29 | X-H torsion
[ 10718 10713 10712 10709 ] final  -88.20 input   66.30 | X-H torsion
[ 10763 10752 10751 10750 ] final  175.29 input  -60.55 | X-H torsion
[ 11005 11000 10999 10996 ] final  143.39 input  -57.11 | X-H torsion

> <Gold.Protein.ActiveResidues>
 VAL166  LYS551  ARG553  GLY616  TRP617  ASP618  TYR619  PRO620  LYS621  CYS622 
 ASP623  PHE694  ASN695  SER759  ASP760  ASP761  ALA762  ILE779  LEU786  VAL792 
 PHE793  MET794  SER795  GLU796  ALA797  LYS798  CYS799  TRP800  GLU811  SER814 

> <Gold.Protein.RotatedAtoms>
  150.7415  133.9905  159.3605 H   0  0  0  0  0  0  0  0  0  0  0  0  # atno 6907 bound_to 6896
  151.7853  135.0748  160.0389 H   0  0  0  0  0  0  0  0  0  0  0  0  # atno 6908 bound_to 6896
  152.3246  133.5854  159.5804 H   0  0  0  0  0  0  0  0  0  0  0  0  # atno 6909 bound_to 6896
  145.1456  139.3241  143.4593 H   0  0  0  0  0  0  0  0  0  0  0  0  # atno 7974 bound_to 7965
  154.5219  140.0785  156.8187 H   0  0  0  0  0  0  0  0  0  0  0  0  # atno 8008 bound_to 7997
  155.3558  140.3415  155.4222 H   0  0  0  0  0  0  0  0  0  0  0  0  # atno 8009 bound_to 7997
  156.1690  140.1613  156.8467 H   0  0  0  0  0  0  0  0  0  0  0  0  # atno 8010 bound_to 7997
  139.5548  144.6840  151.4215 H   0  0  0  0  0  0  0  0  0  0  0  0  # atno 10167 bound_to 10162
  155.9984  130.4827  150.4983 H   0  0  0  0  0  0  0  0  0  0  0  0  # atno 10718 bound_to 10713
  154.4655  135.2769  155.1681 H   0  0  0  0  0  0  0  0  0  0  0  0  # atno 10763 bound_to 10752
  154.3451  135.6162  153.5619 H   0  0  0  0  0  0  0  0  0  0  0  0  # atno 10764 bound_to 10752
  152.9859  135.5798  154.5026 H   0  0  0  0  0  0  0  0  0  0  0  0  # atno 10765 bound_to 10752
  140.0550  134.9235  157.1085 H   0  0  0  0  0  0  0  0  0  0  0  0  # atno 11005 bound_to 11000
  146.3500  140.1511  142.8592 LP  0  0  0  0  0  0  0  0  0  0  0  0  # atno 17320 bound_to 7965
  145.0485  140.8999  143.5010 LP  0  0  0  0  0  0  0  0  0  0  0  0  # atno 17321 bound_to 7965
  140.6818  143.8063  150.7132 LP  0  0  0  0  0  0  0  0  0  0  0  0  # atno 17342 bound_to 10162
  140.1519  143.4350  152.2125 LP  0  0  0  0  0  0  0  0  0  0  0  0  # atno 17343 bound_to 10162
  157.2971  131.0638  151.2094 LP  0  0  0  0  0  0  0  0  0  0  0  0  # atno 17370 bound_to 10713
  157.3087  130.6879  149.6203 LP  0  0  0  0  0  0  0  0  0  0  0  0  # atno 17371 bound_to 10713
  140.3858  134.2238  155.7168 LP  0  0  0  0  0  0  0  0  0  0  0  0  # atno 17394 bound_to 11000
  141.1948  133.8120  157.0742 LP  0  0  0  0  0  0  0  0  0  0  0  0  # atno 17395 bound_to 11000

$$$$
