#       Name:                AV-unprocessed.smi:399
#       Creating user name   scv26
#       Creation time:       Thu Mar 26 22:43:41 2020


#       File generated by GOLD software.
#

@<TRIPOS>MOLECULE
AV-unprocessed.smi:399
    55    56     1
SMALL
NO_CHARGES


@<TRIPOS>ATOM
      1 ****        -2.6493  -1.3368   0.7266 C.3            1 S1                 0.0000
      2 ****        -2.1304  -0.6222  -0.5467 C.3            1 S1                 0.0000
      3 ****        -2.7788   0.7847  -0.5472 C.3            1 S1                 0.0000
      4 ****        -0.5820  -0.4863  -0.4832 C.3            1 S1                 0.0000
      5 ****        -0.1270   0.2280   0.7059 N.am           1 S1                 0.0000
      6 ****         1.1301   0.6498   0.9019 C.2            1 S1                 0.0000
      7 ****         2.0287   0.4873   0.0752 O.2            1 S1                 0.0000
      8 ****         1.3969   1.3739   2.2297 C.3            1 S1                 0.0000
      9 ****         2.8294   1.5251   2.5378 N.am           1 S1                 0.0000
     10 ****         3.4259   2.7614   2.2197 C.2            1 S1                 0.0000
     11 ****         4.7304   3.0074   2.4510 C.2            1 S1                 0.0000
     12 ****         5.3268   4.2822   2.1172 N.pl3          1 S1                 1.0000
     13 ****         6.5243   4.4446   2.3279 O.2            1 S1                 0.0000
     14 ****         4.6200   5.1627   1.6359 O.2            1 S1                -1.0000
     15 ****         5.5209   1.9480   3.0470 C.2            1 S1                 0.0000
     16 ****         4.9568   0.7630   3.3525 C.2            1 S1                 0.0000
     17 ****         3.5371   0.4971   3.0990 C.2            1 S1                 0.0000
     18 ****         3.0158  -0.5840   3.3731 O.2            1 S1                 0.0000
     19 ****        -2.5664  -1.3811  -1.7748 N.4            1 S1                 1.0000
     20 ****        -2.2475  -0.7383  -3.0817 C.3            1 S1                 0.0000
     21 ****        -2.8994  -1.5108  -4.2404 C.3            1 S1                 0.0000
     22 ****        -2.4553  -2.8597  -4.2242 O.3            1 S1                 0.0000
     23 ****        -2.8312  -3.5200  -3.0243 C.3            1 S1                 0.0000
     24 ****        -2.1791  -2.8202  -1.8200 C.3            1 S1                 0.0000
     25 ****        -2.5335  -0.7158   1.6157 H              1 S1                 0.0000
     26 ****        -2.1084  -2.2604   0.9326 H              1 S1                 0.0000
     27 ****        -3.7098  -1.5779   0.6432 H              1 S1                 0.0000
     28 ****        -2.6483   1.2910   0.4099 H              1 S1                 0.0000
     29 ****        -3.8518   0.7275  -0.7343 H              1 S1                 0.0000
     30 ****        -2.3411   1.4432  -1.2970 H              1 S1                 0.0000
     31 ****        -0.1052  -1.4666  -0.4804 H              1 S1                 0.0000
     32 ****        -0.2101   0.0427  -1.3612 H              1 S1                 0.0000
     33 ****        -0.8092   0.4023   1.4299 H              1 S1                 0.0000
     34 ****         0.9092   2.3489   2.1891 H              1 S1                 0.0000
     35 ****         0.8945   0.8379   3.0373 H              1 S1                 0.0000
     36 ****         2.7551   3.4822   1.7745 H              1 S1                 0.0000
     37 ****         6.5706   2.0968   3.2530 H              1 S1                 0.0000
     38 ****         5.5647  -0.0124   3.7951 H              1 S1                 0.0000
     39 ****        -2.6074   0.2877  -3.1223 H              1 S1                 0.0000
     40 ****        -1.1689  -0.7085  -3.2363 H              1 S1                 0.0000
     41 ****        -3.9879  -1.4696  -4.1751 H              1 S1                 0.0000
     42 ****        -2.6212  -1.0610  -5.1936 H              1 S1                 0.0000
     43 ****        -3.9180  -3.5346  -2.9259 H              1 S1                 0.0000
     44 ****        -2.5034  -4.5583  -3.0766 H              1 S1                 0.0000
     45 ****        -1.0957  -2.9185  -1.8897 H              1 S1                 0.0000
     46 ****        -2.4940  -3.3487  -0.9224 H              1 S1                 0.0000
     47 ****        -3.5752  -1.3848  -1.7243 H              1 S1                 0.0000
     48 ****         1.8352   0.0223  -0.7887 LP             1 S1                 0.0000
     49 ****         2.9516   0.8205   0.2680 LP             1 S1                 0.0000
     50 ****         7.0674   3.7037   2.7228 LP             1 S1                 0.0000
     51 ****         6.9573   5.3179   2.1048 LP             1 S1                 0.0000
     52 ****         2.0447  -0.7325   3.1861 LP             1 S1                 0.0000
     53 ****         3.5634  -1.3136   3.7827 LP             1 S1                 0.0000
     54 ****        -1.4586  -2.8741  -4.3039 LP             1 S1                 0.0000
     55 ****        -2.8588  -3.3434  -5.0008 LP             1 S1                 0.0000
@<TRIPOS>BOND
    1    1    2 1     
    2    1   25 1     
    3    1   26 1     
    4    1   27 1     
    5    2    3 1     
    6    2    4 1     
    7    2   19 1     
    8    3   28 1     
    9    3   29 1     
   10    3   30 1     
   11    4    5 1     
   12    4   31 1     
   13    4   32 1     
   14    5    6 am    
   15    5   33 1     
   16    6    7 2     
   17    6    8 1     
   18    8    9 1     
   19    8   34 1     
   20    8   35 1     
   21    9   17 am    
   22    9   10 1     
   23   10   11 2     
   24   10   36 1     
   25   11   12 1     
   26   11   15 1     
   27   12   13 2     
   28   12   14 1     
   29   15   16 2     
   30   15   37 1     
   31   16   17 1     
   32   16   38 1     
   33   17   18 2     
   34   19   24 1     
   35   19   20 1     
   36   19   47 1     
   37   20   21 1     
   38   20   39 1     
   39   20   40 1     
   40   21   22 1     
   41   21   41 1     
   42   21   42 1     
   43   22   23 1     
   44   23   24 1     
   45   23   43 1     
   46   23   44 1     
   47   24   45 1     
   48   24   46 1     
   49    7   48 1     
   50    7   49 1     
   51   13   50 1     
   52   13   51 1     
   53   18   52 1     
   54   18   53 1     
   55   22   54 1     
   56   22   55 1     
@<TRIPOS>SUBSTRUCTURE
      1 S1             1
@<TRIPOS>SET
LONE_PAIRS      STATIC     ATOMS    <user>   **** ""
9 48 49 50 51 14 52 53 54 55
DONOR_HYDROGENS      STATIC     ATOMS    <user>   **** ""
2 33 47
ATOM$BLUE        STATIC     ATOMS    COLORGROUP SYSTEM
9 48 49 50 51 14 52 53 54 55
ATOM$RED        STATIC     ATOMS    COLORGROUP SYSTEM
2 33 47
