#       Name:                AV-unprocessed.smi:609
#       Creating user name   scv26
#       Creation time:       Thu Mar 26 23:56:47 2020


#       File generated by GOLD software.
#

@<TRIPOS>MOLECULE
AV-unprocessed.smi:609
    46    48     1
SMALL
NO_CHARGES


@<TRIPOS>ATOM
      1 ****        -1.9076   5.3842   2.7889 C.3            1 S1                 0.0000
      2 ****        -1.8537   4.2066   1.8316 C.ar           1 S1                 0.0000
      3 ****        -2.2340   4.3985   0.4842 C.ar           1 S1                 0.0000
      4 ****        -2.1949   3.3302  -0.4386 C.ar           1 S1                 0.0000
      5 ****        -2.5161   3.2932  -1.7846 N.2            1 S1                 0.0000
      6 ****        -2.2707   2.0204  -2.0833 C.2            1 S1                 0.0000
      7 ****        -1.8292   1.2277  -1.0878 N.pl3          1 S1                 0.0000
      8 ****        -1.4972  -0.1832  -1.1707 C.3            1 S1                 0.0000
      9 ****         0.0223  -0.4278  -1.2365 C.3            1 S1                 0.0000
     10 ****         0.5543   0.2039  -2.3857 O.3            1 S1                 0.0000
     11 ****         0.3611  -1.9261  -1.2807 C.3            1 S1                 0.0000
     12 ****         2.1522  -2.2249  -1.1647 S.3            1 S1                 0.0000
     13 ****         2.1728  -3.9926  -1.2163 C.2            1 S1                 0.0000
     14 ****         1.1037  -4.7678  -1.3834 N.2            1 S1                 0.0000
     15 ****         1.5925  -6.0693  -1.3590 C.2            1 S1                 0.0000
     16 ****         2.9532  -6.0393  -1.1764 C.2            1 S1                 0.0000
     17 ****         3.3110  -4.7005  -1.0871 N.pl3          1 S1                 0.0000
     18 ****         4.6532  -4.1879  -0.8920 C.3            1 S1                 0.0000
     19 ****        -1.7632   2.0543   0.0279 C.ar           1 S1                 0.0000
     20 ****        -1.3837   1.8504   1.3662 C.ar           1 S1                 0.0000
     21 ****        -1.4267   2.9289   2.2744 C.ar           1 S1                 0.0000
     22 ****        -1.0103   2.6999   3.7166 C.3            1 S1                 0.0000
     23 ****        -2.2881   6.2801   2.2973 H              1 S1                 0.0000
     24 ****        -0.9122   5.6094   3.1722 H              1 S1                 0.0000
     25 ****        -2.5624   5.1636   3.6323 H              1 S1                 0.0000
     26 ****        -2.5585   5.3716   0.1461 H              1 S1                 0.0000
     27 ****        -2.4176   1.6419  -3.0843 H              1 S1                 0.0000
     28 ****        -1.9221  -0.6821  -0.2988 H              1 S1                 0.0000
     29 ****        -1.9910  -0.6089  -2.0455 H              1 S1                 0.0000
     30 ****         0.4925   0.0170  -0.3585 H              1 S1                 0.0000
     31 ****         1.4887   0.0625  -2.3980 H              1 S1                 0.0000
     32 ****        -0.1229  -2.4346  -0.4461 H              1 S1                 0.0000
     33 ****        -0.0242  -2.3735  -2.1981 H              1 S1                 0.0000
     34 ****         0.9335  -6.9173  -1.4738 H              1 S1                 0.0000
     35 ****         3.6769  -6.8380  -1.1049 H              1 S1                 0.0000
     36 ****         5.3650  -5.0112  -0.8228 H              1 S1                 0.0000
     37 ****         4.6959  -3.6065   0.0294 H              1 S1                 0.0000
     38 ****         4.9309  -3.5511  -1.7323 H              1 S1                 0.0000
     39 ****        -1.0599   0.8719   1.6889 H              1 S1                 0.0000
     40 ****        -0.7195   1.6627   3.8872 H              1 S1                 0.0000
     41 ****        -1.8327   2.9316   4.3939 H              1 S1                 0.0000
     42 ****        -0.1602   3.3325   3.9728 H              1 S1                 0.0000
     43 ****        -2.8457   4.0290  -2.3762 LP             1 S1                 0.0000
     44 ****         0.3615   1.1845  -2.3519 LP             1 S1                 0.0000
     45 ****         0.1424  -0.1886  -3.2081 LP             1 S1                 0.0000
     46 ****         0.1542  -4.4770  -1.5011 LP             1 S1                 0.0000
@<TRIPOS>BOND
    1    1    2 1     
    2    1   23 1     
    3    1   24 1     
    4    1   25 1     
    5    2   21 ar    
    6    2    3 ar    
    7    3    4 ar    
    8    3   26 1     
    9    4   19 ar    
   10    4    5 1     
   11    5    6 2     
   12    6    7 1     
   13    6   27 1     
   14    7    8 1     
   15    7   19 1     
   16    8    9 1     
   17    8   28 1     
   18    8   29 1     
   19    9   10 1     
   20    9   11 1     
   21    9   30 1     
   22   10   31 1     
   23   11   12 1     
   24   11   32 1     
   25   11   33 1     
   26   12   13 1     
   27   13   17 1     
   28   13   14 2     
   29   14   15 1     
   30   15   16 2     
   31   15   34 1     
   32   16   17 1     
   33   16   35 1     
   34   17   18 1     
   35   18   36 1     
   36   18   37 1     
   37   18   38 1     
   38   19   20 ar    
   39   20   21 ar    
   40   20   39 1     
   41   21   22 1     
   42   22   40 1     
   43   22   41 1     
   44   22   42 1     
   45    5   43 1     
   46   10   44 1     
   47   10   45 1     
   48   14   46 1     
@<TRIPOS>SUBSTRUCTURE
      1 S1             1
@<TRIPOS>SET
LONE_PAIRS      STATIC     ATOMS    <user>   **** ""
4 43 44 45 46
DONOR_HYDROGENS      STATIC     ATOMS    <user>   **** ""
1 31
ATOM$BLUE        STATIC     ATOMS    COLORGROUP SYSTEM
4 43 44 45 46
ATOM$RED        STATIC     ATOMS    COLORGROUP SYSTEM
1 31
