#       Name:                AV-unprocessed.smi:1944
#       Creating user name   scv26
#       Creation time:       Fri Mar 27 10:00:17 2020


#       File generated by GOLD software.
#

@<TRIPOS>MOLECULE
AV-unprocessed.smi:1944
    51    52     1
SMALL
NO_CHARGES


@<TRIPOS>ATOM
      1 ****        -6.1899  -1.7967   1.3488 C.3            1 S1                 0.0000
      2 ****        -4.9928  -1.0261   1.3398 O.3            1 S1                 0.0000
      3 ****        -5.0918   0.3444   1.1928 C.ar           1 S1                 0.0000
      4 ****        -6.3270   0.8920   1.0679 N.ar           1 S1                 0.0000
      5 ****        -6.4263   2.2298   0.9284 C.ar           1 S1                 0.0000
      6 ****        -5.3111   3.0872   0.9129 C.ar           1 S1                 0.0000
      7 ****        -4.0290   2.5220   1.0420 C.ar           1 S1                 0.0000
      8 ****        -3.9070   1.1173   1.1739 C.ar           1 S1                 0.0000
      9 ****        -2.6626   0.4460   1.3307 N.am           1 S1                 0.0000
     10 ****        -1.4381   0.8554   0.9587 C.2            1 S1                 0.0000
     11 ****        -1.1834   1.9120   0.3810 O.2            1 S1                 0.0000
     12 ****        -0.5041  -0.0527   1.2754 N.am           1 S1                 0.0000
     13 ****         0.9210   0.0875   0.9993 C.3            1 S1                 0.0000
     14 ****         1.2460  -0.2410  -0.4716 C.3            1 S1                 0.0000
     15 ****         2.6744  -0.0219  -0.8266 N.4            1 S1                 1.0000
     16 ****         2.8924  -0.0593  -2.2985 C.3            1 S1                 0.0000
     17 ****         4.3170   0.3829  -2.6681 C.3            1 S1                 0.0000
     18 ****         5.3635  -0.4674  -1.9404 C.3            1 S1                 0.0000
     19 ****         5.1079  -0.4243  -0.4278 C.3            1 S1                 0.0000
     20 ****         3.6673  -0.8458  -0.0664 C.3            1 S1                 0.0000
     21 ****         3.4511  -2.3674  -0.2131 C.3            1 S1                 0.0000
     22 ****        -5.9390  -2.8513   1.4609 H              1 S1                 0.0000
     23 ****        -6.7432  -1.6862   0.4149 H              1 S1                 0.0000
     24 ****        -6.8360  -1.5198   2.1831 H              1 S1                 0.0000
     25 ****        -7.4250   2.6295   0.8334 H              1 S1                 0.0000
     26 ****        -5.4362   4.1550   0.8100 H              1 S1                 0.0000
     27 ****        -3.1713   3.1764   1.0524 H              1 S1                 0.0000
     28 ****        -2.7239  -0.4855   1.7156 H              1 S1                 0.0000
     29 ****        -0.7990  -0.8957   1.7469 H              1 S1                 0.0000
     30 ****         1.2539   1.0958   1.2522 H              1 S1                 0.0000
     31 ****         1.4402  -0.5937   1.6727 H              1 S1                 0.0000
     32 ****         0.9463  -1.2609  -0.7137 H              1 S1                 0.0000
     33 ****         0.6407   0.4054  -1.1086 H              1 S1                 0.0000
     34 ****         2.6932  -1.0607  -2.6815 H              1 S1                 0.0000
     35 ****         2.1820   0.6064  -2.7903 H              1 S1                 0.0000
     36 ****         4.4618   0.3100  -3.7465 H              1 S1                 0.0000
     37 ****         4.4535   1.4336  -2.4080 H              1 S1                 0.0000
     38 ****         5.3241  -1.4959  -2.3004 H              1 S1                 0.0000
     39 ****         6.3659  -0.0998  -2.1621 H              1 S1                 0.0000
     40 ****         5.8301  -1.0554   0.0916 H              1 S1                 0.0000
     41 ****         5.2836   0.5910  -0.0691 H              1 S1                 0.0000
     42 ****         3.5524  -0.6109   0.9911 H              1 S1                 0.0000
     43 ****         4.2129  -2.9185   0.3393 H              1 S1                 0.0000
     44 ****         3.5030  -2.6964  -1.2504 H              1 S1                 0.0000
     45 ****         2.4876  -2.6802   0.1884 H              1 S1                 0.0000
     46 ****         2.8661   0.9339  -0.5612 H              1 S1                 0.0000
     47 ****        -4.4299  -1.3640   0.5855 LP             1 S1                 0.0000
     48 ****        -4.5253  -1.1969   2.2071 LP             1 S1                 0.0000
     49 ****        -7.1450   0.3168   1.0790 LP             1 S1                 0.0000
     50 ****        -1.9212   2.5467   0.1512 LP             1 S1                 0.0000
     51 ****        -0.2387   2.1357   0.1414 LP             1 S1                 0.0000
@<TRIPOS>BOND
    1    1    2 1     
    2    1   22 1     
    3    1   23 1     
    4    1   24 1     
    5    2    3 1     
    6    3    8 ar    
    7    3    4 ar    
    8    4    5 ar    
    9    5    6 ar    
   10    5   25 1     
   11    6    7 ar    
   12    6   26 1     
   13    7    8 ar    
   14    7   27 1     
   15    8    9 1     
   16    9   10 am    
   17    9   28 1     
   18   10   11 2     
   19   10   12 am    
   20   12   13 1     
   21   12   29 1     
   22   13   14 1     
   23   13   30 1     
   24   13   31 1     
   25   14   15 1     
   26   14   32 1     
   27   14   33 1     
   28   15   20 1     
   29   15   16 1     
   30   15   46 1     
   31   16   17 1     
   32   16   34 1     
   33   16   35 1     
   34   17   18 1     
   35   17   36 1     
   36   17   37 1     
   37   18   19 1     
   38   18   38 1     
   39   18   39 1     
   40   19   20 1     
   41   19   40 1     
   42   19   41 1     
   43   20   21 1     
   44   20   42 1     
   45   21   43 1     
   46   21   44 1     
   47   21   45 1     
   48    2   47 1     
   49    2   48 1     
   50    4   49 1     
   51   11   50 1     
   52   11   51 1     
@<TRIPOS>SUBSTRUCTURE
      1 S1             1
@<TRIPOS>SET
LONE_PAIRS      STATIC     ATOMS    <user>   **** ""
5 47 48 49 50 51
DONOR_HYDROGENS      STATIC     ATOMS    <user>   **** ""
3 28 29 46
ATOM$BLUE        STATIC     ATOMS    COLORGROUP SYSTEM
5 47 48 49 50 51
ATOM$RED        STATIC     ATOMS    COLORGROUP SYSTEM
3 28 29 46
