AV-unprocessed.smi:479|AV-procd|sdf|2675|dock4
  -GOLD-   2262023 93D 1   1.00000     0.00000
 Structure written by MMmdl.
 46 48  0  0  0  0  0  0  0  0  2 V2000
  147.4290  136.9256  163.0419 C   0  0  0  0  0  0  0  0  0  0  0  0
  148.0526  137.2223  161.8009 O   0  0  0  0  0  0  0  0  0  0  0  0
  148.0975  136.2380  160.8344 C   0  0  0  0  0  0  0  0  0  0  0  0
  147.5144  134.9543  160.9911 C   0  0  0  0  0  0  0  0  0  0  0  0
  147.5959  133.9867  159.9629 C   0  0  0  0  0  0  0  0  0  0  0  0
  146.9887  132.6319  160.1046 C   0  0  0  0  0  0  0  0  0  0  0  0
  146.2704  132.3020  161.4123 C   0  0  0  0  0  0  0  0  0  0  0  0
  147.0352  131.7726  159.2250 O   0  0  0  0  0  0  0  0  0  0  0  0
  148.2745  134.3173  158.7710 C   0  0  0  0  0  0  0  0  0  0  0  0
  148.8540  135.5874  158.6054 C   0  0  0  0  0  0  0  0  0  0  0  0
  148.7665  136.5582  159.6323 C   0  0  0  0  0  0  0  0  0  0  0  0
  149.3042  137.8247  159.5356 O   0  0  0  0  0  0  0  0  0  0  0  0
  149.9197  138.2116  158.3145 C   0  0  0  0  0  0  0  0  0  0  0  0
  151.2781  138.8535  158.6321 C   0  0  1  0  0  0  0  0  0  0  0  0
  152.1487  137.8481  159.1120 O   0  0  0  0  0  0  0  0  0  0  0  0
  151.8961  139.5470  157.4015 C   0  0  0  0  0  0  0  0  0  0  0  0
  151.4778  140.9491  157.2650 N   0  0  0  0  0  0  0  0  0  0  0  0
  150.6606  141.5225  156.3410 C   0  0  0  0  0  0  0  0  0  0  0  0
  150.5847  142.8518  156.6265 N   0  3  0  0  0  0  0  0  0  0  0  0
  151.3638  143.1324  157.7509 C   0  0  0  0  0  0  0  0  0  0  0  0
  151.6024  144.3305  158.4174 C   0  0  0  0  0  0  0  0  0  0  0  0
  152.4520  144.2714  159.5417 C   0  0  0  0  0  0  0  0  0  0  0  0
  153.0264  143.0551  159.9650 C   0  0  0  0  0  0  0  0  0  0  0  0
  152.7781  141.8466  159.2814 C   0  0  0  0  0  0  0  0  0  0  0  0
  151.9394  141.9136  158.1688 C   0  0  0  0  0  0  0  0  0  0  0  0
  147.4932  137.7970  163.6934 H   0  0  0  0  0  0  0  0  0  0  0  0
  147.9246  136.0979  163.5511 H   0  0  0  0  0  0  0  0  0  0  0  0
  146.3722  136.6905  162.9095 H   0  0  0  0  0  0  0  0  0  0  0  0
  146.9996  134.7078  161.9060 H   0  0  0  0  0  0  0  0  0  0  0  0
  145.4457  132.9945  161.5812 H   0  0  0  0  0  0  0  0  0  0  0  0
  146.9605  132.3635  162.2539 H   0  0  0  0  0  0  0  0  0  0  0  0
  145.8639  131.2908  161.3794 H   0  0  0  0  0  0  0  0  0  0  0  0
  148.3580  133.6000  157.9673 H   0  0  0  0  0  0  0  0  0  0  0  0
  149.3629  135.7912  157.6758 H   0  0  0  0  0  0  0  0  0  0  0  0
  150.0619  137.3294  157.6880 H   0  0  0  0  0  0  0  0  0  0  0  0
  149.2943  138.9200  157.7683 H   0  0  0  0  0  0  0  0  0  0  0  0
  151.1486  139.5826  159.4329 H   0  0  0  0  0  0  0  0  0  0  0  0
  152.2618  137.2000  158.4334 H   0  0  0  0  0  0  0  0  0  0  0  0
  152.9847  139.4936  157.4202 H   0  0  0  0  0  0  0  0  0  0  0  0
  151.5838  139.0346  156.4908 H   0  0  0  0  0  0  0  0  0  0  0  0
  150.1645  141.0145  155.5265 H   0  0  0  0  0  0  0  0  0  0  0  0
  151.1622  145.2631  158.0962 H   0  0  0  0  0  0  0  0  0  0  0  0
  152.6662  145.1764  160.0916 H   0  0  0  0  0  0  0  0  0  0  0  0
  153.6702  143.0479  160.8328 H   0  0  0  0  0  0  0  0  0  0  0  0
  153.2190  140.9203  159.6182 H   0  0  0  0  0  0  0  0  0  0  0  0
  150.0411  143.5165  156.0910 H   0  0  0  0  0  0  0  0  0  0  0  0
  1  2  1  0  0  0  0
  1 26  1  0  0  0  0
  1 27  1  0  0  0  0
  1 28  1  0  0  0  0
  2  3  1  0  0  0  0
  3 11  1  0  0  0  0
  3  4  2  0  0  0  0
  4  5  1  0  0  0  0
  4 29  1  0  0  0  0
  5  6  1  0  0  0  0
  5  9  2  0  0  0  0
  6  7  1  0  0  0  0
  6  8  2  0  0  0  0
  7 30  1  0  0  0  0
  7 31  1  0  0  0  0
  7 32  1  0  0  0  0
  9 10  1  0  0  0  0
  9 33  1  0  0  0  0
 10 11  2  0  0  0  0
 10 34  1  0  0  0  0
 11 12  1  0  0  0  0
 12 13  1  0  0  0  0
 13 14  1  0  0  0  0
 13 35  1  0  0  0  0
 13 36  1  0  0  0  0
 14 15  1  0  0  0  0
 14 16  1  0  0  0  0
 14 37  1  0  0  0  0
 15 38  1  0  0  0  0
 16 17  1  0  0  0  0
 16 39  1  0  0  0  0
 16 40  1  0  0  0  0
 17 25  1  0  0  0  0
 17 18  1  0  0  0  0
 18 19  2  0  0  0  0
 18 41  1  0  0  0  0
 19 20  1  0  0  0  0
 19 46  1  0  0  0  0
 20 25  2  0  0  0  0
 20 21  1  0  0  0  0
 21 22  2  0  0  0  0
 21 42  1  0  0  0  0
 22 23  1  0  0  0  0
 22 43  1  0  0  0  0
 23 24  2  0  0  0  0
 23 44  1  0  0  0  0
 24 25  1  0  0  0  0
 24 45  1  0  0  0  0
M  CHG  1  19   1
M  END
> <s_m_source_file>
AV-unprocessed.smi

> <i_m_source_file_index>
479

> <i_lp_mmshare_version>
43012

> <i_f3d_flags>
0

> <s_epik_input>
W0NIM11PYzFbY0hdYyhDKD1PKVtDSDNdKVtjSF1bY0hdYzFPW0NIMl1bQ0BIXShbT0hdKVtDSDJdbihbY0hdbjIpYyhjMjMpW2NIXVtjSF1bY0hdW2NIXTM=

> <s_epik_cmdline>
J2VwaWtfcHl0aG9uJywgJy1waCcsICc3LjAnLCAnLXRuJywgJzgnLCAnLW1hJywgJzIwMCcsICctbWV0YWxfYmluZGluZycsICctaW1hZScsICc8aW5maWxlLm1hZT4nLCAnLW9tYWUnLCAnPG91dGZpbGUubWFlPic=

> <r_lp_tautomer_probability>
0.99995

> <r_epik_Ionization_Penalty>
1.37698

> <r_epik_Ionization_Penalty_Charging>
1.37698

> <r_epik_Ionization_Penalty_Neutral>
2.3993e-06

> <r_epik_State_Penalty>
1.45717

> <r_epik_Charging_Adjusted_Penalty>
2.83415

> <i_epik_Tot_Q>
1

> <i_epik_Tot_abs_Q>
1

> <r_epik_Metal_State_Penalty>
5.49703

> <b_epik_Metal_Only>
0

> <s_lp_Force_Field>
OPLS_2005

> <r_lp_Energy>
29.5876

> <b_lp_Chiralities_Consistent>
1

> <s_lp_Variant>
AV-unprocessed.smi:479-4

> <Gold.Version>
5.8.1

> <Gold.Id.Protein>
6NUR|6NUR_protein|mol2

> <Gold.PLP.Fitness>
57.1794

> <Gold.PLP.PLP>
-47.7184

> <Gold.PLP.part.hbond>
-4.6147

> <Gold.PLP.part.metal>
0.0000

> <Gold.PLP.part.buried>
-5.1561

> <Gold.PLP.part.nonpolar>
-38.6014

> <Gold.PLP.part.repulsive>
0.0685

> <Gold.PLP.ligand.clash>
0.0000

> <Gold.PLP.ligand.torsion>
0.8586

> <Gold.PLP.Chemscore.Hbond>
3.6720

> <Gold.PLP.Chemscore.CHOScore>
0.0000

> <Gold.PLP.Chemscore.Metal>
0.0000

> <Gold.Chemscore.Hbonds>
donor molecule, donor type, donor heavy atom, donor atom, acceptor molecule, acceptor atom, score
      L1  H    19    46       P1  8028  2.00
      P1  H  6931  6943       L1     2  0.73
      P1  H  6934  6947       L1     2  0.35

> <Gold.PLP.Chemscore.Internal.Correction>
0.1620

> <Gold.Rescore>
     Score         DG    S(hbond)    S(metal)    S(lipo)     H(rot)  DE(clash)    DE(int)     intcor
     19.27     -20.42       2.30        0.00     122.01       2.75       0.09       1.05       ----

> <Gold.Chemscore.Fitness>
19.2732

> <Gold.Chemscore.DG>
-20.4154

> <Gold.Chemscore.ZeroCoef>
-5.4800

> <Gold.Chemscore.Hbond>
2.3044

> <Gold.Chemscore.Metal>
0.0000

> <Gold.Chemscore.Lipo>
122.0143

> <Gold.Chemscore.Internal_Hbond>
0.0000

> <Gold.Chemscore.DEClash>
0.0889

> <Gold.Chemscore.DEInternal>
1.0533

> <Gold.Chemscore.Rot>
2.7487

> <Gold.Chemscore.Internal.Correction>
   9.000000E+99

> <Gold.Chemscore.Hbonds>
donor molecule, donor type, donor heavy atom, donor atom, acceptor molecule, acceptor atom, score
      L1  H    19    46       P1  8028  1.00
      P1  H  6931  6943       L1     2  0.59
      P1  H  6934  6947       L1     2  0.19

> <Gold.Chemscore.Hbond.Weighted>
-7.6965

> <Gold.Chemscore.Metal.Weighted>
-0.0000

> <Gold.Chemscore.Lipo.Weighted>
-14.2757

> <Gold.Chemscore.Internal_Hbond.Weighted>
0.0000

> <Gold.Chemscore.DEClash.Weighted>
0.0889

> <Gold.Chemscore.DEInternal.Weighted>
1.0533

> <Gold.Chemscore.Rot.Weighted>
7.0368

> <Gold.Chemscore.Internal.Correction.Weighted>
   9.000000E+99

> <Gold.Protein.RotatedTorsions>
[ 6907 6896 6895 6894 ] final  -79.16 input  -60.11 | X-H torsion
[ 7974 7965 7964 7962 ] final  -64.47 input  175.53 | X-H torsion
[ 8008 7997 7996 7995 ] final  -91.68 input   59.86 | X-H torsion
[ 10167 10162 10161 10158 ] final  127.08 input  -65.29 | X-H torsion
[ 10718 10713 10712 10709 ] final  151.03 input   66.30 | X-H torsion
[ 10763 10752 10751 10750 ] final  111.46 input  -60.55 | X-H torsion
[ 11005 11000 10999 10996 ] final   85.28 input  -57.11 | X-H torsion

> <Gold.Protein.ActiveResidues>
 VAL166  LYS551  ARG553  GLY616  TRP617  ASP618  TYR619  PRO620  LYS621  CYS622 
 ASP623  PHE694  ASN695  SER759  ASP760  ASP761  ALA762  ILE779  LEU786  VAL792 
 PHE793  MET794  SER795  GLU796  ALA797  LYS798  CYS799  TRP800  GLU811  SER814 

> <Gold.Protein.RotatedAtoms>
  150.6956  134.4163  159.5184 H   0  0  0  0  0  0  0  0  0  0  0  0  # atno 6907 bound_to 6896
  152.1913  134.8666  160.0526 H   0  0  0  0  0  0  0  0  0  0  0  0  # atno 6908 bound_to 6896
  151.9621  133.3663  159.4076 H   0  0  0  0  0  0  0  0  0  0  0  0  # atno 6909 bound_to 6896
  145.7664  140.8835  143.0403 H   0  0  0  0  0  0  0  0  0  0  0  0  # atno 7974 bound_to 7965
  154.7138  140.0517  157.0575 H   0  0  0  0  0  0  0  0  0  0  0  0  # atno 8008 bound_to 7997
  155.0519  140.3180  155.4670 H   0  0  0  0  0  0  0  0  0  0  0  0  # atno 8009 bound_to 7997
  156.2797  140.2114  156.5645 H   0  0  0  0  0  0  0  0  0  0  0  0  # atno 8010 bound_to 7997
  139.5597  144.6873  151.4078 H   0  0  0  0  0  0  0  0  0  0  0  0  # atno 10167 bound_to 10162
  157.2759  131.0826  151.1566 H   0  0  0  0  0  0  0  0  0  0  0  0  # atno 10718 bound_to 10713
  153.4636  135.3716  155.2352 H   0  0  0  0  0  0  0  0  0  0  0  0  # atno 10763 bound_to 10752
  154.8757  135.3914  154.3895 H   0  0  0  0  0  0  0  0  0  0  0  0  # atno 10764 bound_to 10752
  153.4472  135.7085  153.6196 H   0  0  0  0  0  0  0  0  0  0  0  0  # atno 10765 bound_to 10752
  139.8976  134.8275  156.2560 H   0  0  0  0  0  0  0  0  0  0  0  0  # atno 11005 bound_to 11000
  144.6821  139.9794  143.7483 LP  0  0  0  0  0  0  0  0  0  0  0  0  # atno 17320 bound_to 7965
  146.0214  139.3254  143.0811 LP  0  0  0  0  0  0  0  0  0  0  0  0  # atno 17321 bound_to 7965
  140.6875  143.7939  150.7207 LP  0  0  0  0  0  0  0  0  0  0  0  0  # atno 17342 bound_to 10162
  140.1411  143.4440  152.2193 LP  0  0  0  0  0  0  0  0  0  0  0  0  # atno 17343 bound_to 10162
  157.3019  130.6847  149.6169 LP  0  0  0  0  0  0  0  0  0  0  0  0  # atno 17370 bound_to 10713
  155.9663  130.4389  150.5238 LP  0  0  0  0  0  0  0  0  0  0  0  0  # atno 17371 bound_to 10713
  141.0193  133.7050  156.1241 LP  0  0  0  0  0  0  0  0  0  0  0  0  # atno 17394 bound_to 11000
  140.7256  134.4310  157.5571 LP  0  0  0  0  0  0  0  0  0  0  0  0  # atno 17395 bound_to 11000

$$$$
