#       Name:                AV-unprocessed.smi:1093
#       Creating user name   scv26
#       Creation time:       Fri Mar 27 03:27:37 2020


#       File generated by GOLD software.
#

@<TRIPOS>MOLECULE
AV-unprocessed.smi:1093
    50    51     1
SMALL
NO_CHARGES


@<TRIPOS>ATOM
      1 ****        -2.9821  -0.2597   3.1620 C.3            1 S1                 0.0000
      2 ****        -4.2246  -0.1534   2.2660 C.3            1 S1                 0.0000
      3 ****        -3.8734  -0.0370   0.8289 N.4            1 S1                 1.0000
      4 ****        -4.9804  -0.4696  -0.0631 C.3            1 S1                 0.0000
      5 ****        -4.5342  -0.4856  -1.5356 C.3            1 S1                 0.0000
      6 ****        -3.9626   0.8764  -1.9635 C.3            1 S1                 0.0000
      7 ****        -2.8539   1.3367  -1.0003 C.3            1 S1                 0.0000
      8 ****        -1.6666   0.4961  -1.1643 N.am           1 S1                 0.0000
      9 ****        -0.4363   0.8012  -0.7265 C.2            1 S1                 0.0000
     10 ****        -0.1780   1.8286  -0.1007 O.2            1 S1                 0.0000
     11 ****         0.4481  -0.1609  -1.0429 N.am           1 S1                 0.0000
     12 ****         1.8435  -0.2077  -0.7723 C.ar           1 S1                 0.0000
     13 ****         2.4957  -1.4527  -0.8938 C.ar           1 S1                 0.0000
     14 ****         3.8806  -1.5485  -0.6467 C.ar           1 S1                 0.0000
     15 ****         4.6143  -0.3916  -0.2872 C.ar           1 S1                 0.0000
     16 ****         6.0016  -0.4057  -0.0261 N.pl3          1 S1                 0.0000
     17 ****         6.6763   0.8265   0.3671 C.3            1 S1                 0.0000
     18 ****         6.7229  -1.6720  -0.0163 C.3            1 S1                 0.0000
     19 ****         3.9466   0.7845  -0.1963 N.pl3          1 S1                 1.0000
     20 ****         2.6220   0.9211  -0.4213 C.ar           1 S1                 0.0000
     21 ****        -3.3793   1.3144   0.4526 C.3            1 S1                 0.0000
     22 ****        -3.2720  -0.4305   4.1990 H              1 S1                 0.0000
     23 ****        -2.3804   0.6485   3.1414 H              1 S1                 0.0000
     24 ****        -2.3465  -1.0914   2.8565 H              1 S1                 0.0000
     25 ****        -4.8207  -1.0540   2.4199 H              1 S1                 0.0000
     26 ****        -4.8509   0.6865   2.5697 H              1 S1                 0.0000
     27 ****        -5.3144  -1.4692   0.2182 H              1 S1                 0.0000
     28 ****        -5.8343   0.1977   0.0654 H              1 S1                 0.0000
     29 ****        -3.7836  -1.2636  -1.6806 H              1 S1                 0.0000
     30 ****        -5.3760  -0.7514  -2.1756 H              1 S1                 0.0000
     31 ****        -3.5874   0.8260  -2.9865 H              1 S1                 0.0000
     32 ****        -4.7646   1.6156  -1.9683 H              1 S1                 0.0000
     33 ****        -2.5803   2.3607  -1.2618 H              1 S1                 0.0000
     34 ****        -1.7885  -0.3664  -1.6751 H              1 S1                 0.0000
     35 ****         0.0705  -0.9763  -1.5031 H              1 S1                 0.0000
     36 ****         1.9398  -2.3363  -1.1716 H              1 S1                 0.0000
     37 ****         4.3588  -2.5121  -0.7413 H              1 S1                 0.0000
     38 ****         6.5555   1.5927  -0.3994 H              1 S1                 0.0000
     39 ****         7.7451   0.6658   0.5092 H              1 S1                 0.0000
     40 ****         6.2669   1.2047   1.3043 H              1 S1                 0.0000
     41 ****         6.2878  -2.3564   0.7128 H              1 S1                 0.0000
     42 ****         7.7713  -1.5288   0.2464 H              1 S1                 0.0000
     43 ****         6.6884  -2.1410  -1.0002 H              1 S1                 0.0000
     44 ****         2.2513   1.9298  -0.3212 H              1 S1                 0.0000
     45 ****        -4.1889   2.0375   0.5649 H              1 S1                 0.0000
     46 ****        -2.5916   1.6364   1.1324 H              1 S1                 0.0000
     47 ****        -3.1137  -0.6830   0.6698 H              1 S1                 0.0000
     48 ****         4.4762   1.6193   0.0550 H              1 S1                 0.0000
     49 ****        -0.9040   2.4849   0.1045 LP             1 S1                 0.0000
     50 ****         0.7580   2.0072   0.2027 LP             1 S1                 0.0000
@<TRIPOS>BOND
    1    1    2 1     
    2    1   22 1     
    3    1   23 1     
    4    1   24 1     
    5    2    3 1     
    6    2   25 1     
    7    2   26 1     
    8    3   21 1     
    9    3    4 1     
   10    3   47 1     
   11    4    5 1     
   12    4   27 1     
   13    4   28 1     
   14    5    6 1     
   15    5   29 1     
   16    5   30 1     
   17    6    7 1     
   18    6   31 1     
   19    6   32 1     
   20    7    8 1     
   21    7   21 1     
   22    7   33 1     
   23    8    9 am    
   24    8   34 1     
   25    9   10 2     
   26    9   11 am    
   27   11   12 1     
   28   11   35 1     
   29   12   20 ar    
   30   12   13 ar    
   31   13   14 ar    
   32   13   36 1     
   33   14   15 ar    
   34   14   37 1     
   35   15   16 1     
   36   15   19 ar    
   37   16   17 1     
   38   16   18 1     
   39   17   38 1     
   40   17   39 1     
   41   17   40 1     
   42   18   41 1     
   43   18   42 1     
   44   18   43 1     
   45   19   20 ar    
   46   19   48 1     
   47   20   44 1     
   48   21   45 1     
   49   21   46 1     
   50   10   49 1     
   51   10   50 1     
@<TRIPOS>SUBSTRUCTURE
      1 S1             1
@<TRIPOS>SET
LONE_PAIRS      STATIC     ATOMS    <user>   **** ""
2 49 50
DONOR_HYDROGENS      STATIC     ATOMS    <user>   **** ""
4 47 34 35 48
ATOM$BLUE        STATIC     ATOMS    COLORGROUP SYSTEM
2 49 50
ATOM$RED        STATIC     ATOMS    COLORGROUP SYSTEM
4 47 34 35 48
