AV-unprocessed.smi:37|AV-procd|sdf|329|dock4
  -GOLD-   2262016163D 1   1.00000     0.00000
 Structure written by MMmdl.
 43 44  0  0  0  0  0  0  0  0  2 V2000
  144.6738  133.6635  150.7274 C   0  0  0  0  0  0  0  0  0  0  0  0
  145.5130  134.7873  151.3526 C   0  0  0  0  0  0  0  0  0  0  0  0
  145.1835  135.0540  152.8229 C   0  0  0  0  0  0  0  0  0  0  0  0
  144.0625  135.3996  153.2005 O   0  0  0  0  0  0  0  0  0  0  0  0
  146.2476  134.8598  153.6104 O   0  0  0  0  0  0  0  0  0  0  0  0
  146.1883  135.1880  154.9890 C   0  0  0  0  0  0  0  0  0  0  0  0
  145.9760  136.6991  155.1975 C   0  0  2  0  0  0  0  0  0  0  0  0
  146.7675  137.5020  154.3233 O   0  0  0  0  0  0  0  0  0  0  0  0
  147.1687  138.6808  154.9670 C   0  0  2  0  0  0  0  0  0  0  0  0
  148.6726  138.6548  155.1822 N   0  0  0  0  0  0  0  0  0  0  0  0
  149.3202  137.5203  155.6462 C   0  0  0  0  0  0  0  0  0  0  0  0
  150.6551  137.4996  155.8332 C   0  0  0  0  0  0  0  0  0  0  0  0
  151.2490  136.3838  156.2907 F   0  0  0  0  0  0  0  0  0  0  0  0
  151.4450  138.6920  155.5365 C   0  0  0  0  0  0  0  0  0  0  0  0
  152.6578  138.6790  155.7404 O   0  0  0  0  0  0  0  0  0  0  0  0
  150.7912  139.7800  155.0370 N   0  5  0  0  0  0  0  0  0  0  0  0
  149.4417  139.7992  154.8313 C   0  0  0  0  0  0  0  0  0  0  0  0
  148.8507  140.7660  154.3501 O   0  0  0  0  0  0  0  0  0  0  0  0
  146.4164  138.7321  156.3109 C   0  0  1  0  0  0  0  0  0  0  0  0
  144.6765  139.6683  156.0545 Br  0  0  0  0  0  0  0  0  0  0  0  0
  146.1565  137.2652  156.6128 C   0  0  2  0  0  0  0  0  0  0  0  0
  147.2707  136.6820  157.2804 O   0  0  0  0  0  0  0  0  0  0  0  0
  147.3309  136.6587  158.6244 C   0  0  0  0  0  0  0  0  0  0  0  0
  146.5563  137.2331  159.3897 O   0  0  0  0  0  0  0  0  0  0  0  0
  148.4775  135.7990  159.1545 C   0  0  0  0  0  0  0  0  0  0  0  0
  148.4138  135.5934  160.6741 C   0  0  0  0  0  0  0  0  0  0  0  0
  144.9548  133.5104  149.6855 H   0  0  0  0  0  0  0  0  0  0  0  0
  143.6100  133.9027  150.7498 H   0  0  0  0  0  0  0  0  0  0  0  0
  144.8199  132.7176  151.2504 H   0  0  0  0  0  0  0  0  0  0  0  0
  146.5720  134.5386  151.2778 H   0  0  0  0  0  0  0  0  0  0  0  0
  145.3667  135.7109  150.7918 H   0  0  0  0  0  0  0  0  0  0  0  0
  145.3737  134.6333  155.4560 H   0  0  0  0  0  0  0  0  0  0  0  0
  147.1129  134.8792  155.4788 H   0  0  0  0  0  0  0  0  0  0  0  0
  144.9448  136.9085  154.9098 H   0  0  0  0  0  0  0  0  0  0  0  0
  146.9999  139.5500  154.3292 H   0  0  0  0  0  0  0  0  0  0  0  0
  148.7678  136.6210  155.8614 H   0  0  0  0  0  0  0  0  0  0  0  0
  146.9608  139.2588  157.0943 H   0  0  0  0  0  0  0  0  0  0  0  0
  145.2559  137.1207  157.2117 H   0  0  0  0  0  0  0  0  0  0  0  0
  148.4381  134.8305  158.6550 H   0  0  0  0  0  0  0  0  0  0  0  0
  149.4259  136.2589  158.8768 H   0  0  0  0  0  0  0  0  0  0  0  0
  149.1454  134.8512  160.9927 H   0  0  0  0  0  0  0  0  0  0  0  0
  147.4298  135.2472  160.9932 H   0  0  0  0  0  0  0  0  0  0  0  0
  148.6359  136.5188  161.2054 H   0  0  0  0  0  0  0  0  0  0  0  0
  1  2  1  0  0  0  0
  1 27  1  0  0  0  0
  1 28  1  0  0  0  0
  1 29  1  0  0  0  0
  2  3  1  0  0  0  0
  2 30  1  0  0  0  0
  2 31  1  0  0  0  0
  3  4  2  0  0  0  0
  3  5  1  0  0  0  0
  5  6  1  0  0  0  0
  6  7  1  0  0  0  0
  6 32  1  0  0  0  0
  6 33  1  0  0  0  0
  7 21  1  0  0  0  0
  7  8  1  0  0  0  0
  7 34  1  0  0  0  0
  8  9  1  0  0  0  0
  9 10  1  0  0  0  0
  9 19  1  0  0  0  0
  9 35  1  0  0  0  0
 10 17  1  0  0  0  0
 10 11  1  0  0  0  0
 11 12  2  0  0  0  0
 11 36  1  0  0  0  0
 12 13  1  0  0  0  0
 12 14  1  0  0  0  0
 14 15  2  0  0  0  0
 14 16  1  0  0  0  0
 16 17  1  0  0  0  0
 17 18  2  0  0  0  0
 19 20  1  0  0  0  0
 19 21  1  0  0  0  0
 19 37  1  0  0  0  0
 21 22  1  0  0  0  0
 21 38  1  0  0  0  0
 22 23  1  0  0  0  0
 23 24  2  0  0  0  0
 23 25  1  0  0  0  0
 25 26  1  0  0  0  0
 25 39  1  0  0  0  0
 25 40  1  0  0  0  0
 26 41  1  0  0  0  0
 26 42  1  0  0  0  0
 26 43  1  0  0  0  0
M  CHG  1  16  -1
M  END
> <s_m_source_file>
AV-unprocessed.smi

> <i_m_source_file_index>
37

> <i_lp_mmshare_version>
43012

> <i_f3d_flags>
0

> <s_epik_input>
W0NIM11bQ0gyXUMoPU8pT1tDSDJdW0NAQEhdMU9bQ0BASF0objJbY0hdYyhGKWMoPU8pW25IXWMyPU8pW0NAQEhdKEJyKVtDQEhdMU9DKD1PKVtDSDJdW0NIM10=

> <s_epik_cmdline>
J2VwaWtfcHl0aG9uJywgJy1waCcsICc3LjAnLCAnLXRuJywgJzgnLCAnLW1hJywgJzIwMCcsICctbWV0YWxfYmluZGluZycsICctaW1hZScsICc8aW5maWxlLm1hZT4nLCAnLW9tYWUnLCAnPG91dGZpbGUubWFlPic=

> <r_epik_Ionization_Penalty>
1.08158

> <r_epik_Ionization_Penalty_Charging>
9.05154e-09

> <r_epik_Ionization_Penalty_Neutral>
1.08158

> <r_epik_State_Penalty>
1.13706

> <r_epik_Charging_Adjusted_Penalty>
1.13706

> <i_epik_Tot_Q>
-1

> <i_epik_Tot_abs_Q>
1

> <r_epik_Metal_State_Penalty>
0.00343535

> <b_epik_Metal_Only>
0

> <s_epik_Chemistry_Notes>
This compound has an ester and may undergo hydrolysis at high or low pH. This compound contains an acetal/aminal-like group ( X-CH(R)-Y where X, Y are N, S, or O) that may be acid/base labile, releasing an aldehyde.

> <s_lp_Force_Field>
OPLS_2005

> <r_lp_Energy>
30.7461

> <b_lp_Chiralities_Consistent>
1

> <s_lp_Variant>
AV-unprocessed.smi:37-27

> <Gold.Version>
5.8.1

> <Gold.Id.Protein>
6NUR|6NUR_protein|mol2

> <Gold.PLP.Fitness>
35.6091

> <Gold.PLP.PLP>
-27.8636

> <Gold.PLP.part.hbond>
-4.7109

> <Gold.PLP.part.metal>
0.0000

> <Gold.PLP.part.buried>
-5.2674

> <Gold.PLP.part.nonpolar>
-19.6508

> <Gold.PLP.part.repulsive>
0.6172

> <Gold.PLP.ligand.clash>
0.0000

> <Gold.PLP.ligand.torsion>
0.9245

> <Gold.PLP.Chemscore.Hbond>
3.0926

> <Gold.PLP.Chemscore.CHOScore>
0.0000

> <Gold.PLP.Chemscore.Metal>
0.0000

> <Gold.Chemscore.Hbonds>
donor molecule, donor type, donor heavy atom, donor atom, acceptor molecule, acceptor atom, score
      P1  H  6934  6947       L1    24  0.02
      P1  H  7989  7998       L1    16  0.91
      P1  H  7997  8008       L1    15  0.37

> <Gold.PLP.Chemscore.Internal.Correction>
0.3168

> <Gold.Rescore>
     Score         DG    S(hbond)    S(metal)    S(lipo)     H(rot)  DE(clash)    DE(int)     intcor
      7.27      -9.85       2.79        0.00      29.22       3.27       0.13       2.45       ----

> <Gold.Chemscore.Fitness>
7.2682

> <Gold.Chemscore.DG>
-9.8485

> <Gold.Chemscore.ZeroCoef>
-5.4800

> <Gold.Chemscore.Hbond>
2.7883

> <Gold.Chemscore.Metal>
0.0000

> <Gold.Chemscore.Lipo>
29.2222

> <Gold.Chemscore.Internal_Hbond>
0.0000

> <Gold.Chemscore.DEClash>
0.1345

> <Gold.Chemscore.DEInternal>
2.4458

> <Gold.Chemscore.Rot>
3.2669

> <Gold.Chemscore.Internal.Correction>
   9.000000E+99

> <Gold.Chemscore.Hbonds>
donor molecule, donor type, donor heavy atom, donor atom, acceptor molecule, acceptor atom, score
      P1  H  6934  6947       L1    24  0.07
      P1  H  7989  7998       L1    16  0.52
      P1  H  7997  8008       L1    15  0.37

> <Gold.Chemscore.Hbond.Weighted>
-9.3129

> <Gold.Chemscore.Metal.Weighted>
-0.0000

> <Gold.Chemscore.Lipo.Weighted>
-3.4190

> <Gold.Chemscore.Internal_Hbond.Weighted>
0.0000

> <Gold.Chemscore.DEClash.Weighted>
0.1345

> <Gold.Chemscore.DEInternal.Weighted>
2.4458

> <Gold.Chemscore.Rot.Weighted>
8.3634

> <Gold.Chemscore.Internal.Correction.Weighted>
   9.000000E+99

> <Gold.Protein.RotatedTorsions>
[ 6907 6896 6895 6894 ] final   -4.00 input  -60.11 | X-H torsion
[ 7974 7965 7964 7962 ] final -155.53 input  175.53 | X-H torsion
[ 8008 7997 7996 7995 ] final  -35.50 input   59.86 | X-H torsion
[ 10167 10162 10161 10158 ] final  124.79 input  -65.29 | X-H torsion
[ 10718 10713 10712 10709 ] final  173.91 input   66.30 | X-H torsion
[ 10763 10752 10751 10750 ] final   79.74 input  -60.55 | X-H torsion
[ 11005 11000 10999 10996 ] final  -18.52 input  -57.11 | X-H torsion

> <Gold.Protein.ActiveResidues>
 VAL166  LYS551  ARG553  GLY616  TRP617  ASP618  TYR619  PRO620  LYS621  CYS622 
 ASP623  PHE694  ASN695  SER759  ASP760  ASP761  ALA762  ILE779  LEU786  VAL792 
 PHE793  MET794  SER795  GLU796  ALA797  LYS798  CYS799  TRP800  GLU811  SER814 

> <Gold.Protein.RotatedAtoms>
  151.5048  135.1063  159.9838 H   0  0  0  0  0  0  0  0  0  0  0  0  # atno 6907 bound_to 6896
  152.4687  133.7976  159.6946 H   0  0  0  0  0  0  0  0  0  0  0  0  # atno 6908 bound_to 6896
  150.8684  133.7478  159.2995 H   0  0  0  0  0  0  0  0  0  0  0  0  # atno 6909 bound_to 6896
  144.7636  140.4236  143.5959 H   0  0  0  0  0  0  0  0  0  0  0  0  # atno 7974 bound_to 7965
  154.4094  140.1655  156.2222 H   0  0  0  0  0  0  0  0  0  0  0  0  # atno 8008 bound_to 7997
  155.9354  140.3412  155.6260 H   0  0  0  0  0  0  0  0  0  0  0  0  # atno 8009 bound_to 7997
  155.7055  140.0750  157.2383 H   0  0  0  0  0  0  0  0  0  0  0  0  # atno 8010 bound_to 7997
  139.5722  144.6945  151.3748 H   0  0  0  0  0  0  0  0  0  0  0  0  # atno 10167 bound_to 10162
  156.9573  131.0050  151.2935 H   0  0  0  0  0  0  0  0  0  0  0  0  # atno 10718 bound_to 10713
  153.0977  135.4828  154.8809 H   0  0  0  0  0  0  0  0  0  0  0  0  # atno 10763 bound_to 10752
  154.7343  135.3067  154.8840 H   0  0  0  0  0  0  0  0  0  0  0  0  # atno 10764 bound_to 10752
  153.9467  135.6828  153.4797 H   0  0  0  0  0  0  0  0  0  0  0  0  # atno 10765 bound_to 10752
  140.8276  133.8021  155.9724 H   0  0  0  0  0  0  0  0  0  0  0  0  # atno 11005 bound_to 11000
  145.6542  139.1570  143.2845 LP  0  0  0  0  0  0  0  0  0  0  0  0  # atno 17320 bound_to 7965
  146.1722  140.6628  142.9228 LP  0  0  0  0  0  0  0  0  0  0  0  0  # atno 17321 bound_to 7965
  140.7006  143.7641  150.7397 LP  0  0  0  0  0  0  0  0  0  0  0  0  # atno 17342 bound_to 10162
  140.1151  143.4664  152.2347 LP  0  0  0  0  0  0  0  0  0  0  0  0  # atno 17343 bound_to 10162
  157.5682  130.8292  149.8355 LP  0  0  0  0  0  0  0  0  0  0  0  0  # atno 17370 bound_to 10713
  156.0337  130.3757  150.1618 LP  0  0  0  0  0  0  0  0  0  0  0  0  # atno 17371 bound_to 10713
  140.9033  134.2352  157.5029 LP  0  0  0  0  0  0  0  0  0  0  0  0  # atno 17394 bound_to 11000
  139.8706  134.9716  156.4744 LP  0  0  0  0  0  0  0  0  0  0  0  0  # atno 17395 bound_to 11000

$$$$
