AV-unprocessed.smi:1703|AV-procd|sdf|6875|dock2
  -GOLD-   22720 8 73D 1   1.00000     0.00000
 Structure written by MMmdl.
 50 52  0  0  0  0  0  0  0  0  3 V2000
  148.9845  132.1192  153.4329 C   0  0  0  0  0  0  0  0  0  0  0  0
  148.7088  133.6005  153.7134 C   0  0  2  0  0  0  0  0  0  0  0  0
  149.9070  134.2936  154.3870 C   0  0  0  0  0  0  0  0  0  0  0  0
  149.5696  135.6974  154.7258 N   0  3  2  0  0  0  0  0  0  0  0  0
  150.7071  136.4599  155.2996 C   0  0  0  0  0  0  0  0  0  0  0  0
  150.2773  137.8204  155.8926 C   0  0  1  0  0  0  0  0  0  0  0  0
  149.9632  137.6514  157.2599 O   0  0  0  0  0  0  0  0  0  0  0  0
  151.3677  138.9068  155.8040 C   0  0  0  0  0  0  0  0  0  0  0  0
  150.8825  140.2449  156.1825 N   0  0  0  0  0  0  0  0  0  0  0  0
  149.8650  140.9886  155.6572 C   0  0  0  0  0  0  0  0  0  0  0  0
  148.9741  140.6197  154.5170 C   0  0  0  0  0  0  0  0  0  0  0  0
  149.4529  141.1102  153.2842 O   0  0  0  0  0  0  0  0  0  0  0  0
  149.8145  142.1565  156.3567 N   0  3  0  0  0  0  0  0  0  0  0  0
  150.8036  142.1625  157.3400 C   0  0  0  0  0  0  0  0  0  0  0  0
  151.1371  143.1261  158.2868 C   0  0  0  0  0  0  0  0  0  0  0  0
  152.2119  142.8224  159.1474 C   0  0  0  0  0  0  0  0  0  0  0  0
  152.9098  141.6017  159.0466 C   0  0  0  0  0  0  0  0  0  0  0  0
  152.5625  140.6325  158.0824 C   0  0  0  0  0  0  0  0  0  0  0  0
  151.4958  140.9379  157.2356 C   0  0  0  0  0  0  0  0  0  0  0  0
  148.3657  135.7420  155.5891 C   0  0  0  0  0  0  0  0  0  0  0  0
  147.1831  135.0034  154.9323 C   0  0  1  0  0  0  0  0  0  0  0  0
  146.5570  135.7720  153.7548 C   0  0  0  0  0  0  0  0  0  0  0  0
  147.5715  133.6789  154.5688 O   0  0  0  0  0  0  0  0  0  0  0  0
  149.8438  131.9971  152.7730 H   0  0  0  0  0  0  0  0  0  0  0  0
  148.1271  131.6479  152.9516 H   0  0  0  0  0  0  0  0  0  0  0  0
  149.1897  131.5736  154.3542 H   0  0  0  0  0  0  0  0  0  0  0  0
  148.4899  134.0887  152.7637 H   0  0  0  0  0  0  0  0  0  0  0  0
  150.1919  133.7581  155.2942 H   0  0  0  0  0  0  0  0  0  0  0  0
  150.7651  134.2584  153.7168 H   0  0  0  0  0  0  0  0  0  0  0  0
  151.1853  135.8762  156.0878 H   0  0  0  0  0  0  0  0  0  0  0  0
  151.4596  136.5894  154.5212 H   0  0  0  0  0  0  0  0  0  0  0  0
  149.3852  138.1912  155.3907 H   0  0  0  0  0  0  0  0  0  0  0  0
  149.2685  138.2482  157.4923 H   0  0  0  0  0  0  0  0  0  0  0  0
  152.1930  138.6621  156.4739 H   0  0  0  0  0  0  0  0  0  0  0  0
  151.8002  138.9443  154.8048 H   0  0  0  0  0  0  0  0  0  0  0  0
  148.8761  139.5357  154.4596 H   0  0  0  0  0  0  0  0  0  0  0  0
  147.9759  141.0214  154.6939 H   0  0  0  0  0  0  0  0  0  0  0  0
  149.3028  140.4527  152.6216 H   0  0  0  0  0  0  0  0  0  0  0  0
  150.6047  144.0628  158.3651 H   0  0  0  0  0  0  0  0  0  0  0  0
  152.5071  143.5399  159.8994 H   0  0  0  0  0  0  0  0  0  0  0  0
  153.7288  141.4044  159.7230 H   0  0  0  0  0  0  0  0  0  0  0  0
  153.1106  139.7044  158.0189 H   0  0  0  0  0  0  0  0  0  0  0  0
  148.6002  135.2804  156.5499 H   0  0  0  0  0  0  0  0  0  0  0  0
  148.0873  136.7763  155.7954 H   0  0  0  0  0  0  0  0  0  0  0  0
  146.4021  134.8918  155.6853 H   0  0  0  0  0  0  0  0  0  0  0  0
  146.1410  136.7219  154.0917 H   0  0  0  0  0  0  0  0  0  0  0  0
  145.7461  135.1994  153.3044 H   0  0  0  0  0  0  0  0  0  0  0  0
  147.2822  135.9965  152.9731 H   0  0  0  0  0  0  0  0  0  0  0  0
  149.3150  136.1609  153.8652 H   0  0  0  0  0  0  0  0  0  0  0  0
  149.1495  142.8964  156.1703 H   0  0  0  0  0  0  0  0  0  0  0  0
  1  2  1  0  0  0  0
  1 24  1  0  0  0  0
  1 25  1  0  0  0  0
  1 26  1  0  0  0  0
  2 23  1  0  0  0  0
  2  3  1  0  0  0  0
  2 27  1  0  0  0  0
  3  4  1  0  0  0  0
  3 28  1  0  0  0  0
  3 29  1  0  0  0  0
  4  5  1  0  0  0  0
  4 20  1  0  0  0  0
  4 49  1  0  0  0  0
  5  6  1  0  0  0  0
  5 30  1  0  0  0  0
  5 31  1  0  0  0  0
  6  7  1  0  0  0  0
  6  8  1  0  0  0  0
  6 32  1  0  0  0  0
  7 33  1  0  0  0  0
  8  9  1  0  0  0  0
  8 34  1  0  0  0  0
  8 35  1  0  0  0  0
  9 19  1  0  0  0  0
  9 10  1  0  0  0  0
 10 11  1  0  0  0  0
 10 13  2  0  0  0  0
 11 12  1  0  0  0  0
 11 36  1  0  0  0  0
 11 37  1  0  0  0  0
 12 38  1  0  0  0  0
 13 14  1  0  0  0  0
 13 50  1  0  0  0  0
 14 19  2  0  0  0  0
 14 15  1  0  0  0  0
 15 16  2  0  0  0  0
 15 39  1  0  0  0  0
 16 17  1  0  0  0  0
 16 40  1  0  0  0  0
 17 18  2  0  0  0  0
 17 41  1  0  0  0  0
 18 19  1  0  0  0  0
 18 42  1  0  0  0  0
 20 21  1  0  0  0  0
 20 43  1  0  0  0  0
 20 44  1  0  0  0  0
 21 22  1  0  0  0  0
 21 23  1  0  0  0  0
 21 45  1  0  0  0  0
 22 46  1  0  0  0  0
 22 47  1  0  0  0  0
 22 48  1  0  0  0  0
M  CHG  1   4   1
M  CHG  1  13   1
M  END
> <s_m_source_file>
AV-unprocessed.smi

> <i_m_source_file_index>
1703

> <i_lp_mmshare_version>
43012

> <i_f3d_flags>
0

> <s_epik_input>
W0NIM11bQ0BASF0xW0NIMl1OKFtDSDJdW0NASF0oTzEpW0NIM10pW0NIMl1bQ0BIXShbT0hdKVtDSDJdbihjKG4yKVtDSDJdW09IXSljKGMyMylbY0hdW2NIXVtjSF1bY0hdMw==

> <s_epik_cmdline>
J2VwaWtfcHl0aG9uJywgJy1waCcsICc3LjAnLCAnLXRuJywgJzgnLCAnLW1hJywgJzIwMCcsICctbWV0YWxfYmluZGluZycsICctaW1hZScsICc8aW5maWxlLm1hZT4nLCAnLW9tYWUnLCAnPG91dGZpbGUubWFlPic=

> <r_epik_Ionization_Penalty>
2.22579

> <r_epik_Ionization_Penalty_Charging>
2.22492

> <r_epik_Ionization_Penalty_Neutral>
0.000870007

> <r_epik_State_Penalty>
2.3141

> <r_epik_Charging_Adjusted_Penalty>
4.53902

> <i_epik_Tot_Q>
2

> <i_epik_Tot_abs_Q>
2

> <r_epik_Metal_State_Penalty>
6.36517

> <b_epik_Metal_Only>
0

> <s_lp_Force_Field>
OPLS_2005

> <r_lp_Energy>
32.2753

> <b_lp_Chiralities_Consistent>
1

> <s_lp_Variant>
AV-unprocessed.smi:1703-23

> <Gold.Version>
5.8.1

> <Gold.Id.Protein>
6NUR|6NUR_protein|mol2

> <Gold.PLP.Fitness>
53.9880

> <Gold.PLP.PLP>
-37.8137

> <Gold.PLP.part.hbond>
-4.4474

> <Gold.PLP.part.metal>
0.0000

> <Gold.PLP.part.buried>
-2.2290

> <Gold.PLP.part.nonpolar>
-30.3997

> <Gold.PLP.part.repulsive>
0.1548

> <Gold.PLP.ligand.clash>
0.0584

> <Gold.PLP.ligand.torsion>
0.8932

> <Gold.PLP.Chemscore.Hbond>
5.9889

> <Gold.PLP.Chemscore.CHOScore>
0.0000

> <Gold.PLP.Chemscore.Metal>
0.0000

> <Gold.Chemscore.Hbonds>
donor molecule, donor type, donor heavy atom, donor atom, acceptor molecule, acceptor atom, score
      L1  H     4    49       P1  7948  2.00
      L1  H    12    38       P1  7957  0.88
      L1  H    13    50       P1  8028  1.89
      P1  H  7989  7998       L1    12  0.09
      P1  H  8011  8017       L1    12  1.00

> <Gold.PLP.Chemscore.Internal.Correction>
0.0524

> <Gold.Rescore>
     Score         DG    S(hbond)    S(metal)    S(lipo)     H(rot)  DE(clash)    DE(int)     intcor
     17.68     -19.77       3.33        0.00      93.40       3.04       0.20       1.89       ----

> <Gold.Chemscore.Fitness>
17.6790

> <Gold.Chemscore.DG>
-19.7674

> <Gold.Chemscore.ZeroCoef>
-5.4800

> <Gold.Chemscore.Hbond>
3.3340

> <Gold.Chemscore.Metal>
0.0000

> <Gold.Chemscore.Lipo>
93.4047

> <Gold.Chemscore.Internal_Hbond>
0.0000

> <Gold.Chemscore.DEClash>
0.1992

> <Gold.Chemscore.DEInternal>
1.8892

> <Gold.Chemscore.Rot>
3.0378

> <Gold.Chemscore.Internal.Correction>
   9.000000E+99

> <Gold.Chemscore.Hbonds>
donor molecule, donor type, donor heavy atom, donor atom, acceptor molecule, acceptor atom, score
      L1  H     4    49       P1  7948  0.79
      L1  H    12    38       P1  7957  0.82
      L1  H    13    50       P1  8028  0.91
      P1  H  7989  7998       L1    12  0.01
      P1  H  8011  8017       L1    12  0.25

> <Gold.Chemscore.Hbond.Weighted>
-11.1357

> <Gold.Chemscore.Metal.Weighted>
-0.0000

> <Gold.Chemscore.Lipo.Weighted>
-10.9284

> <Gold.Chemscore.Internal_Hbond.Weighted>
0.0000

> <Gold.Chemscore.DEClash.Weighted>
0.1992

> <Gold.Chemscore.DEInternal.Weighted>
1.8892

> <Gold.Chemscore.Rot.Weighted>
7.7767

> <Gold.Chemscore.Internal.Correction.Weighted>
   9.000000E+99

> <Gold.Protein.RotatedTorsions>
[ 6907 6896 6895 6894 ] final -151.32 input  -60.11 | X-H torsion
[ 7974 7965 7964 7962 ] final  -24.75 input  175.53 | X-H torsion
[ 8008 7997 7996 7995 ] final   21.64 input   59.86 | X-H torsion
[ 10167 10162 10161 10158 ] final  -57.99 input  -65.29 | X-H torsion
[ 10718 10713 10712 10709 ] final -156.21 input   66.30 | X-H torsion
[ 10763 10752 10751 10750 ] final -101.87 input  -60.55 | X-H torsion
[ 11005 11000 10999 10996 ] final   82.57 input  -57.11 | X-H torsion

> <Gold.Protein.ActiveResidues>
 VAL166  LYS551  ARG553  GLY616  TRP617  ASP618  TYR619  PRO620  LYS621  CYS622 
 ASP623  PHE694  ASN695  SER759  ASP760  ASP761  ALA762  ILE779  LEU786  VAL792 
 PHE793  MET794  SER795  GLU796  ALA797  LYS798  CYS799  TRP800  GLU811  SER814 

> <Gold.Protein.RotatedAtoms>
  151.2113  133.4554  159.2598 H   0  0  0  0  0  0  0  0  0  0  0  0  # atno 6907 bound_to 6896
  151.0973  134.9952  159.8442 H   0  0  0  0  0  0  0  0  0  0  0  0  # atno 6908 bound_to 6896
  152.5440  134.2042  159.8777 H   0  0  0  0  0  0  0  0  0  0  0  0  # atno 6909 bound_to 6896
  146.1535  140.4794  142.8601 H   0  0  0  0  0  0  0  0  0  0  0  0  # atno 7974 bound_to 7965
  154.9537  140.3069  155.5063 H   0  0  0  0  0  0  0  0  0  0  0  0  # atno 8008 bound_to 7997
  156.2984  140.2314  156.4555 H   0  0  0  0  0  0  0  0  0  0  0  0  # atno 8009 bound_to 7997
  154.8030  140.0433  157.1275 H   0  0  0  0  0  0  0  0  0  0  0  0  # atno 8010 bound_to 7997
  140.6225  143.2425  151.5446 H   0  0  0  0  0  0  0  0  0  0  0  0  # atno 10167 bound_to 10162
  156.5235  130.8488  151.2690 H   0  0  0  0  0  0  0  0  0  0  0  0  # atno 10718 bound_to 10713
  154.7691  135.4881  153.9613 H   0  0  0  0  0  0  0  0  0  0  0  0  # atno 10763 bound_to 10752
  153.1345  135.6760  153.9132 H   0  0  0  0  0  0  0  0  0  0  0  0  # atno 10764 bound_to 10752
  153.8826  135.3130  155.3424 H   0  0  0  0  0  0  0  0  0  0  0  0  # atno 10765 bound_to 10752
  139.9059  134.8081  156.2192 H   0  0  0  0  0  0  0  0  0  0  0  0  # atno 11005 bound_to 11000
  144.7933  140.6075  143.6527 LP  0  0  0  0  0  0  0  0  0  0  0  0  # atno 17320 bound_to 7965
  145.4766  139.1499  143.3785 LP  0  0  0  0  0  0  0  0  0  0  0  0  # atno 17321 bound_to 7965
  139.5451  144.2544  152.1426 LP  0  0  0  0  0  0  0  0  0  0  0  0  # atno 17342 bound_to 10162
  140.1767  144.4883  150.6550 LP  0  0  0  0  0  0  0  0  0  0  0  0  # atno 17343 bound_to 10162
  157.7433  130.9909  150.2583 LP  0  0  0  0  0  0  0  0  0  0  0  0  # atno 17370 bound_to 10713
  156.3127  130.3774  149.7647 LP  0  0  0  0  0  0  0  0  0  0  0  0  # atno 17371 bound_to 10713
  141.0416  133.6935  156.1608 LP  0  0  0  0  0  0  0  0  0  0  0  0  # atno 17394 bound_to 11000
  140.6947  134.4629  157.5588 LP  0  0  0  0  0  0  0  0  0  0  0  0  # atno 17395 bound_to 11000

$$$$
