AV-unprocessed.smi:81|AV-procd|sdf|793|dock9
  -GOLD-   2262017173D 1   1.00000     0.00000
 Structure written by MMmdl.
 64 67  0  0  0  0  0  0  0  0  2 V2000
  145.2158  140.6027  152.0916 C   0  0  0  0  0  0  0  0  0  0  0  0
  145.9955  139.4221  151.4898 C   0  0  0  0  0  0  0  0  0  0  0  0
  145.0356  138.4284  150.8212 C   0  0  0  0  0  0  0  0  0  0  0  0
  146.8608  138.7040  152.5515 C   0  0  0  0  0  0  0  0  0  0  0  0
  148.0487  139.4534  152.9761 N   0  0  0  0  0  0  0  0  0  0  0  0
  149.0938  138.7051  153.4068 C   0  0  0  0  0  0  0  0  0  0  0  0
  148.8378  137.7664  154.3520 N   0  0  0  0  0  0  0  0  0  0  0  0
  149.8294  137.0145  154.8372 C   0  0  0  0  0  0  0  0  0  0  0  0
  151.1266  137.0449  154.5276 N   0  0  0  0  0  0  0  0  0  0  0  0
  151.3948  138.0037  153.5947 C   0  0  0  0  0  0  0  0  0  0  0  0
  150.4447  138.8702  152.9852 C   0  0  0  0  0  0  0  0  0  0  0  0
  151.0838  139.7012  152.0746 N   0  0  0  0  0  0  0  0  0  0  0  0
  152.3374  139.3469  152.1422 C   0  0  0  0  0  0  0  0  0  0  0  0
  152.6217  138.3508  153.0521 N   0  0  0  0  0  0  0  0  0  0  0  0
  153.9172  137.7402  153.3364 C   0  0  0  0  0  0  0  0  0  0  0  0
  154.0910  136.2725  152.8563 C   0  0  2  0  0  0  0  0  0  0  0  0
  154.1948  136.2874  151.4426 O   0  0  0  0  0  0  0  0  0  0  0  0
  152.9039  135.3951  153.2205 C   0  0  0  0  0  0  0  0  0  0  0  0
  153.4770  133.9911  153.0878 C   0  0  0  0  0  0  0  0  0  0  0  0
  154.8194  134.1112  153.5374 O   0  0  0  0  0  0  0  0  0  0  0  0
  155.2884  135.4558  153.4099 C   0  0  2  0  0  0  0  0  0  0  0  0
  155.7767  135.8368  154.8171 C   0  0  0  0  0  0  0  0  0  0  0  0
  147.8169  140.7650  153.6057 C   0  0  2  0  0  0  0  0  0  0  0  0
  148.4769  141.9745  152.9013 C   0  0  0  0  0  0  0  0  0  0  0  0
  149.9086  142.2823  153.3820 C   0  0  0  0  0  0  0  0  0  0  0  0
  149.9655  142.3985  154.8576 N   0  3  2  0  0  0  0  0  0  0  0  0
  151.2947  142.8375  155.3340 C   0  0  0  0  0  0  0  0  0  0  0  0
  149.5132  141.1542  155.5219 C   0  0  0  0  0  0  0  0  0  0  0  0
  148.0644  140.8080  155.1325 C   0  0  0  0  0  0  0  0  0  0  0  0
  144.5473  140.2718  152.8869 H   0  0  0  0  0  0  0  0  0  0  0  0
  144.6101  141.0996  151.3333 H   0  0  0  0  0  0  0  0  0  0  0  0
  145.8872  141.3514  152.5124 H   0  0  0  0  0  0  0  0  0  0  0  0
  146.6388  139.8112  150.7003 H   0  0  0  0  0  0  0  0  0  0  0  0
  144.3400  138.0002  151.5437 H   0  0  0  0  0  0  0  0  0  0  0  0
  145.5821  137.6067  150.3570 H   0  0  0  0  0  0  0  0  0  0  0  0
  144.4488  138.9132  150.0405 H   0  0  0  0  0  0  0  0  0  0  0  0
  146.2423  138.5021  153.4267 H   0  0  0  0  0  0  0  0  0  0  0  0
  147.1643  137.7270  152.1774 H   0  0  0  0  0  0  0  0  0  0  0  0
  149.5435  136.2872  155.5830 H   0  0  0  0  0  0  0  0  0  0  0  0
  153.0860  139.8118  151.5186 H   0  0  0  0  0  0  0  0  0  0  0  0
  154.6916  138.3613  152.8859 H   0  0  0  0  0  0  0  0  0  0  0  0
  154.0833  137.8006  154.4128 H   0  0  0  0  0  0  0  0  0  0  0  0
  155.0372  135.9323  151.2020 H   0  0  0  0  0  0  0  0  0  0  0  0
  152.6106  135.5678  154.2570 H   0  0  0  0  0  0  0  0  0  0  0  0
  152.0265  135.5602  152.5938 H   0  0  0  0  0  0  0  0  0  0  0  0
  152.9245  133.2541  153.6707 H   0  0  0  0  0  0  0  0  0  0  0  0
  153.4774  133.6697  152.0454 H   0  0  0  0  0  0  0  0  0  0  0  0
  156.1374  135.4825  152.7247 H   0  0  0  0  0  0  0  0  0  0  0  0
  156.3044  136.7876  154.8190 H   0  0  0  0  0  0  0  0  0  0  0  0
  156.4779  135.0918  155.1937 H   0  0  0  0  0  0  0  0  0  0  0  0
  154.9509  135.8994  155.5261 H   0  0  0  0  0  0  0  0  0  0  0  0
  146.7446  140.9150  153.4743 H   0  0  0  0  0  0  0  0  0  0  0  0
  148.4505  141.8530  151.8181 H   0  0  0  0  0  0  0  0  0  0  0  0
  147.8666  142.8545  153.1084 H   0  0  0  0  0  0  0  0  0  0  0  0
  150.6133  141.5189  153.0556 H   0  0  0  0  0  0  0  0  0  0  0  0
  150.2407  143.2187  152.9322 H   0  0  0  0  0  0  0  0  0  0  0  0
  152.0613  142.1021  155.0858 H   0  0  0  0  0  0  0  0  0  0  0  0
  151.2907  142.9768  156.4155 H   0  0  0  0  0  0  0  0  0  0  0  0
  151.5722  143.7883  154.8782 H   0  0  0  0  0  0  0  0  0  0  0  0
  150.1954  140.3447  155.2709 H   0  0  0  0  0  0  0  0  0  0  0  0
  149.5700  141.2802  156.6037 H   0  0  0  0  0  0  0  0  0  0  0  0
  147.4174  141.5780  155.5547 H   0  0  0  0  0  0  0  0  0  0  0  0
  147.7569  139.8773  155.6093 H   0  0  0  0  0  0  0  0  0  0  0  0
  149.3118  143.1228  155.1190 H   0  0  0  0  0  0  0  0  0  0  0  0
  1  2  1  0  0  0  0
  1 30  1  0  0  0  0
  1 31  1  0  0  0  0
  1 32  1  0  0  0  0
  2  3  1  0  0  0  0
  2  4  1  0  0  0  0
  2 33  1  0  0  0  0
  3 34  1  0  0  0  0
  3 35  1  0  0  0  0
  3 36  1  0  0  0  0
  4  5  1  0  0  0  0
  4 37  1  0  0  0  0
  4 38  1  0  0  0  0
  5  6  1  0  0  0  0
  5 23  1  0  0  0  0
  6 11  1  0  0  0  0
  6  7  2  0  0  0  0
  7  8  1  0  0  0  0
  8  9  2  0  0  0  0
  8 39  1  0  0  0  0
  9 10  1  0  0  0  0
 10 14  1  0  0  0  0
 10 11  2  0  0  0  0
 11 12  1  0  0  0  0
 12 13  2  0  0  0  0
 13 14  1  0  0  0  0
 13 40  1  0  0  0  0
 14 15  1  0  0  0  0
 15 16  1  0  0  0  0
 15 41  1  0  0  0  0
 15 42  1  0  0  0  0
 16 21  1  0  0  0  0
 16 17  1  0  0  0  0
 16 18  1  0  0  0  0
 17 43  1  0  0  0  0
 18 19  1  0  0  0  0
 18 44  1  0  0  0  0
 18 45  1  0  0  0  0
 19 20  1  0  0  0  0
 19 46  1  0  0  0  0
 19 47  1  0  0  0  0
 20 21  1  0  0  0  0
 21 22  1  0  0  0  0
 21 48  1  0  0  0  0
 22 49  1  0  0  0  0
 22 50  1  0  0  0  0
 22 51  1  0  0  0  0
 23 29  1  0  0  0  0
 23 24  1  0  0  0  0
 23 52  1  0  0  0  0
 24 25  1  0  0  0  0
 24 53  1  0  0  0  0
 24 54  1  0  0  0  0
 25 26  1  0  0  0  0
 25 55  1  0  0  0  0
 25 56  1  0  0  0  0
 26 27  1  0  0  0  0
 26 28  1  0  0  0  0
 26 64  1  0  0  0  0
 27 57  1  0  0  0  0
 27 58  1  0  0  0  0
 27 59  1  0  0  0  0
 28 29  1  0  0  0  0
 28 60  1  0  0  0  0
 28 61  1  0  0  0  0
 29 62  1  0  0  0  0
 29 63  1  0  0  0  0
M  CHG  1  26   1
M  END
> <s_m_source_file>
AV-unprocessed.smi

> <i_m_source_file_index>
81

> <i_lp_mmshare_version>
43012

> <i_f3d_flags>
0

> <s_epik_input>
W0NIMl0xW0NIMl1OKFtDSDNdKVtDSDJdW0NIMl1bQ0hdMU4oW0NIMl1bQ0hdKFtDSDNdKVtDSDNdKWMobltjSF1uMiljKGMyMyluW2NIXW4zW0NIMl1bQ0BAXTQoW09IXSlbQ0gyXVtDSDJdT1tDQEhdNFtDSDNd

> <s_epik_cmdline>
J2VwaWtfcHl0aG9uJywgJy1waCcsICc3LjAnLCAnLXRuJywgJzgnLCAnLW1hJywgJzIwMCcsICctbWV0YWxfYmluZGluZycsICctaW1hZScsICc8aW5maWxlLm1hZT4nLCAnLW9tYWUnLCAnPG91dGZpbGUubWFlPic=

> <r_lp_tautomer_probability>
1

> <r_epik_Ionization_Penalty>
0.00272708

> <r_epik_Ionization_Penalty_Charging>
0.00158983

> <r_epik_Ionization_Penalty_Neutral>
0.00113725

> <r_epik_State_Penalty>
-0

> <r_epik_Charging_Adjusted_Penalty>
0.00158983

> <i_epik_Tot_Q>
1

> <i_epik_Tot_abs_Q>
1

> <r_epik_Metal_State_Penalty>
-0

> <b_epik_Metal_Only>
0

> <s_lp_Force_Field>
OPLS_2005

> <r_lp_Energy>
52.2974

> <b_lp_Chiralities_Consistent>
1

> <s_lp_Variant>
AV-unprocessed.smi:81-8

> <Gold.Version>
5.8.1

> <Gold.Id.Protein>
6NUR|6NUR_protein|mol2

> <Gold.PLP.Fitness>
51.3886

> <Gold.PLP.PLP>
-42.1689

> <Gold.PLP.part.hbond>
-3.0000

> <Gold.PLP.part.metal>
0.0000

> <Gold.PLP.part.buried>
-7.0106

> <Gold.PLP.part.nonpolar>
-31.4538

> <Gold.PLP.part.repulsive>
0.0943

> <Gold.PLP.ligand.clash>
0.0000

> <Gold.PLP.ligand.torsion>
2.0792

> <Gold.PLP.Chemscore.Hbond>
4.0000

> <Gold.PLP.Chemscore.CHOScore>
0.0000

> <Gold.PLP.Chemscore.Metal>
0.0000

> <Gold.Chemscore.Hbonds>
donor molecule, donor type, donor heavy atom, donor atom, acceptor molecule, acceptor atom, score
      L1  H    26    64       P1  8028  2.00
      P1  H 10752 10763       L1     9  0.34

> <Gold.PLP.Chemscore.Internal.Correction>
1.3782

> <Gold.Rescore>
     Score         DG    S(hbond)    S(metal)    S(lipo)     H(rot)  DE(clash)    DE(int)     intcor
     16.60     -20.36       2.77        0.00      98.92       2.32       0.00       3.75       ----

> <Gold.Chemscore.Fitness>
16.6041

> <Gold.Chemscore.DG>
-20.3631

> <Gold.Chemscore.ZeroCoef>
-5.4800

> <Gold.Chemscore.Hbond>
2.7662

> <Gold.Chemscore.Metal>
0.0000

> <Gold.Chemscore.Lipo>
98.9214

> <Gold.Chemscore.Internal_Hbond>
0.0000

> <Gold.Chemscore.DEClash>
0.0044

> <Gold.Chemscore.DEInternal>
3.7546

> <Gold.Chemscore.Rot>
2.3163

> <Gold.Chemscore.Internal.Correction>
   9.000000E+99

> <Gold.Chemscore.Hbonds>
donor molecule, donor type, donor heavy atom, donor atom, acceptor molecule, acceptor atom, score
      L1  H    26    64       P1  8028  0.98
      P1  H 10752 10763       L1     9  0.11

> <Gold.Chemscore.Hbond.Weighted>
-9.2390

> <Gold.Chemscore.Metal.Weighted>
-0.0000

> <Gold.Chemscore.Lipo.Weighted>
-11.5738

> <Gold.Chemscore.Internal_Hbond.Weighted>
0.0000

> <Gold.Chemscore.DEClash.Weighted>
0.0044

> <Gold.Chemscore.DEInternal.Weighted>
3.7546

> <Gold.Chemscore.Rot.Weighted>
5.9297

> <Gold.Chemscore.Internal.Correction.Weighted>
   9.000000E+99

> <Gold.Protein.RotatedTorsions>
[ 6907 6896 6895 6894 ] final   29.81 input  -60.11 | X-H torsion
[ 7974 7965 7964 7962 ] final  -25.59 input  175.53 | X-H torsion
[ 8008 7997 7996 7995 ] final   56.51 input   59.86 | X-H torsion
[ 10167 10162 10161 10158 ] final  136.34 input  -65.29 | X-H torsion
[ 10718 10713 10712 10709 ] final   52.12 input   66.30 | X-H torsion
[ 10763 10752 10751 10750 ] final   40.64 input  -60.55 | X-H torsion
[ 11005 11000 10999 10996 ] final  -31.15 input  -57.11 | X-H torsion

> <Gold.Protein.ActiveResidues>
 VAL166  LYS551  ARG553  GLY616  TRP617  ASP618  TYR619  PRO620  LYS621  CYS622 
 ASP623  PHE694  ASN695  SER759  ASP760  ASP761  ALA762  ILE779  LEU786  VAL792 
 PHE793  MET794  SER795  GLU796  ALA797  LYS798  CYS799  TRP800  GLU811  SER814 

> <Gold.Protein.RotatedAtoms>
  152.0369  134.9735  160.0573 H   0  0  0  0  0  0  0  0  0  0  0  0  # atno 6907 bound_to 6896
  152.1189  133.4337  159.4674 H   0  0  0  0  0  0  0  0  0  0  0  0  # atno 6908 bound_to 6896
  150.6848  134.2478  159.4541 H   0  0  0  0  0  0  0  0  0  0  0  0  # atno 6909 bound_to 6896
  146.1481  140.4906  142.8623 H   0  0  0  0  0  0  0  0  0  0  0  0  # atno 7974 bound_to 7965
  155.5186  140.3479  155.4402 H   0  0  0  0  0  0  0  0  0  0  0  0  # atno 8008 bound_to 7997
  156.0800  140.1384  156.9751 H   0  0  0  0  0  0  0  0  0  0  0  0  # atno 8009 bound_to 7997
  154.4574  140.0948  156.6774 H   0  0  0  0  0  0  0  0  0  0  0  0  # atno 8010 bound_to 7997
  139.5183  144.6469  151.5413 H   0  0  0  0  0  0  0  0  0  0  0  0  # atno 10167 bound_to 10162
  157.5045  130.8459  149.8357 H   0  0  0  0  0  0  0  0  0  0  0  0  # atno 10718 bound_to 10713
  152.9930  135.6185  154.2658 H   0  0  0  0  0  0  0  0  0  0  0  0  # atno 10763 bound_to 10752
  154.2393  135.2789  155.2862 H   0  0  0  0  0  0  0  0  0  0  0  0  # atno 10764 bound_to 10752
  154.5383  135.5768  153.6875 H   0  0  0  0  0  0  0  0  0  0  0  0  # atno 10765 bound_to 10752
  140.9443  133.7259  156.1123 H   0  0  0  0  0  0  0  0  0  0  0  0  # atno 11005 bound_to 11000
  144.7871  140.5958  143.6566 LP  0  0  0  0  0  0  0  0  0  0  0  0  # atno 17320 bound_to 7965
  145.4888  139.1490  143.3721 LP  0  0  0  0  0  0  0  0  0  0  0  0  # atno 17321 bound_to 7965
  140.6258  143.9171  150.6563 LP  0  0  0  0  0  0  0  0  0  0  0  0  # atno 17342 bound_to 10162
  140.2459  143.3629  152.1447 LP  0  0  0  0  0  0  0  0  0  0  0  0  # atno 17343 bound_to 10162
  156.0249  130.3783  150.1851 LP  0  0  0  0  0  0  0  0  0  0  0  0  # atno 17370 bound_to 10713
  157.0041  130.9931  151.3383 LP  0  0  0  0  0  0  0  0  0  0  0  0  # atno 17371 bound_to 10713
  140.7691  134.3853  157.5511 LP  0  0  0  0  0  0  0  0  0  0  0  0  # atno 17394 bound_to 11000
  139.8829  134.9010  156.2801 LP  0  0  0  0  0  0  0  0  0  0  0  0  # atno 17395 bound_to 11000

$$$$
