AV-unprocessed.smi:2252|AV-procd|sdf|9113|dock5
  -GOLD-   2272012313D 1   1.00000     0.00000
 Structure written by MMmdl.
 44 46  0  0  0  0  0  0  0  0  1 V2000
  150.0877  138.1216  154.8632 C   0  0  0  0  0  0  0  0  0  0  0  0
  149.3298  139.3121  154.5286 N   0  0  0  0  0  0  0  0  0  0  0  0
  149.7669  140.6231  154.6657 C   0  0  0  0  0  0  0  0  0  0  0  0
  148.7433  141.4274  154.2265 C   0  0  0  0  0  0  0  0  0  0  0  0
  147.6751  140.6347  153.8201 N   0  0  0  0  0  0  0  0  0  0  0  0
  148.0800  139.3860  154.0312 C   0  0  0  0  0  0  0  0  0  0  0  0
  147.2518  138.1790  153.7184 C   0  0  0  0  0  0  0  0  0  0  0  0
  146.9877  138.0220  152.2119 C   0  0  0  0  0  0  0  0  0  0  0  0
  145.6869  137.4149  151.9592 N   0  0  0  0  0  0  0  0  0  0  0  0
  145.2415  136.2880  152.5367 C   0  0  0  0  0  0  0  0  0  0  0  0
  145.9095  135.6317  153.3370 O   0  0  0  0  0  0  0  0  0  0  0  0
  143.8274  135.8232  152.1452 C   0  0  2  0  0  0  0  0  0  0  0  0
  142.8844  135.9682  153.3596 C   0  0  0  0  0  0  0  0  0  0  0  0
  141.4819  135.3976  153.3290 C   0  0  0  0  0  0  0  0  0  0  0  0
  141.6811  136.8887  153.2991 C   0  0  0  0  0  0  0  0  0  0  0  0
  143.8037  134.4361  151.6188 N   0  0  0  0  0  0  0  0  0  0  0  0
  144.3105  133.4175  152.5373 C   0  0  0  0  0  0  0  0  0  0  0  0
  144.5174  132.1884  151.6503 C   0  0  0  0  0  0  0  0  0  0  0  0
  144.6820  132.7480  150.2406 C   0  0  0  0  0  0  0  0  0  0  0  0
  144.6141  134.2644  150.4169 C   0  0  0  0  0  0  0  0  0  0  0  0
  151.1211  138.3855  155.0894 H   0  0  0  0  0  0  0  0  0  0  0  0
  150.0786  137.4252  154.0243 H   0  0  0  0  0  0  0  0  0  0  0  0
  149.6473  137.6385  155.7355 H   0  0  0  0  0  0  0  0  0  0  0  0
  150.7452  140.8692  155.0516 H   0  0  0  0  0  0  0  0  0  0  0  0
  148.6931  142.5048  154.1717 H   0  0  0  0  0  0  0  0  0  0  0  0
  147.7427  137.2914  154.1186 H   0  0  0  0  0  0  0  0  0  0  0  0
  146.3038  138.2639  154.2513 H   0  0  0  0  0  0  0  0  0  0  0  0
  147.0096  138.9984  151.7269 H   0  0  0  0  0  0  0  0  0  0  0  0
  147.7730  137.4256  151.7437 H   0  0  0  0  0  0  0  0  0  0  0  0
  145.0779  137.8892  151.3080 H   0  0  0  0  0  0  0  0  0  0  0  0
  143.4763  136.4925  151.3568 H   0  0  0  0  0  0  0  0  0  0  0  0
  143.3960  135.9445  154.3207 H   0  0  0  0  0  0  0  0  0  0  0  0
  141.1487  134.9176  152.4110 H   0  0  0  0  0  0  0  0  0  0  0  0
  141.1011  134.9579  154.2485 H   0  0  0  0  0  0  0  0  0  0  0  0
  141.4343  137.4490  154.1987 H   0  0  0  0  0  0  0  0  0  0  0  0
  141.4747  137.4003  152.3609 H   0  0  0  0  0  0  0  0  0  0  0  0
  145.2648  133.7370  152.9604 H   0  0  0  0  0  0  0  0  0  0  0  0
  143.6237  133.2134  153.3595 H   0  0  0  0  0  0  0  0  0  0  0  0
  145.3857  131.6103  151.9677 H   0  0  0  0  0  0  0  0  0  0  0  0
  143.6473  131.5321  151.6940 H   0  0  0  0  0  0  0  0  0  0  0  0
  145.6183  132.4369  149.7762 H   0  0  0  0  0  0  0  0  0  0  0  0
  143.8651  132.4034  149.6050 H   0  0  0  0  0  0  0  0  0  0  0  0
  144.1793  134.7582  149.5472 H   0  0  0  0  0  0  0  0  0  0  0  0
  145.6162  134.6681  150.5739 H   0  0  0  0  0  0  0  0  0  0  0  0
  1  2  1  0  0  0  0
  1 21  1  0  0  0  0
  1 22  1  0  0  0  0
  1 23  1  0  0  0  0
  2  6  1  0  0  0  0
  2  3  1  0  0  0  0
  3  4  2  0  0  0  0
  3 24  1  0  0  0  0
  4  5  1  0  0  0  0
  4 25  1  0  0  0  0
  5  6  2  0  0  0  0
  6  7  1  0  0  0  0
  7  8  1  0  0  0  0
  7 26  1  0  0  0  0
  7 27  1  0  0  0  0
  8  9  1  0  0  0  0
  8 28  1  0  0  0  0
  8 29  1  0  0  0  0
  9 10  1  0  0  0  0
  9 30  1  0  0  0  0
 10 11  2  0  0  0  0
 10 12  1  0  0  0  0
 12 13  1  0  0  0  0
 12 16  1  0  0  0  0
 12 31  1  0  0  0  0
 13 15  1  0  0  0  0
 13 14  1  0  0  0  0
 13 32  1  0  0  0  0
 14 15  1  0  0  0  0
 14 33  1  0  0  0  0
 14 34  1  0  0  0  0
 15 35  1  0  0  0  0
 15 36  1  0  0  0  0
 16 20  1  0  0  0  0
 16 17  1  0  0  0  0
 17 18  1  0  0  0  0
 17 37  1  0  0  0  0
 17 38  1  0  0  0  0
 18 19  1  0  0  0  0
 18 39  1  0  0  0  0
 18 40  1  0  0  0  0
 19 20  1  0  0  0  0
 19 41  1  0  0  0  0
 19 42  1  0  0  0  0
 20 43  1  0  0  0  0
 20 44  1  0  0  0  0
M  END
> <s_m_source_file>
AV-unprocessed.smi

> <i_m_source_file_index>
2252

> <i_lp_mmshare_version>
43012

> <i_f3d_flags>
0

> <s_epik_input>
W0NIM11uMVtjSF1bY0hdbmMxW0NIMl1bQ0gyXVtOSF1DKD1PKVtDQEhdKFtDSF0yW0NIMl1bQ0gyXTIpTjNbQ0gyXVtDSDJdW0NIMl1bQ0gyXTM=

> <s_epik_cmdline>
J2VwaWtfcHl0aG9uJywgJy1waCcsICc3LjAnLCAnLXRuJywgJzgnLCAnLW1hJywgJzIwMCcsICctbWV0YWxfYmluZGluZycsICctaW1hZScsICc8aW5maWxlLm1hZT4nLCAnLW9tYWUnLCAnPG91dGZpbGUubWFlPic=

> <r_epik_Ionization_Penalty>
3.7689

> <r_epik_Ionization_Penalty_Charging>
1.29411

> <r_epik_Ionization_Penalty_Neutral>
2.4748

> <r_epik_State_Penalty>
3.85943

> <r_epik_Charging_Adjusted_Penalty>
5.15353

> <i_epik_Tot_Q>
0

> <i_epik_Tot_abs_Q>
0

> <r_epik_Metal_State_Penalty>
2.88358

> <b_epik_Metal_Only>
1

> <s_lp_Force_Field>
OPLS_2005

> <r_lp_Energy>
30.6984

> <b_lp_Chiralities_Consistent>
1

> <s_lp_Variant>
AV-unprocessed.smi:2252-11

> <Gold.Version>
5.8.1

> <Gold.Id.Protein>
6NUR|6NUR_protein|mol2

> <Gold.PLP.Fitness>
44.0329

> <Gold.PLP.PLP>
-39.2286

> <Gold.PLP.part.hbond>
-1.3235

> <Gold.PLP.part.metal>
0.0000

> <Gold.PLP.part.buried>
-4.0224

> <Gold.PLP.part.nonpolar>
-33.6513

> <Gold.PLP.part.repulsive>
0.5050

> <Gold.PLP.ligand.clash>
0.0000

> <Gold.PLP.ligand.torsion>
1.2034

> <Gold.PLP.Chemscore.Hbond>
1.0000

> <Gold.PLP.Chemscore.CHOScore>
0.9993

> <Gold.PLP.Chemscore.Metal>
0.0000

> <Gold.Chemscore.Hbonds>
donor molecule, donor type, donor heavy atom, donor atom, acceptor molecule, acceptor atom, score
      L1  H     9    30       P1 10171  0.96
      L1  C     4    25       P1  8028  0.70

> <Gold.PLP.Chemscore.Internal.Correction>
1.2132

> <Gold.Rescore>
     Score         DG    S(hbond)    S(metal)    S(lipo)     H(rot)  DE(clash)    DE(int)     intcor
      9.22     -13.25       0.98        0.00      79.17       1.86       0.01       4.02       ----

> <Gold.Chemscore.Fitness>
9.2217

> <Gold.Chemscore.DG>
-13.2511

> <Gold.Chemscore.ZeroCoef>
-5.4800

> <Gold.Chemscore.Hbond>
0.9805

> <Gold.Chemscore.Metal>
0.0000

> <Gold.Chemscore.Lipo>
79.1677

> <Gold.Chemscore.Internal_Hbond>
0.0000

> <Gold.Chemscore.DEClash>
0.0108

> <Gold.Chemscore.DEInternal>
4.0186

> <Gold.Chemscore.Rot>
1.8619

> <Gold.Chemscore.Internal.Correction>
   9.000000E+99

> <Gold.Chemscore.Hbonds>
donor molecule, donor type, donor heavy atom, donor atom, acceptor molecule, acceptor atom, score
      L1  H     9    30       P1 10171  0.91

> <Gold.Chemscore.Hbond.Weighted>
-3.2750

> <Gold.Chemscore.Metal.Weighted>
-0.0000

> <Gold.Chemscore.Lipo.Weighted>
-9.2626

> <Gold.Chemscore.Internal_Hbond.Weighted>
0.0000

> <Gold.Chemscore.DEClash.Weighted>
0.0108

> <Gold.Chemscore.DEInternal.Weighted>
4.0186

> <Gold.Chemscore.Rot.Weighted>
4.7665

> <Gold.Chemscore.Internal.Correction.Weighted>
   9.000000E+99

> <Gold.Protein.RotatedTorsions>
[ 6907 6896 6895 6894 ] final   20.05 input  -60.11 | X-H torsion
[ 7974 7965 7964 7962 ] final   81.37 input  175.53 | X-H torsion
[ 8008 7997 7996 7995 ] final   81.96 input   59.86 | X-H torsion
[ 10167 10162 10161 10158 ] final  -54.34 input  -65.29 | X-H torsion
[ 10718 10713 10712 10709 ] final  157.91 input   66.30 | X-H torsion
[ 10763 10752 10751 10750 ] final  170.03 input  -60.55 | X-H torsion
[ 11005 11000 10999 10996 ] final -135.88 input  -57.11 | X-H torsion

> <Gold.Protein.ActiveResidues>
 VAL166  LYS551  ARG553  GLY616  TRP617  ASP618  TYR619  PRO620  LYS621  CYS622 
 ASP623  PHE694  ASN695  SER759  ASP760  ASP761  ALA762  ILE779  LEU786  VAL792 
 PHE793  MET794  SER795  GLU796  ALA797  LYS798  CYS799  TRP800  GLU811  SER814 

> <Gold.Protein.RotatedAtoms>
  151.8904  135.0419  160.0496 H   0  0  0  0  0  0  0  0  0  0  0  0  # atno 6907 bound_to 6896
  152.2441  133.5155  159.5295 H   0  0  0  0  0  0  0  0  0  0  0  0  # atno 6908 bound_to 6896
  150.7062  134.0966  159.3993 H   0  0  0  0  0  0  0  0  0  0  0  0  # atno 6909 bound_to 6896
  145.6390  139.2421  143.2041 H   0  0  0  0  0  0  0  0  0  0  0  0  # atno 7974 bound_to 7965
  155.9042  140.3431  155.6049 H   0  0  0  0  0  0  0  0  0  0  0  0  # atno 8008 bound_to 7997
  155.7464  140.0814  157.2241 H   0  0  0  0  0  0  0  0  0  0  0  0  # atno 8009 bound_to 7997
  154.4047  140.1561  156.2661 H   0  0  0  0  0  0  0  0  0  0  0  0  # atno 8010 bound_to 7997
  140.6436  143.2522  151.4922 H   0  0  0  0  0  0  0  0  0  0  0  0  # atno 10167 bound_to 10162
  157.1851  131.0641  151.2110 H   0  0  0  0  0  0  0  0  0  0  0  0  # atno 10718 bound_to 10713
  154.3917  135.2754  155.2151 H   0  0  0  0  0  0  0  0  0  0  0  0  # atno 10763 bound_to 10752
  154.4214  135.5999  153.6016 H   0  0  0  0  0  0  0  0  0  0  0  0  # atno 10764 bound_to 10752
  152.9832  135.5973  154.4172 H   0  0  0  0  0  0  0  0  0  0  0  0  # atno 10765 bound_to 10752
  140.8857  134.1875  157.4561 H   0  0  0  0  0  0  0  0  0  0  0  0  # atno 11005 bound_to 11000
  146.1296  140.7203  142.9418 LP  0  0  0  0  0  0  0  0  0  0  0  0  # atno 17320 bound_to 7965
  144.7164  140.4226  143.7041 LP  0  0  0  0  0  0  0  0  0  0  0  0  # atno 17321 bound_to 7965
  139.5646  144.2074  152.1744 LP  0  0  0  0  0  0  0  0  0  0  0  0  # atno 17342 bound_to 10162
  140.1352  144.5252  150.6778 LP  0  0  0  0  0  0  0  0  0  0  0  0  # atno 17343 bound_to 10162
  157.3915  130.7284  149.6701 LP  0  0  0  0  0  0  0  0  0  0  0  0  # atno 17370 bound_to 10713
  155.9719  130.4145  150.4136 LP  0  0  0  0  0  0  0  0  0  0  0  0  # atno 17371 bound_to 10713
  139.8724  134.9837  156.5208 LP  0  0  0  0  0  0  0  0  0  0  0  0  # atno 17394 bound_to 11000
  140.8407  133.8207  155.9072 LP  0  0  0  0  0  0  0  0  0  0  0  0  # atno 17395 bound_to 11000

$$$$
