AV-unprocessed.smi:92|AV-procd|sdf|847|dock2
  -GOLD-   2262017283D 1   1.00000     0.00000
 Structure written by MMmdl.
 61 64  0  0  0  0  0  0  0  0  2 V2000
  150.6062  142.1748  157.6043 C   0  0  0  0  0  0  0  0  0  0  0  0
  150.9541  142.2847  156.1127 C   0  0  0  0  0  0  0  0  0  0  0  0
  150.2521  141.2714  155.2840 N   0  3  2  0  0  0  0  0  0  0  0  0
  148.8014  141.1651  155.5916 C   0  0  0  0  0  0  0  0  0  0  0  0
  148.0846  140.1733  154.6540 C   0  0  0  0  0  0  0  0  0  0  0  0
  148.7758  138.8000  154.5213 C   0  0  2  0  0  0  0  0  0  0  0  0
  148.3782  137.8345  155.5623 N   0  0  0  0  0  0  0  0  0  0  0  0
  148.8821  137.8660  156.9341 C   0  0  0  0  0  0  0  0  0  0  0  0
  147.8452  136.6586  155.1404 C   0  0  0  0  0  0  0  0  0  0  0  0
  148.2254  135.5045  155.7498 N   0  0  0  0  0  0  0  0  0  0  0  0
  147.7346  134.3321  155.3386 C   0  0  0  0  0  0  0  0  0  0  0  0
  146.8632  134.0916  154.3580 N   0  0  0  0  0  0  0  0  0  0  0  0
  146.4624  135.2459  153.7515 C   0  0  0  0  0  0  0  0  0  0  0  0
  146.9007  136.5607  154.0788 C   0  0  0  0  0  0  0  0  0  0  0  0
  146.2714  137.4874  153.2563 N   0  0  0  0  0  0  0  0  0  0  0  0
  145.5138  136.7622  152.4799 C   0  0  0  0  0  0  0  0  0  0  0  0
  145.5639  135.4049  152.7075 N   0  0  0  0  0  0  0  0  0  0  0  0
  144.8366  134.3933  151.9916 C   0  0  0  0  0  0  0  0  0  0  0  0
  145.3314  132.9452  151.9203 C   0  0  0  0  0  0  0  0  0  0  0  0
  144.7488  132.8285  150.4918 C   0  0  0  0  0  0  0  0  0  0  0  0
  145.6072  132.0724  149.4584 C   0  0  0  0  0  0  0  0  0  0  0  0
  146.9262  132.5749  149.3757 O   0  0  0  0  0  0  0  0  0  0  0  0
  143.3339  132.2218  150.4415 C   0  0  0  0  0  0  0  0  0  0  0  0
  142.8323  132.1744  149.1209 O   0  0  0  0  0  0  0  0  0  0  0  0
  144.8073  134.3743  150.4616 C   0  0  0  0  0  0  0  0  0  0  0  0
  150.3026  138.9688  154.3212 C   0  0  2  0  0  0  0  0  0  0  0  0
  151.0699  137.6384  154.2368 C   0  0  0  0  0  0  0  0  0  0  0  0
  150.9254  139.9485  155.3341 C   0  0  0  0  0  0  0  0  0  0  0  0
  151.0562  142.9962  158.1624 H   0  0  0  0  0  0  0  0  0  0  0  0
  150.9735  141.2484  158.0450 H   0  0  0  0  0  0  0  0  0  0  0  0
  149.5284  142.2212  157.7624 H   0  0  0  0  0  0  0  0  0  0  0  0
  150.6643  143.2825  155.7807 H   0  0  0  0  0  0  0  0  0  0  0  0
  152.0323  142.2116  155.9619 H   0  0  0  0  0  0  0  0  0  0  0  0
  148.6648  140.8959  156.6364 H   0  0  0  0  0  0  0  0  0  0  0  0
  148.3281  142.1391  155.4746 H   0  0  0  0  0  0  0  0  0  0  0  0
  147.0440  140.0479  154.9554 H   0  0  0  0  0  0  0  0  0  0  0  0
  148.0495  140.6255  153.6620 H   0  0  0  0  0  0  0  0  0  0  0  0
  148.4238  138.3962  153.5724 H   0  0  0  0  0  0  0  0  0  0  0  0
  148.2637  137.2478  157.5866 H   0  0  0  0  0  0  0  0  0  0  0  0
  148.8654  138.8678  157.3513 H   0  0  0  0  0  0  0  0  0  0  0  0
  149.9023  137.4863  156.9838 H   0  0  0  0  0  0  0  0  0  0  0  0
  148.0913  133.4622  155.8702 H   0  0  0  0  0  0  0  0  0  0  0  0
  144.8931  137.2041  151.7139 H   0  0  0  0  0  0  0  0  0  0  0  0
  143.8165  134.4136  152.3796 H   0  0  0  0  0  0  0  0  0  0  0  0
  146.4179  132.8651  151.9609 H   0  0  0  0  0  0  0  0  0  0  0  0
  144.8738  132.2810  152.6541 H   0  0  0  0  0  0  0  0  0  0  0  0
  145.6683  131.0119  149.7052 H   0  0  0  0  0  0  0  0  0  0  0  0
  145.1702  132.1385  148.4617 H   0  0  0  0  0  0  0  0  0  0  0  0
  147.5294  131.8626  149.5241 H   0  0  0  0  0  0  0  0  0  0  0  0
  143.3255  131.2127  150.8555 H   0  0  0  0  0  0  0  0  0  0  0  0
  142.6335  132.8023  151.0425 H   0  0  0  0  0  0  0  0  0  0  0  0
  142.1269  132.7988  149.0440 H   0  0  0  0  0  0  0  0  0  0  0  0
  143.9329  134.8597  150.0274 H   0  0  0  0  0  0  0  0  0  0  0  0
  145.7226  134.7675  150.0179 H   0  0  0  0  0  0  0  0  0  0  0  0
  150.4234  139.4380  153.3433 H   0  0  0  0  0  0  0  0  0  0  0  0
  151.0814  137.1143  155.1920 H   0  0  0  0  0  0  0  0  0  0  0  0
  152.1068  137.8041  153.9439 H   0  0  0  0  0  0  0  0  0  0  0  0
  150.6226  136.9733  153.4972 H   0  0  0  0  0  0  0  0  0  0  0  0
  151.9809  140.0768  155.0908 H   0  0  0  0  0  0  0  0  0  0  0  0
  150.8896  139.5528  156.3484 H   0  0  0  0  0  0  0  0  0  0  0  0
  150.3271  141.5853  154.3269 H   0  0  0  0  0  0  0  0  0  0  0  0
  1  2  1  0  0  0  0
  1 29  1  0  0  0  0
  1 30  1  0  0  0  0
  1 31  1  0  0  0  0
  2  3  1  0  0  0  0
  2 32  1  0  0  0  0
  2 33  1  0  0  0  0
  3 28  1  0  0  0  0
  3  4  1  0  0  0  0
  3 61  1  0  0  0  0
  4  5  1  0  0  0  0
  4 34  1  0  0  0  0
  4 35  1  0  0  0  0
  5  6  1  0  0  0  0
  5 36  1  0  0  0  0
  5 37  1  0  0  0  0
  6  7  1  0  0  0  0
  6 26  1  0  0  0  0
  6 38  1  0  0  0  0
  7  8  1  0  0  0  0
  7  9  1  0  0  0  0
  8 39  1  0  0  0  0
  8 40  1  0  0  0  0
  8 41  1  0  0  0  0
  9 14  1  0  0  0  0
  9 10  2  0  0  0  0
 10 11  1  0  0  0  0
 11 12  2  0  0  0  0
 11 42  1  0  0  0  0
 12 13  1  0  0  0  0
 13 17  1  0  0  0  0
 13 14  2  0  0  0  0
 14 15  1  0  0  0  0
 15 16  2  0  0  0  0
 16 17  1  0  0  0  0
 16 43  1  0  0  0  0
 17 18  1  0  0  0  0
 18 25  1  0  0  0  0
 18 19  1  0  0  0  0
 18 44  1  0  0  0  0
 19 20  1  0  0  0  0
 19 45  1  0  0  0  0
 19 46  1  0  0  0  0
 20 21  1  0  0  0  0
 20 23  1  0  0  0  0
 20 25  1  0  0  0  0
 21 22  1  0  0  0  0
 21 47  1  0  0  0  0
 21 48  1  0  0  0  0
 22 49  1  0  0  0  0
 23 24  1  0  0  0  0
 23 50  1  0  0  0  0
 23 51  1  0  0  0  0
 24 52  1  0  0  0  0
 25 53  1  0  0  0  0
 25 54  1  0  0  0  0
 26 27  1  0  0  0  0
 26 28  1  0  0  0  0
 26 55  1  0  0  0  0
 27 56  1  0  0  0  0
 27 57  1  0  0  0  0
 27 58  1  0  0  0  0
 28 59  1  0  0  0  0
 28 60  1  0  0  0  0
M  CHG  1   3   1
M  END
> <s_m_source_file>
AV-unprocessed.smi

> <i_m_source_file_index>
92

> <i_lp_mmshare_version>
43012

> <i_f3d_flags>
0

> <s_epik_input>
W0NIM11bQ0gyXU4xW0NIMl1bQ0gyXVtDQEhdKFtDQEBIXShbQ0gzXSlbQ0gyXTEpTihbQ0gzXSljKG5bY0hdbjIpYyhjMjMpbltjSF1uM1tDSF0oW0NIMl00KVtDSDJdQzQoW0NIMl1bT0hdKVtDSDJdW09IXQ==

> <s_epik_cmdline>
J2VwaWtfcHl0aG9uJywgJy1waCcsICc3LjAnLCAnLXRuJywgJzgnLCAnLW1hJywgJzIwMCcsICctbWV0YWxfYmluZGluZycsICctaW1hZScsICc8aW5maWxlLm1hZT4nLCAnLW9tYWUnLCAnPG91dGZpbGUubWFlPic=

> <r_lp_tautomer_probability>
1

> <r_epik_Ionization_Penalty>
0.00235514

> <r_epik_Ionization_Penalty_Charging>
0.00137877

> <r_epik_Ionization_Penalty_Neutral>
0.000976366

> <r_epik_State_Penalty>
-0

> <r_epik_Charging_Adjusted_Penalty>
0.00137877

> <i_epik_Tot_Q>
1

> <i_epik_Tot_abs_Q>
1

> <r_epik_Metal_State_Penalty>
-0

> <b_epik_Metal_Only>
0

> <s_lp_Force_Field>
OPLS_2005

> <r_lp_Energy>
59.507

> <b_lp_Chiralities_Consistent>
1

> <s_lp_Variant>
AV-unprocessed.smi:92-7

> <Gold.Version>
5.8.1

> <Gold.Id.Protein>
6NUR|6NUR_protein|mol2

> <Gold.PLP.Fitness>
48.5769

> <Gold.PLP.PLP>
-39.1842

> <Gold.PLP.part.hbond>
-5.7063

> <Gold.PLP.part.metal>
0.0000

> <Gold.PLP.part.buried>
-3.4326

> <Gold.PLP.part.nonpolar>
-31.0657

> <Gold.PLP.part.repulsive>
1.0244

> <Gold.PLP.ligand.clash>
0.0000

> <Gold.PLP.ligand.torsion>
1.4573

> <Gold.PLP.Chemscore.Hbond>
2.7713

> <Gold.PLP.Chemscore.CHOScore>
0.9909

> <Gold.PLP.Chemscore.Metal>
0.0000

> <Gold.Chemscore.Hbonds>
donor molecule, donor type, donor heavy atom, donor atom, acceptor molecule, acceptor atom, score
      L1  H    22    49       P1 10747  1.00
      L1  H    24    52       P1 10186  1.00
      P1  H 10785 10796       L1    24  0.79
      L1  C    16    43       P1 10171  0.91

> <Gold.PLP.Chemscore.Internal.Correction>
1.0209

> <Gold.Rescore>
     Score         DG    S(hbond)    S(metal)    S(lipo)     H(rot)  DE(clash)    DE(int)     intcor
     14.81     -16.45       2.45        0.00      94.41       3.22       0.14       1.51       ----

> <Gold.Chemscore.Fitness>
14.8053

> <Gold.Chemscore.DG>
-16.4539

> <Gold.Chemscore.ZeroCoef>
-5.4800

> <Gold.Chemscore.Hbond>
2.4480

> <Gold.Chemscore.Metal>
0.0000

> <Gold.Chemscore.Lipo>
94.4097

> <Gold.Chemscore.Internal_Hbond>
0.0000

> <Gold.Chemscore.DEClash>
0.1415

> <Gold.Chemscore.DEInternal>
1.5071

> <Gold.Chemscore.Rot>
3.2219

> <Gold.Chemscore.Internal.Correction>
   9.000000E+99

> <Gold.Chemscore.Hbonds>
donor molecule, donor type, donor heavy atom, donor atom, acceptor molecule, acceptor atom, score
      L1  H    22    49       P1 10747  1.00
      L1  H    24    52       P1 10186  0.94
      P1  H 10785 10796       L1    24  0.18

> <Gold.Chemscore.Hbond.Weighted>
-8.1762

> <Gold.Chemscore.Metal.Weighted>
-0.0000

> <Gold.Chemscore.Lipo.Weighted>
-11.0459

> <Gold.Chemscore.Internal_Hbond.Weighted>
0.0000

> <Gold.Chemscore.DEClash.Weighted>
0.1415

> <Gold.Chemscore.DEInternal.Weighted>
1.5071

> <Gold.Chemscore.Rot.Weighted>
8.2482

> <Gold.Chemscore.Internal.Correction.Weighted>
   9.000000E+99

> <Gold.Protein.RotatedTorsions>
[ 6907 6896 6895 6894 ] final -133.96 input  -60.11 | X-H torsion
[ 7974 7965 7964 7962 ] final  122.31 input  175.53 | X-H torsion
[ 8008 7997 7996 7995 ] final -170.75 input   59.86 | X-H torsion
[ 10167 10162 10161 10158 ] final  -78.84 input  -65.29 | X-H torsion
[ 10718 10713 10712 10709 ] final   71.85 input   66.30 | X-H torsion
[ 10763 10752 10751 10750 ] final   45.09 input  -60.55 | X-H torsion
[ 11005 11000 10999 10996 ] final  177.51 input  -57.11 | X-H torsion

> <Gold.Protein.ActiveResidues>
 VAL166  LYS551  ARG553  GLY616  TRP617  ASP618  TYR619  PRO620  LYS621  CYS622 
 ASP623  PHE694  ASN695  SER759  ASP760  ASP761  ALA762  ILE779  LEU786  VAL792 
 PHE793  MET794  SER795  GLU796  ALA797  LYS798  CYS799  TRP800  GLU811  SER814 

> <Gold.Protein.RotatedAtoms>
  150.9801  133.6254  159.2723 H   0  0  0  0  0  0  0  0  0  0  0  0  # atno 6907 bound_to 6896
  151.3512  135.0883  159.9413 H   0  0  0  0  0  0  0  0  0  0  0  0  # atno 6908 bound_to 6896
  152.5213  133.9394  159.7673 H   0  0  0  0  0  0  0  0  0  0  0  0  # atno 6909 bound_to 6896
  145.1091  139.3465  143.4772 H   0  0  0  0  0  0  0  0  0  0  0  0  # atno 7974 bound_to 7965
  155.9225  140.1076  157.1196 H   0  0  0  0  0  0  0  0  0  0  0  0  # atno 8008 bound_to 7997
  154.4056  140.1253  156.4763 H   0  0  0  0  0  0  0  0  0  0  0  0  # atno 8009 bound_to 7997
  155.7178  140.3470  155.5005 H   0  0  0  0  0  0  0  0  0  0  0  0  # atno 8010 bound_to 7997
  140.4646  143.2444  151.8297 H   0  0  0  0  0  0  0  0  0  0  0  0  # atno 10167 bound_to 10162
  157.6472  130.9549  150.0846 H   0  0  0  0  0  0  0  0  0  0  0  0  # atno 10718 bound_to 10713
  152.9830  135.6050  154.3381 H   0  0  0  0  0  0  0  0  0  0  0  0  # atno 10763 bound_to 10752
  154.3079  135.2771  155.2582 H   0  0  0  0  0  0  0  0  0  0  0  0  # atno 10764 bound_to 10752
  154.4804  135.5918  153.6441 H   0  0  0  0  0  0  0  0  0  0  0  0  # atno 10765 bound_to 10752
  140.3849  134.6914  157.4473 H   0  0  0  0  0  0  0  0  0  0  0  0  # atno 11005 bound_to 11000
  146.3527  140.1001  142.8608 LP  0  0  0  0  0  0  0  0  0  0  0  0  # atno 17320 bound_to 7965
  145.0868  140.9258  143.4793 LP  0  0  0  0  0  0  0  0  0  0  0  0  # atno 17321 bound_to 7965
  139.4810  144.4966  151.9115 LP  0  0  0  0  0  0  0  0  0  0  0  0  # atno 17342 bound_to 10162
  140.4051  144.2442  150.5891 LP  0  0  0  0  0  0  0  0  0  0  0  0  # atno 17343 bound_to 10162
  156.1812  130.3650  149.9032 LP  0  0  0  0  0  0  0  0  0  0  0  0  # atno 17370 bound_to 10713
  156.6984  130.8923  151.3596 LP  0  0  0  0  0  0  0  0  0  0  0  0  # atno 17371 bound_to 10713
  140.0450  134.6212  155.8932 LP  0  0  0  0  0  0  0  0  0  0  0  0  # atno 17394 bound_to 11000
  141.1911  133.6570  156.5441 LP  0  0  0  0  0  0  0  0  0  0  0  0  # atno 17395 bound_to 11000

$$$$
