#       Name:                AV-unprocessed.smi:570
#       Creating user name   scv26
#       Creation time:       Thu Mar 26 23:46:38 2020


#       File generated by GOLD software.
#

@<TRIPOS>MOLECULE
AV-unprocessed.smi:570
    48    49     1
SMALL
NO_CHARGES


@<TRIPOS>ATOM
      1 ****        -3.5471   5.7378  -0.3179 C.3            1 S1                 0.0000
      2 ****        -2.6864   4.6132  -0.2867 O.3            1 S1                 0.0000
      3 ****        -3.3136   3.4312  -0.7667 C.3            1 S1                 0.0000
      4 ****        -2.3499   2.2277  -0.7042 C.3            1 S1                 0.0000
      5 ****        -1.1939   2.2574  -1.7256 C.3            1 S1                 0.0000
      6 ****        -0.3736   1.0592  -1.5754 N.pl3          1 S1                -1.0000
      7 ****         0.8273   0.8705  -2.1972 C.2            1 S1                 0.0000
      8 ****         1.4225   1.6176  -2.9820 O.2            1 S1                 0.0000
      9 ****         1.4672  -0.4512  -1.8319 C.ar           1 S1                 0.0000
     10 ****         1.3167  -0.8946  -0.5573 N.ar           1 S1                 0.0000
     11 ****         1.8823  -2.0508  -0.1972 C.ar           1 S1                 0.0000
     12 ****         1.6990  -2.4775   1.1247 N.pl3          1 S1                 0.0000
     13 ****         2.5184  -3.5358   1.7198 C.3            1 S1                 0.0000
     14 ****         1.7141  -4.3269   2.7653 C.3            1 S1                 0.0000
     15 ****         1.1857  -3.4370   3.7407 O.3            1 S1                 0.0000
     16 ****         0.2915  -2.4966   3.1582 C.3            1 S1                 0.0000
     17 ****         1.0378  -1.6356   2.1252 C.3            1 S1                 0.0000
     18 ****         2.6095  -2.8289  -1.0066 N.ar           1 S1                 0.0000
     19 ****         2.7761  -2.4188  -2.2804 C.ar           1 S1                 0.0000
     20 ****         2.2187  -1.2191  -2.7627 C.ar           1 S1                 0.0000
     21 ****         2.4501  -0.7866  -4.4231 Cl             1 S1                 0.0000
     22 ****        -3.0181   6.6141   0.0567 H              1 S1                 0.0000
     23 ****        -4.4249   5.5806   0.3100 H              1 S1                 0.0000
     24 ****        -3.8773   5.9534  -1.3349 H              1 S1                 0.0000
     25 ****        -4.1774   3.2177  -0.1354 H              1 S1                 0.0000
     26 ****        -3.6992   3.5827  -1.7776 H              1 S1                 0.0000
     27 ****        -1.9474   2.1484   0.3067 H              1 S1                 0.0000
     28 ****        -2.9318   1.3194  -0.8671 H              1 S1                 0.0000
     29 ****        -1.6106   2.3325  -2.7307 H              1 S1                 0.0000
     30 ****        -0.6124   3.1677  -1.5742 H              1 S1                 0.0000
     31 ****         2.8921  -4.2366   0.9742 H              1 S1                 0.0000
     32 ****         3.3908  -3.0781   2.1874 H              1 S1                 0.0000
     33 ****         0.9068  -4.8883   2.2919 H              1 S1                 0.0000
     34 ****         2.3577  -5.0534   3.2615 H              1 S1                 0.0000
     35 ****        -0.5507  -3.0142   2.6960 H              1 S1                 0.0000
     36 ****        -0.1183  -1.8634   3.9449 H              1 S1                 0.0000
     37 ****         1.7925  -1.0238   2.6205 H              1 S1                 0.0000
     38 ****         0.3200  -0.9504   1.6742 H              1 S1                 0.0000
     39 ****         3.3569  -3.0618  -2.9250 H              1 S1                 0.0000
     40 ****        -2.3939   4.4598   0.6572 LP             1 S1                 0.0000
     41 ****        -1.8873   4.8056  -0.8562 LP             1 S1                 0.0000
     42 ****        -0.7125   0.3309  -0.9797 LP             1 S1                 0.0000
     43 ****         1.0208   2.4971  -3.2369 LP             1 S1                 0.0000
     44 ****         2.3056   1.3423  -3.3618 LP             1 S1                 0.0000
     45 ****         0.7887  -0.3622   0.1044 LP             1 S1                 0.0000
     46 ****         1.9403  -2.9433   4.1729 LP             1 S1                 0.0000
     47 ****         0.6948  -3.9671   4.4322 LP             1 S1                 0.0000
     48 ****         3.0144  -3.6827  -0.6793 LP             1 S1                 0.0000
@<TRIPOS>BOND
    1    1    2 1     
    2    1   22 1     
    3    1   23 1     
    4    1   24 1     
    5    2    3 1     
    6    3    4 1     
    7    3   25 1     
    8    3   26 1     
    9    4    5 1     
   10    4   27 1     
   11    4   28 1     
   12    5    6 1     
   13    5   29 1     
   14    5   30 1     
   15    6    7 1     
   16    7    8 2     
   17    7    9 1     
   18    9   20 ar    
   19    9   10 ar    
   20   10   11 ar    
   21   11   12 1     
   22   11   18 ar    
   23   12   17 1     
   24   12   13 1     
   25   13   14 1     
   26   13   31 1     
   27   13   32 1     
   28   14   15 1     
   29   14   33 1     
   30   14   34 1     
   31   15   16 1     
   32   16   17 1     
   33   16   35 1     
   34   16   36 1     
   35   17   37 1     
   36   17   38 1     
   37   18   19 ar    
   38   19   20 ar    
   39   19   39 1     
   40   20   21 1     
   41    2   40 1     
   42    2   41 1     
   43    6   42 1     
   44    8   43 1     
   45    8   44 1     
   46   10   45 1     
   47   15   46 1     
   48   15   47 1     
   49   18   48 1     
@<TRIPOS>SUBSTRUCTURE
      1 S1             1
@<TRIPOS>SET
LONE_PAIRS      STATIC     ATOMS    <user>   **** ""
9 40 41 42 43 44 45 46 47 48
ATOM$BLUE        STATIC     ATOMS    COLORGROUP SYSTEM
9 40 41 42 43 44 45 46 47 48
