AV-unprocessed.smi:674|AV-procd|sdf|3302|dock7
  -GOLD-   22720 0263D 1   1.00000     0.00000
 Structure written by MMmdl.
 47 48  0  0  0  0  0  0  0  0  1 V2000
  153.0750  142.8708  162.3168 C   0  0  0  0  0  0  0  0  0  0  0  0
  153.4333  142.0555  161.0690 C   0  0  0  0  0  0  0  0  0  0  0  0
  152.7197  142.5553  159.8447 C   0  0  0  0  0  0  0  0  0  0  0  0
  151.7308  141.8799  159.0725 C   0  0  0  0  0  0  0  0  0  0  0  0
  151.4404  142.7881  158.0911 C   0  0  0  0  0  0  0  0  0  0  0  0
  150.5608  142.6758  157.0604 N   0  0  0  0  0  0  0  0  0  0  0  0
  150.2056  141.5756  156.3744 C   0  0  0  0  0  0  0  0  0  0  0  0
  150.5995  140.4318  156.6032 O   0  0  0  0  0  0  0  0  0  0  0  0
  149.3532  141.8764  155.3853 N   0  0  0  0  0  0  0  0  0  0  0  0
  148.8023  140.9022  154.4485 C   0  0  1  0  0  0  0  0  0  0  0  0
  148.3596  139.6108  155.1337 C   0  0  0  0  0  0  0  0  0  0  0  0
  147.1696  139.5864  154.1552 C   0  0  2  0  0  0  0  0  0  0  0  0
  145.8278  139.0031  154.6164 C   0  0  0  0  0  0  0  0  0  0  0  0
  147.5695  139.0052  152.9064 O   0  0  0  0  0  0  0  0  0  0  0  0
  146.5686  138.8530  151.9073 C   0  0  0  0  0  0  0  0  0  0  0  0
  147.3225  141.1390  154.0491 C   0  0  0  0  0  0  0  0  0  0  0  0
  146.4661  141.9690  155.0245 C   0  0  0  0  0  0  0  0  0  0  0  0
  147.0912  141.7562  152.6652 C   0  0  0  0  0  0  0  0  0  0  0  0
  152.2170  143.9110  158.2811 N   0  0  0  0  0  0  0  0  0  0  0  0
  152.2858  145.1412  157.5163 C   0  0  0  0  0  0  0  0  0  0  0  0
  153.0022  143.7636  159.3694 N   0  0  0  0  0  0  0  0  0  0  0  0
  153.6060  142.4957  163.1917 H   0  0  0  0  0  0  0  0  0  0  0  0
  152.0067  142.8187  162.5287 H   0  0  0  0  0  0  0  0  0  0  0  0
  153.3413  143.9205  162.1896 H   0  0  0  0  0  0  0  0  0  0  0  0
  154.5112  142.0961  160.9098 H   0  0  0  0  0  0  0  0  0  0  0  0
  153.1932  141.0052  161.2387 H   0  0  0  0  0  0  0  0  0  0  0  0
  151.3211  140.8936  159.2293 H   0  0  0  0  0  0  0  0  0  0  0  0
  150.1301  143.5402  156.7675 H   0  0  0  0  0  0  0  0  0  0  0  0
  149.0756  142.8391  155.2632 H   0  0  0  0  0  0  0  0  0  0  0  0
  149.4479  140.7021  153.5900 H   0  0  0  0  0  0  0  0  0  0  0  0
  149.0718  138.7910  155.0446 H   0  0  0  0  0  0  0  0  0  0  0  0
  148.0513  139.7496  156.1714 H   0  0  0  0  0  0  0  0  0  0  0  0
  145.4524  139.5039  155.5079 H   0  0  0  0  0  0  0  0  0  0  0  0
  145.9089  137.9479  154.8757 H   0  0  0  0  0  0  0  0  0  0  0  0
  145.0668  139.1012  153.8419 H   0  0  0  0  0  0  0  0  0  0  0  0
  146.9710  138.2565  151.0890 H   0  0  0  0  0  0  0  0  0  0  0  0
  146.2718  139.8142  151.4878 H   0  0  0  0  0  0  0  0  0  0  0  0
  145.6805  138.3445  152.2815 H   0  0  0  0  0  0  0  0  0  0  0  0
  145.4077  141.9215  154.7664 H   0  0  0  0  0  0  0  0  0  0  0  0
  146.7506  143.0217  155.0153 H   0  0  0  0  0  0  0  0  0  0  0  0
  146.5620  141.6234  156.0538 H   0  0  0  0  0  0  0  0  0  0  0  0
  146.0671  141.5993  152.3252 H   0  0  0  0  0  0  0  0  0  0  0  0
  147.7524  141.3279  151.9116 H   0  0  0  0  0  0  0  0  0  0  0  0
  147.2773  142.8306  152.6677 H   0  0  0  0  0  0  0  0  0  0  0  0
  151.7826  145.0258  156.5565 H   0  0  0  0  0  0  0  0  0  0  0  0
  153.3281  145.4050  157.3339 H   0  0  0  0  0  0  0  0  0  0  0  0
  151.8066  145.9460  158.0744 H   0  0  0  0  0  0  0  0  0  0  0  0
  1  2  1  0  0  0  0
  1 22  1  0  0  0  0
  1 23  1  0  0  0  0
  1 24  1  0  0  0  0
  2  3  1  0  0  0  0
  2 25  1  0  0  0  0
  2 26  1  0  0  0  0
  3 21  2  0  0  0  0
  3  4  1  0  0  0  0
  4  5  2  0  0  0  0
  4 27  1  0  0  0  0
  5  6  1  0  0  0  0
  5 19  1  0  0  0  0
  6  7  1  0  0  0  0
  6 28  1  0  0  0  0
  7  8  2  0  0  0  0
  7  9  1  0  0  0  0
  9 10  1  0  0  0  0
  9 29  1  0  0  0  0
 10 16  1  0  0  0  0
 10 11  1  0  0  0  0
 10 30  1  0  0  0  0
 11 12  1  0  0  0  0
 11 31  1  0  0  0  0
 11 32  1  0  0  0  0
 12 13  1  0  0  0  0
 12 14  1  0  0  0  0
 12 16  1  0  0  0  0
 13 33  1  0  0  0  0
 13 34  1  0  0  0  0
 13 35  1  0  0  0  0
 14 15  1  0  0  0  0
 15 36  1  0  0  0  0
 15 37  1  0  0  0  0
 15 38  1  0  0  0  0
 16 17  1  0  0  0  0
 16 18  1  0  0  0  0
 17 39  1  0  0  0  0
 17 40  1  0  0  0  0
 17 41  1  0  0  0  0
 18 42  1  0  0  0  0
 18 43  1  0  0  0  0
 18 44  1  0  0  0  0
 19 20  1  0  0  0  0
 19 21  1  0  0  0  0
 20 45  1  0  0  0  0
 20 46  1  0  0  0  0
 20 47  1  0  0  0  0
M  END
> <s_m_source_file>
AV-unprocessed.smi

> <i_m_source_file_index>
674

> <i_lp_mmshare_version>
43012

> <i_f3d_flags>
0

> <s_epik_input>
W0NIM11bQ0gyXWMxW2NIXWMobihuMSlbQ0gzXSlbTkhdQyg9TylbTkhdW0NAQEhdKEMyKFtDSDNdKVtDSDNdKVtDSDJdW0NAQF0yKFtDSDNdKU9bQ0gzXQ==

> <s_epik_cmdline>
J2VwaWtfcHl0aG9uJywgJy1waCcsICc3LjAnLCAnLXRuJywgJzgnLCAnLW1hJywgJzIwMCcsICctbWV0YWxfYmluZGluZycsICctaW1hZScsICc8aW5maWxlLm1hZT4nLCAnLW9tYWUnLCAnPG91dGZpbGUubWFlPic=

> <r_lp_tautomer_probability>
1

> <r_epik_Ionization_Penalty>
0.000101626

> <r_epik_Ionization_Penalty_Charging>
0

> <r_epik_Ionization_Penalty_Neutral>
0.000101626

> <r_epik_State_Penalty>
-0

> <r_epik_Charging_Adjusted_Penalty>
0

> <i_epik_Tot_Q>
0

> <i_epik_Tot_abs_Q>
0

> <r_epik_Metal_State_Penalty>
-0

> <b_epik_Metal_Only>
0

> <s_lp_Force_Field>
OPLS_2005

> <r_lp_Energy>
22.7899

> <b_lp_Chiralities_Consistent>
1

> <s_lp_Variant>
AV-unprocessed.smi:674-4

> <Gold.Version>
5.8.1

> <Gold.Id.Protein>
6NUR|6NUR_protein|mol2

> <Gold.PLP.Fitness>
45.5080

> <Gold.PLP.PLP>
-40.6696

> <Gold.PLP.part.hbond>
-2.0000

> <Gold.PLP.part.metal>
0.0000

> <Gold.PLP.part.buried>
-9.0762

> <Gold.PLP.part.nonpolar>
-32.4887

> <Gold.PLP.part.repulsive>
2.1068

> <Gold.PLP.ligand.clash>
0.0000

> <Gold.PLP.ligand.torsion>
0.7711

> <Gold.PLP.Chemscore.Hbond>
2.0000

> <Gold.PLP.Chemscore.CHOScore>
0.0000

> <Gold.PLP.Chemscore.Metal>
0.0000

> <Gold.Chemscore.Hbonds>
donor molecule, donor type, donor heavy atom, donor atom, acceptor molecule, acceptor atom, score
      L1  H     6    28       P1  8028  0.99
      L1  H     9    29       P1  8028  1.00

> <Gold.PLP.Chemscore.Internal.Correction>
0.3806

> <Gold.Rescore>
     Score         DG    S(hbond)    S(metal)    S(lipo)     H(rot)  DE(clash)    DE(int)     intcor
     13.50     -20.60       1.86        0.00     105.94       1.37       4.23       2.87       ----

> <Gold.Chemscore.Fitness>
13.5012

> <Gold.Chemscore.DG>
-20.5999

> <Gold.Chemscore.ZeroCoef>
-5.4800

> <Gold.Chemscore.Hbond>
1.8627

> <Gold.Chemscore.Metal>
0.0000

> <Gold.Chemscore.Lipo>
105.9387

> <Gold.Chemscore.Internal_Hbond>
0.0000

> <Gold.Chemscore.DEClash>
4.2254

> <Gold.Chemscore.DEInternal>
2.8733

> <Gold.Chemscore.Rot>
1.3658

> <Gold.Chemscore.Internal.Correction>
   9.000000E+99

> <Gold.Chemscore.Hbonds>
donor molecule, donor type, donor heavy atom, donor atom, acceptor molecule, acceptor atom, score
      L1  H     6    28       P1  8028  0.91
      L1  H     9    29       P1  8028  0.99

> <Gold.Chemscore.Hbond.Weighted>
-6.2214

> <Gold.Chemscore.Metal.Weighted>
-0.0000

> <Gold.Chemscore.Lipo.Weighted>
-12.3948

> <Gold.Chemscore.Internal_Hbond.Weighted>
0.0000

> <Gold.Chemscore.DEClash.Weighted>
4.2254

> <Gold.Chemscore.DEInternal.Weighted>
2.8733

> <Gold.Chemscore.Rot.Weighted>
3.4963

> <Gold.Chemscore.Internal.Correction.Weighted>
   9.000000E+99

> <Gold.Protein.RotatedTorsions>
[ 6907 6896 6895 6894 ] final    6.91 input  -60.11 | X-H torsion
[ 7974 7965 7964 7962 ] final -103.11 input  175.53 | X-H torsion
[ 8008 7997 7996 7995 ] final   38.80 input   59.86 | X-H torsion
[ 10167 10162 10161 10158 ] final  -92.49 input  -65.29 | X-H torsion
[ 10718 10713 10712 10709 ] final  154.75 input   66.30 | X-H torsion
[ 10763 10752 10751 10750 ] final   31.74 input  -60.55 | X-H torsion
[ 11005 11000 10999 10996 ] final  130.64 input  -57.11 | X-H torsion

> <Gold.Protein.ActiveResidues>
 VAL166  LYS551  ARG553  GLY616  TRP617  ASP618  TYR619  PRO620  LYS621  CYS622 
 ASP623  PHE694  ASN695  SER759  ASP760  ASP761  ALA762  ILE779  LEU786  VAL792 
 PHE793  MET794  SER795  GLU796  ALA797  LYS798  CYS799  TRP800  GLU811  SER814 

> <Gold.Protein.RotatedAtoms>
  151.6814  135.0961  160.0216 H   0  0  0  0  0  0  0  0  0  0  0  0  # atno 6907 bound_to 6896
  152.3833  133.6572  159.6187 H   0  0  0  0  0  0  0  0  0  0  0  0  # atno 6908 bound_to 6896
  150.7765  133.8994  159.3378 H   0  0  0  0  0  0  0  0  0  0  0  0  # atno 6909 bound_to 6896
  145.2601  140.9266  143.3046 H   0  0  0  0  0  0  0  0  0  0  0  0  # atno 7974 bound_to 7965
  155.2262  140.3335  155.4309 H   0  0  0  0  0  0  0  0  0  0  0  0  # atno 8008 bound_to 7997
  156.2313  140.1852  156.7281 H   0  0  0  0  0  0  0  0  0  0  0  0  # atno 8009 bound_to 7997
  154.5983  140.0627  156.9319 H   0  0  0  0  0  0  0  0  0  0  0  0  # atno 8010 bound_to 7997
  140.3343  143.2977  151.9907 H   0  0  0  0  0  0  0  0  0  0  0  0  # atno 10167 bound_to 10162
  157.2275  131.0732  151.1874 H   0  0  0  0  0  0  0  0  0  0  0  0  # atno 10718 bound_to 10713
  153.0299  135.6431  154.1246 H   0  0  0  0  0  0  0  0  0  0  0  0  # atno 10763 bound_to 10752
  154.0970  135.2862  155.3261 H   0  0  0  0  0  0  0  0  0  0  0  0  # atno 10764 bound_to 10752
  154.6425  135.5454  153.7869 H   0  0  0  0  0  0  0  0  0  0  0  0  # atno 10765 bound_to 10752
  139.9684  134.9584  156.9323 H   0  0  0  0  0  0  0  0  0  0  0  0  # atno 11005 bound_to 11000
  144.9426  139.4172  143.6441 LP  0  0  0  0  0  0  0  0  0  0  0  0  # atno 17320 bound_to 7965
  146.3278  139.8393  142.8893 LP  0  0  0  0  0  0  0  0  0  0  0  0  # atno 17321 bound_to 7965
  139.4851  144.6209  151.7256 LP  0  0  0  0  0  0  0  0  0  0  0  0  # atno 17342 bound_to 10162
  140.5368  144.0642  150.6073 LP  0  0  0  0  0  0  0  0  0  0  0  0  # atno 17343 bound_to 10162
  157.3512  130.7083  149.6442 LP  0  0  0  0  0  0  0  0  0  0  0  0  # atno 17370 bound_to 10713
  155.9677  130.4252  150.4642 LP  0  0  0  0  0  0  0  0  0  0  0  0  # atno 17371 bound_to 10713
  140.5347  134.0779  155.7325 LP  0  0  0  0  0  0  0  0  0  0  0  0  # atno 17394 bound_to 11000
  141.1363  133.9215  157.2425 LP  0  0  0  0  0  0  0  0  0  0  0  0  # atno 17395 bound_to 11000

$$$$
