AV-unprocessed.smi:1179|AV-procd|sdf|4958|dock3
  -GOLD-   22720 3553D 1   1.00000     0.00000
 Structure written by MMmdl.
 47 48  0  0  0  0  0  0  0  0  2 V2000
  151.1967  141.8069  158.2488 C   0  0  0  0  0  0  0  0  0  0  0  0
  150.7207  141.1900  156.9668 C   0  0  0  0  0  0  0  0  0  0  0  0
  151.1271  139.9608  156.3767 C   0  0  0  0  0  0  0  0  0  0  0  0
  150.3899  139.8763  155.2294 C   0  0  0  0  0  0  0  0  0  0  0  0
  150.3624  138.8157  154.1784 C   0  0  0  0  0  0  0  0  0  0  0  0
  149.6014  141.0122  155.1747 N   0  0  0  0  0  0  0  0  0  0  0  0
  148.6313  141.4091  154.1655 C   0  0  0  0  0  0  0  0  0  0  0  0
  147.5482  140.3438  153.9880 C   0  0  0  0  0  0  0  0  0  0  0  0
  146.8564  140.0013  154.9466 O   0  0  0  0  0  0  0  0  0  0  0  0
  147.4090  139.8289  152.7563 N   0  0  0  0  0  0  0  0  0  0  0  0
  146.4275  138.8203  152.3784 C   0  0  0  0  0  0  0  0  0  0  0  0
  146.4429  137.6285  153.3554 C   0  0  0  0  0  0  0  0  0  0  0  0
  146.4799  136.3209  152.6541 N   0  3  2  0  0  0  0  0  0  0  0  0
  145.4342  136.2195  151.6034 C   0  0  0  0  0  0  0  0  0  0  0  0
  145.5760  134.9160  150.7995 C   0  0  0  0  0  0  0  0  0  0  0  0
  145.5277  133.6846  151.7192 C   0  0  1  0  0  0  0  0  0  0  0  0
  145.7003  132.3785  150.9312 C   0  0  0  0  0  0  0  0  0  0  0  0
  146.5940  133.8326  152.8173 C   0  0  0  0  0  0  0  0  0  0  0  0
  146.4321  135.1581  153.5806 C   0  0  0  0  0  0  0  0  0  0  0  0
  149.8052  141.8136  156.2436 N   0  0  0  0  0  0  0  0  0  0  0  0
  152.0161  141.2330  158.6816 H   0  0  0  0  0  0  0  0  0  0  0  0
  150.3945  141.8479  158.9859 H   0  0  0  0  0  0  0  0  0  0  0  0
  151.5548  142.8241  158.0875 H   0  0  0  0  0  0  0  0  0  0  0  0
  151.8517  139.2478  156.7414 H   0  0  0  0  0  0  0  0  0  0  0  0
  151.0480  138.0052  154.4263 H   0  0  0  0  0  0  0  0  0  0  0  0
  150.6576  139.2195  153.2101 H   0  0  0  0  0  0  0  0  0  0  0  0
  149.3637  138.3907  154.0801 H   0  0  0  0  0  0  0  0  0  0  0  0
  148.1737  142.3576  154.4518 H   0  0  0  0  0  0  0  0  0  0  0  0
  149.1489  141.5805  153.2210 H   0  0  0  0  0  0  0  0  0  0  0  0
  148.0205  140.1723  152.0290 H   0  0  0  0  0  0  0  0  0  0  0  0
  145.4432  139.2890  152.3801 H   0  0  0  0  0  0  0  0  0  0  0  0
  146.6191  138.5038  151.3528 H   0  0  0  0  0  0  0  0  0  0  0  0
  147.2845  137.6951  154.0467 H   0  0  0  0  0  0  0  0  0  0  0  0
  145.5405  137.6853  153.9659 H   0  0  0  0  0  0  0  0  0  0  0  0
  144.4465  136.2727  152.0650 H   0  0  0  0  0  0  0  0  0  0  0  0
  145.5119  137.0670  150.9214 H   0  0  0  0  0  0  0  0  0  0  0  0
  144.7816  134.8575  150.0545 H   0  0  0  0  0  0  0  0  0  0  0  0
  146.5167  134.9295  150.2469 H   0  0  0  0  0  0  0  0  0  0  0  0
  144.5474  133.6557  152.1978 H   0  0  0  0  0  0  0  0  0  0  0  0
  146.6680  132.3410  150.4298 H   0  0  0  0  0  0  0  0  0  0  0  0
  144.9270  132.2740  150.1696 H   0  0  0  0  0  0  0  0  0  0  0  0
  145.6328  131.5119  151.5894 H   0  0  0  0  0  0  0  0  0  0  0  0
  146.5281  132.9980  153.5161 H   0  0  0  0  0  0  0  0  0  0  0  0
  147.5905  133.7869  152.3755 H   0  0  0  0  0  0  0  0  0  0  0  0
  147.2227  135.2315  154.3261 H   0  0  0  0  0  0  0  0  0  0  0  0
  145.4863  135.1632  154.1246 H   0  0  0  0  0  0  0  0  0  0  0  0
  147.3667  136.2791  152.1724 H   0  0  0  0  0  0  0  0  0  0  0  0
  1  2  1  0  0  0  0
  1 21  1  0  0  0  0
  1 22  1  0  0  0  0
  1 23  1  0  0  0  0
  2 20  2  0  0  0  0
  2  3  1  0  0  0  0
  3  4  2  0  0  0  0
  3 24  1  0  0  0  0
  4  5  1  0  0  0  0
  4  6  1  0  0  0  0
  5 25  1  0  0  0  0
  5 26  1  0  0  0  0
  5 27  1  0  0  0  0
  6  7  1  0  0  0  0
  6 20  1  0  0  0  0
  7  8  1  0  0  0  0
  7 28  1  0  0  0  0
  7 29  1  0  0  0  0
  8  9  2  0  0  0  0
  8 10  1  0  0  0  0
 10 11  1  0  0  0  0
 10 30  1  0  0  0  0
 11 12  1  0  0  0  0
 11 31  1  0  0  0  0
 11 32  1  0  0  0  0
 12 13  1  0  0  0  0
 12 33  1  0  0  0  0
 12 34  1  0  0  0  0
 13 19  1  0  0  0  0
 13 14  1  0  0  0  0
 13 47  1  0  0  0  0
 14 15  1  0  0  0  0
 14 35  1  0  0  0  0
 14 36  1  0  0  0  0
 15 16  1  0  0  0  0
 15 37  1  0  0  0  0
 15 38  1  0  0  0  0
 16 17  1  0  0  0  0
 16 18  1  0  0  0  0
 16 39  1  0  0  0  0
 17 40  1  0  0  0  0
 17 41  1  0  0  0  0
 17 42  1  0  0  0  0
 18 19  1  0  0  0  0
 18 43  1  0  0  0  0
 18 44  1  0  0  0  0
 19 45  1  0  0  0  0
 19 46  1  0  0  0  0
M  CHG  1  13   1
M  END
> <s_m_source_file>
AV-unprocessed.smi

> <i_m_source_file_index>
1179

> <i_lp_mmshare_version>
43012

> <i_f3d_flags>
0

> <s_epik_input>
W0NIM11jMVtjSF1jKFtDSDNdKW4objEpW0NIMl1DKD1PKVtOSF1bQ0gyXVtDSDJdTjJbQ0gyXVtDSDJdW0NIXShbQ0gzXSlbQ0gyXVtDSDJdMg==

> <s_epik_cmdline>
J2VwaWtfcHl0aG9uJywgJy1waCcsICc3LjAnLCAnLXRuJywgJzgnLCAnLW1hJywgJzIwMCcsICctbWV0YWxfYmluZGluZycsICctaW1hZScsICc8aW5maWxlLm1hZT4nLCAnLW9tYWUnLCAnPG91dGZpbGUubWFlPic=

> <r_lp_tautomer_probability>
1

> <r_epik_Ionization_Penalty>
0.00206343

> <r_epik_Ionization_Penalty_Charging>
0.00187095

> <r_epik_Ionization_Penalty_Neutral>
0.000192474

> <r_epik_State_Penalty>
-0

> <r_epik_Charging_Adjusted_Penalty>
0.00187095

> <i_epik_Tot_Q>
1

> <i_epik_Tot_abs_Q>
1

> <r_epik_Metal_State_Penalty>
-0

> <b_epik_Metal_Only>
0

> <s_lp_Force_Field>
OPLS_2005

> <r_lp_Energy>
13.8345

> <b_lp_Chiralities_Consistent>
1

> <s_lp_Variant>
AV-unprocessed.smi:1179-1

> <Gold.Version>
5.8.1

> <Gold.Id.Protein>
6NUR|6NUR_protein|mol2

> <Gold.PLP.Fitness>
45.3201

> <Gold.PLP.PLP>
-37.1402

> <Gold.PLP.part.hbond>
-2.0000

> <Gold.PLP.part.metal>
0.0000

> <Gold.PLP.part.buried>
-2.5170

> <Gold.PLP.part.nonpolar>
-32.8610

> <Gold.PLP.part.repulsive>
0.2599

> <Gold.PLP.ligand.clash>
0.0000

> <Gold.PLP.ligand.torsion>
0.4246

> <Gold.PLP.Chemscore.Hbond>
3.0000

> <Gold.PLP.Chemscore.CHOScore>
0.0000

> <Gold.PLP.Chemscore.Metal>
0.0000

> <Gold.Chemscore.Hbonds>
donor molecule, donor type, donor heavy atom, donor atom, acceptor molecule, acceptor atom, score
      L1  H    10    30       P1  7957  0.99
      L1  H    13    47       P1  7948  2.00

> <Gold.PLP.Chemscore.Internal.Correction>
0.0290

> <Gold.Rescore>
     Score         DG    S(hbond)    S(metal)    S(lipo)     H(rot)  DE(clash)    DE(int)     intcor
     15.49     -17.46       1.93        0.00      83.74       1.67       0.02       1.94       ----

> <Gold.Chemscore.Fitness>
15.4902

> <Gold.Chemscore.DG>
-17.4556

> <Gold.Chemscore.ZeroCoef>
-5.4800

> <Gold.Chemscore.Hbond>
1.9288

> <Gold.Chemscore.Metal>
0.0000

> <Gold.Chemscore.Lipo>
83.7379

> <Gold.Chemscore.Internal_Hbond>
0.0000

> <Gold.Chemscore.DEClash>
0.0224

> <Gold.Chemscore.DEInternal>
1.9430

> <Gold.Chemscore.Rot>
1.6657

> <Gold.Chemscore.Internal.Correction>
   9.000000E+99

> <Gold.Chemscore.Hbonds>
donor molecule, donor type, donor heavy atom, donor atom, acceptor molecule, acceptor atom, score
      L1  H    10    30       P1  7957  0.93
      L1  H    13    47       P1  7948  0.99

> <Gold.Chemscore.Hbond.Weighted>
-6.4423

> <Gold.Chemscore.Metal.Weighted>
-0.0000

> <Gold.Chemscore.Lipo.Weighted>
-9.7973

> <Gold.Chemscore.Internal_Hbond.Weighted>
0.0000

> <Gold.Chemscore.DEClash.Weighted>
0.0224

> <Gold.Chemscore.DEInternal.Weighted>
1.9430

> <Gold.Chemscore.Rot.Weighted>
4.2641

> <Gold.Chemscore.Internal.Correction.Weighted>
   9.000000E+99

> <Gold.Protein.RotatedTorsions>
[ 6907 6896 6895 6894 ] final  -16.35 input  -60.11 | X-H torsion
[ 7974 7965 7964 7962 ] final  131.21 input  175.53 | X-H torsion
[ 8008 7997 7996 7995 ] final   75.91 input   59.86 | X-H torsion
[ 10167 10162 10161 10158 ] final -159.24 input  -65.29 | X-H torsion
[ 10718 10713 10712 10709 ] final   97.07 input   66.30 | X-H torsion
[ 10763 10752 10751 10750 ] final  107.08 input  -60.55 | X-H torsion
[ 11005 11000 10999 10996 ] final  172.01 input  -57.11 | X-H torsion

> <Gold.Protein.ActiveResidues>
 VAL166  LYS551  ARG553  GLY616  TRP617  ASP618  TYR619  PRO620  LYS621  CYS622 
 ASP623  PHE694  ASN695  SER759  ASP760  ASP761  ALA762  ILE779  LEU786  VAL792 
 PHE793  MET794  SER795  GLU796  ALA797  LYS798  CYS799  TRP800  GLU811  SER814 

> <Gold.Protein.RotatedAtoms>
  151.3099  135.0791  159.9268 H   0  0  0  0  0  0  0  0  0  0  0  0  # atno 6907 bound_to 6896
  152.5280  133.9747  159.7788 H   0  0  0  0  0  0  0  0  0  0  0  0  # atno 6908 bound_to 6896
  151.0048  133.5969  159.2720 H   0  0  0  0  0  0  0  0  0  0  0  0  # atno 6909 bound_to 6896
  145.0097  139.4232  143.5251 H   0  0  0  0  0  0  0  0  0  0  0  0  # atno 7974 bound_to 7965
  155.8197  140.3470  155.5507 H   0  0  0  0  0  0  0  0  0  0  0  0  # atno 8008 bound_to 7997
  155.8355  140.0933  157.1787 H   0  0  0  0  0  0  0  0  0  0  0  0  # atno 8009 bound_to 7997
  154.4004  140.1404  156.3652 H   0  0  0  0  0  0  0  0  0  0  0  0  # atno 8010 bound_to 7997
  139.6631  143.9878  152.2237 H   0  0  0  0  0  0  0  0  0  0  0  0  # atno 10167 bound_to 10162
  157.6918  131.0598  150.4587 H   0  0  0  0  0  0  0  0  0  0  0  0  # atno 10718 bound_to 10713
  153.4018  135.3856  155.1993 H   0  0  0  0  0  0  0  0  0  0  0  0  # atno 10763 bound_to 10752
  154.8730  135.3773  154.4609 H   0  0  0  0  0  0  0  0  0  0  0  0  # atno 10764 bound_to 10752
  153.5107  135.7087  153.5844 H   0  0  0  0  0  0  0  0  0  0  0  0  # atno 10765 bound_to 10752
  140.3252  134.7404  157.4093 H   0  0  0  0  0  0  0  0  0  0  0  0  # atno 11005 bound_to 11000
  146.3467  139.9533  142.8726 LP  0  0  0  0  0  0  0  0  0  0  0  0  # atno 17320 bound_to 7965
  145.2040  140.9867  143.4139 LP  0  0  0  0  0  0  0  0  0  0  0  0  # atno 17321 bound_to 7965
  139.9622  144.6550  150.8068 LP  0  0  0  0  0  0  0  0  0  0  0  0  # atno 17342 bound_to 10162
  140.7588  143.3115  151.2834 LP  0  0  0  0  0  0  0  0  0  0  0  0  # atno 17343 bound_to 10162
  156.4933  130.4100  149.6394 LP  0  0  0  0  0  0  0  0  0  0  0  0  # atno 17370 bound_to 10713
  156.3397  130.7375  151.2318 LP  0  0  0  0  0  0  0  0  0  0  0  0  # atno 17371 bound_to 10713
  140.0908  134.5604  155.8446 LP  0  0  0  0  0  0  0  0  0  0  0  0  # atno 17394 bound_to 11000
  141.2077  133.6666  156.6322 LP  0  0  0  0  0  0  0  0  0  0  0  0  # atno 17395 bound_to 11000

$$$$
