AV-unprocessed.smi:3135|AV-procd|sdf|11945|dock6
  -GOLD-   2272017333D 1   1.00000     0.00000
 Structure written by MMmdl.
 38 39  0  0  0  0  0  0  0  0  2 V2000
  152.5649  144.9117  158.4069 C   0  0  0  0  0  0  0  0  0  0  0  0
  152.2081  143.4537  158.3646 C   0  0  0  0  0  0  0  0  0  0  0  0
  152.8712  142.3733  159.0131 C   0  0  0  0  0  0  0  0  0  0  0  0
  152.3034  141.2028  158.7727 N   0  0  0  0  0  0  0  0  0  0  0  0
  151.2603  141.4924  157.9654 N   0  0  0  0  0  0  0  0  0  0  0  0
  150.3905  140.4282  157.4937 C   0  0  0  0  0  0  0  0  0  0  0  0
  150.3317  140.3678  155.9644 C   0  0  0  0  0  0  0  0  0  0  0  0
  151.3741  140.3833  155.3102 O   0  0  0  0  0  0  0  0  0  0  0  0
  149.1132  140.3163  155.4009 N   0  0  0  0  0  0  0  0  0  0  0  0
  148.8629  140.2391  153.9667 C   0  0  0  0  0  0  0  0  0  0  0  0
  147.4354  140.7017  153.6173 C   0  0  0  0  0  0  0  0  0  0  0  0
  146.4891  139.5739  153.4229 N   0  3  1  0  0  0  0  0  0  0  0  0
  146.8071  138.8139  152.1925 C   0  0  0  0  0  0  0  0  0  0  0  0
  146.4052  138.6834  154.6062 C   0  0  0  0  0  0  0  0  0  0  0  0
  145.1313  137.8685  154.6768 C   0  0  0  0  0  0  0  0  0  0  0  0
  145.3173  139.0570  155.5890 C   0  0  0  0  0  0  0  0  0  0  0  0
  151.1821  142.8436  157.7004 C   0  0  0  0  0  0  0  0  0  0  0  0
  152.9087  145.2143  159.3959 H   0  0  0  0  0  0  0  0  0  0  0  0
  151.7136  145.5450  158.1562 H   0  0  0  0  0  0  0  0  0  0  0  0
  153.3616  145.1499  157.7019 H   0  0  0  0  0  0  0  0  0  0  0  0
  153.7444  142.4052  159.6483 H   0  0  0  0  0  0  0  0  0  0  0  0
  150.7526  139.4751  157.8810 H   0  0  0  0  0  0  0  0  0  0  0  0
  149.3901  140.5812  157.9027 H   0  0  0  0  0  0  0  0  0  0  0  0
  148.3078  140.3056  156.0104 H   0  0  0  0  0  0  0  0  0  0  0  0
  149.6120  140.8361  153.4457 H   0  0  0  0  0  0  0  0  0  0  0  0
  149.0100  139.2063  153.6497 H   0  0  0  0  0  0  0  0  0  0  0  0
  147.0741  141.3326  154.4310 H   0  0  0  0  0  0  0  0  0  0  0  0
  147.4382  141.3249  152.7217 H   0  0  0  0  0  0  0  0  0  0  0  0
  147.7991  138.3650  152.2580 H   0  0  0  0  0  0  0  0  0  0  0  0
  146.7836  139.4654  151.3183 H   0  0  0  0  0  0  0  0  0  0  0  0
  146.0842  138.0160  152.0225 H   0  0  0  0  0  0  0  0  0  0  0  0
  147.3425  138.2474  154.9477 H   0  0  0  0  0  0  0  0  0  0  0  0
  144.4016  137.9676  153.8751 H   0  0  0  0  0  0  0  0  0  0  0  0
  145.1927  136.8805  155.1285 H   0  0  0  0  0  0  0  0  0  0  0  0
  145.5029  138.8545  156.6418 H   0  0  0  0  0  0  0  0  0  0  0  0
  144.7155  139.9408  155.3849 H   0  0  0  0  0  0  0  0  0  0  0  0
  150.4093  143.2558  157.0683 H   0  0  0  0  0  0  0  0  0  0  0  0
  145.5726  139.9749  153.2842 H   0  0  0  0  0  0  0  0  0  0  0  0
  1  2  1  0  0  0  0
  1 18  1  0  0  0  0
  1 19  1  0  0  0  0
  1 20  1  0  0  0  0
  2 17  2  0  0  0  0
  2  3  1  0  0  0  0
  3  4  2  0  0  0  0
  3 21  1  0  0  0  0
  4  5  1  0  0  0  0
  5  6  1  0  0  0  0
  5 17  1  0  0  0  0
  6  7  1  0  0  0  0
  6 22  1  0  0  0  0
  6 23  1  0  0  0  0
  7  8  2  0  0  0  0
  7  9  1  0  0  0  0
  9 10  1  0  0  0  0
  9 24  1  0  0  0  0
 10 11  1  0  0  0  0
 10 25  1  0  0  0  0
 10 26  1  0  0  0  0
 11 12  1  0  0  0  0
 11 27  1  0  0  0  0
 11 28  1  0  0  0  0
 12 13  1  0  0  0  0
 12 14  1  0  0  0  0
 12 38  1  0  0  0  0
 13 29  1  0  0  0  0
 13 30  1  0  0  0  0
 13 31  1  0  0  0  0
 14 16  1  0  0  0  0
 14 15  1  0  0  0  0
 14 32  1  0  0  0  0
 15 16  1  0  0  0  0
 15 33  1  0  0  0  0
 15 34  1  0  0  0  0
 16 35  1  0  0  0  0
 16 36  1  0  0  0  0
 17 37  1  0  0  0  0
M  CHG  1  12   1
M  END
> <s_m_source_file>
AV-unprocessed.smi

> <i_m_source_file_index>
3135

> <i_lp_mmshare_version>
43012

> <i_f3d_flags>
0

> <s_epik_input>
W0NIM11jMVtjSF1ubihbY0hdMSlbQ0gyXUMoPU8pW05IXVtDSDJdW0NIMl1OKFtDSDNdKVtDSF0yW0NIMl1bQ0gyXTI=

> <s_epik_cmdline>
J2VwaWtfcHl0aG9uJywgJy1waCcsICc3LjAnLCAnLXRuJywgJzgnLCAnLW1hJywgJzIwMCcsICctbWV0YWxfYmluZGluZycsICctaW1hZScsICc8aW5maWxlLm1hZT4nLCAnLW9tYWUnLCAnPG91dGZpbGUubWFlPic=

> <r_lp_tautomer_probability>
1

> <r_epik_Ionization_Penalty>
0.174318

> <r_epik_Ionization_Penalty_Charging>
0.174302

> <r_epik_Ionization_Penalty_Neutral>
1.62778e-05

> <r_epik_State_Penalty>
0.163722

> <r_epik_Charging_Adjusted_Penalty>
0.338024

> <i_epik_Tot_Q>
1

> <i_epik_Tot_abs_Q>
1

> <r_epik_Metal_State_Penalty>
0.163727

> <b_epik_Metal_Only>
0

> <s_lp_Force_Field>
OPLS_2005

> <r_lp_Energy>
17.6271

> <b_lp_Chiralities_Consistent>
1

> <s_lp_Variant>
AV-unprocessed.smi:3135-1

> <Gold.Version>
5.8.1

> <Gold.Id.Protein>
6NUR|6NUR_protein|mol2

> <Gold.PLP.Fitness>
42.8999

> <Gold.PLP.PLP>
-32.2398

> <Gold.PLP.part.hbond>
-2.0000

> <Gold.PLP.part.metal>
0.0000

> <Gold.PLP.part.buried>
-1.0530

> <Gold.PLP.part.nonpolar>
-28.6344

> <Gold.PLP.part.repulsive>
0.1043

> <Gold.PLP.ligand.clash>
0.0000

> <Gold.PLP.ligand.torsion>
1.1964

> <Gold.PLP.Chemscore.Hbond>
2.9120

> <Gold.PLP.Chemscore.CHOScore>
1.0000

> <Gold.PLP.Chemscore.Metal>
0.0000

> <Gold.Chemscore.Hbonds>
donor molecule, donor type, donor heavy atom, donor atom, acceptor molecule, acceptor atom, score
      L1  H    12    38       P1 10175  1.56
      P1  H  7989  7998       L1     8  0.94
      L1  C    17    37       P1  8028  1.00

> <Gold.PLP.Chemscore.Internal.Correction>
1.3169

> <Gold.Rescore>
     Score         DG    S(hbond)    S(metal)    S(lipo)     H(rot)  DE(clash)    DE(int)     intcor
     14.14     -16.56       1.96        0.00      81.49       1.96       1.34       1.09       ----

> <Gold.Chemscore.Fitness>
14.1367

> <Gold.Chemscore.DG>
-16.5613

> <Gold.Chemscore.ZeroCoef>
-5.4800

> <Gold.Chemscore.Hbond>
1.9621

> <Gold.Chemscore.Metal>
0.0000

> <Gold.Chemscore.Lipo>
81.4866

> <Gold.Chemscore.Internal_Hbond>
0.0000

> <Gold.Chemscore.DEClash>
1.3393

> <Gold.Chemscore.DEInternal>
1.0853

> <Gold.Chemscore.Rot>
1.9555

> <Gold.Chemscore.Internal.Correction>
   9.000000E+99

> <Gold.Chemscore.Hbonds>
donor molecule, donor type, donor heavy atom, donor atom, acceptor molecule, acceptor atom, score
      L1  H    12    38       P1 10175  0.77
      P1  H  7989  7998       L1     8  0.91

> <Gold.Chemscore.Hbond.Weighted>
-6.5534

> <Gold.Chemscore.Metal.Weighted>
-0.0000

> <Gold.Chemscore.Lipo.Weighted>
-9.5339

> <Gold.Chemscore.Internal_Hbond.Weighted>
0.0000

> <Gold.Chemscore.DEClash.Weighted>
1.3393

> <Gold.Chemscore.DEInternal.Weighted>
1.0853

> <Gold.Chemscore.Rot.Weighted>
5.0060

> <Gold.Chemscore.Internal.Correction.Weighted>
   9.000000E+99

> <Gold.Protein.RotatedTorsions>
[ 6907 6896 6895 6894 ] final  107.86 input  -60.11 | X-H torsion
[ 7974 7965 7964 7962 ] final -109.13 input  175.53 | X-H torsion
[ 8008 7997 7996 7995 ] final   34.26 input   59.86 | X-H torsion
[ 10167 10162 10161 10158 ] final -164.30 input  -65.29 | X-H torsion
[ 10718 10713 10712 10709 ] final   52.04 input   66.30 | X-H torsion
[ 10763 10752 10751 10750 ] final -132.61 input  -60.55 | X-H torsion
[ 11005 11000 10999 10996 ] final   73.64 input  -57.11 | X-H torsion

> <Gold.Protein.ActiveResidues>
 VAL166  LYS551  ARG553  GLY616  TRP617  ASP618  TYR619  PRO620  LYS621  CYS622 
 ASP623  PHE694  ASN695  SER759  ASP760  ASP761  ALA762  ILE779  LEU786  VAL792 
 PHE793  MET794  SER795  GLU796  ALA797  LYS798  CYS799  TRP800  GLU811  SER814 

> <Gold.Protein.RotatedAtoms>
  152.5137  133.9174  159.7517 H   0  0  0  0  0  0  0  0  0  0  0  0  # atno 6907 bound_to 6896
  150.9553  133.6496  159.2771 H   0  0  0  0  0  0  0  0  0  0  0  0  # atno 6908 bound_to 6896
  151.3760  135.0936  159.9533 H   0  0  0  0  0  0  0  0  0  0  0  0  # atno 6909 bound_to 6896
  145.1843  140.8985  143.3461 H   0  0  0  0  0  0  0  0  0  0  0  0  # atno 7974 bound_to 7965
  155.1519  140.3275  155.4429 H   0  0  0  0  0  0  0  0  0  0  0  0  # atno 8008 bound_to 7997
  156.2571  140.1975  156.6581 H   0  0  0  0  0  0  0  0  0  0  0  0  # atno 8009 bound_to 7997
  154.6467  140.0563  156.9894 H   0  0  0  0  0  0  0  0  0  0  0  0  # atno 8010 bound_to 7997
  139.6260  144.0531  152.1975 H   0  0  0  0  0  0  0  0  0  0  0  0  # atno 10167 bound_to 10162
  157.5038  130.8455  149.8349 H   0  0  0  0  0  0  0  0  0  0  0  0  # atno 10718 bound_to 10713
  154.8741  135.3792  154.4437 H   0  0  0  0  0  0  0  0  0  0  0  0  # atno 10763 bound_to 10752
  153.5120  135.7029  153.5781 H   0  0  0  0  0  0  0  0  0  0  0  0  # atno 10764 bound_to 10752
  153.4066  135.3935  155.1989 H   0  0  0  0  0  0  0  0  0  0  0  0  # atno 10765 bound_to 10752
  139.9430  134.7365  156.1051 H   0  0  0  0  0  0  0  0  0  0  0  0  # atno 11005 bound_to 11000
  145.0105  139.3515  143.6122 LP  0  0  0  0  0  0  0  0  0  0  0  0  # atno 17320 bound_to 7965
  146.3447  139.9365  142.8746 LP  0  0  0  0  0  0  0  0  0  0  0  0  # atno 17321 bound_to 7965
  140.0184  144.6171  150.7587 LP  0  0  0  0  0  0  0  0  0  0  0  0  # atno 17342 bound_to 10162
  140.7411  143.2814  151.3588 LP  0  0  0  0  0  0  0  0  0  0  0  0  # atno 17343 bound_to 10162
  156.0245  130.3784  150.1862 LP  0  0  0  0  0  0  0  0  0  0  0  0  # atno 17370 bound_to 10713
  157.0052  130.9934  151.3380 LP  0  0  0  0  0  0  0  0  0  0  0  0  # atno 17371 bound_to 10713
  141.1071  133.6656  156.2889 LP  0  0  0  0  0  0  0  0  0  0  0  0  # atno 17394 bound_to 11000
  140.5905  134.5655  157.5498 LP  0  0  0  0  0  0  0  0  0  0  0  0  # atno 17395 bound_to 11000

$$$$
