#       Name:                AV-unprocessed.smi:1274
#       Creating user name   scv26
#       Creation time:       Fri Mar 27 04:47:13 2020


#       File generated by GOLD software.
#

@<TRIPOS>MOLECULE
AV-unprocessed.smi:1274
    40    41     1
SMALL
NO_CHARGES


@<TRIPOS>ATOM
      1 ****         1.1562   1.8225   1.1305 O.2            1 S1                 0.0000
      2 ****         0.7266   1.8861  -0.2746 S.o2           1 S1                 0.0000
      3 ****         1.0775   3.0368  -1.1212 O.2            1 S1                 0.0000
      4 ****         1.2377   0.4539  -1.0904 N.3            1 S1                 0.0000
      5 ****         2.6649   0.1472  -1.2066 C.3            1 S1                 0.0000
      6 ****         3.2206  -0.4782   0.0855 C.3            1 S1                 0.0000
      7 ****         2.4878  -1.7452   0.4902 C.ar           1 S1                 0.0000
      8 ****         2.7612  -2.9737  -0.1452 C.ar           1 S1                 0.0000
      9 ****         2.0416  -4.1173   0.2516 C.ar           1 S1                 0.0000
     10 ****         1.0765  -3.9826   1.2697 C.ar           1 S1                 0.0000
     11 ****         0.8072  -2.8119   1.8866 N.ar           1 S1                 0.0000
     12 ****         1.5034  -1.7209   1.5017 C.ar           1 S1                 0.0000
     13 ****        -0.9878   1.6435  -0.3318 N.3            1 S1                 0.0000
     14 ****        -1.5226   0.4508   0.3613 C.3            1 S1                 0.0000
     15 ****        -2.9745   0.1590  -0.0511 C.3            1 S1                 0.0000
     16 ****        -3.8681   1.3823   0.1686 C.3            1 S1                 0.0000
     17 ****        -3.2880   2.5733  -0.5987 C.3            1 S1                 0.0000
     18 ****        -1.8309   2.8475  -0.1892 C.3            1 S1                 0.0000
     19 ****         0.7300   0.3092  -1.9629 H              1 S1                 0.0000
     20 ****         2.8004  -0.5457  -2.0375 H              1 S1                 0.0000
     21 ****         3.2109   1.0559  -1.4616 H              1 S1                 0.0000
     22 ****         4.2755  -0.7175  -0.0538 H              1 S1                 0.0000
     23 ****         3.1872   0.2393   0.9051 H              1 S1                 0.0000
     24 ****         3.5049  -3.0384  -0.9259 H              1 S1                 0.0000
     25 ****         2.2228  -5.0746  -0.2143 H              1 S1                 0.0000
     26 ****         0.5050  -4.8384   1.5972 H              1 S1                 0.0000
     27 ****         1.2592  -0.8001   2.0105 H              1 S1                 0.0000
     28 ****        -0.9063  -0.4197   0.1398 H              1 S1                 0.0000
     29 ****        -1.4609   0.6109   1.4385 H              1 S1                 0.0000
     30 ****        -3.0044  -0.1348  -1.1012 H              1 S1                 0.0000
     31 ****        -3.3575  -0.6886   0.5175 H              1 S1                 0.0000
     32 ****        -4.8844   1.1740  -0.1670 H              1 S1                 0.0000
     33 ****        -3.9271   1.6157   1.2324 H              1 S1                 0.0000
     34 ****        -3.3349   2.3762  -1.6705 H              1 S1                 0.0000
     35 ****        -3.8957   3.4610  -0.4210 H              1 S1                 0.0000
     36 ****        -1.7846   3.1907   0.8453 H              1 S1                 0.0000
     37 ****        -1.4292   3.6513  -0.8064 H              1 S1                 0.0000
     38 ****         0.9758  -0.2403  -0.4200 LP             1 S1                 0.0000
     39 ****         0.1144  -2.7548   2.6054 LP             1 S1                 0.0000
     40 ****        -1.0802   1.4025  -1.2979 LP             1 S1                 0.0000
@<TRIPOS>BOND
    1    1    2 2     
    2    2    3 2     
    3    2    4 1     
    4    2   13 1     
    5    4    5 1     
    6    4   19 1     
    7    5    6 1     
    8    5   20 1     
    9    5   21 1     
   10    6    7 1     
   11    6   22 1     
   12    6   23 1     
   13    7   12 ar    
   14    7    8 ar    
   15    8    9 ar    
   16    8   24 1     
   17    9   10 ar    
   18    9   25 1     
   19   10   11 ar    
   20   10   26 1     
   21   11   12 ar    
   22   12   27 1     
   23   13   18 1     
   24   13   14 1     
   25   14   15 1     
   26   14   28 1     
   27   14   29 1     
   28   15   16 1     
   29   15   30 1     
   30   15   31 1     
   31   16   17 1     
   32   16   32 1     
   33   16   33 1     
   34   17   18 1     
   35   17   34 1     
   36   17   35 1     
   37   18   36 1     
   38   18   37 1     
   39    4   38 1     
   40   11   39 1     
   41   13   40 1     
@<TRIPOS>SUBSTRUCTURE
      1 S1             1
@<TRIPOS>SET
LONE_PAIRS      STATIC     ATOMS    <user>   **** ""
5 1 3 38 39 40
DONOR_HYDROGENS      STATIC     ATOMS    <user>   **** ""
1 19
ATOM$BLUE        STATIC     ATOMS    COLORGROUP SYSTEM
5 1 3 38 39 40
ATOM$RED        STATIC     ATOMS    COLORGROUP SYSTEM
1 19
