AV-unprocessed.smi:1768|AV-procd|sdf|7147|dock2
  -GOLD-   22720 8383D 1   1.00000     0.00000
 Structure written by MMmdl.
 32 33  0  0  0  0  0  0  0  0  2 V2000
  152.9443  142.8606  162.8471 C   0  0  0  0  0  0  0  0  0  0  0  0
  152.7545  142.1162  161.5703 C   0  0  0  0  0  0  0  0  0  0  0  0
  151.5996  142.1161  160.9005 N   0  0  0  0  0  0  0  0  0  0  0  0
  151.6675  141.3559  159.7417 N   0  0  0  0  0  0  0  0  0  0  0  0
  152.8718  140.8002  159.5471 C   0  0  0  0  0  0  0  0  0  0  0  0
  153.1430  140.0241  158.4847 N   0  5  0  0  0  0  0  0  0  0  0  0
  152.1458  139.3522  157.8650 C   0  0  0  0  0  0  0  0  0  0  0  0
  151.1431  138.8780  158.4032 O   0  0  0  0  0  0  0  0  0  0  0  0
  152.3241  139.2310  156.5412 N   0  0  0  0  0  0  0  0  0  0  0  0
  151.4230  138.5830  155.5886 C   0  0  2  0  0  0  0  0  0  0  0  0
  152.1496  138.4112  154.2469 C   0  0  0  0  0  0  0  0  0  0  0  0
  150.1317  139.4109  155.4438 C   0  0  2  0  0  0  0  0  0  0  0  0
  149.1621  138.9032  154.3772 C   0  0  0  0  0  0  0  0  0  0  0  0
  148.3177  140.1288  154.0820 C   0  0  0  0  0  0  0  0  0  0  0  0
  149.2212  141.3007  154.4797 C   0  0  0  0  0  0  0  0  0  0  0  0
  150.4215  140.7204  154.9774 O   0  0  0  0  0  0  0  0  0  0  0  0
  154.0304  141.1680  160.8251 S   0  0  0  0  0  0  0  0  0  0  0  0
  152.8206  143.9303  162.6773 H   0  0  0  0  0  0  0  0  0  0  0  0
  153.9434  142.6831  163.2452 H   0  0  0  0  0  0  0  0  0  0  0  0
  152.2113  142.5339  163.5850 H   0  0  0  0  0  0  0  0  0  0  0  0
  153.1632  139.6402  156.1573 H   0  0  0  0  0  0  0  0  0  0  0  0
  151.1452  137.5895  155.9439 H   0  0  0  0  0  0  0  0  0  0  0  0
  151.5131  137.9128  153.5153 H   0  0  0  0  0  0  0  0  0  0  0  0
  153.0493  137.8065  154.3645 H   0  0  0  0  0  0  0  0  0  0  0  0
  152.4467  139.3737  153.8293 H   0  0  0  0  0  0  0  0  0  0  0  0
  149.6158  139.4850  156.4034 H   0  0  0  0  0  0  0  0  0  0  0  0
  149.7099  138.6066  153.4816 H   0  0  0  0  0  0  0  0  0  0  0  0
  148.5707  138.0496  154.7101 H   0  0  0  0  0  0  0  0  0  0  0  0
  148.0140  140.1712  153.0357 H   0  0  0  0  0  0  0  0  0  0  0  0
  147.4154  140.1273  154.6949 H   0  0  0  0  0  0  0  0  0  0  0  0
  149.4433  141.9546  153.6359 H   0  0  0  0  0  0  0  0  0  0  0  0
  148.7529  141.9014  155.2603 H   0  0  0  0  0  0  0  0  0  0  0  0
  1  2  1  0  0  0  0
  1 18  1  0  0  0  0
  1 19  1  0  0  0  0
  1 20  1  0  0  0  0
  2 17  1  0  0  0  0
  2  3  2  0  0  0  0
  3  4  1  0  0  0  0
  4  5  2  0  0  0  0
  5  6  1  0  0  0  0
  5 17  1  0  0  0  0
  6  7  1  0  0  0  0
  7  8  2  0  0  0  0
  7  9  1  0  0  0  0
  9 10  1  0  0  0  0
  9 21  1  0  0  0  0
 10 11  1  0  0  0  0
 10 12  1  0  0  0  0
 10 22  1  0  0  0  0
 11 23  1  0  0  0  0
 11 24  1  0  0  0  0
 11 25  1  0  0  0  0
 12 16  1  0  0  0  0
 12 13  1  0  0  0  0
 12 26  1  0  0  0  0
 13 14  1  0  0  0  0
 13 27  1  0  0  0  0
 13 28  1  0  0  0  0
 14 15  1  0  0  0  0
 14 29  1  0  0  0  0
 14 30  1  0  0  0  0
 15 16  1  0  0  0  0
 15 31  1  0  0  0  0
 15 32  1  0  0  0  0
M  CHG  1   6  -1
M  END
> <s_m_source_file>
AV-unprocessed.smi

> <i_m_source_file_index>
1768

> <i_lp_mmshare_version>
43012

> <i_f3d_flags>
0

> <s_epik_input>
W0NIM11jMW5uYyhzMSlbTkhdQyg9TylbTkhdW0NASF0oW0NIM10pW0NAQEhdMltDSDJdW0NIMl1bQ0gyXU8y

> <s_epik_cmdline>
J2VwaWtfcHl0aG9uJywgJy1waCcsICc3LjAnLCAnLXRuJywgJzgnLCAnLW1hJywgJzIwMCcsICctbWV0YWxfYmluZGluZycsICctaW1hZScsICc8aW5maWxlLm1hZT4nLCAnLW9tYWUnLCAnPG91dGZpbGUubWFlPic=

> <r_lp_tautomer_probability>
1

> <r_epik_Ionization_Penalty>
4.3376

> <r_epik_Ionization_Penalty_Charging>
4.19392

> <r_epik_Ionization_Penalty_Neutral>
0.143681

> <r_epik_State_Penalty>
4.19342

> <r_epik_Charging_Adjusted_Penalty>
8.38735

> <i_epik_Tot_Q>
-1

> <i_epik_Tot_abs_Q>
1

> <r_epik_Metal_State_Penalty>
0.686065

> <b_epik_Metal_Only>
1

> <s_lp_Force_Field>
OPLS_2005

> <r_lp_Energy>
15.5769

> <b_lp_Chiralities_Consistent>
1

> <s_lp_Variant>
AV-unprocessed.smi:1768-5

> <Gold.Version>
5.8.1

> <Gold.Id.Protein>
6NUR|6NUR_protein|mol2

> <Gold.PLP.Fitness>
41.6963

> <Gold.PLP.PLP>
-33.3766

> <Gold.PLP.part.hbond>
-3.1970

> <Gold.PLP.part.metal>
0.0000

> <Gold.PLP.part.buried>
-3.8970

> <Gold.PLP.part.nonpolar>
-26.3144

> <Gold.PLP.part.repulsive>
0.2693

> <Gold.PLP.ligand.clash>
0.0000

> <Gold.PLP.ligand.torsion>
0.5003

> <Gold.PLP.Chemscore.Hbond>
3.0898

> <Gold.PLP.Chemscore.CHOScore>
0.0000

> <Gold.PLP.Chemscore.Metal>
0.0000

> <Gold.Chemscore.Hbonds>
donor molecule, donor type, donor heavy atom, donor atom, acceptor molecule, acceptor atom, score
      P1  H  6933  6945       L1     3  0.25
      P1  H  7989  7998       L1    16  0.88
      P1  H  7997  8009       L1     6  1.92

> <Gold.PLP.Chemscore.Internal.Correction>
0.0508

> <Gold.Rescore>
     Score         DG    S(hbond)    S(metal)    S(lipo)     H(rot)  DE(clash)    DE(int)     intcor
     14.55     -16.55       1.90        0.00      68.24       1.28       0.05       1.95       ----

> <Gold.Chemscore.Fitness>
14.5523

> <Gold.Chemscore.DG>
-16.5465

> <Gold.Chemscore.ZeroCoef>
-5.4800

> <Gold.Chemscore.Hbond>
1.9023

> <Gold.Chemscore.Metal>
0.0000

> <Gold.Chemscore.Lipo>
68.2352

> <Gold.Chemscore.Internal_Hbond>
0.0000

> <Gold.Chemscore.DEClash>
0.0458

> <Gold.Chemscore.DEInternal>
1.9483

> <Gold.Chemscore.Rot>
1.2776

> <Gold.Chemscore.Internal.Correction>
   9.000000E+99

> <Gold.Chemscore.Hbonds>
donor molecule, donor type, donor heavy atom, donor atom, acceptor molecule, acceptor atom, score
      P1  H  6933  6945       L1     3  0.17
      P1  H  7989  7998       L1    16  0.33
      P1  H  7997  8009       L1     6  0.30

> <Gold.Chemscore.Hbond.Weighted>
-6.3535

> <Gold.Chemscore.Metal.Weighted>
-0.0000

> <Gold.Chemscore.Lipo.Weighted>
-7.9835

> <Gold.Chemscore.Internal_Hbond.Weighted>
0.0000

> <Gold.Chemscore.DEClash.Weighted>
0.0458

> <Gold.Chemscore.DEInternal.Weighted>
1.9483

> <Gold.Chemscore.Rot.Weighted>
3.2706

> <Gold.Chemscore.Internal.Correction.Weighted>
   9.000000E+99

> <Gold.Protein.RotatedTorsions>
[ 6907 6896 6895 6894 ] final  -34.80 input  -60.11 | X-H torsion
[ 7974 7965 7964 7962 ] final  -31.32 input  175.53 | X-H torsion
[ 8008 7997 7996 7995 ] final  154.51 input   59.86 | X-H torsion
[ 10167 10162 10161 10158 ] final   18.96 input  -65.29 | X-H torsion
[ 10718 10713 10712 10709 ] final  -34.10 input   66.30 | X-H torsion
[ 10763 10752 10751 10750 ] final  -96.79 input  -60.55 | X-H torsion
[ 11005 11000 10999 10996 ] final  -39.44 input  -57.11 | X-H torsion

> <Gold.Protein.ActiveResidues>
 VAL166  LYS551  ARG553  GLY616  TRP617  ASP618  TYR619  PRO620  LYS621  CYS622 
 ASP623  PHE694  ASN695  SER759  ASP760  ASP761  ALA762  ILE779  LEU786  VAL792 
 PHE793  MET794  SER795  GLU796  ALA797  LYS798  CYS799  TRP800  GLU811  SER814 

> <Gold.Protein.RotatedAtoms>
  151.0480  134.9653  159.8196 H   0  0  0  0  0  0  0  0  0  0  0  0  # atno 6907 bound_to 6896
  152.5376  134.2573  159.8932 H   0  0  0  0  0  0  0  0  0  0  0  0  # atno 6908 bound_to 6896
  151.2588  133.4270  159.2649 H   0  0  0  0  0  0  0  0  0  0  0  0  # atno 6909 bound_to 6896
  146.1076  140.5652  142.8792 H   0  0  0  0  0  0  0  0  0  0  0  0  # atno 7974 bound_to 7965
  156.2527  140.1964  156.6658 H   0  0  0  0  0  0  0  0  0  0  0  0  # atno 8008 bound_to 7997
  154.6430  140.0581  156.9893 H   0  0  0  0  0  0  0  0  0  0  0  0  # atno 8009 bound_to 7997
  155.1534  140.3253  155.4429 H   0  0  0  0  0  0  0  0  0  0  0  0  # atno 8010 bound_to 7997
  140.5615  143.9329  150.6646 H   0  0  0  0  0  0  0  0  0  0  0  0  # atno 10167 bound_to 10162
  156.3547  130.4314  149.7674 H   0  0  0  0  0  0  0  0  0  0  0  0  # atno 10718 bound_to 10713
  154.7271  135.5070  153.8904 H   0  0  0  0  0  0  0  0  0  0  0  0  # atno 10763 bound_to 10752
  153.0915  135.6660  153.9853 H   0  0  0  0  0  0  0  0  0  0  0  0  # atno 10764 bound_to 10752
  153.9663  135.3043  155.3409 H   0  0  0  0  0  0  0  0  0  0  0  0  # atno 10765 bound_to 10752
  141.0102  133.6912  156.2187 H   0  0  0  0  0  0  0  0  0  0  0  0  # atno 11005 bound_to 11000
  144.7484  140.5128  143.6819 LP  0  0  0  0  0  0  0  0  0  0  0  0  # atno 17320 bound_to 7965
  145.5728  139.1484  143.3278 LP  0  0  0  0  0  0  0  0  0  0  0  0  # atno 17321 bound_to 7965
  140.2781  143.3409  152.1177 LP  0  0  0  0  0  0  0  0  0  0  0  0  # atno 17342 bound_to 10162
  139.5072  144.6828  151.5965 LP  0  0  0  0  0  0  0  0  0  0  0  0  # atno 17343 bound_to 10162
  156.4861  130.8063  151.3075 LP  0  0  0  0  0  0  0  0  0  0  0  0  # atno 17370 bound_to 10713
  157.7466  130.9990  150.2874 LP  0  0  0  0  0  0  0  0  0  0  0  0  # atno 17371 bound_to 10713
  140.6746  134.4831  157.5588 LP  0  0  0  0  0  0  0  0  0  0  0  0  # atno 17394 bound_to 11000
  139.9085  134.8395  156.1614 LP  0  0  0  0  0  0  0  0  0  0  0  0  # atno 17395 bound_to 11000

$$$$
