AV-unprocessed.smi:2329|AV-procd|sdf|9307|dock4
  -GOLD-   2272012523D 1   1.00000     0.00000
 Structure written by MMmdl.
 45 48  0  0  0  0  0  0  0  0  1 V2000
  151.8507  145.1171  160.4210 C   0  0  0  0  0  0  0  0  0  0  0  0
  152.2772  143.6644  160.3993 C   0  0  0  0  0  0  0  0  0  0  0  0
  152.9759  143.0972  161.4831 C   0  0  0  0  0  0  0  0  0  0  0  0
  153.3473  141.7437  161.3969 C   0  0  0  0  0  0  0  0  0  0  0  0
  153.0074  141.0180  160.2389 C   0  0  0  0  0  0  0  0  0  0  0  0
  152.3030  141.6621  159.1972 C   0  0  0  0  0  0  0  0  0  0  0  0
  152.0099  140.8444  158.0744 N   0  0  0  0  0  0  0  0  0  0  0  0
  151.3574  141.1794  156.9434 C   0  0  0  0  0  0  0  0  0  0  0  0
  150.8531  142.2790  156.7227 O   0  0  0  0  0  0  0  0  0  0  0  0
  151.2533  140.1755  156.0553 N   0  0  0  0  0  0  0  0  0  0  0  0
  150.6086  140.2060  154.7366 C   0  0  1  0  0  0  0  0  0  0  0  0
  150.4012  138.8065  154.1077 C   0  0  1  0  0  0  0  0  0  0  0  0
  151.0483  137.5517  154.6439 C   0  0  0  0  0  0  0  0  0  0  0  0
  149.9475  136.9476  155.5202 C   0  0  0  0  0  0  0  0  0  0  0  0
  149.0753  138.0369  155.8129 O   0  0  0  0  0  0  0  0  0  0  0  0
  148.9777  138.8423  154.6412 C   0  0  1  0  0  0  0  0  0  0  0  0
  149.0736  140.3679  154.8466 C   0  0  0  0  0  0  0  0  0  0  0  0
  148.4452  140.9576  156.1106 C   0  0  0  0  0  0  0  0  0  0  0  0
  146.9966  141.3149  155.7685 C   0  0  0  0  0  0  0  0  0  0  0  0
  146.9605  141.4741  154.2455 C   0  0  0  0  0  0  0  0  0  0  0  0
  148.3909  141.2074  153.7682 C   0  0  0  0  0  0  0  0  0  0  0  0
  151.9504  142.9685  159.2891 N   0  0  0  0  0  0  0  0  0  0  0  0
  152.0414  145.5703  161.3942 H   0  0  0  0  0  0  0  0  0  0  0  0
  150.7848  145.2053  160.2088 H   0  0  0  0  0  0  0  0  0  0  0  0
  152.4000  145.6823  159.6675 H   0  0  0  0  0  0  0  0  0  0  0  0
  153.2231  143.6815  162.3574 H   0  0  0  0  0  0  0  0  0  0  0  0
  153.8847  141.2692  162.2045 H   0  0  0  0  0  0  0  0  0  0  0  0
  153.2857  139.9774  160.1562 H   0  0  0  0  0  0  0  0  0  0  0  0
  152.3365  139.8913  158.1333 H   0  0  0  0  0  0  0  0  0  0  0  0
  151.5915  139.2722  156.3548 H   0  0  0  0  0  0  0  0  0  0  0  0
  151.0482  140.9249  154.0429 H   0  0  0  0  0  0  0  0  0  0  0  0
  150.4092  138.8703  153.0184 H   0  0  0  0  0  0  0  0  0  0  0  0
  151.3361  136.8642  153.8482 H   0  0  0  0  0  0  0  0  0  0  0  0
  151.9438  137.7625  155.2262 H   0  0  0  0  0  0  0  0  0  0  0  0
  149.3928  136.1880  154.9675 H   0  0  0  0  0  0  0  0  0  0  0  0
  150.3372  136.4913  156.4302 H   0  0  0  0  0  0  0  0  0  0  0  0
  148.2251  138.4941  153.9321 H   0  0  0  0  0  0  0  0  0  0  0  0
  148.4941  140.2804  156.9638 H   0  0  0  0  0  0  0  0  0  0  0  0
  148.9780  141.8646  156.4004 H   0  0  0  0  0  0  0  0  0  0  0  0
  146.3273  140.5090  156.0729 H   0  0  0  0  0  0  0  0  0  0  0  0
  146.6762  142.2209  156.2842 H   0  0  0  0  0  0  0  0  0  0  0  0
  146.2765  140.7418  153.8146 H   0  0  0  0  0  0  0  0  0  0  0  0
  146.6156  142.4637  153.9439 H   0  0  0  0  0  0  0  0  0  0  0  0
  148.9140  142.1576  153.6519 H   0  0  0  0  0  0  0  0  0  0  0  0
  148.4001  140.7235  152.7908 H   0  0  0  0  0  0  0  0  0  0  0  0
  1  2  1  0  0  0  0
  1 23  1  0  0  0  0
  1 24  1  0  0  0  0
  1 25  1  0  0  0  0
  2 22  1  0  0  0  0
  2  3  2  0  0  0  0
  3  4  1  0  0  0  0
  3 26  1  0  0  0  0
  4  5  2  0  0  0  0
  4 27  1  0  0  0  0
  5  6  1  0  0  0  0
  5 28  1  0  0  0  0
  6  7  1  0  0  0  0
  6 22  2  0  0  0  0
  7  8  1  0  0  0  0
  7 29  1  0  0  0  0
  8  9  2  0  0  0  0
  8 10  1  0  0  0  0
 10 11  1  0  0  0  0
 10 30  1  0  0  0  0
 11 17  1  0  0  0  0
 11 12  1  0  0  0  0
 11 31  1  0  0  0  0
 12 16  1  0  0  0  0
 12 13  1  0  0  0  0
 12 32  1  0  0  0  0
 13 14  1  0  0  0  0
 13 33  1  0  0  0  0
 13 34  1  0  0  0  0
 14 15  1  0  0  0  0
 14 35  1  0  0  0  0
 14 36  1  0  0  0  0
 15 16  1  0  0  0  0
 16 17  1  0  0  0  0
 16 37  1  0  0  0  0
 17 21  1  0  0  0  0
 17 18  1  0  0  0  0
 18 19  1  0  0  0  0
 18 38  1  0  0  0  0
 18 39  1  0  0  0  0
 19 20  1  0  0  0  0
 19 40  1  0  0  0  0
 19 41  1  0  0  0  0
 20 21  1  0  0  0  0
 20 42  1  0  0  0  0
 20 43  1  0  0  0  0
 21 44  1  0  0  0  0
 21 45  1  0  0  0  0
M  END
> <s_m_source_file>
AV-unprocessed.smi

> <i_m_source_file_index>
2329

> <i_lp_mmshare_version>
43012

> <i_f3d_flags>
0

> <s_epik_input>
W0NIM11jMVtjSF1bY0hdW2NIXWMobjEpW05IXUMoPU8pW05IXVtDQEBIXTJbQ0BASF0oW0NIMl1bQ0gyXU8zKVtDQEhdM0MyNFtDSDJdW0NIMl1bQ0gyXVtDSDJdNA==

> <s_epik_cmdline>
J2VwaWtfcHl0aG9uJywgJy1waCcsICc3LjAnLCAnLXRuJywgJzgnLCAnLW1hJywgJzIwMCcsICctbWV0YWxfYmluZGluZycsICctaW1hZScsICc8aW5maWxlLm1hZT4nLCAnLW9tYWUnLCAnPG91dGZpbGUubWFlPic=

> <r_lp_tautomer_probability>
1

> <r_epik_Ionization_Penalty>
8.97002e-05

> <r_epik_Ionization_Penalty_Charging>
0

> <r_epik_Ionization_Penalty_Neutral>
8.97002e-05

> <r_epik_State_Penalty>
-0

> <r_epik_Charging_Adjusted_Penalty>
0

> <i_epik_Tot_Q>
0

> <i_epik_Tot_abs_Q>
0

> <r_epik_Metal_State_Penalty>
-0

> <b_epik_Metal_Only>
0

> <s_lp_Force_Field>
OPLS_2005

> <r_lp_Energy>
67.5757

> <b_lp_Chiralities_Consistent>
1

> <s_lp_Variant>
AV-unprocessed.smi:2329-6

> <Gold.Version>
5.8.1

> <Gold.Id.Protein>
6NUR|6NUR_protein|mol2

> <Gold.PLP.Fitness>
41.1276

> <Gold.PLP.PLP>
-41.1336

> <Gold.PLP.part.hbond>
0.0000

> <Gold.PLP.part.metal>
0.0000

> <Gold.PLP.part.buried>
-2.8556

> <Gold.PLP.part.nonpolar>
-37.5856

> <Gold.PLP.part.repulsive>
0.3469

> <Gold.PLP.ligand.clash>
0.0000

> <Gold.PLP.ligand.torsion>
0.0998

> <Gold.PLP.Chemscore.Hbond>
0.0000

> <Gold.PLP.Chemscore.CHOScore>
0.0000

> <Gold.PLP.Chemscore.Metal>
0.0000

> <Gold.PLP.Chemscore.Internal.Correction>
0.1937

> <Gold.Rescore>
     Score         DG    S(hbond)    S(metal)    S(lipo)     H(rot)  DE(clash)    DE(int)     intcor
     11.56     -15.83       0.00        0.00     110.32       1.00       0.79       3.48       ----

> <Gold.Chemscore.Fitness>
11.5607

> <Gold.Chemscore.DG>
-15.8269

> <Gold.Chemscore.ZeroCoef>
-5.4800

> <Gold.Chemscore.Hbond>
0.0000

> <Gold.Chemscore.Metal>
0.0000

> <Gold.Chemscore.Lipo>
110.3150

> <Gold.Chemscore.Internal_Hbond>
0.0000

> <Gold.Chemscore.DEClash>
0.7886

> <Gold.Chemscore.DEInternal>
3.4775

> <Gold.Chemscore.Rot>
1.0000

> <Gold.Chemscore.Internal.Correction>
   9.000000E+99

> <Gold.Chemscore.Hbond.Weighted>
-0.0000

> <Gold.Chemscore.Metal.Weighted>
-0.0000

> <Gold.Chemscore.Lipo.Weighted>
-12.9069

> <Gold.Chemscore.Internal_Hbond.Weighted>
0.0000

> <Gold.Chemscore.DEClash.Weighted>
0.7886

> <Gold.Chemscore.DEInternal.Weighted>
3.4775

> <Gold.Chemscore.Rot.Weighted>
2.5600

> <Gold.Chemscore.Internal.Correction.Weighted>
   9.000000E+99

> <Gold.Protein.RotatedTorsions>
[ 6907 6896 6895 6894 ] final -108.63 input  -60.11 | X-H torsion
[ 7974 7965 7964 7962 ] final -107.69 input  175.53 | X-H torsion
[ 8008 7997 7996 7995 ] final  133.70 input   59.86 | X-H torsion
[ 10167 10162 10161 10158 ] final -164.63 input  -65.29 | X-H torsion
[ 10718 10713 10712 10709 ] final  -37.32 input   66.30 | X-H torsion
[ 10763 10752 10751 10750 ] final  112.96 input  -60.55 | X-H torsion
[ 11005 11000 10999 10996 ] final  -13.15 input  -57.11 | X-H torsion

> <Gold.Protein.ActiveResidues>
 VAL166  LYS551  ARG553  GLY616  TRP617  ASP618  TYR619  PRO620  LYS621  CYS622 
 ASP623  PHE694  ASN695  SER759  ASP760  ASP761  ALA762  ILE779  LEU786  VAL792 
 PHE793  MET794  SER795  GLU796  ALA797  LYS798  CYS799  TRP800  GLU811  SER814 

> <Gold.Protein.RotatedAtoms>
  150.7513  133.9649  159.3526 H   0  0  0  0  0  0  0  0  0  0  0  0  # atno 6907 bound_to 6896
  151.7578  135.0815  160.0350 H   0  0  0  0  0  0  0  0  0  0  0  0  # atno 6908 bound_to 6896
  152.3424  133.6045  159.5921 H   0  0  0  0  0  0  0  0  0  0  0  0  # atno 6909 bound_to 6896
  145.2022  140.9061  143.3363 H   0  0  0  0  0  0  0  0  0  0  0  0  # atno 7974 bound_to 7965
  156.2994  140.2515  156.3295 H   0  0  0  0  0  0  0  0  0  0  0  0  # atno 8008 bound_to 7997
  154.9158  140.0402  157.1990 H   0  0  0  0  0  0  0  0  0  0  0  0  # atno 8009 bound_to 7997
  154.8360  140.2883  155.5695 H   0  0  0  0  0  0  0  0  0  0  0  0  # atno 8010 bound_to 7997
  139.6237  144.0574  152.1956 H   0  0  0  0  0  0  0  0  0  0  0  0  # atno 10167 bound_to 10162
  156.3165  130.4260  149.8000 H   0  0  0  0  0  0  0  0  0  0  0  0  # atno 10718 bound_to 10713
  153.4855  135.3670  155.2464 H   0  0  0  0  0  0  0  0  0  0  0  0  # atno 10763 bound_to 10752
  154.8754  135.3964  154.3650 H   0  0  0  0  0  0  0  0  0  0  0  0  # atno 10764 bound_to 10752
  153.4260  135.7081  153.6327 H   0  0  0  0  0  0  0  0  0  0  0  0  # atno 10765 bound_to 10752
  140.7732  133.8422  155.9225 H   0  0  0  0  0  0  0  0  0  0  0  0  # atno 11005 bound_to 11000
  144.9936  139.3665  143.6202 LP  0  0  0  0  0  0  0  0  0  0  0  0  # atno 17320 bound_to 7965
  146.3415  139.9130  142.8777 LP  0  0  0  0  0  0  0  0  0  0  0  0  # atno 17321 bound_to 7965
  140.0222  144.6144  150.7557 LP  0  0  0  0  0  0  0  0  0  0  0  0  # atno 17342 bound_to 10162
  140.7398  143.2796  151.3639 LP  0  0  0  0  0  0  0  0  0  0  0  0  # atno 17343 bound_to 10162
  156.5324  130.8263  151.3241 LP  0  0  0  0  0  0  0  0  0  0  0  0  # atno 17370 bound_to 10713
  157.7403  130.9847  150.2366 LP  0  0  0  0  0  0  0  0  0  0  0  0  # atno 17371 bound_to 10713
  140.9554  134.1725  157.4696 LP  0  0  0  0  0  0  0  0  0  0  0  0  # atno 17394 bound_to 11000
  139.8753  134.9925  156.5599 LP  0  0  0  0  0  0  0  0  0  0  0  0  # atno 17395 bound_to 11000

$$$$
