#       Name:                AV-unprocessed.smi:2585
#       Creating user name   scv26
#       Creation time:       Fri Mar 27 14:15:39 2020


#       File generated by GOLD software.
#

@<TRIPOS>MOLECULE
AV-unprocessed.smi:2585
    39    40     1
SMALL
NO_CHARGES


@<TRIPOS>ATOM
      1 ****        -5.8471   2.3116  -0.9045 C.3            1 S1                 0.0000
      2 ****        -4.7685   1.3124  -0.6099 C.2            1 S1                 0.0000
      3 ****        -5.0949   0.1087  -0.1877 N.2            1 S1                 0.0000
      4 ****        -3.6998  -0.7931   0.0591 S.3            1 S1                 0.0000
      5 ****        -2.5939   0.4676  -0.4152 C.2            1 S1                 0.0000
      6 ****        -1.2376   0.4000  -0.4501 N.am           1 S1                 0.0000
      7 ****        -0.4386  -0.6370  -0.1458 C.2            1 S1                 0.0000
      8 ****        -0.8221  -1.7424   0.2357 O.2            1 S1                 0.0000
      9 ****         0.8533  -0.3073  -0.3130 N.am           1 S1                 0.0000
     10 ****         2.0474  -1.1363  -0.0879 C.3            1 S1                 0.0000
     11 ****         2.0290  -2.3532  -1.0382 C.3            1 S1                 0.0000
     12 ****         3.2884  -0.2702  -0.3954 C.3            1 S1                 0.0000
     13 ****         3.4890   0.8473   0.6460 C.3            1 S1                 0.0000
     14 ****         3.5823   0.2884   1.9509 O.3            1 S1                 0.0000
     15 ****         2.4051  -0.4092   2.3400 C.3            1 S1                 0.0000
     16 ****         2.1600  -1.5930   1.3873 C.3            1 S1                 0.0000
     17 ****        -3.3621   1.5495  -0.7495 C.2            1 S1                 0.0000
     18 ****        -2.7880   3.0598  -1.2870 Cl             1 S1                 0.0000
     19 ****        -5.7237   3.2110  -0.3009 H              1 S1                 0.0000
     20 ****        -6.8408   1.9123  -0.6966 H              1 S1                 0.0000
     21 ****        -5.8282   2.6115  -1.9527 H              1 S1                 0.0000
     22 ****        -0.7741   1.2455  -0.7491 H              1 S1                 0.0000
     23 ****         1.0383   0.6328  -0.6311 H              1 S1                 0.0000
     24 ****         2.9499  -2.9317  -0.9569 H              1 S1                 0.0000
     25 ****         1.9302  -2.0419  -2.0788 H              1 S1                 0.0000
     26 ****         1.2066  -3.0336  -0.8173 H              1 S1                 0.0000
     27 ****         4.1807  -0.8980  -0.4011 H              1 S1                 0.0000
     28 ****         3.2161   0.1614  -1.3948 H              1 S1                 0.0000
     29 ****         4.4086   1.3925   0.4334 H              1 S1                 0.0000
     30 ****         2.6768   1.5748   0.6082 H              1 S1                 0.0000
     31 ****         2.5360  -0.7728   3.3592 H              1 S1                 0.0000
     32 ****         1.5515   0.2701   2.3545 H              1 S1                 0.0000
     33 ****         1.2764  -2.1476   1.7026 H              1 S1                 0.0000
     34 ****         2.9935  -2.2898   1.4853 H              1 S1                 0.0000
     35 ****        -6.0281  -0.2177  -0.0374 LP             1 S1                 0.0000
     36 ****        -1.7999  -1.9236   0.3406 LP             1 S1                 0.0000
     37 ****        -0.1559  -2.4594   0.4409 LP             1 S1                 0.0000
     38 ****         3.7454   1.0280   2.6039 LP             1 S1                 0.0000
     39 ****         4.3523  -0.3494   1.9706 LP             1 S1                 0.0000
@<TRIPOS>BOND
    1    1    2 1     
    2    1   19 1     
    3    1   20 1     
    4    1   21 1     
    5    2   17 1     
    6    2    3 2     
    7    3    4 1     
    8    4    5 1     
    9    5    6 1     
   10    5   17 2     
   11    6    7 am    
   12    6   22 1     
   13    7    8 2     
   14    7    9 am    
   15    9   10 1     
   16    9   23 1     
   17   10   16 1     
   18   10   11 1     
   19   10   12 1     
   20   11   24 1     
   21   11   25 1     
   22   11   26 1     
   23   12   13 1     
   24   12   27 1     
   25   12   28 1     
   26   13   14 1     
   27   13   29 1     
   28   13   30 1     
   29   14   15 1     
   30   15   16 1     
   31   15   31 1     
   32   15   32 1     
   33   16   33 1     
   34   16   34 1     
   35   17   18 1     
   36    3   35 1     
   37    8   36 1     
   38    8   37 1     
   39   14   38 1     
   40   14   39 1     
@<TRIPOS>SUBSTRUCTURE
      1 S1             1
@<TRIPOS>SET
LONE_PAIRS      STATIC     ATOMS    <user>   **** ""
5 35 36 37 38 39
DONOR_HYDROGENS      STATIC     ATOMS    <user>   **** ""
2 22 23
ATOM$BLUE        STATIC     ATOMS    COLORGROUP SYSTEM
5 35 36 37 38 39
ATOM$RED        STATIC     ATOMS    COLORGROUP SYSTEM
2 22 23
