AV-unprocessed.smi:2115|AV-procd|sdf|8624|dock3
  -GOLD-   2272011373D 1   1.00000     0.00000
 Structure written by MMmdl.
 37 38  0  0  0  0  0  0  0  0  1 V2000
  158.8269  143.2520  170.5653 C   0  0  0  0  0  0  0  0  0  0  0  0
  157.8764  143.4761  169.5388 O   0  0  0  0  0  0  0  0  0  0  0  0
  158.0770  144.7122  168.8735 C   0  0  0  0  0  0  0  0  0  0  0  0
  156.9698  144.9100  167.8338 C   0  0  0  0  0  0  0  0  0  0  0  0
  156.8163  143.7050  167.0895 O   0  0  0  0  0  0  0  0  0  0  0  0
  155.9769  143.7092  165.9943 C   0  0  0  0  0  0  0  0  0  0  0  0
  155.5632  142.4736  165.4585 C   0  0  0  0  0  0  0  0  0  0  0  0
  154.7021  142.4717  164.3451 C   0  0  0  0  0  0  0  0  0  0  0  0
  154.2713  143.7007  163.8065 C   0  0  0  0  0  0  0  0  0  0  0  0
  153.4143  143.6704  162.6736 N   0  0  0  0  0  0  0  0  0  0  0  0
  153.1468  142.6373  161.8538 C   0  0  0  0  0  0  0  0  0  0  0  0
  153.6338  141.5120  161.9657 O   0  0  0  0  0  0  0  0  0  0  0  0
  152.1694  142.9328  160.7101 C   0  0  1  0  0  0  0  0  0  0  0  0
  151.7942  144.4209  160.5772 C   0  0  0  0  0  0  0  0  0  0  0  0
  152.4599  144.8470  159.2833 C   0  0  0  0  0  0  0  0  0  0  0  0
  152.4745  143.5454  158.4955 C   0  0  0  0  0  0  0  0  0  0  0  0
  152.8036  142.5804  159.4820 O   0  0  0  0  0  0  0  0  0  0  0  0
  154.7558  144.8888  164.4059 C   0  0  0  0  0  0  0  0  0  0  0  0
  155.5831  144.8973  165.4728 N   0  0  0  0  0  0  0  0  0  0  0  0
  158.6299  142.2931  171.0444 H   0  0  0  0  0  0  0  0  0  0  0  0
  158.7715  144.0281  171.3297 H   0  0  0  0  0  0  0  0  0  0  0  0
  159.8413  143.2260  170.1651 H   0  0  0  0  0  0  0  0  0  0  0  0
  158.0884  145.5421  169.5819 H   0  0  0  0  0  0  0  0  0  0  0  0
  159.0460  144.6954  168.3723 H   0  0  0  0  0  0  0  0  0  0  0  0
  156.0354  145.1398  168.3484 H   0  0  0  0  0  0  0  0  0  0  0  0
  157.2103  145.7518  167.1823 H   0  0  0  0  0  0  0  0  0  0  0  0
  155.9004  141.5445  165.8940 H   0  0  0  0  0  0  0  0  0  0  0  0
  154.3735  141.5360  163.9163 H   0  0  0  0  0  0  0  0  0  0  0  0
  153.0039  144.5559  162.4151 H   0  0  0  0  0  0  0  0  0  0  0  0
  151.2622  142.3361  160.8229 H   0  0  0  0  0  0  0  0  0  0  0  0
  150.7112  144.5192  160.4895 H   0  0  0  0  0  0  0  0  0  0  0  0
  152.1082  145.0384  161.4202 H   0  0  0  0  0  0  0  0  0  0  0  0
  151.9301  145.6511  158.7721 H   0  0  0  0  0  0  0  0  0  0  0  0
  153.4815  145.1764  159.4781 H   0  0  0  0  0  0  0  0  0  0  0  0
  151.4884  143.3268  158.0831 H   0  0  0  0  0  0  0  0  0  0  0  0
  153.1985  143.5515  157.6805 H   0  0  0  0  0  0  0  0  0  0  0  0
  154.5034  145.8655  164.0236 H   0  0  0  0  0  0  0  0  0  0  0  0
  1  2  1  0  0  0  0
  1 20  1  0  0  0  0
  1 21  1  0  0  0  0
  1 22  1  0  0  0  0
  2  3  1  0  0  0  0
  3  4  1  0  0  0  0
  3 23  1  0  0  0  0
  3 24  1  0  0  0  0
  4  5  1  0  0  0  0
  4 25  1  0  0  0  0
  4 26  1  0  0  0  0
  5  6  1  0  0  0  0
  6 19  1  0  0  0  0
  6  7  2  0  0  0  0
  7  8  1  0  0  0  0
  7 27  1  0  0  0  0
  8  9  2  0  0  0  0
  8 28  1  0  0  0  0
  9 10  1  0  0  0  0
  9 18  1  0  0  0  0
 10 11  1  0  0  0  0
 10 29  1  0  0  0  0
 11 12  2  0  0  0  0
 11 13  1  0  0  0  0
 13 17  1  0  0  0  0
 13 14  1  0  0  0  0
 13 30  1  0  0  0  0
 14 15  1  0  0  0  0
 14 31  1  0  0  0  0
 14 32  1  0  0  0  0
 15 16  1  0  0  0  0
 15 33  1  0  0  0  0
 15 34  1  0  0  0  0
 16 17  1  0  0  0  0
 16 35  1  0  0  0  0
 16 36  1  0  0  0  0
 18 19  2  0  0  0  0
 18 37  1  0  0  0  0
M  END
> <s_m_source_file>
AV-unprocessed.smi

> <i_m_source_file_index>
2115

> <i_lp_mmshare_version>
43012

> <i_f3d_flags>
0

> <s_epik_input>
W0NIM11PW0NIMl1bQ0gyXU9jMVtjSF1bY0hdYyhbY0hdbjEpW05IXUMoPU8pW0NAQEhdMltDSDJdW0NIMl1bQ0gyXU8y

> <s_epik_cmdline>
J2VwaWtfcHl0aG9uJywgJy1waCcsICc3LjAnLCAnLXRuJywgJzgnLCAnLW1hJywgJzIwMCcsICctbWV0YWxfYmluZGluZycsICctaW1hZScsICc8aW5maWxlLm1hZT4nLCAnLW9tYWUnLCAnPG91dGZpbGUubWFlPic=

> <r_lp_tautomer_probability>
1

> <r_epik_Ionization_Penalty>
1.60185e-05

> <r_epik_Ionization_Penalty_Charging>
0

> <r_epik_Ionization_Penalty_Neutral>
1.60185e-05

> <r_epik_State_Penalty>
-0

> <r_epik_Charging_Adjusted_Penalty>
0

> <i_epik_Tot_Q>
0

> <i_epik_Tot_abs_Q>
0

> <r_epik_Metal_State_Penalty>
-0

> <b_epik_Metal_Only>
0

> <s_lp_Force_Field>
OPLS_2005

> <r_lp_Energy>
23.9239

> <b_lp_Chiralities_Consistent>
1

> <s_lp_Variant>
AV-unprocessed.smi:2115-2

> <Gold.Version>
5.8.1

> <Gold.Id.Protein>
6NUR|6NUR_protein|mol2

> <Gold.PLP.Fitness>
40.5276

> <Gold.PLP.PLP>
-41.1931

> <Gold.PLP.part.hbond>
-0.9175

> <Gold.PLP.part.metal>
0.0000

> <Gold.PLP.part.buried>
-5.5863

> <Gold.PLP.part.nonpolar>
-33.7412

> <Gold.PLP.part.repulsive>
0.2763

> <Gold.PLP.ligand.clash>
0.0000

> <Gold.PLP.ligand.torsion>
0.4001

> <Gold.PLP.Chemscore.Hbond>
0.0000

> <Gold.PLP.Chemscore.CHOScore>
0.0000

> <Gold.PLP.Chemscore.Metal>
0.0000

> <Gold.PLP.Chemscore.Internal.Correction>
0.1348

> <Gold.Rescore>
     Score         DG    S(hbond)    S(metal)    S(lipo)     H(rot)  DE(clash)    DE(int)     intcor
     10.41     -12.75       0.00        0.00     102.42       1.84       0.62       1.72       ----

> <Gold.Chemscore.Fitness>
10.4120

> <Gold.Chemscore.DG>
-12.7536

> <Gold.Chemscore.ZeroCoef>
-5.4800

> <Gold.Chemscore.Hbond>
0.0000

> <Gold.Chemscore.Metal>
0.0000

> <Gold.Chemscore.Lipo>
102.4223

> <Gold.Chemscore.Internal_Hbond>
0.0000

> <Gold.Chemscore.DEClash>
0.6188

> <Gold.Chemscore.DEInternal>
1.7228

> <Gold.Chemscore.Rot>
1.8398

> <Gold.Chemscore.Internal.Correction>
   9.000000E+99

> <Gold.Chemscore.Hbond.Weighted>
-0.0000

> <Gold.Chemscore.Metal.Weighted>
-0.0000

> <Gold.Chemscore.Lipo.Weighted>
-11.9834

> <Gold.Chemscore.Internal_Hbond.Weighted>
0.0000

> <Gold.Chemscore.DEClash.Weighted>
0.6188

> <Gold.Chemscore.DEInternal.Weighted>
1.7228

> <Gold.Chemscore.Rot.Weighted>
4.7099

> <Gold.Chemscore.Internal.Correction.Weighted>
   9.000000E+99

> <Gold.Protein.RotatedTorsions>
[ 6907 6896 6895 6894 ] final   74.16 input  -60.11 | X-H torsion
[ 7974 7965 7964 7962 ] final -165.24 input  175.53 | X-H torsion
[ 8008 7997 7996 7995 ] final -105.99 input   59.86 | X-H torsion
[ 10167 10162 10161 10158 ] final -160.97 input  -65.29 | X-H torsion
[ 10718 10713 10712 10709 ] final  -83.15 input   66.30 | X-H torsion
[ 10763 10752 10751 10750 ] final  166.70 input  -60.55 | X-H torsion
[ 11005 11000 10999 10996 ] final  149.34 input  -57.11 | X-H torsion

> <Gold.Protein.ActiveResidues>
 VAL166  LYS551  ARG553  GLY616  TRP617  ASP618  TYR619  PRO620  LYS621  CYS622 
 ASP623  PHE694  ASN695  SER759  ASP760  ASP761  ALA762  ILE779  LEU786  VAL792 
 PHE793  MET794  SER795  GLU796  ALA797  LYS798  CYS799  TRP800  GLU811  SER814 

> <Gold.Protein.RotatedAtoms>
  152.4961  134.4313  159.9512 H   0  0  0  0  0  0  0  0  0  0  0  0  # atno 6907 bound_to 6896
  151.4291  133.3669  159.2774 H   0  0  0  0  0  0  0  0  0  0  0  0  # atno 6908 bound_to 6896
  150.9167  134.8608  159.7521 H   0  0  0  0  0  0  0  0  0  0  0  0  # atno 6909 bound_to 6896
  144.7275  140.2843  143.6231 H   0  0  0  0  0  0  0  0  0  0  0  0  # atno 7974 bound_to 7965
  154.9080  140.0411  157.1930 H   0  0  0  0  0  0  0  0  0  0  0  0  # atno 8008 bound_to 7997
  154.8377  140.2909  155.5659 H   0  0  0  0  0  0  0  0  0  0  0  0  # atno 8009 bound_to 7997
  156.2990  140.2488  156.3314 H   0  0  0  0  0  0  0  0  0  0  0  0  # atno 8010 bound_to 7997
  139.6500  144.0102  152.2154 H   0  0  0  0  0  0  0  0  0  0  0  0  # atno 10167 bound_to 10162
  156.0022  130.4656  150.4213 H   0  0  0  0  0  0  0  0  0  0  0  0  # atno 10718 bound_to 10713
  154.3430  135.2754  155.2413 H   0  0  0  0  0  0  0  0  0  0  0  0  # atno 10763 bound_to 10752
  154.4675  135.5891  153.6302 H   0  0  0  0  0  0  0  0  0  0  0  0  # atno 10764 bound_to 10752
  152.9856  135.6080  154.3632 H   0  0  0  0  0  0  0  0  0  0  0  0  # atno 10765 bound_to 10752
  140.1037  134.8967  157.1833 H   0  0  0  0  0  0  0  0  0  0  0  0  # atno 11005 bound_to 11000
  145.7918  139.1930  143.2098 LP  0  0  0  0  0  0  0  0  0  0  0  0  # atno 17320 bound_to 7965
  146.0749  140.7828  142.9670 LP  0  0  0  0  0  0  0  0  0  0  0  0  # atno 17321 bound_to 7965
  139.9814  144.6426  150.7897 LP  0  0  0  0  0  0  0  0  0  0  0  0  # atno 17342 bound_to 10162
  140.7533  143.3006  151.3091 LP  0  0  0  0  0  0  0  0  0  0  0  0  # atno 17343 bound_to 10162
  157.2269  131.0495  151.2514 LP  0  0  0  0  0  0  0  0  0  0  0  0  # atno 17370 bound_to 10713
  157.3748  130.7200  149.6589 LP  0  0  0  0  0  0  0  0  0  0  0  0  # atno 17371 bound_to 10713
  140.3185  134.2943  155.7251 LP  0  0  0  0  0  0  0  0  0  0  0  0  # atno 17394 bound_to 11000
  141.2112  133.7695  156.9878 LP  0  0  0  0  0  0  0  0  0  0  0  0  # atno 17395 bound_to 11000

$$$$
