AV-unprocessed.smi:1012|AV-procd|sdf|4425|dock9
  -GOLD-   22720 2383D 1   1.00000     0.00000
 Structure written by MMmdl.
 44 46  0  0  0  0  0  0  0  0  2 V2000
  154.2571  140.2661  161.5763 C   0  0  0  0  0  0  0  0  0  0  0  0
  153.4143  140.6519  160.5004 O   0  0  0  0  0  0  0  0  0  0  0  0
  152.7950  141.8840  160.5635 C   0  0  0  0  0  0  0  0  0  0  0  0
  152.7662  142.6891  161.7312 C   0  0  0  0  0  0  0  0  0  0  0  0
  152.1159  143.9378  161.7251 C   0  0  0  0  0  0  0  0  0  0  0  0
  151.4870  144.4000  160.5556 C   0  0  0  0  0  0  0  0  0  0  0  0
  151.5087  143.6114  159.3913 C   0  0  0  0  0  0  0  0  0  0  0  0
  152.1576  142.3584  159.3919 C   0  0  0  0  0  0  0  0  0  0  0  0
  152.1728  141.5247  158.1239 C   0  0  0  0  0  0  0  0  0  0  0  0
  150.8932  141.4865  157.5142 O   0  0  0  0  0  0  0  0  0  0  0  0
  150.8682  142.1244  156.2488 C   0  0  0  0  0  0  0  0  0  0  0  0
  149.8139  141.4387  155.3609 C   0  0  1  0  0  0  0  0  0  0  0  0
  150.4347  140.3748  154.6699 O   0  0  0  0  0  0  0  0  0  0  0  0
  148.6277  140.8415  156.1444 C   0  0  0  0  0  0  0  0  0  0  0  0
  147.3222  141.2459  155.6030 N   0  0  0  0  0  0  0  0  0  0  0  0
  146.7376  140.9073  154.4216 C   0  0  0  0  0  0  0  0  0  0  0  0
  145.5257  141.5256  154.3693 N   0  3  0  0  0  0  0  0  0  0  0  0
  145.3317  142.2705  155.5344 C   0  0  0  0  0  0  0  0  0  0  0  0
  144.2642  143.0655  155.9383 C   0  0  0  0  0  0  0  0  0  0  0  0
  144.3829  143.6994  157.1925 C   0  0  0  0  0  0  0  0  0  0  0  0
  143.3738  144.4873  157.6331 F   0  0  0  0  0  0  0  0  0  0  0  0
  145.5315  143.5299  157.9942 C   0  0  0  0  0  0  0  0  0  0  0  0
  145.6070  144.1592  159.1906 F   0  0  0  0  0  0  0  0  0  0  0  0
  146.6063  142.7182  157.5751 C   0  0  0  0  0  0  0  0  0  0  0  0
  146.4814  142.0952  156.3334 C   0  0  0  0  0  0  0  0  0  0  0  0
  154.6607  139.2733  161.3781 H   0  0  0  0  0  0  0  0  0  0  0  0
  153.7067  140.2159  162.5167 H   0  0  0  0  0  0  0  0  0  0  0  0
  155.1011  140.9486  161.6862 H   0  0  0  0  0  0  0  0  0  0  0  0
  153.2374  142.3715  162.6488 H   0  0  0  0  0  0  0  0  0  0  0  0
  152.1007  144.5421  162.6200 H   0  0  0  0  0  0  0  0  0  0  0  0
  150.9888  145.3583  160.5514 H   0  0  0  0  0  0  0  0  0  0  0  0
  151.0227  143.9728  158.4970 H   0  0  0  0  0  0  0  0  0  0  0  0
  152.9024  141.9301  157.4211 H   0  0  0  0  0  0  0  0  0  0  0  0
  152.5014  140.5150  158.3754 H   0  0  0  0  0  0  0  0  0  0  0  0
  150.6684  143.1935  156.3419 H   0  0  0  0  0  0  0  0  0  0  0  0
  151.8604  142.0189  155.8110 H   0  0  0  0  0  0  0  0  0  0  0  0
  149.4305  142.1504  154.6284 H   0  0  0  0  0  0  0  0  0  0  0  0
  149.7849  139.9358  154.1429 H   0  0  0  0  0  0  0  0  0  0  0  0
  148.6621  139.7523  156.0915 H   0  0  0  0  0  0  0  0  0  0  0  0
  148.6826  141.0952  157.2029 H   0  0  0  0  0  0  0  0  0  0  0  0
  147.1598  140.2641  153.6625 H   0  0  0  0  0  0  0  0  0  0  0  0
  143.3838  143.1991  155.3271 H   0  0  0  0  0  0  0  0  0  0  0  0
  147.4803  142.6029  158.1982 H   0  0  0  0  0  0  0  0  0  0  0  0
  144.8812  141.4431  153.5932 H   0  0  0  0  0  0  0  0  0  0  0  0
  1  2  1  0  0  0  0
  1 26  1  0  0  0  0
  1 27  1  0  0  0  0
  1 28  1  0  0  0  0
  2  3  1  0  0  0  0
  3  8  1  0  0  0  0
  3  4  2  0  0  0  0
  4  5  1  0  0  0  0
  4 29  1  0  0  0  0
  5  6  2  0  0  0  0
  5 30  1  0  0  0  0
  6  7  1  0  0  0  0
  6 31  1  0  0  0  0
  7  8  2  0  0  0  0
  7 32  1  0  0  0  0
  8  9  1  0  0  0  0
  9 10  1  0  0  0  0
  9 33  1  0  0  0  0
  9 34  1  0  0  0  0
 10 11  1  0  0  0  0
 11 12  1  0  0  0  0
 11 35  1  0  0  0  0
 11 36  1  0  0  0  0
 12 13  1  0  0  0  0
 12 14  1  0  0  0  0
 12 37  1  0  0  0  0
 13 38  1  0  0  0  0
 14 15  1  0  0  0  0
 14 39  1  0  0  0  0
 14 40  1  0  0  0  0
 15 25  1  0  0  0  0
 15 16  1  0  0  0  0
 16 17  2  0  0  0  0
 16 41  1  0  0  0  0
 17 18  1  0  0  0  0
 17 44  1  0  0  0  0
 18 25  2  0  0  0  0
 18 19  1  0  0  0  0
 19 20  2  0  0  0  0
 19 42  1  0  0  0  0
 20 21  1  0  0  0  0
 20 22  1  0  0  0  0
 22 23  1  0  0  0  0
 22 24  2  0  0  0  0
 24 25  1  0  0  0  0
 24 43  1  0  0  0  0
M  CHG  1  17   1
M  END
> <s_m_source_file>
AV-unprocessed.smi

> <i_m_source_file_index>
1012

> <i_lp_mmshare_version>
43012

> <i_f3d_flags>
0

> <s_epik_input>
W0NIM11PYzFbY0hdW2NIXVtjSF1bY0hdYzFbQ0gyXU9bQ0gyXVtDQEhdKFtPSF0pW0NIMl1uKFtjSF1uMiljKGMyMylbY0hdYyhGKWMoRilbY0hdMw==

> <s_epik_cmdline>
J2VwaWtfcHl0aG9uJywgJy1waCcsICc3LjAnLCAnLXRuJywgJzgnLCAnLW1hJywgJzIwMCcsICctbWV0YWxfYmluZGluZycsICctaW1hZScsICc8aW5maWxlLm1hZT4nLCAnLW9tYWUnLCAnPG91dGZpbGUubWFlPic=

> <r_lp_tautomer_probability>
1

> <r_epik_Ionization_Penalty>
2.14697

> <r_epik_Ionization_Penalty_Charging>
2.14697

> <r_epik_Ionization_Penalty_Neutral>
1.07667e-06

> <r_epik_State_Penalty>
2.28651

> <r_epik_Charging_Adjusted_Penalty>
4.43348

> <i_epik_Tot_Q>
1

> <i_epik_Tot_abs_Q>
1

> <r_epik_Metal_State_Penalty>
6.36664

> <b_epik_Metal_Only>
0

> <s_lp_Force_Field>
OPLS_2005

> <r_lp_Energy>
25.548

> <b_lp_Chiralities_Consistent>
1

> <s_lp_Variant>
AV-unprocessed.smi:1012-4

> <Gold.Version>
5.8.1

> <Gold.Id.Protein>
6NUR|6NUR_protein|mol2

> <Gold.PLP.Fitness>
51.3966

> <Gold.PLP.PLP>
-46.2009

> <Gold.PLP.part.hbond>
-2.0000

> <Gold.PLP.part.metal>
0.0000

> <Gold.PLP.part.buried>
-8.4517

> <Gold.PLP.part.nonpolar>
-35.7085

> <Gold.PLP.part.repulsive>
0.0391

> <Gold.PLP.ligand.clash>
0.0000

> <Gold.PLP.ligand.torsion>
1.9916

> <Gold.PLP.Chemscore.Hbond>
3.0000

> <Gold.PLP.Chemscore.CHOScore>
0.0000

> <Gold.PLP.Chemscore.Metal>
0.0000

> <Gold.Chemscore.Hbonds>
donor molecule, donor type, donor heavy atom, donor atom, acceptor molecule, acceptor atom, score
      L1  H    17    44       P1 10175  1.70
      P1  H  7989  7998       L1    13  1.00

> <Gold.PLP.Chemscore.Internal.Correction>
0.1789

> <Gold.Rescore>
     Score         DG    S(hbond)    S(metal)    S(lipo)     H(rot)  DE(clash)    DE(int)     intcor
     13.48     -14.99       0.99        0.00     119.12       3.03       0.01       1.49       ----

> <Gold.Chemscore.Fitness>
13.4789

> <Gold.Chemscore.DG>
-14.9862

> <Gold.Chemscore.ZeroCoef>
-5.4800

> <Gold.Chemscore.Hbond>
0.9940

> <Gold.Chemscore.Metal>
0.0000

> <Gold.Chemscore.Lipo>
119.1221

> <Gold.Chemscore.Internal_Hbond>
0.0000

> <Gold.Chemscore.DEClash>
0.0139

> <Gold.Chemscore.DEInternal>
1.4934

> <Gold.Chemscore.Rot>
3.0278

> <Gold.Chemscore.Internal.Correction>
   9.000000E+99

> <Gold.Chemscore.Hbonds>
donor molecule, donor type, donor heavy atom, donor atom, acceptor molecule, acceptor atom, score
      L1  H    17    44       P1 10175  0.14
      P1  H  7989  7998       L1    13  0.34

> <Gold.Chemscore.Hbond.Weighted>
-3.3200

> <Gold.Chemscore.Metal.Weighted>
-0.0000

> <Gold.Chemscore.Lipo.Weighted>
-13.9373

> <Gold.Chemscore.Internal_Hbond.Weighted>
0.0000

> <Gold.Chemscore.DEClash.Weighted>
0.0139

> <Gold.Chemscore.DEInternal.Weighted>
1.4934

> <Gold.Chemscore.Rot.Weighted>
7.7512

> <Gold.Chemscore.Internal.Correction.Weighted>
   9.000000E+99

> <Gold.Protein.RotatedTorsions>
[ 6907 6896 6895 6894 ] final  131.81 input  -60.11 | X-H torsion
[ 7974 7965 7964 7962 ] final  103.20 input  175.53 | X-H torsion
[ 8008 7997 7996 7995 ] final -141.98 input   59.86 | X-H torsion
[ 10167 10162 10161 10158 ] final   68.31 input  -65.29 | X-H torsion
[ 10718 10713 10712 10709 ] final  -67.12 input   66.30 | X-H torsion
[ 10763 10752 10751 10750 ] final  -82.15 input  -60.55 | X-H torsion
[ 11005 11000 10999 10996 ] final  -52.69 input  -57.11 | X-H torsion

> <Gold.Protein.ActiveResidues>
 VAL166  LYS551  ARG553  GLY616  TRP617  ASP618  TYR619  PRO620  LYS621  CYS622 
 ASP623  PHE694  ASN695  SER759  ASP760  ASP761  ALA762  ILE779  LEU786  VAL792 
 PHE793  MET794  SER795  GLU796  ALA797  LYS798  CYS799  TRP800  GLU811  SER814 

> <Gold.Protein.RotatedAtoms>
  152.3389  133.6043  159.5861 H   0  0  0  0  0  0  0  0  0  0  0  0  # atno 6907 bound_to 6896
  150.7466  133.9753  159.3568 H   0  0  0  0  0  0  0  0  0  0  0  0  # atno 6908 bound_to 6896
  151.7620  135.0808  160.0398 H   0  0  0  0  0  0  0  0  0  0  0  0  # atno 6909 bound_to 6896
  145.3490  139.2444  143.3568 H   0  0  0  0  0  0  0  0  0  0  0  0  # atno 7974 bound_to 7965
  155.4867  140.0564  157.2959 H   0  0  0  0  0  0  0  0  0  0  0  0  # atno 8008 bound_to 7997
  154.4639  140.2009  156.0122 H   0  0  0  0  0  0  0  0  0  0  0  0  # atno 8009 bound_to 7997
  156.0940  140.3229  155.7857 H   0  0  0  0  0  0  0  0  0  0  0  0  # atno 8010 bound_to 7997
  140.0801  144.5079  150.7168 H   0  0  0  0  0  0  0  0  0  0  0  0  # atno 10167 bound_to 10162
  156.0575  130.4273  150.1808 H   0  0  0  0  0  0  0  0  0  0  0  0  # atno 10718 bound_to 10713
  154.5723  135.5601  153.7107 H   0  0  0  0  0  0  0  0  0  0  0  0  # atno 10763 bound_to 10752
  153.0053  135.6300  154.2097 H   0  0  0  0  0  0  0  0  0  0  0  0  # atno 10764 bound_to 10752
  154.2037  135.2877  155.2962 H   0  0  0  0  0  0  0  0  0  0  0  0  # atno 10765 bound_to 10752
  141.0937  133.6628  156.4061 H   0  0  0  0  0  0  0  0  0  0  0  0  # atno 11005 bound_to 11000
  146.2976  140.4102  142.8716 LP  0  0  0  0  0  0  0  0  0  0  0  0  # atno 17320 bound_to 7965
  144.8732  140.7301  143.6033 LP  0  0  0  0  0  0  0  0  0  0  0  0  # atno 17321 bound_to 7965
  140.7082  143.2484  151.4661 LP  0  0  0  0  0  0  0  0  0  0  0  0  # atno 17342 bound_to 10162
  139.5785  144.1764  152.1936 LP  0  0  0  0  0  0  0  0  0  0  0  0  # atno 17343 bound_to 10162
  156.9882  130.9885  151.3421 LP  0  0  0  0  0  0  0  0  0  0  0  0  # atno 17370 bound_to 10713
  157.5556  130.8211  149.8200 LP  0  0  0  0  0  0  0  0  0  0  0  0  # atno 17371 bound_to 10713
  140.5191  134.6322  157.5312 LP  0  0  0  0  0  0  0  0  0  0  0  0  # atno 17394 bound_to 11000
  139.9769  134.7201  155.9933 LP  0  0  0  0  0  0  0  0  0  0  0  0  # atno 17395 bound_to 11000

$$$$
