AV-unprocessed.smi:2095|AV-procd|sdf|8561|dock1
  -GOLD-   2272011283D 1   1.00000     0.00000
 Structure written by MMmdl.
 42 43  0  0  0  0  0  0  0  0  2 V2000
  143.5920  142.2132  156.8685 C   0  0  0  0  0  0  0  0  0  0  0  0
  144.3478  142.0665  155.5405 C   0  0  1  0  0  0  0  0  0  0  0  0
  145.0726  143.3686  155.1574 C   0  0  0  0  0  0  0  0  0  0  0  0
  145.8409  143.1856  153.8417 C   0  0  0  0  0  0  0  0  0  0  0  0
  146.8033  141.9914  153.9315 C   0  0  0  0  0  0  0  0  0  0  0  0
  146.0657  140.7497  154.2907 N   0  3  1  0  0  0  0  0  0  0  0  0
  146.8504  139.4853  154.1834 C   0  0  1  0  0  0  0  0  0  0  0  0
  145.9354  138.3116  153.7855 C   0  0  0  0  0  0  0  0  0  0  0  0
  148.0911  139.6124  153.2630 C   0  0  0  0  0  0  0  0  0  0  0  0
  149.0848  138.5781  153.5286 N   0  0  0  0  0  0  0  0  0  0  0  0
  150.2458  138.7760  154.1729 C   0  0  0  0  0  0  0  0  0  0  0  0
  150.5951  139.8704  154.6142 O   0  0  0  0  0  0  0  0  0  0  0  0
  151.1451  137.5532  154.3605 C   0  0  0  0  0  0  0  0  0  0  0  0
  151.2520  137.1874  155.7605 N   0  0  0  0  0  0  0  0  0  0  0  0
  150.7473  137.7562  156.8574 C   0  0  0  0  0  0  0  0  0  0  0  0
  151.1006  137.1018  157.9532 N   0  0  0  0  0  0  0  0  0  0  0  0
  151.8752  136.0630  157.4642 N   0  0  0  0  0  0  0  0  0  0  0  0
  151.9684  136.1082  156.1638 N   0  0  0  0  0  0  0  0  0  0  0  0
  145.3453  140.8911  155.5846 C   0  0  0  0  0  0  0  0  0  0  0  0
  144.2741  142.4264  157.6923 H   0  0  0  0  0  0  0  0  0  0  0  0
  143.0481  141.3005  157.1139 H   0  0  0  0  0  0  0  0  0  0  0  0
  142.8658  143.0252  156.8191 H   0  0  0  0  0  0  0  0  0  0  0  0
  143.6095  141.8520  154.7663 H   0  0  0  0  0  0  0  0  0  0  0  0
  144.3570  144.1856  155.0577 H   0  0  0  0  0  0  0  0  0  0  0  0
  145.7657  143.6564  155.9495 H   0  0  0  0  0  0  0  0  0  0  0  0
  145.1371  143.0294  153.0230 H   0  0  0  0  0  0  0  0  0  0  0  0
  146.3951  144.0945  153.6052 H   0  0  0  0  0  0  0  0  0  0  0  0
  147.3105  141.8713  152.9747 H   0  0  0  0  0  0  0  0  0  0  0  0
  147.5717  142.2006  154.6765 H   0  0  0  0  0  0  0  0  0  0  0  0
  147.2021  139.2532  155.1897 H   0  0  0  0  0  0  0  0  0  0  0  0
  146.4539  137.3568  153.8764 H   0  0  0  0  0  0  0  0  0  0  0  0
  145.5877  138.3949  152.7561 H   0  0  0  0  0  0  0  0  0  0  0  0
  145.0583  138.2618  154.4314 H   0  0  0  0  0  0  0  0  0  0  0  0
  147.8026  139.5145  152.2163 H   0  0  0  0  0  0  0  0  0  0  0  0
  148.5571  140.5934  153.3633 H   0  0  0  0  0  0  0  0  0  0  0  0
  148.8784  137.6468  153.1956 H   0  0  0  0  0  0  0  0  0  0  0  0
  150.7426  136.7036  153.8072 H   0  0  0  0  0  0  0  0  0  0  0  0
  152.1394  137.7571  153.9605 H   0  0  0  0  0  0  0  0  0  0  0  0
  150.1308  138.6430  156.8535 H   0  0  0  0  0  0  0  0  0  0  0  0
  146.0620  141.0353  156.3943 H   0  0  0  0  0  0  0  0  0  0  0  0
  144.8016  139.9712  155.8043 H   0  0  0  0  0  0  0  0  0  0  0  0
  145.3357  140.6579  153.5987 H   0  0  0  0  0  0  0  0  0  0  0  0
  1  2  1  0  0  0  0
  1 20  1  0  0  0  0
  1 21  1  0  0  0  0
  1 22  1  0  0  0  0
  2 19  1  0  0  0  0
  2  3  1  0  0  0  0
  2 23  1  0  0  0  0
  3  4  1  0  0  0  0
  3 24  1  0  0  0  0
  3 25  1  0  0  0  0
  4  5  1  0  0  0  0
  4 26  1  0  0  0  0
  4 27  1  0  0  0  0
  5  6  1  0  0  0  0
  5 28  1  0  0  0  0
  5 29  1  0  0  0  0
  6  7  1  0  0  0  0
  6 19  1  0  0  0  0
  6 42  1  0  0  0  0
  7  8  1  0  0  0  0
  7  9  1  0  0  0  0
  7 30  1  0  0  0  0
  8 31  1  0  0  0  0
  8 32  1  0  0  0  0
  8 33  1  0  0  0  0
  9 10  1  0  0  0  0
  9 34  1  0  0  0  0
  9 35  1  0  0  0  0
 10 11  1  0  0  0  0
 10 36  1  0  0  0  0
 11 12  2  0  0  0  0
 11 13  1  0  0  0  0
 13 14  1  0  0  0  0
 13 37  1  0  0  0  0
 13 38  1  0  0  0  0
 14 18  1  0  0  0  0
 14 15  1  0  0  0  0
 15 16  2  0  0  0  0
 15 39  1  0  0  0  0
 16 17  1  0  0  0  0
 17 18  2  0  0  0  0
 19 40  1  0  0  0  0
 19 41  1  0  0  0  0
M  CHG  1   6   1
M  END
> <s_m_source_file>
AV-unprocessed.smi

> <i_m_source_file_index>
2095

> <i_lp_mmshare_version>
43012

> <i_f3d_flags>
0

> <s_epik_input>
W0NIM11bQ0BASF0xW0NIMl1bQ0gyXVtDSDJdTihbQ0gyXTEpW0NASF0oW0NIM10pW0NIMl1bTkhdQyg9TylbQ0gyXW4yW2NIXW5ubjI=

> <s_epik_cmdline>
J2VwaWtfcHl0aG9uJywgJy1waCcsICc3LjAnLCAnLXRuJywgJzgnLCAnLW1hJywgJzIwMCcsICctbWV0YWxfYmluZGluZycsICctaW1hZScsICc8aW5maWxlLm1hZT4nLCAnLW9tYWUnLCAnPG91dGZpbGUubWFlPic=

> <r_lp_tautomer_probability>
1

> <r_epik_Ionization_Penalty>
0.00268321

> <r_epik_Ionization_Penalty_Charging>
0.00267875

> <r_epik_Ionization_Penalty_Neutral>
4.46125e-06

> <r_epik_State_Penalty>
0.00186642

> <r_epik_Charging_Adjusted_Penalty>
0.00454517

> <i_epik_Tot_Q>
1

> <i_epik_Tot_abs_Q>
1

> <r_epik_Metal_State_Penalty>
-0

> <b_epik_Metal_Only>
0

> <s_lp_Force_Field>
OPLS_2005

> <r_lp_Energy>
22.3019

> <b_lp_Chiralities_Consistent>
1

> <s_lp_Variant>
AV-unprocessed.smi:2095-8

> <Gold.Version>
5.8.1

> <Gold.Id.Protein>
6NUR|6NUR_protein|mol2

> <Gold.PLP.Fitness>
40.8482

> <Gold.PLP.PLP>
-27.7925

> <Gold.PLP.part.hbond>
-5.8948

> <Gold.PLP.part.metal>
0.0000

> <Gold.PLP.part.buried>
-2.2462

> <Gold.PLP.part.nonpolar>
-20.7732

> <Gold.PLP.part.repulsive>
0.1544

> <Gold.PLP.ligand.clash>
0.0000

> <Gold.PLP.ligand.torsion>
1.0482

> <Gold.PLP.Chemscore.Hbond>
5.0000

> <Gold.PLP.Chemscore.CHOScore>
0.0000

> <Gold.PLP.Chemscore.Metal>
0.0000

> <Gold.Chemscore.Hbonds>
donor molecule, donor type, donor heavy atom, donor atom, acceptor molecule, acceptor atom, score
      L1  H     6    42       P1 10175  2.00
      L1  H    10    36       P1  7948  1.00
      P1  H  7989  7998       L1    12  1.00
      P1  H 10752 10765       L1    18  1.00

> <Gold.PLP.Chemscore.Internal.Correction>
0.1521

> <Gold.Rescore>
     Score         DG    S(hbond)    S(metal)    S(lipo)     H(rot)  DE(clash)    DE(int)     intcor
     14.72     -17.34       3.91        0.00      47.74       2.64       1.57       1.05       ----

> <Gold.Chemscore.Fitness>
14.7172

> <Gold.Chemscore.DG>
-17.3435

> <Gold.Chemscore.ZeroCoef>
-5.4800

> <Gold.Chemscore.Hbond>
3.9060

> <Gold.Chemscore.Metal>
0.0000

> <Gold.Chemscore.Lipo>
47.7419

> <Gold.Chemscore.Internal_Hbond>
0.0000

> <Gold.Chemscore.DEClash>
1.5741

> <Gold.Chemscore.DEInternal>
1.0521

> <Gold.Chemscore.Rot>
2.6439

> <Gold.Chemscore.Internal.Correction>
   9.000000E+99

> <Gold.Chemscore.Hbonds>
donor molecule, donor type, donor heavy atom, donor atom, acceptor molecule, acceptor atom, score
      L1  H     6    42       P1 10175  0.92
      L1  H    10    36       P1  7948  0.95
      P1  H  7989  7998       L1    12  0.91
      P1  H 10752 10765       L1    18  0.91

> <Gold.Chemscore.Hbond.Weighted>
-13.0462

> <Gold.Chemscore.Metal.Weighted>
-0.0000

> <Gold.Chemscore.Lipo.Weighted>
-5.5858

> <Gold.Chemscore.Internal_Hbond.Weighted>
0.0000

> <Gold.Chemscore.DEClash.Weighted>
1.5741

> <Gold.Chemscore.DEInternal.Weighted>
1.0521

> <Gold.Chemscore.Rot.Weighted>
6.7685

> <Gold.Chemscore.Internal.Correction.Weighted>
   9.000000E+99

> <Gold.Protein.RotatedTorsions>
[ 6907 6896 6895 6894 ] final   18.16 input  -60.11 | X-H torsion
[ 7974 7965 7964 7962 ] final  -82.37 input  175.53 | X-H torsion
[ 8008 7997 7996 7995 ] final  -12.03 input   59.86 | X-H torsion
[ 10167 10162 10161 10158 ] final  -66.01 input  -65.29 | X-H torsion
[ 10718 10713 10712 10709 ] final   44.73 input   66.30 | X-H torsion
[ 10763 10752 10751 10750 ] final -156.10 input  -60.55 | X-H torsion
[ 11005 11000 10999 10996 ] final  163.79 input  -57.11 | X-H torsion

> <Gold.Protein.ActiveResidues>
 VAL166  LYS551  ARG553  GLY616  TRP617  ASP618  TYR619  PRO620  LYS621  CYS622 
 ASP623  PHE694  ASN695  SER759  ASP760  ASP761  ALA762  ILE779  LEU786  VAL792 
 PHE793  MET794  SER795  GLU796  ALA797  LYS798  CYS799  TRP800  GLU811  SER814 

> <Gold.Protein.RotatedAtoms>
  151.8610  135.0524  160.0469 H   0  0  0  0  0  0  0  0  0  0  0  0  # atno 6907 bound_to 6896
  152.2663  133.5337  159.5420 H   0  0  0  0  0  0  0  0  0  0  0  0  # atno 6908 bound_to 6896
  150.7135  134.0676  159.3895 H   0  0  0  0  0  0  0  0  0  0  0  0  # atno 6909 bound_to 6896
  145.5342  140.9517  143.1586 H   0  0  0  0  0  0  0  0  0  0  0  0  # atno 7974 bound_to 7965
  154.5413  140.2287  155.8637 H   0  0  0  0  0  0  0  0  0  0  0  0  # atno 8008 bound_to 7997
  156.1860  140.3088  155.9202 H   0  0  0  0  0  0  0  0  0  0  0  0  # atno 8009 bound_to 7997
  155.3253  140.0442  157.3031 H   0  0  0  0  0  0  0  0  0  0  0  0  # atno 8010 bound_to 7997
  140.5688  143.2316  151.6581 H   0  0  0  0  0  0  0  0  0  0  0  0  # atno 10167 bound_to 10162
  157.4300  130.8019  149.7594 H   0  0  0  0  0  0  0  0  0  0  0  0  # atno 10718 bound_to 10713
  154.7738  135.3153  154.8135 H   0  0  0  0  0  0  0  0  0  0  0  0  # atno 10763 bound_to 10752
  153.8864  135.6830  153.4767 H   0  0  0  0  0  0  0  0  0  0  0  0  # atno 10764 bound_to 10752
  153.1357  135.4761  154.9353 H   0  0  0  0  0  0  0  0  0  0  0  0  # atno 10765 bound_to 10752
  140.2393  134.8063  157.3395 H   0  0  0  0  0  0  0  0  0  0  0  0  # atno 11005 bound_to 11000
  144.7610  139.6957  143.7234 LP  0  0  0  0  0  0  0  0  0  0  0  0  # atno 17320 bound_to 7965
  146.2024  139.5327  142.9735 LP  0  0  0  0  0  0  0  0  0  0  0  0  # atno 17321 bound_to 7965
  139.5106  144.3535  152.0629 LP  0  0  0  0  0  0  0  0  0  0  0  0  # atno 17342 bound_to 10162
  140.2670  144.4005  150.6165 LP  0  0  0  0  0  0  0  0  0  0  0  0  # atno 17343 bound_to 10162
  155.9910  130.3941  150.3004 LP  0  0  0  0  0  0  0  0  0  0  0  0  # atno 17370 bound_to 10713
  157.1160  131.0234  151.3029 LP  0  0  0  0  0  0  0  0  0  0  0  0  # atno 17371 bound_to 10713
  140.1669  134.4657  155.7857 LP  0  0  0  0  0  0  0  0  0  0  0  0  # atno 17394 bound_to 11000
  141.2212  133.6925  156.7641 LP  0  0  0  0  0  0  0  0  0  0  0  0  # atno 17395 bound_to 11000

$$$$
