AV-unprocessed.smi:3005|AV-procd|sdf|11443|dock3
  -GOLD-   2272016373D 1   1.00000     0.00000
 Structure written by MMmdl.
 33 34  0  0  0  0  0  0  0  0  1 V2000
  147.2554  142.0239  154.1378 C   0  0  0  0  0  0  0  0  0  0  0  0
  148.3251  140.9967  154.3506 C   0  0  0  0  0  0  0  0  0  0  0  0
  149.4967  141.3520  155.0247 N   0  0  0  0  0  0  0  0  0  0  0  0
  150.3536  140.3348  155.1430 C   0  0  0  0  0  0  0  0  0  0  0  0
  151.9298  140.3944  155.9307 S   0  0  0  0  0  0  0  0  0  0  0  0
  151.4553  141.1155  157.5291 C   0  0  0  0  0  0  0  0  0  0  0  0
  152.6041  141.0668  158.5406 C   0  0  0  0  0  0  0  0  0  0  0  0
  153.3102  140.0617  158.6215 O   0  0  0  0  0  0  0  0  0  0  0  0
  152.8515  142.2053  159.3132 N   0  0  0  0  0  0  0  0  0  0  0  0
  153.1647  142.1133  160.7315 C   0  0  0  0  0  0  0  0  0  0  0  0
  152.4975  143.4866  160.8579 C   0  0  0  0  0  0  0  0  0  0  0  0
  151.8230  143.2168  159.5092 C   0  0  0  0  0  0  0  0  0  0  0  0
  149.7645  138.8492  154.4140 S   0  0  0  0  0  0  0  0  0  0  0  0
  148.3001  139.6800  153.9518 C   0  0  0  0  0  0  0  0  0  0  0  0
  147.2131  138.9597  153.2166 C   0  0  0  0  0  0  0  0  0  0  0  0
  146.1844  138.3752  154.1872 C   0  0  0  0  0  0  0  0  0  0  0  0
  144.9252  138.8046  154.0722 N   0  0  0  0  0  0  0  0  0  0  0  0
  146.5213  137.5493  155.0334 O   0  0  0  0  0  0  0  0  0  0  0  0
  146.3303  141.7349  154.6368 H   0  0  0  0  0  0  0  0  0  0  0  0
  147.0351  142.1473  153.0774 H   0  0  0  0  0  0  0  0  0  0  0  0
  147.5475  142.9993  154.5280 H   0  0  0  0  0  0  0  0  0  0  0  0
  151.1693  142.1573  157.3813 H   0  0  0  0  0  0  0  0  0  0  0  0
  150.5749  140.5913  157.8992 H   0  0  0  0  0  0  0  0  0  0  0  0
  152.6198  141.3201  161.2476 H   0  0  0  0  0  0  0  0  0  0  0  0
  154.2326  142.1063  160.9527 H   0  0  0  0  0  0  0  0  0  0  0  0
  151.8055  143.5728  161.6961 H   0  0  0  0  0  0  0  0  0  0  0  0
  153.2061  144.3163  160.8289 H   0  0  0  0  0  0  0  0  0  0  0  0
  151.8744  144.0440  158.8006 H   0  0  0  0  0  0  0  0  0  0  0  0
  150.8154  142.8075  159.6081 H   0  0  0  0  0  0  0  0  0  0  0  0
  146.7285  139.6354  152.5104 H   0  0  0  0  0  0  0  0  0  0  0  0
  147.6344  138.1465  152.6244 H   0  0  0  0  0  0  0  0  0  0  0  0
  144.2107  138.4478  154.6898 H   0  0  0  0  0  0  0  0  0  0  0  0
  144.6924  139.4867  153.3649 H   0  0  0  0  0  0  0  0  0  0  0  0
  1  2  1  0  0  0  0
  1 19  1  0  0  0  0
  1 20  1  0  0  0  0
  1 21  1  0  0  0  0
  2 14  2  0  0  0  0
  2  3  1  0  0  0  0
  3  4  2  0  0  0  0
  4  5  1  0  0  0  0
  4 13  1  0  0  0  0
  5  6  1  0  0  0  0
  6  7  1  0  0  0  0
  6 22  1  0  0  0  0
  6 23  1  0  0  0  0
  7  8  2  0  0  0  0
  7  9  1  0  0  0  0
  9 12  1  0  0  0  0
  9 10  1  0  0  0  0
 10 11  1  0  0  0  0
 10 24  1  0  0  0  0
 10 25  1  0  0  0  0
 11 12  1  0  0  0  0
 11 26  1  0  0  0  0
 11 27  1  0  0  0  0
 12 28  1  0  0  0  0
 12 29  1  0  0  0  0
 13 14  1  0  0  0  0
 14 15  1  0  0  0  0
 15 16  1  0  0  0  0
 15 30  1  0  0  0  0
 15 31  1  0  0  0  0
 16 17  1  0  0  0  0
 16 18  2  0  0  0  0
 17 32  1  0  0  0  0
 17 33  1  0  0  0  0
M  END
> <s_m_source_file>
AV-unprocessed.smi

> <i_m_source_file_index>
3005

> <i_lp_mmshare_version>
43012

> <i_f3d_flags>
0

> <s_epik_input>
W05IMl1DKD1PKVtDSDJdYzFzYyhuYzFbQ0gzXSlTW0NIMl1DKD1PKU4yW0NIMl1bQ0gyXVtDSDJdMg==

> <s_epik_cmdline>
J2VwaWtfcHl0aG9uJywgJy1waCcsICc3LjAnLCAnLXRuJywgJzgnLCAnLW1hJywgJzIwMCcsICctbWV0YWxfYmluZGluZycsICctaW1hZScsICc8aW5maWxlLm1hZT4nLCAnLW9tYWUnLCAnPG91dGZpbGUubWFlPic=

> <r_lp_tautomer_probability>
1

> <r_epik_Ionization_Penalty>
8.1701e-07

> <r_epik_Ionization_Penalty_Charging>
0

> <r_epik_Ionization_Penalty_Neutral>
8.1701e-07

> <r_epik_State_Penalty>
-0

> <r_epik_Charging_Adjusted_Penalty>
0

> <i_epik_Tot_Q>
0

> <i_epik_Tot_abs_Q>
0

> <r_epik_Metal_State_Penalty>
-0

> <b_epik_Metal_Only>
0

> <s_lp_Force_Field>
OPLS_2005

> <r_lp_Energy>
11.7673

> <b_lp_Chiralities_Consistent>
1

> <s_lp_Variant>
AV-unprocessed.smi:3005-1

> <Gold.Version>
5.8.1

> <Gold.Id.Protein>
6NUR|6NUR_protein|mol2

> <Gold.PLP.Fitness>
42.4307

> <Gold.PLP.PLP>
-37.7815

> <Gold.PLP.part.hbond>
-1.9119

> <Gold.PLP.part.metal>
0.0000

> <Gold.PLP.part.buried>
-2.4310

> <Gold.PLP.part.nonpolar>
-32.8595

> <Gold.PLP.part.repulsive>
0.1799

> <Gold.PLP.ligand.clash>
0.0000

> <Gold.PLP.ligand.torsion>
1.1275

> <Gold.PLP.Chemscore.Hbond>
1.9913

> <Gold.PLP.Chemscore.CHOScore>
0.0000

> <Gold.PLP.Chemscore.Metal>
0.0000

> <Gold.Chemscore.Hbonds>
donor molecule, donor type, donor heavy atom, donor atom, acceptor molecule, acceptor atom, score
      L1  H    17    33       P1 10175  1.00
      P1  H  7997  8010       L1     8  0.98

> <Gold.PLP.Chemscore.Internal.Correction>
0.9305

> <Gold.Rescore>
     Score         DG    S(hbond)    S(metal)    S(lipo)     H(rot)  DE(clash)    DE(int)     intcor
     14.10     -15.62       1.94        0.00      84.20       2.41       0.36       1.16       ----

> <Gold.Chemscore.Fitness>
14.1005

> <Gold.Chemscore.DG>
-15.6179

> <Gold.Chemscore.ZeroCoef>
-5.4800

> <Gold.Chemscore.Hbond>
1.9367

> <Gold.Chemscore.Metal>
0.0000

> <Gold.Chemscore.Lipo>
84.2009

> <Gold.Chemscore.Internal_Hbond>
0.0000

> <Gold.Chemscore.DEClash>
0.3581

> <Gold.Chemscore.DEInternal>
1.1593

> <Gold.Chemscore.Rot>
2.4149

> <Gold.Chemscore.Internal.Correction>
   9.000000E+99

> <Gold.Chemscore.Hbonds>
donor molecule, donor type, donor heavy atom, donor atom, acceptor molecule, acceptor atom, score
      L1  H    17    33       P1 10175  0.98
      P1  H  7997  8010       L1     8  0.56

> <Gold.Chemscore.Hbond.Weighted>
-6.4687

> <Gold.Chemscore.Metal.Weighted>
-0.0000

> <Gold.Chemscore.Lipo.Weighted>
-9.8515

> <Gold.Chemscore.Internal_Hbond.Weighted>
0.0000

> <Gold.Chemscore.DEClash.Weighted>
0.3581

> <Gold.Chemscore.DEInternal.Weighted>
1.1593

> <Gold.Chemscore.Rot.Weighted>
6.1822

> <Gold.Chemscore.Internal.Correction.Weighted>
   9.000000E+99

> <Gold.Protein.RotatedTorsions>
[ 6907 6896 6895 6894 ] final   92.98 input  -60.11 | X-H torsion
[ 7974 7965 7964 7962 ] final  -62.66 input  175.53 | X-H torsion
[ 8008 7997 7996 7995 ] final   34.81 input   59.86 | X-H torsion
[ 10167 10162 10161 10158 ] final  136.37 input  -65.29 | X-H torsion
[ 10718 10713 10712 10709 ] final  -46.07 input   66.30 | X-H torsion
[ 10763 10752 10751 10750 ] final    1.30 input  -60.55 | X-H torsion
[ 11005 11000 10999 10996 ] final  -65.88 input  -57.11 | X-H torsion

> <Gold.Protein.ActiveResidues>
 VAL166  LYS551  ARG553  GLY616  TRP617  ASP618  TYR619  PRO620  LYS621  CYS622 
 ASP623  PHE694  ASN695  SER759  ASP760  ASP761  ALA762  ILE779  LEU786  VAL792 
 PHE793  MET794  SER795  GLU796  ALA797  LYS798  CYS799  TRP800  GLU811  SER814 

> <Gold.Protein.RotatedAtoms>
  152.5453  134.1419  159.8482 H   0  0  0  0  0  0  0  0  0  0  0  0  # atno 6907 bound_to 6896
  151.1454  133.4936  159.2603 H   0  0  0  0  0  0  0  0  0  0  0  0  # atno 6908 bound_to 6896
  151.1528  135.0246  159.8731 H   0  0  0  0  0  0  0  0  0  0  0  0  # atno 6909 bound_to 6896
  145.7886  140.8722  143.0292 H   0  0  0  0  0  0  0  0  0  0  0  0  # atno 7974 bound_to 7965
  155.1609  140.3283  155.4411 H   0  0  0  0  0  0  0  0  0  0  0  0  # atno 8008 bound_to 7997
  156.2543  140.1960  156.6667 H   0  0  0  0  0  0  0  0  0  0  0  0  # atno 8009 bound_to 7997
  154.6406  140.0571  156.9827 H   0  0  0  0  0  0  0  0  0  0  0  0  # atno 8010 bound_to 7997
  139.5182  144.6468  151.5416 H   0  0  0  0  0  0  0  0  0  0  0  0  # atno 10167 bound_to 10162
  156.2219  130.4167  149.8982 H   0  0  0  0  0  0  0  0  0  0  0  0  # atno 10718 bound_to 10713
  153.3098  135.6962  153.7126 H   0  0  0  0  0  0  0  0  0  0  0  0  # atno 10763 bound_to 10752
  153.6007  135.3462  155.2945 H   0  0  0  0  0  0  0  0  0  0  0  0  # atno 10764 bound_to 10752
  154.8572  135.4340  154.2233 H   0  0  0  0  0  0  0  0  0  0  0  0  # atno 10765 bound_to 10752
  141.1467  133.6689  156.6055 H   0  0  0  0  0  0  0  0  0  0  0  0  # atno 11005 bound_to 11000
  144.6785  140.0091  143.7484 LP  0  0  0  0  0  0  0  0  0  0  0  0  # atno 17320 bound_to 7965
  146.0000  139.3083  143.0933 LP  0  0  0  0  0  0  0  0  0  0  0  0  # atno 17321 bound_to 7965
  140.6256  143.9174  150.6562 LP  0  0  0  0  0  0  0  0  0  0  0  0  # atno 17342 bound_to 10162
  140.2462  143.3627  152.1445 LP  0  0  0  0  0  0  0  0  0  0  0  0  # atno 17343 bound_to 10162
  156.6625  130.8788  151.3549 LP  0  0  0  0  0  0  0  0  0  0  0  0  # atno 17370 bound_to 10713
  157.7092  130.9420  150.1031 LP  0  0  0  0  0  0  0  0  0  0  0  0  # atno 17371 bound_to 10713
  140.3655  134.7650  157.4563 LP  0  0  0  0  0  0  0  0  0  0  0  0  # atno 17394 bound_to 11000
  140.0751  134.5808  155.8600 LP  0  0  0  0  0  0  0  0  0  0  0  0  # atno 17395 bound_to 11000

$$$$
