AV-unprocessed.smi:1499|AV-procd|sdf|6061|dock4
  -GOLD-   22720 6173D 1   1.00000     0.00000
 Structure written by MMmdl.
 41 42  0  0  0  0  0  0  0  0  2 V2000
  146.8543  128.5782  151.9329 C   0  0  0  0  0  0  0  0  0  0  0  0
  147.1737  129.8058  152.7984 C   0  0  0  0  0  0  0  0  0  0  0  0
  147.1553  131.0727  152.0246 N   0  3  0  0  0  0  0  0  0  0  0  0
  147.2836  132.2670  152.9037 C   0  0  0  0  0  0  0  0  0  0  0  0
  147.2680  133.5758  152.0910 C   0  0  0  0  0  0  0  0  0  0  0  0
  146.0458  133.6169  151.2753 N   0  0  0  0  0  0  0  0  0  0  0  0
  144.9378  134.3514  151.5457 C   0  0  0  0  0  0  0  0  0  0  0  0
  143.9563  134.3688  150.8023 O   0  0  0  0  0  0  0  0  0  0  0  0
  145.0458  135.1245  152.6430 N   0  0  0  0  0  0  0  0  0  0  0  0
  144.0527  135.9580  153.2172 C   0  0  0  0  0  0  0  0  0  0  0  0
  143.0916  135.5312  154.1700 C   0  0  0  0  0  0  0  0  0  0  0  0
  142.2874  136.5242  154.5177 N   0  0  0  0  0  0  0  0  0  0  0  0
  142.7156  137.5927  153.7992 N   0  0  0  0  0  0  0  0  0  0  0  0
  142.0384  138.8701  153.9352 C   0  0  0  0  0  0  0  0  0  0  0  0
  140.5227  138.7078  153.8089 C   0  0  0  0  0  0  0  0  0  0  0  0
  139.8999  139.4784  152.9132 N   0  0  0  0  0  0  0  0  0  0  0  0
  139.9222  137.8967  154.5104 O   0  0  0  0  0  0  0  0  0  0  0  0
  143.7945  137.2814  152.9947 C   0  0  0  0  0  0  0  0  0  0  0  0
  146.0254  132.5093  150.3158 C   0  0  0  0  0  0  0  0  0  0  0  0
  146.0066  131.1736  151.0817 C   0  0  0  0  0  0  0  0  0  0  0  0
  146.9759  127.6612  152.5101 H   0  0  0  0  0  0  0  0  0  0  0  0
  147.5215  128.5172  151.0730 H   0  0  0  0  0  0  0  0  0  0  0  0
  145.8285  128.5913  151.5655 H   0  0  0  0  0  0  0  0  0  0  0  0
  146.4842  129.8720  153.6415 H   0  0  0  0  0  0  0  0  0  0  0  0
  148.1684  129.6636  153.2235 H   0  0  0  0  0  0  0  0  0  0  0  0
  146.4658  132.2722  153.6265 H   0  0  0  0  0  0  0  0  0  0  0  0
  148.2108  132.2037  153.4743 H   0  0  0  0  0  0  0  0  0  0  0  0
  147.3767  134.4240  152.7668 H   0  0  0  0  0  0  0  0  0  0  0  0
  148.1369  133.6157  151.4321 H   0  0  0  0  0  0  0  0  0  0  0  0
  145.9254  135.0875  153.1372 H   0  0  0  0  0  0  0  0  0  0  0  0
  142.9518  134.5550  154.6107 H   0  0  0  0  0  0  0  0  0  0  0  0
  142.2900  139.3205  154.8970 H   0  0  0  0  0  0  0  0  0  0  0  0
  142.4063  139.5438  153.1602 H   0  0  0  0  0  0  0  0  0  0  0  0
  138.9005  139.4002  152.7903 H   0  0  0  0  0  0  0  0  0  0  0  0
  140.4323  140.1314  152.3569 H   0  0  0  0  0  0  0  0  0  0  0  0
  144.2588  138.0155  152.3529 H   0  0  0  0  0  0  0  0  0  0  0  0
  145.1771  132.5632  149.6315 H   0  0  0  0  0  0  0  0  0  0  0  0
  146.9137  132.5660  149.6848 H   0  0  0  0  0  0  0  0  0  0  0  0
  146.0335  130.3538  150.3647 H   0  0  0  0  0  0  0  0  0  0  0  0
  145.0716  131.0800  151.6368 H   0  0  0  0  0  0  0  0  0  0  0  0
  147.9886  131.0684  151.4538 H   0  0  0  0  0  0  0  0  0  0  0  0
  1  2  1  0  0  0  0
  1 21  1  0  0  0  0
  1 22  1  0  0  0  0
  1 23  1  0  0  0  0
  2  3  1  0  0  0  0
  2 24  1  0  0  0  0
  2 25  1  0  0  0  0
  3 20  1  0  0  0  0
  3  4  1  0  0  0  0
  3 41  1  0  0  0  0
  4  5  1  0  0  0  0
  4 26  1  0  0  0  0
  4 27  1  0  0  0  0
  5  6  1  0  0  0  0
  5 28  1  0  0  0  0
  5 29  1  0  0  0  0
  6  7  1  0  0  0  0
  6 19  1  0  0  0  0
  7  8  2  0  0  0  0
  7  9  1  0  0  0  0
  9 10  1  0  0  0  0
  9 30  1  0  0  0  0
 10 18  2  0  0  0  0
 10 11  1  0  0  0  0
 11 12  2  0  0  0  0
 11 31  1  0  0  0  0
 12 13  1  0  0  0  0
 13 14  1  0  0  0  0
 13 18  1  0  0  0  0
 14 15  1  0  0  0  0
 14 32  1  0  0  0  0
 14 33  1  0  0  0  0
 15 16  1  0  0  0  0
 15 17  2  0  0  0  0
 16 34  1  0  0  0  0
 16 35  1  0  0  0  0
 18 36  1  0  0  0  0
 19 20  1  0  0  0  0
 19 37  1  0  0  0  0
 19 38  1  0  0  0  0
 20 39  1  0  0  0  0
 20 40  1  0  0  0  0
M  CHG  1   3   1
M  END
> <s_m_source_file>
AV-unprocessed.smi

> <i_m_source_file_index>
1499

> <i_lp_mmshare_version>
43012

> <i_f3d_flags>
0

> <s_epik_input>
W0NIM11bQ0gyXU4xW0NIMl1bQ0gyXU4oW0NIMl1bQ0gyXTEpQyg9TylbTkhdYzJbY0hdbm4oW2NIXTIpW0NIMl1DKD1PKVtOSDJd

> <s_epik_cmdline>
J2VwaWtfcHl0aG9uJywgJy1waCcsICc3LjAnLCAnLXRuJywgJzgnLCAnLW1hJywgJzIwMCcsICctbWV0YWxfYmluZGluZycsICctaW1hZScsICc8aW5maWxlLm1hZT4nLCAnLW9tYWUnLCAnPG91dGZpbGUubWFlPic=

> <r_lp_tautomer_probability>
1

> <r_epik_Ionization_Penalty>
0.390351

> <r_epik_Ionization_Penalty_Charging>
0.390326

> <r_epik_Ionization_Penalty_Neutral>
2.46507e-05

> <r_epik_State_Penalty>
0.388987

> <r_epik_Charging_Adjusted_Penalty>
0.779313

> <i_epik_Tot_Q>
1

> <i_epik_Tot_abs_Q>
1

> <r_epik_Metal_State_Penalty>
0.388988

> <b_epik_Metal_Only>
0

> <s_lp_Force_Field>
OPLS_2005

> <r_lp_Energy>
52.2824

> <b_lp_Chiralities_Consistent>
1

> <s_lp_Variant>
AV-unprocessed.smi:1499-1

> <Gold.Version>
5.8.1

> <Gold.Id.Protein>
6NUR|6NUR_protein|mol2

> <Gold.PLP.Fitness>
46.5292

> <Gold.PLP.PLP>
-34.8047

> <Gold.PLP.part.hbond>
-1.9133

> <Gold.PLP.part.metal>
0.0000

> <Gold.PLP.part.buried>
-6.5111

> <Gold.PLP.part.nonpolar>
-28.2066

> <Gold.PLP.part.repulsive>
1.9437

> <Gold.PLP.ligand.clash>
0.0000

> <Gold.PLP.ligand.torsion>
1.0440

> <Gold.PLP.Chemscore.Hbond>
1.9913

> <Gold.PLP.Chemscore.CHOScore>
2.5809

> <Gold.PLP.Chemscore.Metal>
0.0000

> <Gold.Chemscore.Hbonds>
donor molecule, donor type, donor heavy atom, donor atom, acceptor molecule, acceptor atom, score
      L1  H     3    41       P1 10747  1.00
      L1  H    16    35       P1 10160  0.70
      L1  C    11    31       P1 10957  0.31
      L1  C    18    36       P1 10171  0.76
      L1  C    18    36       P1 10175  0.84

> <Gold.PLP.Chemscore.Internal.Correction>
0.0958

> <Gold.Rescore>
     Score         DG    S(hbond)    S(metal)    S(lipo)     H(rot)  DE(clash)    DE(int)     intcor
     12.17     -14.97       1.97        0.00      65.54       1.85       0.20       2.61       ----

> <Gold.Chemscore.Fitness>
12.1681

> <Gold.Chemscore.DG>
-14.9725

> <Gold.Chemscore.ZeroCoef>
-5.4800

> <Gold.Chemscore.Hbond>
1.9666

> <Gold.Chemscore.Metal>
0.0000

> <Gold.Chemscore.Lipo>
65.5402

> <Gold.Chemscore.Internal_Hbond>
0.0000

> <Gold.Chemscore.DEClash>
0.1969

> <Gold.Chemscore.DEInternal>
2.6075

> <Gold.Chemscore.Rot>
1.8532

> <Gold.Chemscore.Internal.Correction>
   9.000000E+99

> <Gold.Chemscore.Hbonds>
donor molecule, donor type, donor heavy atom, donor atom, acceptor molecule, acceptor atom, score
      L1  H     3    41       P1 10747  0.95
      L1  H    16    35       P1 10160  0.66

> <Gold.Chemscore.Hbond.Weighted>
-6.5684

> <Gold.Chemscore.Metal.Weighted>
-0.0000

> <Gold.Chemscore.Lipo.Weighted>
-7.6682

> <Gold.Chemscore.Internal_Hbond.Weighted>
0.0000

> <Gold.Chemscore.DEClash.Weighted>
0.1969

> <Gold.Chemscore.DEInternal.Weighted>
2.6075

> <Gold.Chemscore.Rot.Weighted>
4.7441

> <Gold.Chemscore.Internal.Correction.Weighted>
   9.000000E+99

> <Gold.Protein.RotatedTorsions>
[ 6907 6896 6895 6894 ] final -170.68 input  -60.11 | X-H torsion
[ 7974 7965 7964 7962 ] final -111.10 input  175.53 | X-H torsion
[ 8008 7997 7996 7995 ] final -127.59 input   59.86 | X-H torsion
[ 10167 10162 10161 10158 ] final -164.24 input  -65.29 | X-H torsion
[ 10718 10713 10712 10709 ] final -127.23 input   66.30 | X-H torsion
[ 10763 10752 10751 10750 ] final   30.18 input  -60.55 | X-H torsion
[ 11005 11000 10999 10996 ] final  105.75 input  -57.11 | X-H torsion

> <Gold.Protein.ActiveResidues>
 VAL166  LYS551  ARG553  GLY616  TRP617  ASP618  TYR619  PRO620  LYS621  CYS622 
 ASP623  PHE694  ASN695  SER759  ASP760  ASP761  ALA762  ILE779  LEU786  VAL792 
 PHE793  MET794  SER795  GLU796  ALA797  LYS798  CYS799  TRP800  GLU811  SER814 

> <Gold.Protein.RotatedAtoms>
  151.5116  133.3484  159.2885 H   0  0  0  0  0  0  0  0  0  0  0  0  # atno 6907 bound_to 6896
  150.8709  134.8084  159.7165 H   0  0  0  0  0  0  0  0  0  0  0  0  # atno 6908 bound_to 6896
  152.4697  134.5000  159.9773 H   0  0  0  0  0  0  0  0  0  0  0  0  # atno 6909 bound_to 6896
  145.1601  140.8874  143.3595 H   0  0  0  0  0  0  0  0  0  0  0  0  # atno 7974 bound_to 7965
  155.2487  140.0431  157.2984 H   0  0  0  0  0  0  0  0  0  0  0  0  # atno 8008 bound_to 7997
  154.5783  140.2393  155.8061 H   0  0  0  0  0  0  0  0  0  0  0  0  # atno 8009 bound_to 7997
  156.2174  140.2980  155.9879 H   0  0  0  0  0  0  0  0  0  0  0  0  # atno 8010 bound_to 7997
  139.6265  144.0523  152.1979 H   0  0  0  0  0  0  0  0  0  0  0  0  # atno 10167 bound_to 10162
  156.1838  130.6749  151.0338 H   0  0  0  0  0  0  0  0  0  0  0  0  # atno 10718 bound_to 10713
  153.0387  135.6470  154.1004 H   0  0  0  0  0  0  0  0  0  0  0  0  # atno 10763 bound_to 10752
  154.0715  135.2880  155.3309 H   0  0  0  0  0  0  0  0  0  0  0  0  # atno 10764 bound_to 10752
  154.6591  135.5398  153.8060 H   0  0  0  0  0  0  0  0  0  0  0  0  # atno 10765 bound_to 10752
  139.8806  134.9346  156.5562 H   0  0  0  0  0  0  0  0  0  0  0  0  # atno 11005 bound_to 11000
  145.0339  139.3317  143.6010 LP  0  0  0  0  0  0  0  0  0  0  0  0  # atno 17320 bound_to 7965
  146.3483  139.9687  142.8709 LP  0  0  0  0  0  0  0  0  0  0  0  0  # atno 17321 bound_to 7965
  140.0178  144.6176  150.7592 LP  0  0  0  0  0  0  0  0  0  0  0  0  # atno 17342 bound_to 10162
  140.7414  143.2817  151.3579 LP  0  0  0  0  0  0  0  0  0  0  0  0  # atno 17343 bound_to 10162
  157.6885  131.0817  150.7174 LP  0  0  0  0  0  0  0  0  0  0  0  0  # atno 17370 bound_to 10713
  156.7231  130.4686  149.5518 LP  0  0  0  0  0  0  0  0  0  0  0  0  # atno 17371 bound_to 10713
  140.8203  133.8359  155.8890 LP  0  0  0  0  0  0  0  0  0  0  0  0  # atno 17394 bound_to 11000
  140.9424  134.1883  157.4788 LP  0  0  0  0  0  0  0  0  0  0  0  0  # atno 17395 bound_to 11000

$$$$
