AV-unprocessed.smi:1347|AV-procd|sdf|5516|dock2
  -GOLD-   22720 5103D 1   1.00000     0.00000
 Structure written by MMmdl.
 38 39  0  0  0  0  0  0  0  0  1 V2000
  151.9497  144.1950  159.8732 C   0  0  0  0  0  0  0  0  0  0  0  0
  150.7803  144.0815  159.0818 O   0  0  0  0  0  0  0  0  0  0  0  0
  150.1198  142.8405  159.2693 C   0  0  0  0  0  0  0  0  0  0  0  0
  150.5706  141.8661  158.1822 C   0  0  0  0  0  0  0  0  0  0  0  0
  151.2984  140.9144  158.4642 O   0  0  0  0  0  0  0  0  0  0  0  0
  150.1197  142.1090  156.9427 N   0  0  0  0  0  0  0  0  0  0  0  0
  150.3777  141.2730  155.7752 C   0  0  0  0  0  0  0  0  0  0  0  0
  149.1164  140.8781  155.0136 C   0  0  0  0  0  0  0  0  0  0  0  0
  148.1924  141.8760  154.6377 C   0  0  0  0  0  0  0  0  0  0  0  0
  147.0317  141.5079  153.9333 C   0  0  0  0  0  0  0  0  0  0  0  0
  146.8374  140.1476  153.6319 C   0  0  0  0  0  0  0  0  0  0  0  0
  147.7094  139.1804  153.9856 N   0  0  0  0  0  0  0  0  0  0  0  0
  148.8289  139.5331  154.6627 C   0  0  0  0  0  0  0  0  0  0  0  0
  149.7181  138.5055  155.0148 N   0  0  0  0  0  0  0  0  0  0  0  0
  149.1845  137.1627  154.8341 C   0  0  0  0  0  0  0  0  0  0  0  0
  150.1690  136.1310  155.4124 C   0  0  0  0  0  0  0  0  0  0  0  0
  151.4499  136.2990  154.8098 O   0  0  0  0  0  0  0  0  0  0  0  0
  151.9920  137.5954  155.0488 C   0  0  0  0  0  0  0  0  0  0  0  0
  151.0551  138.6616  154.4570 C   0  0  0  0  0  0  0  0  0  0  0  0
  152.4233  145.1598  159.6914 H   0  0  0  0  0  0  0  0  0  0  0  0
  152.6704  143.4144  159.6260 H   0  0  0  0  0  0  0  0  0  0  0  0
  151.7139  144.1306  160.9362 H   0  0  0  0  0  0  0  0  0  0  0  0
  150.3676  142.4188  160.2446 H   0  0  0  0  0  0  0  0  0  0  0  0
  149.0375  142.9780  159.2300 H   0  0  0  0  0  0  0  0  0  0  0  0
  149.5292  142.9157  156.8028 H   0  0  0  0  0  0  0  0  0  0  0  0
  151.0318  141.8237  155.0987 H   0  0  0  0  0  0  0  0  0  0  0  0
  150.9326  140.3839  156.0785 H   0  0  0  0  0  0  0  0  0  0  0  0
  148.3705  142.9133  154.8809 H   0  0  0  0  0  0  0  0  0  0  0  0
  146.3090  142.2508  153.6304 H   0  0  0  0  0  0  0  0  0  0  0  0
  145.9581  139.8274  153.0930 H   0  0  0  0  0  0  0  0  0  0  0  0
  148.2172  137.0788  155.3308 H   0  0  0  0  0  0  0  0  0  0  0  0
  149.0231  136.9692  153.7728 H   0  0  0  0  0  0  0  0  0  0  0  0
  150.2497  136.2360  156.4955 H   0  0  0  0  0  0  0  0  0  0  0  0
  149.8133  135.1195  155.2159 H   0  0  0  0  0  0  0  0  0  0  0  0
  152.1307  137.7525  156.1198 H   0  0  0  0  0  0  0  0  0  0  0  0
  152.9771  137.6609  154.5864 H   0  0  0  0  0  0  0  0  0  0  0  0
  151.0170  138.5607  153.3716 H   0  0  0  0  0  0  0  0  0  0  0  0
  151.4350  139.6601  154.6771 H   0  0  0  0  0  0  0  0  0  0  0  0
  1  2  1  0  0  0  0
  1 20  1  0  0  0  0
  1 21  1  0  0  0  0
  1 22  1  0  0  0  0
  2  3  1  0  0  0  0
  3  4  1  0  0  0  0
  3 23  1  0  0  0  0
  3 24  1  0  0  0  0
  4  5  2  0  0  0  0
  4  6  1  0  0  0  0
  6  7  1  0  0  0  0
  6 25  1  0  0  0  0
  7  8  1  0  0  0  0
  7 26  1  0  0  0  0
  7 27  1  0  0  0  0
  8 13  1  0  0  0  0
  8  9  2  0  0  0  0
  9 10  1  0  0  0  0
  9 28  1  0  0  0  0
 10 11  2  0  0  0  0
 10 29  1  0  0  0  0
 11 12  1  0  0  0  0
 11 30  1  0  0  0  0
 12 13  2  0  0  0  0
 13 14  1  0  0  0  0
 14 19  1  0  0  0  0
 14 15  1  0  0  0  0
 15 16  1  0  0  0  0
 15 31  1  0  0  0  0
 15 32  1  0  0  0  0
 16 17  1  0  0  0  0
 16 33  1  0  0  0  0
 16 34  1  0  0  0  0
 17 18  1  0  0  0  0
 18 19  1  0  0  0  0
 18 35  1  0  0  0  0
 18 36  1  0  0  0  0
 19 37  1  0  0  0  0
 19 38  1  0  0  0  0
M  END
> <s_m_source_file>
AV-unprocessed.smi

> <i_m_source_file_index>
1347

> <i_lp_mmshare_version>
43012

> <i_f3d_flags>
0

> <s_epik_input>
W0NIM11PW0NIMl1DKD1PKVtOSF1bQ0gyXWMxW2NIXVtjSF1bY0hdbmMxTjJbQ0gyXVtDSDJdT1tDSDJdW0NIMl0y

> <s_epik_cmdline>
J2VwaWtfcHl0aG9uJywgJy1waCcsICc3LjAnLCAnLXRuJywgJzgnLCAnLW1hJywgJzIwMCcsICctbWV0YWxfYmluZGluZycsICctaW1hZScsICc8aW5maWxlLm1hZT4nLCAnLW9tYWUnLCAnPG91dGZpbGUubWFlPic=

> <r_lp_tautomer_probability>
1

> <r_epik_Ionization_Penalty>
0.00422298

> <r_epik_Ionization_Penalty_Charging>
0

> <r_epik_Ionization_Penalty_Neutral>
0.00422298

> <r_epik_State_Penalty>
0.00303469

> <r_epik_Charging_Adjusted_Penalty>
0.00303469

> <i_epik_Tot_Q>
0

> <i_epik_Tot_abs_Q>
0

> <r_epik_Metal_State_Penalty>
-0

> <b_epik_Metal_Only>
0

> <s_lp_Force_Field>
OPLS_2005

> <r_lp_Energy>
19.5871

> <b_lp_Chiralities_Consistent>
1

> <s_lp_Variant>
AV-unprocessed.smi:1347-1

> <Gold.Version>
5.8.1

> <Gold.Id.Protein>
6NUR|6NUR_protein|mol2

> <Gold.PLP.Fitness>
40.6592

> <Gold.PLP.PLP>
-32.5867

> <Gold.PLP.part.hbond>
-2.0000

> <Gold.PLP.part.metal>
0.0000

> <Gold.PLP.part.buried>
-3.9508

> <Gold.PLP.part.nonpolar>
-26.9311

> <Gold.PLP.part.repulsive>
0.6373

> <Gold.PLP.ligand.clash>
0.0000

> <Gold.PLP.ligand.torsion>
0.5887

> <Gold.PLP.Chemscore.Hbond>
2.0000

> <Gold.PLP.Chemscore.CHOScore>
1.0000

> <Gold.PLP.Chemscore.Metal>
0.0000

> <Gold.Chemscore.Hbonds>
donor molecule, donor type, donor heavy atom, donor atom, acceptor molecule, acceptor atom, score
      L1  H     6    25       P1  8028  0.50
      P1  H 10752 10764       L1    17  0.70
      L1  C    11    30       P1 10175  1.00

> <Gold.PLP.Chemscore.Internal.Correction>
0.2500

> <Gold.Rescore>
     Score         DG    S(hbond)    S(metal)    S(lipo)     H(rot)  DE(clash)    DE(int)     intcor
     14.12     -16.12       1.96        0.00      77.34       1.94       0.20       1.80       ----

> <Gold.Chemscore.Fitness>
14.1176

> <Gold.Chemscore.DG>
-16.1154

> <Gold.Chemscore.ZeroCoef>
-5.4800

> <Gold.Chemscore.Hbond>
1.9609

> <Gold.Chemscore.Metal>
0.0000

> <Gold.Chemscore.Lipo>
77.3407

> <Gold.Chemscore.Internal_Hbond>
0.0000

> <Gold.Chemscore.DEClash>
0.1956

> <Gold.Chemscore.DEInternal>
1.8022

> <Gold.Chemscore.Rot>
1.9385

> <Gold.Chemscore.Internal.Correction>
   9.000000E+99

> <Gold.Chemscore.Hbonds>
donor molecule, donor type, donor heavy atom, donor atom, acceptor molecule, acceptor atom, score
      L1  H     6    25       P1  8028  0.48
      P1  H 10752 10764       L1    17  0.07

> <Gold.Chemscore.Hbond.Weighted>
-6.5492

> <Gold.Chemscore.Metal.Weighted>
-0.0000

> <Gold.Chemscore.Lipo.Weighted>
-9.0489

> <Gold.Chemscore.Internal_Hbond.Weighted>
0.0000

> <Gold.Chemscore.DEClash.Weighted>
0.1956

> <Gold.Chemscore.DEInternal.Weighted>
1.8022

> <Gold.Chemscore.Rot.Weighted>
4.9627

> <Gold.Chemscore.Internal.Correction.Weighted>
   9.000000E+99

> <Gold.Protein.RotatedTorsions>
[ 6907 6896 6895 6894 ] final   23.60 input  -60.11 | X-H torsion
[ 7974 7965 7964 7962 ] final  -53.21 input  175.53 | X-H torsion
[ 8008 7997 7996 7995 ] final  -17.61 input   59.86 | X-H torsion
[ 10167 10162 10161 10158 ] final  -75.99 input  -65.29 | X-H torsion
[ 10718 10713 10712 10709 ] final  -77.84 input   66.30 | X-H torsion
[ 10763 10752 10751 10750 ] final  -51.36 input  -60.55 | X-H torsion
[ 11005 11000 10999 10996 ] final   -5.75 input  -57.11 | X-H torsion

> <Gold.Protein.ActiveResidues>
 VAL166  LYS551  ARG553  GLY616  TRP617  ASP618  TYR619  PRO620  LYS621  CYS622 
 ASP623  PHE694  ASN695  SER759  ASP760  ASP761  ALA762  ILE779  LEU786  VAL792 
 PHE793  MET794  SER795  GLU796  ALA797  LYS798  CYS799  TRP800  GLU811  SER814 

> <Gold.Protein.RotatedAtoms>
  151.9449  135.0196  160.0537 H   0  0  0  0  0  0  0  0  0  0  0  0  # atno 6907 bound_to 6896
  152.2004  133.4832  159.5064 H   0  0  0  0  0  0  0  0  0  0  0  0  # atno 6908 bound_to 6896
  150.6953  134.1514  159.4185 H   0  0  0  0  0  0  0  0  0  0  0  0  # atno 6909 bound_to 6896
  145.8993  140.8007  142.9751 H   0  0  0  0  0  0  0  0  0  0  0  0  # atno 7974 bound_to 7965
  154.4966  140.2138  155.9434 H   0  0  0  0  0  0  0  0  0  0  0  0  # atno 8008 bound_to 7997
  156.1378  140.3185  155.8416 H   0  0  0  0  0  0  0  0  0  0  0  0  # atno 8009 bound_to 7997
  155.4176  140.0495  157.3018 H   0  0  0  0  0  0  0  0  0  0  0  0  # atno 8010 bound_to 7997
  140.4895  143.2383  151.7929 H   0  0  0  0  0  0  0  0  0  0  0  0  # atno 10167 bound_to 10162
  156.0134  130.4502  150.3405 H   0  0  0  0  0  0  0  0  0  0  0  0  # atno 10718 bound_to 10713
  154.1253  135.6528  153.4911 H   0  0  0  0  0  0  0  0  0  0  0  0  # atno 10763 bound_to 10752
  153.0212  135.5280  154.7055 H   0  0  0  0  0  0  0  0  0  0  0  0  # atno 10764 bound_to 10752
  154.6275  135.2972  155.0226 H   0  0  0  0  0  0  0  0  0  0  0  0  # atno 10765 bound_to 10752
  140.6945  133.9042  155.8641 H   0  0  0  0  0  0  0  0  0  0  0  0  # atno 11005 bound_to 11000
  144.6735  140.1652  143.7419 LP  0  0  0  0  0  0  0  0  0  0  0  0  # atno 17320 bound_to 7965
  145.8811  139.2323  143.1605 LP  0  0  0  0  0  0  0  0  0  0  0  0  # atno 17321 bound_to 7965
  139.4848  144.4667  151.9475 LP  0  0  0  0  0  0  0  0  0  0  0  0  # atno 17342 bound_to 10162
  140.3754  144.2803  150.5915 LP  0  0  0  0  0  0  0  0  0  0  0  0  # atno 17343 bound_to 10162
  157.1501  131.0318  151.2889 LP  0  0  0  0  0  0  0  0  0  0  0  0  # atno 17370 bound_to 10713
  157.4399  130.7538  149.7061 LP  0  0  0  0  0  0  0  0  0  0  0  0  # atno 17371 bound_to 10713
  141.0214  134.0883  157.4116 LP  0  0  0  0  0  0  0  0  0  0  0  0  # atno 17394 bound_to 11000
  139.8914  135.0118  156.6789 LP  0  0  0  0  0  0  0  0  0  0  0  0  # atno 17395 bound_to 11000

$$$$
