AV-unprocessed.smi:2774|AV-procd|sdf|10683|dock6
  -GOLD-   2272015123D 1   1.00000     0.00000
 Structure written by MMmdl.
 35 36  0  0  0  0  0  0  0  0  2 V2000
  149.7505  141.9951  154.6058 O   0  0  0  0  0  0  0  0  0  0  0  0
  150.3458  141.3970  155.7405 C   0  0  1  0  0  0  0  0  0  0  0  0
  149.3219  141.3923  156.8894 C   0  0  0  0  0  0  0  0  0  0  0  0
  149.2985  142.6906  157.5976 N   0  3  0  0  0  0  0  0  0  0  0  0
  150.5721  143.0828  158.2407 C   0  0  1  0  0  0  0  0  0  0  0  0
  150.3360  144.3235  159.1243 C   0  0  0  0  0  0  0  0  0  0  0  0
  151.6283  144.8566  159.7651 C   0  0  0  0  0  0  0  0  0  0  0  0
  152.2944  143.8253  160.6856 C   0  0  0  0  0  0  0  0  0  0  0  0
  152.7776  142.3426  159.7618 S   0  0  0  0  0  0  0  0  0  0  0  0
  151.1592  141.9168  159.0629 C   0  0  0  0  0  0  0  0  0  0  0  0
  150.8395  139.9919  155.4349 C   0  0  0  0  0  0  0  0  0  0  0  0
  149.9935  139.0547  154.8055 C   0  0  0  0  0  0  0  0  0  0  0  0
  150.4971  137.7658  154.5377 C   0  0  0  0  0  0  0  0  0  0  0  0
  151.7525  137.3803  154.8513 N   0  0  0  0  0  0  0  0  0  0  0  0
  152.5582  138.2808  155.4534 C   0  0  0  0  0  0  0  0  0  0  0  0
  152.1530  139.5939  155.7656 C   0  0  0  0  0  0  0  0  0  0  0  0
  149.4501  142.8591  154.8457 H   0  0  0  0  0  0  0  0  0  0  0  0
  151.2014  142.0122  156.0234 H   0  0  0  0  0  0  0  0  0  0  0  0
  148.3301  141.1534  156.5054 H   0  0  0  0  0  0  0  0  0  0  0  0
  149.5822  140.6123  157.6063 H   0  0  0  0  0  0  0  0  0  0  0  0
  149.0659  143.3986  156.9162 H   0  0  0  0  0  0  0  0  0  0  0  0
  151.2765  143.3581  157.4541 H   0  0  0  0  0  0  0  0  0  0  0  0
  149.8908  145.1177  158.5235 H   0  0  0  0  0  0  0  0  0  0  0  0
  149.6115  144.0916  159.9062 H   0  0  0  0  0  0  0  0  0  0  0  0
  152.3288  145.1621  158.9868 H   0  0  0  0  0  0  0  0  0  0  0  0
  151.4007  145.7551  160.3394 H   0  0  0  0  0  0  0  0  0  0  0  0
  153.1829  144.2525  161.1512 H   0  0  0  0  0  0  0  0  0  0  0  0
  151.6174  143.5390  161.4910 H   0  0  0  0  0  0  0  0  0  0  0  0
  150.4850  141.6426  159.8752 H   0  0  0  0  0  0  0  0  0  0  0  0
  151.2932  141.0271  158.4486 H   0  0  0  0  0  0  0  0  0  0  0  0
  148.9803  139.3104  154.5321 H   0  0  0  0  0  0  0  0  0  0  0  0
  149.8750  137.0251  154.0573 H   0  0  0  0  0  0  0  0  0  0  0  0
  153.5567  137.9459  155.6925 H   0  0  0  0  0  0  0  0  0  0  0  0
  152.8384  140.2764  156.2464 H   0  0  0  0  0  0  0  0  0  0  0  0
  148.5702  142.6708  158.2976 H   0  0  0  0  0  0  0  0  0  0  0  0
  1  2  1  0  0  0  0
  1 17  1  0  0  0  0
  2  3  1  0  0  0  0
  2 11  1  0  0  0  0
  2 18  1  0  0  0  0
  3  4  1  0  0  0  0
  3 19  1  0  0  0  0
  3 20  1  0  0  0  0
  4  5  1  0  0  0  0
  4 21  1  0  0  0  0
  4 35  1  0  0  0  0
  5 10  1  0  0  0  0
  5  6  1  0  0  0  0
  5 22  1  0  0  0  0
  6  7  1  0  0  0  0
  6 23  1  0  0  0  0
  6 24  1  0  0  0  0
  7  8  1  0  0  0  0
  7 25  1  0  0  0  0
  7 26  1  0  0  0  0
  8  9  1  0  0  0  0
  8 27  1  0  0  0  0
  8 28  1  0  0  0  0
  9 10  1  0  0  0  0
 10 29  1  0  0  0  0
 10 30  1  0  0  0  0
 11 16  1  0  0  0  0
 11 12  2  0  0  0  0
 12 13  1  0  0  0  0
 12 31  1  0  0  0  0
 13 14  2  0  0  0  0
 13 32  1  0  0  0  0
 14 15  1  0  0  0  0
 15 16  2  0  0  0  0
 15 33  1  0  0  0  0
 16 34  1  0  0  0  0
M  CHG  1   4   1
M  END
> <s_m_source_file>
AV-unprocessed.smi

> <i_m_source_file_index>
2774

> <i_lp_mmshare_version>
43012

> <i_f3d_flags>
0

> <s_epik_input>
W2NIXTFbY0hdbltjSF1bY0hdYzFbQ0BIXShbT0hdKVtDSDJdW05IXVtDQEBIXTJbQ0gyXVtDSDJdW0NIMl1TW0NIMl0y

> <s_epik_cmdline>
J2VwaWtfcHl0aG9uJywgJy1waCcsICc3LjAnLCAnLXRuJywgJzgnLCAnLW1hJywgJzIwMCcsICctbWV0YWxfYmluZGluZycsICctaW1hZScsICc8aW5maWxlLm1hZT4nLCAnLW9tYWUnLCAnPG91dGZpbGUubWFlPic=

> <r_epik_Ionization_Penalty>
0.0205977

> <r_epik_Ionization_Penalty_Charging>
0.0185619

> <r_epik_Ionization_Penalty_Neutral>
0.00203589

> <r_epik_State_Penalty>
0.0147768

> <r_epik_Charging_Adjusted_Penalty>
0.0333386

> <i_epik_Tot_Q>
1

> <i_epik_Tot_abs_Q>
1

> <r_epik_Metal_State_Penalty>
0.0152254

> <b_epik_Metal_Only>
0

> <s_lp_Force_Field>
OPLS_2005

> <r_lp_Energy>
9.96731

> <b_lp_Chiralities_Consistent>
1

> <s_lp_Variant>
AV-unprocessed.smi:2774-4

> <Gold.Version>
5.8.1

> <Gold.Id.Protein>
6NUR|6NUR_protein|mol2

> <Gold.PLP.Fitness>
52.2217

> <Gold.PLP.PLP>
-39.2905

> <Gold.PLP.part.hbond>
-4.9005

> <Gold.PLP.part.metal>
0.0000

> <Gold.PLP.part.buried>
-1.3287

> <Gold.PLP.part.nonpolar>
-32.4656

> <Gold.PLP.part.repulsive>
0.1825

> <Gold.PLP.ligand.clash>
0.0000

> <Gold.PLP.ligand.torsion>
0.5326

> <Gold.PLP.Chemscore.Hbond>
3.6588

> <Gold.PLP.Chemscore.CHOScore>
1.0000

> <Gold.PLP.Chemscore.Metal>
0.0000

> <Gold.Chemscore.Hbonds>
donor molecule, donor type, donor heavy atom, donor atom, acceptor molecule, acceptor atom, score
      L1  H     1    17       P1  8028  0.84
      L1  H     4    21       P1  8028  2.00
      P1  H  8011  8017       L1     1  0.07
      P1  H 10752 10763       L1    14  0.66
      L1  C    13    32       P1  7948  1.00

> <Gold.PLP.Chemscore.Internal.Correction>
0.0199

> <Gold.Rescore>
     Score         DG    S(hbond)    S(metal)    S(lipo)     H(rot)  DE(clash)    DE(int)     intcor
     19.16     -20.71       2.22        0.00     109.77       1.97       1.04       0.51       ----

> <Gold.Chemscore.Fitness>
19.1590

> <Gold.Chemscore.DG>
-20.7054

> <Gold.Chemscore.ZeroCoef>
-5.4800

> <Gold.Chemscore.Hbond>
2.2221

> <Gold.Chemscore.Metal>
0.0000

> <Gold.Chemscore.Lipo>
109.7711

> <Gold.Chemscore.Internal_Hbond>
0.0000

> <Gold.Chemscore.DEClash>
1.0368

> <Gold.Chemscore.DEInternal>
0.5095

> <Gold.Chemscore.Rot>
1.9686

> <Gold.Chemscore.Internal.Correction>
   9.000000E+99

> <Gold.Chemscore.Hbonds>
donor molecule, donor type, donor heavy atom, donor atom, acceptor molecule, acceptor atom, score
      L1  H     1    17       P1  8028  0.82
      L1  H     4    21       P1  8028  0.82
      P1  H  8011  8017       L1     1  0.01
      P1  H 10752 10763       L1    14  0.41

> <Gold.Chemscore.Hbond.Weighted>
-7.4218

> <Gold.Chemscore.Metal.Weighted>
-0.0000

> <Gold.Chemscore.Lipo.Weighted>
-12.8432

> <Gold.Chemscore.Internal_Hbond.Weighted>
0.0000

> <Gold.Chemscore.DEClash.Weighted>
1.0368

> <Gold.Chemscore.DEInternal.Weighted>
0.5095

> <Gold.Chemscore.Rot.Weighted>
5.0396

> <Gold.Chemscore.Internal.Correction.Weighted>
   9.000000E+99

> <Gold.Protein.RotatedTorsions>
[ 6907 6896 6895 6894 ] final  100.93 input  -60.11 | X-H torsion
[ 7974 7965 7964 7962 ] final  -37.85 input  175.53 | X-H torsion
[ 8008 7997 7996 7995 ] final   76.27 input   59.86 | X-H torsion
[ 10167 10162 10161 10158 ] final -152.62 input  -65.29 | X-H torsion
[ 10718 10713 10712 10709 ] final  111.44 input   66.30 | X-H torsion
[ 10763 10752 10751 10750 ] final   44.22 input  -60.55 | X-H torsion
[ 11005 11000 10999 10996 ] final -101.33 input  -57.11 | X-H torsion

> <Gold.Protein.ActiveResidues>
 VAL166  LYS551  ARG553  GLY616  TRP617  ASP618  TYR619  PRO620  LYS621  CYS622 
 ASP623  PHE694  ASN695  SER759  ASP760  ASP761  ALA762  ILE779  LEU786  VAL792 
 PHE793  MET794  SER795  GLU796  ALA797  LYS798  CYS799  TRP800  GLU811  SER814 

> <Gold.Protein.RotatedAtoms>
  152.5361  134.0202  159.7977 H   0  0  0  0  0  0  0  0  0  0  0  0  # atno 6907 bound_to 6896
  151.0390  133.5715  159.2660 H   0  0  0  0  0  0  0  0  0  0  0  0  # atno 6908 bound_to 6896
  151.2692  135.0686  159.9181 H   0  0  0  0  0  0  0  0  0  0  0  0  # atno 6909 bound_to 6896
  146.0539  140.6443  142.9029 H   0  0  0  0  0  0  0  0  0  0  0  0  # atno 7974 bound_to 7965
  155.8249  140.3468  155.5536 H   0  0  0  0  0  0  0  0  0  0  0  0  # atno 8008 bound_to 7997
  155.8304  140.0926  157.1816 H   0  0  0  0  0  0  0  0  0  0  0  0  # atno 8009 bound_to 7997
  154.4004  140.1413  156.3594 H   0  0  0  0  0  0  0  0  0  0  0  0  # atno 8010 bound_to 7997
  139.7166  143.9024  152.2488 H   0  0  0  0  0  0  0  0  0  0  0  0  # atno 10167 bound_to 10162
  157.6444  131.0950  150.6749 H   0  0  0  0  0  0  0  0  0  0  0  0  # atno 10718 bound_to 10713
  152.9845  135.6077  154.3239 H   0  0  0  0  0  0  0  0  0  0  0  0  # atno 10763 bound_to 10752
  154.2946  135.2774  155.2641 H   0  0  0  0  0  0  0  0  0  0  0  0  # atno 10764 bound_to 10752
  154.4920  135.5889  153.6523 H   0  0  0  0  0  0  0  0  0  0  0  0  # atno 10765 bound_to 10752
  141.1235  133.8469  157.1217 H   0  0  0  0  0  0  0  0  0  0  0  0  # atno 11005 bound_to 11000
  144.7137  140.4133  143.7061 LP  0  0  0  0  0  0  0  0  0  0  0  0  # atno 17320 bound_to 7965
  145.6677  139.1593  143.2772 LP  0  0  0  0  0  0  0  0  0  0  0  0  # atno 17321 bound_to 7965
  139.8908  144.6966  150.8773 LP  0  0  0  0  0  0  0  0  0  0  0  0  # atno 17342 bound_to 10162
  140.7745  143.3588  151.1869 LP  0  0  0  0  0  0  0  0  0  0  0  0  # atno 17343 bound_to 10162
  156.7068  130.4640  149.5558 LP  0  0  0  0  0  0  0  0  0  0  0  0  # atno 17370 bound_to 10713
  156.1757  130.6466  151.0891 LP  0  0  0  0  0  0  0  0  0  0  0  0  # atno 17371 bound_to 10713
  140.0213  134.9944  157.0597 LP  0  0  0  0  0  0  0  0  0  0  0  0  # atno 17394 bound_to 11000
  140.4436  134.1656  155.7175 LP  0  0  0  0  0  0  0  0  0  0  0  0  # atno 17395 bound_to 11000

$$$$
