AV-unprocessed.smi:758|AV-procd|sdf|3617|dock2
  -GOLD-   22720 1 13D 1   1.00000     0.00000
 Structure written by MMmdl.
 47 48  0  0  0  0  0  0  0  0  1 V2000
  150.3922  145.0101  159.1223 C   0  0  0  0  0  0  0  0  0  0  0  0
  151.6894  144.1913  159.3003 C   0  0  0  0  0  0  0  0  0  0  0  0
  152.7069  144.6518  158.2325 C   0  0  0  0  0  0  0  0  0  0  0  0
  152.3017  144.5382  160.6761 C   0  0  0  0  0  0  0  0  0  0  0  0
  151.4395  142.6466  159.1861 C   0  0  2  0  0  0  0  0  0  0  0  0
  152.6936  141.7773  159.4526 C   0  0  0  0  0  0  0  0  0  0  0  0
  152.3698  140.2730  159.4441 C   0  0  0  0  0  0  0  0  0  0  0  0
  151.6955  139.8019  158.1377 C   0  0  1  0  0  0  0  0  0  0  0  0
  152.6506  139.9240  157.0982 O   0  0  0  0  0  0  0  0  0  0  0  0
  151.3288  138.3011  158.2545 C   0  0  0  0  0  0  0  0  0  0  0  0
  150.0140  138.0759  158.8494 N   0  0  0  0  0  0  0  0  0  0  0  0
  149.4121  136.8823  158.9633 C   0  0  0  0  0  0  0  0  0  0  0  0
  149.9335  135.8220  158.6178 O   0  0  0  0  0  0  0  0  0  0  0  0
  147.9942  136.8857  159.5361 C   0  0  0  0  0  0  0  0  0  0  0  0
  147.9733  136.3333  160.8794 N   0  0  0  0  0  0  0  0  0  0  0  0
  148.0635  135.0705  161.3040 C   0  0  0  0  0  0  0  0  0  0  0  0
  147.9929  134.9417  162.6217 N   0  0  0  0  0  0  0  0  0  0  0  0
  147.8455  136.2544  162.9712 C   0  0  0  0  0  0  0  0  0  0  0  0
  147.8208  137.1282  161.9648 N   0  0  0  0  0  0  0  0  0  0  0  0
  150.4743  140.6973  157.8231 C   0  0  0  0  0  0  0  0  0  0  0  0
  150.8047  142.2005  157.8452 C   0  0  0  0  0  0  0  0  0  0  0  0
  150.5919  146.0790  159.2053 H   0  0  0  0  0  0  0  0  0  0  0  0
  149.6477  144.7676  159.8801 H   0  0  0  0  0  0  0  0  0  0  0  0
  149.9375  144.8482  158.1455 H   0  0  0  0  0  0  0  0  0  0  0  0
  152.3029  144.5880  157.2226 H   0  0  0  0  0  0  0  0  0  0  0  0
  153.6189  144.0549  158.2667 H   0  0  0  0  0  0  0  0  0  0  0  0
  152.9952  145.6931  158.3814 H   0  0  0  0  0  0  0  0  0  0  0  0
  152.6040  145.5852  160.7237 H   0  0  0  0  0  0  0  0  0  0  0  0
  153.1874  143.9359  160.8821 H   0  0  0  0  0  0  0  0  0  0  0  0
  151.5965  144.3861  161.4926 H   0  0  0  0  0  0  0  0  0  0  0  0
  150.7190  142.3948  159.9663 H   0  0  0  0  0  0  0  0  0  0  0  0
  153.4627  141.9824  158.7081 H   0  0  0  0  0  0  0  0  0  0  0  0
  153.1336  142.0131  160.4200 H   0  0  0  0  0  0  0  0  0  0  0  0
  153.2820  139.7022  159.6246 H   0  0  0  0  0  0  0  0  0  0  0  0
  151.7116  140.0582  160.2872 H   0  0  0  0  0  0  0  0  0  0  0  0
  152.2336  140.3256  156.3513 H   0  0  0  0  0  0  0  0  0  0  0  0
  151.4167  137.8016  157.2876 H   0  0  0  0  0  0  0  0  0  0  0  0
  152.0477  137.8057  158.9080 H   0  0  0  0  0  0  0  0  0  0  0  0
  149.5104  138.8930  159.1625 H   0  0  0  0  0  0  0  0  0  0  0  0
  147.6132  137.9081  159.5538 H   0  0  0  0  0  0  0  0  0  0  0  0
  147.3199  136.3006  158.9088 H   0  0  0  0  0  0  0  0  0  0  0  0
  148.1851  134.2299  160.6370 H   0  0  0  0  0  0  0  0  0  0  0  0
  147.7490  136.5751  163.9979 H   0  0  0  0  0  0  0  0  0  0  0  0
  150.0522  140.4438  156.8503 H   0  0  0  0  0  0  0  0  0  0  0  0
  149.6892  140.5008  158.5544 H   0  0  0  0  0  0  0  0  0  0  0  0
  149.8812  142.7436  157.6518 H   0  0  0  0  0  0  0  0  0  0  0  0
  151.4739  142.4288  157.0156 H   0  0  0  0  0  0  0  0  0  0  0  0
  1  2  1  0  0  0  0
  1 22  1  0  0  0  0
  1 23  1  0  0  0  0
  1 24  1  0  0  0  0
  2  3  1  0  0  0  0
  2  4  1  0  0  0  0
  2  5  1  0  0  0  0
  3 25  1  0  0  0  0
  3 26  1  0  0  0  0
  3 27  1  0  0  0  0
  4 28  1  0  0  0  0
  4 29  1  0  0  0  0
  4 30  1  0  0  0  0
  5 21  1  0  0  0  0
  5  6  1  0  0  0  0
  5 31  1  0  0  0  0
  6  7  1  0  0  0  0
  6 32  1  0  0  0  0
  6 33  1  0  0  0  0
  7  8  1  0  0  0  0
  7 34  1  0  0  0  0
  7 35  1  0  0  0  0
  8  9  1  0  0  0  0
  8 10  1  0  0  0  0
  8 20  1  0  0  0  0
  9 36  1  0  0  0  0
 10 11  1  0  0  0  0
 10 37  1  0  0  0  0
 10 38  1  0  0  0  0
 11 12  1  0  0  0  0
 11 39  1  0  0  0  0
 12 13  2  0  0  0  0
 12 14  1  0  0  0  0
 14 15  1  0  0  0  0
 14 40  1  0  0  0  0
 14 41  1  0  0  0  0
 15 19  1  0  0  0  0
 15 16  1  0  0  0  0
 16 17  2  0  0  0  0
 16 42  1  0  0  0  0
 17 18  1  0  0  0  0
 18 19  2  0  0  0  0
 18 43  1  0  0  0  0
 20 21  1  0  0  0  0
 20 44  1  0  0  0  0
 20 45  1  0  0  0  0
 21 46  1  0  0  0  0
 21 47  1  0  0  0  0
M  END
> <s_m_source_file>
AV-unprocessed.smi

> <i_m_source_file_index>
758

> <i_lp_mmshare_version>
43012

> <i_f3d_flags>
0

> <s_epik_input>
W0NIM11DKFtDSDNdKShbQ0gzXSlbQ0BASF0oW0NIMl1bQ0gyXTEpW0NIMl1bQ0gyXVtDQEBdMShbT0hdKVtDSDJdW05IXUMoPU8pW0NIMl1uMltjSF1uW2NIXW4y

> <s_epik_cmdline>
J2VwaWtfcHl0aG9uJywgJy1waCcsICc3LjAnLCAnLXRuJywgJzgnLCAnLW1hJywgJzIwMCcsICctbWV0YWxfYmluZGluZycsICctaW1hZScsICc8aW5maWxlLm1hZT4nLCAnLW9tYWUnLCAnPG91dGZpbGUubWFlPic=

> <r_lp_tautomer_probability>
1

> <r_epik_Ionization_Penalty>
1.04836e-05

> <r_epik_Ionization_Penalty_Charging>
0

> <r_epik_Ionization_Penalty_Neutral>
1.04836e-05

> <r_epik_State_Penalty>
-0

> <r_epik_Charging_Adjusted_Penalty>
0

> <i_epik_Tot_Q>
0

> <i_epik_Tot_abs_Q>
0

> <r_epik_Metal_State_Penalty>
-0

> <b_epik_Metal_Only>
0

> <s_lp_Force_Field>
OPLS_2005

> <r_lp_Energy>
23.8221

> <b_lp_Chiralities_Consistent>
1

> <s_lp_Variant>
AV-unprocessed.smi:758-1

> <Gold.Version>
5.8.1

> <Gold.Id.Protein>
6NUR|6NUR_protein|mol2

> <Gold.PLP.Fitness>
54.6500

> <Gold.PLP.PLP>
-44.9742

> <Gold.PLP.part.hbond>
-4.0000

> <Gold.PLP.part.metal>
0.0000

> <Gold.PLP.part.buried>
-6.5128

> <Gold.PLP.part.nonpolar>
-34.5874

> <Gold.PLP.part.repulsive>
0.1998

> <Gold.PLP.ligand.clash>
0.0000

> <Gold.PLP.ligand.torsion>
0.7733

> <Gold.PLP.Chemscore.Hbond>
3.6960

> <Gold.PLP.Chemscore.CHOScore>
0.0000

> <Gold.PLP.Chemscore.Metal>
0.0000

> <Gold.Chemscore.Hbonds>
donor molecule, donor type, donor heavy atom, donor atom, acceptor molecule, acceptor atom, score
      P1  H  6896  6908       L1    13  1.00
      P1  H  6931  6943       L1    19  1.00
      P1  H  6934  6947       L1    19  0.30
      P1  H  7997  8010       L1     9  1.00

> <Gold.PLP.Chemscore.Internal.Correction>
0.1344

> <Gold.Rescore>
     Score         DG    S(hbond)    S(metal)    S(lipo)     H(rot)  DE(clash)    DE(int)     intcor
     17.01     -18.17       2.90        0.00      94.79       3.17       0.03       1.13       ----

> <Gold.Chemscore.Fitness>
17.0095

> <Gold.Chemscore.DG>
-18.1657

> <Gold.Chemscore.ZeroCoef>
-5.4800

> <Gold.Chemscore.Hbond>
2.9045

> <Gold.Chemscore.Metal>
0.0000

> <Gold.Chemscore.Lipo>
94.7873

> <Gold.Chemscore.Internal_Hbond>
0.0000

> <Gold.Chemscore.DEClash>
0.0310

> <Gold.Chemscore.DEInternal>
1.1252

> <Gold.Chemscore.Rot>
3.1663

> <Gold.Chemscore.Internal.Correction>
   9.000000E+99

> <Gold.Chemscore.Hbonds>
donor molecule, donor type, donor heavy atom, donor atom, acceptor molecule, acceptor atom, score
      P1  H  6896  6908       L1    13  0.98
      P1  H  6931  6943       L1    19  0.60
      P1  H  6934  6947       L1    19  0.07
      P1  H  7997  8010       L1     9  0.54

> <Gold.Chemscore.Hbond.Weighted>
-9.7012

> <Gold.Chemscore.Metal.Weighted>
-0.0000

> <Gold.Chemscore.Lipo.Weighted>
-11.0901

> <Gold.Chemscore.Internal_Hbond.Weighted>
0.0000

> <Gold.Chemscore.DEClash.Weighted>
0.0310

> <Gold.Chemscore.DEInternal.Weighted>
1.1252

> <Gold.Chemscore.Rot.Weighted>
8.1056

> <Gold.Chemscore.Internal.Correction.Weighted>
   9.000000E+99

> <Gold.Protein.RotatedTorsions>
[ 6907 6896 6895 6894 ] final  173.33 input  -60.11 | X-H torsion
[ 7974 7965 7964 7962 ] final  -20.65 input  175.53 | X-H torsion
[ 8008 7997 7996 7995 ] final   49.23 input   59.86 | X-H torsion
[ 10167 10162 10161 10158 ] final  158.80 input  -65.29 | X-H torsion
[ 10718 10713 10712 10709 ] final  -71.50 input   66.30 | X-H torsion
[ 10763 10752 10751 10750 ] final -127.60 input  -60.55 | X-H torsion
[ 11005 11000 10999 10996 ] final -127.80 input  -57.11 | X-H torsion

> <Gold.Protein.ActiveResidues>
 VAL166  LYS551  ARG553  GLY616  TRP617  ASP618  TYR619  PRO620  LYS621  CYS622 
 ASP623  PHE694  ASN695  SER759  ASP760  ASP761  ALA762  ILE779  LEU786  VAL792 
 PHE793  MET794  SER795  GLU796  ALA797  LYS798  CYS799  TRP800  GLU811  SER814 

> <Gold.Protein.RotatedAtoms>
  151.7700  133.3340  159.3441 H   0  0  0  0  0  0  0  0  0  0  0  0  # atno 6907 bound_to 6896
  150.7465  134.6028  159.6054 H   0  0  0  0  0  0  0  0  0  0  0  0  # atno 6908 bound_to 6896
  152.3348  134.7214  160.0331 H   0  0  0  0  0  0  0  0  0  0  0  0  # atno 6909 bound_to 6896
  146.1776  140.4232  142.8507 H   0  0  0  0  0  0  0  0  0  0  0  0  # atno 7974 bound_to 7965
  155.3988  140.3437  155.4255 H   0  0  0  0  0  0  0  0  0  0  0  0  # atno 8008 bound_to 7997
  156.1515  140.1572  156.8794 H   0  0  0  0  0  0  0  0  0  0  0  0  # atno 8009 bound_to 7997
  154.5057  140.0803  156.7870 H   0  0  0  0  0  0  0  0  0  0  0  0  # atno 8010 bound_to 7997
  139.4828  144.4790  151.8471 H   0  0  0  0  0  0  0  0  0  0  0  0  # atno 10167 bound_to 10162
  156.0360  130.4352  150.2453 H   0  0  0  0  0  0  0  0  0  0  0  0  # atno 10718 bound_to 10713
  154.8753  135.3956  154.3621 H   0  0  0  0  0  0  0  0  0  0  0  0  # atno 10763 bound_to 10752
  153.4392  135.7026  153.6185 H   0  0  0  0  0  0  0  0  0  0  0  0  # atno 10764 bound_to 10752
  153.4774  135.3777  155.2393 H   0  0  0  0  0  0  0  0  0  0  0  0  # atno 10765 bound_to 10752
  140.9569  134.0989  157.4007 H   0  0  0  0  0  0  0  0  0  0  0  0  # atno 11005 bound_to 11000
  144.8262  140.6632  143.6320 LP  0  0  0  0  0  0  0  0  0  0  0  0  # atno 17320 bound_to 7965
  145.4167  139.1571  143.4096 LP  0  0  0  0  0  0  0  0  0  0  0  0  # atno 17321 bound_to 7965
  140.4264  144.2174  150.5887 LP  0  0  0  0  0  0  0  0  0  0  0  0  # atno 17342 bound_to 10162
  140.4822  143.2375  151.8938 LP  0  0  0  0  0  0  0  0  0  0  0  0  # atno 17343 bound_to 10162
  157.0552  131.0074  151.3240 LP  0  0  0  0  0  0  0  0  0  0  0  0  # atno 17370 bound_to 10713
  157.5111  130.7939  149.7706 LP  0  0  0  0  0  0  0  0  0  0  0  0  # atno 17371 bound_to 10713
  139.8865  135.0082  156.6504 LP  0  0  0  0  0  0  0  0  0  0  0  0  # atno 17394 bound_to 11000
  140.7523  133.8887  155.8356 LP  0  0  0  0  0  0  0  0  0  0  0  0  # atno 17395 bound_to 11000

$$$$
