#       Name:                AV-unprocessed.smi:3336
#       Creating user name   scv26
#       Creation time:       Fri Mar 27 19:25:12 2020


#       File generated by GOLD software.
#

@<TRIPOS>MOLECULE
AV-unprocessed.smi:3336
    47    48     1
SMALL
NO_CHARGES


@<TRIPOS>ATOM
      1 ****        -1.6777  -2.8166   1.5398 C.3            1 S1                 0.0000
      2 ****        -1.2831  -1.5356   0.7872 C.3            1 S1                 0.0000
      3 ****        -1.7534  -1.5446  -0.6902 C.3            1 S1                 0.0000
      4 ****        -1.2058  -2.6348  -1.4823 N.pl3          1 S1                 0.0000
      5 ****        -1.7370  -3.8894  -1.6986 C.2            1 S1                 0.0000
      6 ****        -0.8724  -4.5633  -2.5126 C.2            1 S1                 0.0000
      7 ****         0.1702  -3.6243  -2.7490 C.2            1 S1                 0.0000
      8 ****        -0.0347  -2.4701  -2.1360 N.2            1 S1                 0.0000
      9 ****         0.1682  -1.3839   0.9287 N.3            1 S1                 0.0000
     10 ****         0.7603  -0.1184   0.4451 C.3            1 S1                 0.0000
     11 ****         2.2897  -0.1955   0.5753 C.3            1 S1                 0.0000
     12 ****         0.2308   1.1405   1.1716 C.2            1 S1                 0.0000
     13 ****        -0.1203   1.0239   2.3476 O.2            1 S1                 0.0000
     14 ****         0.1667   2.3317   0.5241 N.am           1 S1                 0.0000
     15 ****        -0.3696   3.5451   1.1512 C.3            1 S1                 0.0000
     16 ****         0.7632   4.5779   1.2783 C.3            1 S1                 0.0000
     17 ****         1.2983   4.8561  -0.0121 O.3            1 S1                 0.0000
     18 ****         1.8093   3.6959  -0.6619 C.3            1 S1                 0.0000
     19 ****         0.6953   2.6433  -0.8101 C.3            1 S1                 0.0000
     20 ****        -2.7506  -2.9970   1.4675 H              1 S1                 0.0000
     21 ****        -1.4312  -2.7407   2.5994 H              1 S1                 0.0000
     22 ****        -1.1654  -3.6947   1.1456 H              1 S1                 0.0000
     23 ****        -1.7853  -0.7110   1.2919 H              1 S1                 0.0000
     24 ****        -2.8400  -1.6333  -0.7159 H              1 S1                 0.0000
     25 ****        -1.5338  -0.5990  -1.1863 H              1 S1                 0.0000
     26 ****        -2.6745  -4.1947  -1.2574 H              1 S1                 0.0000
     27 ****        -0.9700  -5.5728  -2.8835 H              1 S1                 0.0000
     28 ****         1.0625  -3.7453  -3.3456 H              1 S1                 0.0000
     29 ****         0.4287  -1.5605   1.8885 H              1 S1                 0.0000
     30 ****         0.5242  -0.0561  -0.6131 H              1 S1                 0.0000
     31 ****         2.7727   0.7002   0.1840 H              1 S1                 0.0000
     32 ****         2.6850  -1.0452   0.0175 H              1 S1                 0.0000
     33 ****         2.5973  -0.3105   1.6155 H              1 S1                 0.0000
     34 ****        -1.1735   3.9450   0.5313 H              1 S1                 0.0000
     35 ****        -0.8111   3.3633   2.1317 H              1 S1                 0.0000
     36 ****         0.3837   5.5040   1.7099 H              1 S1                 0.0000
     37 ****         1.5502   4.2140   1.9408 H              1 S1                 0.0000
     38 ****         2.1916   3.9807  -1.6421 H              1 S1                 0.0000
     39 ****         2.6507   3.2929  -0.0958 H              1 S1                 0.0000
     40 ****         1.1028   1.7910  -1.3468 H              1 S1                 0.0000
     41 ****        -0.1105   3.0332  -1.4335 H              1 S1                 0.0000
     42 ****         0.5472  -1.6571  -2.1527 LP             1 S1                 0.0000
     43 ****         0.5587  -2.0642   0.3085 LP             1 S1                 0.0000
     44 ****        -0.0580   0.1354   2.8023 LP             1 S1                 0.0000
     45 ****        -0.4675   1.8178   2.8468 LP             1 S1                 0.0000
     46 ****         2.0400   5.5195   0.0862 LP             1 S1                 0.0000
     47 ****         0.5743   5.2473  -0.5803 LP             1 S1                 0.0000
@<TRIPOS>BOND
    1    1    2 1     
    2    1   20 1     
    3    1   21 1     
    4    1   22 1     
    5    2    3 1     
    6    2    9 1     
    7    2   23 1     
    8    3    4 1     
    9    3   24 1     
   10    3   25 1     
   11    4    8 1     
   12    4    5 1     
   13    5    6 2     
   14    5   26 1     
   15    6    7 1     
   16    6   27 1     
   17    7    8 2     
   18    7   28 1     
   19    9   10 1     
   20    9   29 1     
   21   10   11 1     
   22   10   12 1     
   23   10   30 1     
   24   11   31 1     
   25   11   32 1     
   26   11   33 1     
   27   12   13 2     
   28   12   14 am    
   29   14   19 1     
   30   14   15 1     
   31   15   16 1     
   32   15   34 1     
   33   15   35 1     
   34   16   17 1     
   35   16   36 1     
   36   16   37 1     
   37   17   18 1     
   38   18   19 1     
   39   18   38 1     
   40   18   39 1     
   41   19   40 1     
   42   19   41 1     
   43    8   42 1     
   44    9   43 1     
   45   13   44 1     
   46   13   45 1     
   47   17   46 1     
   48   17   47 1     
@<TRIPOS>SUBSTRUCTURE
      1 S1             1
@<TRIPOS>SET
LONE_PAIRS      STATIC     ATOMS    <user>   **** ""
6 42 43 44 45 46 47
DONOR_HYDROGENS      STATIC     ATOMS    <user>   **** ""
1 29
ATOM$BLUE        STATIC     ATOMS    COLORGROUP SYSTEM
6 42 43 44 45 46 47
ATOM$RED        STATIC     ATOMS    COLORGROUP SYSTEM
1 29
