AV-unprocessed.smi:3128|AV-procd|sdf|11921|dock8
  -GOLD-   2272017303D 1   1.00000     0.00000
 Structure written by MMmdl.
 39 39  0  0  0  0  0  0  0  0  1 V2000
  150.0661  141.1727  155.7885 C   0  0  0  0  0  0  0  0  0  0  0  0
  148.8752  140.3449  155.2663 C   0  0  0  0  0  0  0  0  0  0  0  0
  148.2975  139.4994  156.4158 C   0  0  0  0  0  0  0  0  0  0  0  0
  149.2525  139.4850  154.0307 C   0  0  1  0  0  0  0  0  0  0  0  0
  150.4203  138.5156  154.2973 C   0  0  0  0  0  0  0  0  0  0  0  0
  148.0923  138.7176  153.5794 N   0  0  0  0  0  0  0  0  0  0  0  0
  146.8247  139.1584  153.5495 C   0  0  0  0  0  0  0  0  0  0  0  0
  146.4907  140.2912  153.8966 O   0  0  0  0  0  0  0  0  0  0  0  0
  145.7717  138.1682  153.0553 C   0  0  0  0  0  0  0  0  0  0  0  0
  146.2696  136.7904  153.1002 N   0  0  0  0  0  0  0  0  0  0  0  0
  145.2264  135.8571  152.7043 C   0  0  0  0  0  0  0  0  0  0  0  0
  145.7706  134.4223  152.7638 C   0  0  0  0  0  0  0  0  0  0  0  0
  144.9211  133.4979  152.0377 N   0  0  0  0  0  0  0  0  0  0  0  0
  145.2941  132.4371  151.2397 C   0  0  0  0  0  0  0  0  0  0  0  0
  144.1494  131.8619  150.7669 C   0  0  0  0  0  0  0  0  0  0  0  0
  143.1133  132.6515  151.3397 C   0  0  0  0  0  0  0  0  0  0  0  0
  143.5783  133.6294  152.1003 N   0  0  0  0  0  0  0  0  0  0  0  0
  150.8999  140.5295  156.0713 H   0  0  0  0  0  0  0  0  0  0  0  0
  149.7845  141.7543  156.6668 H   0  0  0  0  0  0  0  0  0  0  0  0
  150.4297  141.8811  155.0440 H   0  0  0  0  0  0  0  0  0  0  0  0
  148.1011  141.0510  154.9625 H   0  0  0  0  0  0  0  0  0  0  0  0
  148.9963  138.7220  156.7261 H   0  0  0  0  0  0  0  0  0  0  0  0
  147.3611  139.0181  156.1355 H   0  0  0  0  0  0  0  0  0  0  0  0
  148.0830  140.1178  157.2878 H   0  0  0  0  0  0  0  0  0  0  0  0
  149.5506  140.1650  153.2300 H   0  0  0  0  0  0  0  0  0  0  0  0
  151.3452  139.0475  154.5177 H   0  0  0  0  0  0  0  0  0  0  0  0
  150.6207  137.8897  153.4271 H   0  0  0  0  0  0  0  0  0  0  0  0
  150.2040  137.8544  155.1370 H   0  0  0  0  0  0  0  0  0  0  0  0
  148.2672  137.7707  153.2759 H   0  0  0  0  0  0  0  0  0  0  0  0
  144.8872  138.2632  153.6870 H   0  0  0  0  0  0  0  0  0  0  0  0
  145.4692  138.4191  152.0367 H   0  0  0  0  0  0  0  0  0  0  0  0
  147.0721  136.6687  152.4995 H   0  0  0  0  0  0  0  0  0  0  0  0
  144.3655  135.9596  153.3670 H   0  0  0  0  0  0  0  0  0  0  0  0
  144.8910  136.0875  151.6918 H   0  0  0  0  0  0  0  0  0  0  0  0
  146.7737  134.3758  152.3372 H   0  0  0  0  0  0  0  0  0  0  0  0
  145.8499  134.0833  153.7981 H   0  0  0  0  0  0  0  0  0  0  0  0
  146.3311  132.1834  151.0752 H   0  0  0  0  0  0  0  0  0  0  0  0
  144.0649  131.0076  150.1119 H   0  0  0  0  0  0  0  0  0  0  0  0
  142.0447  132.5438  151.2263 H   0  0  0  0  0  0  0  0  0  0  0  0
  1  2  1  0  0  0  0
  1 18  1  0  0  0  0
  1 19  1  0  0  0  0
  1 20  1  0  0  0  0
  2  3  1  0  0  0  0
  2  4  1  0  0  0  0
  2 21  1  0  0  0  0
  3 22  1  0  0  0  0
  3 23  1  0  0  0  0
  3 24  1  0  0  0  0
  4  5  1  0  0  0  0
  4  6  1  0  0  0  0
  4 25  1  0  0  0  0
  5 26  1  0  0  0  0
  5 27  1  0  0  0  0
  5 28  1  0  0  0  0
  6  7  1  0  0  0  0
  6 29  1  0  0  0  0
  7  8  2  0  0  0  0
  7  9  1  0  0  0  0
  9 10  1  0  0  0  0
  9 30  1  0  0  0  0
  9 31  1  0  0  0  0
 10 11  1  0  0  0  0
 10 32  1  0  0  0  0
 11 12  1  0  0  0  0
 11 33  1  0  0  0  0
 11 34  1  0  0  0  0
 12 13  1  0  0  0  0
 12 35  1  0  0  0  0
 12 36  1  0  0  0  0
 13 17  1  0  0  0  0
 13 14  1  0  0  0  0
 14 15  2  0  0  0  0
 14 37  1  0  0  0  0
 15 16  1  0  0  0  0
 15 38  1  0  0  0  0
 16 17  2  0  0  0  0
 16 39  1  0  0  0  0
M  END
> <s_m_source_file>
AV-unprocessed.smi

> <i_m_source_file_index>
3128

> <i_lp_mmshare_version>
43012

> <i_f3d_flags>
0

> <s_epik_input>
W0NIM11bQ0hdKFtDSDNdKVtDQEhdKFtDSDNdKVtOSF1DKD1PKVtDSDJdW05IXVtDSDJdW0NIMl1uMVtjSF1bY0hdW2NIXW4x

> <s_epik_cmdline>
J2VwaWtfcHl0aG9uJywgJy1waCcsICc3LjAnLCAnLXRuJywgJzgnLCAnLW1hJywgJzIwMCcsICctbWV0YWxfYmluZGluZycsICctaW1hZScsICc8aW5maWxlLm1hZT4nLCAnLW9tYWUnLCAnPG91dGZpbGUubWFlPic=

> <r_lp_tautomer_probability>
1

> <r_epik_Ionization_Penalty>
0.724947

> <r_epik_Ionization_Penalty_Charging>
0

> <r_epik_Ionization_Penalty_Neutral>
0.724947

> <r_epik_State_Penalty>
0.747959

> <r_epik_Charging_Adjusted_Penalty>
0.747959

> <i_epik_Tot_Q>
0

> <i_epik_Tot_abs_Q>
0

> <r_epik_Metal_State_Penalty>
0.746178

> <b_epik_Metal_Only>
0

> <s_lp_Force_Field>
OPLS_2005

> <r_lp_Energy>
7.09657

> <b_lp_Chiralities_Consistent>
1

> <s_lp_Variant>
AV-unprocessed.smi:3128-4

> <Gold.Version>
5.8.1

> <Gold.Id.Protein>
6NUR|6NUR_protein|mol2

> <Gold.PLP.Fitness>
41.9582

> <Gold.PLP.PLP>
-31.5686

> <Gold.PLP.part.hbond>
-2.9448

> <Gold.PLP.part.metal>
0.0000

> <Gold.PLP.part.buried>
-2.2861

> <Gold.PLP.part.nonpolar>
-28.6344

> <Gold.PLP.part.repulsive>
0.4200

> <Gold.PLP.ligand.clash>
0.0000

> <Gold.PLP.ligand.torsion>
0.8753

> <Gold.PLP.Chemscore.Hbond>
1.9913

> <Gold.PLP.Chemscore.CHOScore>
2.0000

> <Gold.PLP.Chemscore.Metal>
0.0000

> <Gold.Chemscore.Hbonds>
donor molecule, donor type, donor heavy atom, donor atom, acceptor molecule, acceptor atom, score
      L1  H     6    29       P1  7948  0.60
      L1  H    10    32       P1  7948  1.00
      L1  C    16    39       P1 10186  0.37

> <Gold.PLP.Chemscore.Internal.Correction>
0.1665

> <Gold.Rescore>
     Score         DG    S(hbond)    S(metal)    S(lipo)     H(rot)  DE(clash)    DE(int)     intcor
     11.67     -14.80       1.95        0.00      70.94       2.15       1.21       1.92       ----

> <Gold.Chemscore.Fitness>
11.6734

> <Gold.Chemscore.DG>
-14.7983

> <Gold.Chemscore.ZeroCoef>
-5.4800

> <Gold.Chemscore.Hbond>
1.9521

> <Gold.Chemscore.Metal>
0.0000

> <Gold.Chemscore.Lipo>
70.9358

> <Gold.Chemscore.Internal_Hbond>
0.0000

> <Gold.Chemscore.DEClash>
1.2083

> <Gold.Chemscore.DEInternal>
1.9166

> <Gold.Chemscore.Rot>
2.1488

> <Gold.Chemscore.Internal.Correction>
   9.000000E+99

> <Gold.Chemscore.Hbonds>
donor molecule, donor type, donor heavy atom, donor atom, acceptor molecule, acceptor atom, score
      L1  H     6    29       P1  7948  0.59
      L1  H    10    32       P1  7948  0.93

> <Gold.Chemscore.Hbond.Weighted>
-6.5199

> <Gold.Chemscore.Metal.Weighted>
-0.0000

> <Gold.Chemscore.Lipo.Weighted>
-8.2995

> <Gold.Chemscore.Internal_Hbond.Weighted>
0.0000

> <Gold.Chemscore.DEClash.Weighted>
1.2083

> <Gold.Chemscore.DEInternal.Weighted>
1.9166

> <Gold.Chemscore.Rot.Weighted>
5.5010

> <Gold.Chemscore.Internal.Correction.Weighted>
   9.000000E+99

> <Gold.Protein.RotatedTorsions>
[ 6907 6896 6895 6894 ] final  -50.31 input  -60.11 | X-H torsion
[ 7974 7965 7964 7962 ] final  143.73 input  175.53 | X-H torsion
[ 8008 7997 7996 7995 ] final   75.07 input   59.86 | X-H torsion
[ 10167 10162 10161 10158 ] final  -64.50 input  -65.29 | X-H torsion
[ 10718 10713 10712 10709 ] final   41.68 input   66.30 | X-H torsion
[ 10763 10752 10751 10750 ] final  -25.02 input  -60.55 | X-H torsion
[ 11005 11000 10999 10996 ] final   13.76 input  -57.11 | X-H torsion

> <Gold.Protein.ActiveResidues>
 VAL166  LYS551  ARG553  GLY616  TRP617  ASP618  TYR619  PRO620  LYS621  CYS622 
 ASP623  PHE694  ASN695  SER759  ASP760  ASP761  ALA762  ILE779  LEU786  VAL792 
 PHE793  MET794  SER795  GLU796  ALA797  LYS798  CYS799  TRP800  GLU811  SER814 

> <Gold.Protein.RotatedAtoms>
  150.8720  134.8095  159.7161 H   0  0  0  0  0  0  0  0  0  0  0  0  # atno 6907 bound_to 6896
  152.4721  134.4932  159.9711 H   0  0  0  0  0  0  0  0  0  0  0  0  # atno 6908 bound_to 6896
  151.5019  133.3464  159.2906 H   0  0  0  0  0  0  0  0  0  0  0  0  # atno 6909 bound_to 6896
  144.8896  139.5578  143.5804 H   0  0  0  0  0  0  0  0  0  0  0  0  # atno 7974 bound_to 7965
  155.8075  140.3474  155.5438 H   0  0  0  0  0  0  0  0  0  0  0  0  # atno 8008 bound_to 7997
  155.8475  140.0951  157.1716 H   0  0  0  0  0  0  0  0  0  0  0  0  # atno 8009 bound_to 7997
  154.4007  140.1383  156.3791 H   0  0  0  0  0  0  0  0  0  0  0  0  # atno 8010 bound_to 7997
  140.5796  143.2326  151.6370 H   0  0  0  0  0  0  0  0  0  0  0  0  # atno 10167 bound_to 10162
  157.3963  130.7835  149.7311 H   0  0  0  0  0  0  0  0  0  0  0  0  # atno 10718 bound_to 10713
  153.6932  135.6960  153.5084 H   0  0  0  0  0  0  0  0  0  0  0  0  # atno 10763 bound_to 10752
  153.2398  135.4310  155.0684 H   0  0  0  0  0  0  0  0  0  0  0  0  # atno 10764 bound_to 10752
  154.8366  135.3505  154.6473 H   0  0  0  0  0  0  0  0  0  0  0  0  # atno 10765 bound_to 10752
  140.4771  134.0973  155.7743 H   0  0  0  0  0  0  0  0  0  0  0  0  # atno 11005 bound_to 11000
  146.3045  139.7536  142.9066 LP  0  0  0  0  0  0  0  0  0  0  0  0  # atno 17320 bound_to 7965
  145.3807  141.0358  143.3179 LP  0  0  0  0  0  0  0  0  0  0  0  0  # atno 17321 bound_to 7965
  139.5162  144.3354  152.0789 LP  0  0  0  0  0  0  0  0  0  0  0  0  # atno 17342 bound_to 10162
  140.2502  144.4177  150.6225 LP  0  0  0  0  0  0  0  0  0  0  0  0  # atno 17343 bound_to 10162
  155.9811  130.4022  150.3489 LP  0  0  0  0  0  0  0  0  0  0  0  0  # atno 17370 bound_to 10713
  157.1611  131.0345  151.2840 LP  0  0  0  0  0  0  0  0  0  0  0  0  # atno 17371 bound_to 10713
  141.1549  133.8901  157.2002 LP  0  0  0  0  0  0  0  0  0  0  0  0  # atno 17394 bound_to 11000
  139.9849  135.0085  156.9839 LP  0  0  0  0  0  0  0  0  0  0  0  0  # atno 17395 bound_to 11000

$$$$
