AV-unprocessed.smi:1251|AV-procd|sdf|5257|dock5
  -GOLD-   22720 4363D 1   1.00000     0.00000
 Structure written by MMmdl.
 39 40  0  0  0  0  0  0  0  0  1 V2000
  151.2710  142.6498  158.0675 C   0  0  0  0  0  0  0  0  0  0  0  0
  150.2156  141.8211  157.3269 C   0  0  0  0  0  0  0  0  0  0  0  0
  150.5838  141.5756  155.8571 C   0  0  0  0  0  0  0  0  0  0  0  0
  149.5561  140.7687  155.1358 C   0  0  0  0  0  0  0  0  0  0  0  0
  148.2769  141.1503  155.0341 N   0  0  0  0  0  0  0  0  0  0  0  0
  147.5057  140.2269  154.3425 N   0  0  0  0  0  0  0  0  0  0  0  0
  148.2247  139.1643  153.9559 C   0  0  0  0  0  0  0  0  0  0  0  0
  147.6856  138.0669  153.2333 N   0  0  0  0  0  0  0  0  0  0  0  0
  146.4582  137.5266  153.3313 C   0  0  0  0  0  0  0  0  0  0  0  0
  145.5725  137.9080  154.0969 O   0  0  0  0  0  0  0  0  0  0  0  0
  146.3122  136.5007  152.4792 N   0  0  0  0  0  0  0  0  0  0  0  0
  145.1122  135.6788  152.3347 C   0  0  1  0  0  0  0  0  0  0  0  0
  143.8834  136.6010  152.3481 C   0  0  0  0  0  0  0  0  0  0  0  0
  145.2022  134.8393  151.0428 C   0  0  2  0  0  0  0  0  0  0  0  0
  144.0842  133.8061  150.8783 C   0  0  0  0  0  0  0  0  0  0  0  0
  144.7455  132.7638  150.0070 C   0  0  0  0  0  0  0  0  0  0  0  0
  146.1574  132.7462  150.5788 C   0  0  0  0  0  0  0  0  0  0  0  0
  146.4100  134.0777  151.0166 O   0  0  0  0  0  0  0  0  0  0  0  0
  149.9194  139.2065  154.4109 S   0  0  0  0  0  0  0  0  0  0  0  0
  150.9810  142.8088  159.1064 H   0  0  0  0  0  0  0  0  0  0  0  0
  151.4001  143.6284  157.6042 H   0  0  0  0  0  0  0  0  0  0  0  0
  152.2386  142.1472  158.0657 H   0  0  0  0  0  0  0  0  0  0  0  0
  150.0889  140.8650  157.8363 H   0  0  0  0  0  0  0  0  0  0  0  0
  149.2527  142.3306  157.3831 H   0  0  0  0  0  0  0  0  0  0  0  0
  150.7108  142.5271  155.3385 H   0  0  0  0  0  0  0  0  0  0  0  0
  151.5403  141.0559  155.7918 H   0  0  0  0  0  0  0  0  0  0  0  0
  148.3076  137.6449  152.5600 H   0  0  0  0  0  0  0  0  0  0  0  0
  147.0966  136.2584  151.8922 H   0  0  0  0  0  0  0  0  0  0  0  0
  145.0249  135.0018  153.1866 H   0  0  0  0  0  0  0  0  0  0  0  0
  142.9562  136.0293  152.3059 H   0  0  0  0  0  0  0  0  0  0  0  0
  143.8909  137.2862  151.4997 H   0  0  0  0  0  0  0  0  0  0  0  0
  143.8530  137.1990  153.2594 H   0  0  0  0  0  0  0  0  0  0  0  0
  145.2113  135.4934  150.1691 H   0  0  0  0  0  0  0  0  0  0  0  0
  143.8185  133.3679  151.8414 H   0  0  0  0  0  0  0  0  0  0  0  0
  143.1814  134.2233  150.4316 H   0  0  0  0  0  0  0  0  0  0  0  0
  144.2548  131.7910  150.0500 H   0  0  0  0  0  0  0  0  0  0  0  0
  144.7620  133.0965  148.9682 H   0  0  0  0  0  0  0  0  0  0  0  0
  146.2094  132.0828  151.4429 H   0  0  0  0  0  0  0  0  0  0  0  0
  146.8994  132.4159  149.8515 H   0  0  0  0  0  0  0  0  0  0  0  0
  1  2  1  0  0  0  0
  1 20  1  0  0  0  0
  1 21  1  0  0  0  0
  1 22  1  0  0  0  0
  2  3  1  0  0  0  0
  2 23  1  0  0  0  0
  2 24  1  0  0  0  0
  3  4  1  0  0  0  0
  3 25  1  0  0  0  0
  3 26  1  0  0  0  0
  4 19  1  0  0  0  0
  4  5  2  0  0  0  0
  5  6  1  0  0  0  0
  6  7  2  0  0  0  0
  7  8  1  0  0  0  0
  7 19  1  0  0  0  0
  8  9  1  0  0  0  0
  8 27  1  0  0  0  0
  9 10  2  0  0  0  0
  9 11  1  0  0  0  0
 11 12  1  0  0  0  0
 11 28  1  0  0  0  0
 12 13  1  0  0  0  0
 12 14  1  0  0  0  0
 12 29  1  0  0  0  0
 13 30  1  0  0  0  0
 13 31  1  0  0  0  0
 13 32  1  0  0  0  0
 14 18  1  0  0  0  0
 14 15  1  0  0  0  0
 14 33  1  0  0  0  0
 15 16  1  0  0  0  0
 15 34  1  0  0  0  0
 15 35  1  0  0  0  0
 16 17  1  0  0  0  0
 16 36  1  0  0  0  0
 16 37  1  0  0  0  0
 17 18  1  0  0  0  0
 17 38  1  0  0  0  0
 17 39  1  0  0  0  0
M  END
> <s_m_source_file>
AV-unprocessed.smi

> <i_m_source_file_index>
1251

> <i_lp_mmshare_version>
43012

> <i_f3d_flags>
0

> <s_epik_input>
W0NIM11bQ0gyXVtDSDJdYzFubmMoczEpW05IXUMoPU8pW05IXVtDQEhdKFtDSDNdKVtDQEBIXTJbQ0gyXVtDSDJdW0NIMl1PMg==

> <s_epik_cmdline>
J2VwaWtfcHl0aG9uJywgJy1waCcsICc3LjAnLCAnLXRuJywgJzgnLCAnLW1hJywgJzIwMCcsICctbWV0YWxfYmluZGluZycsICctaW1hZScsICc8aW5maWxlLm1hZT4nLCAnLW9tYWUnLCAnPG91dGZpbGUubWFlPic=

> <r_lp_tautomer_probability>
1

> <r_epik_Ionization_Penalty>
0.000503621

> <r_epik_Ionization_Penalty_Charging>
0

> <r_epik_Ionization_Penalty_Neutral>
0.000503621

> <r_epik_State_Penalty>
-0

> <r_epik_Charging_Adjusted_Penalty>
0

> <i_epik_Tot_Q>
0

> <i_epik_Tot_abs_Q>
0

> <r_epik_Metal_State_Penalty>
0.219912

> <b_epik_Metal_Only>
0

> <s_lp_Force_Field>
OPLS_2005

> <r_lp_Energy>
12.879

> <b_lp_Chiralities_Consistent>
1

> <s_lp_Variant>
AV-unprocessed.smi:1251-2

> <Gold.Version>
5.8.1

> <Gold.Id.Protein>
6NUR|6NUR_protein|mol2

> <Gold.PLP.Fitness>
35.6854

> <Gold.PLP.PLP>
-30.8831

> <Gold.PLP.part.hbond>
-2.0000

> <Gold.PLP.part.metal>
0.0000

> <Gold.PLP.part.buried>
-4.4691

> <Gold.PLP.part.nonpolar>
-24.8148

> <Gold.PLP.part.repulsive>
0.6267

> <Gold.PLP.ligand.clash>
0.0000

> <Gold.PLP.ligand.torsion>
0.4777

> <Gold.PLP.Chemscore.Hbond>
1.9120

> <Gold.PLP.Chemscore.CHOScore>
0.0000

> <Gold.PLP.Chemscore.Metal>
0.0000

> <Gold.Chemscore.Hbonds>
donor molecule, donor type, donor heavy atom, donor atom, acceptor molecule, acceptor atom, score
      L1  H     8    27       P1  7948  1.00
      L1  H    11    28       P1  7948  0.88

> <Gold.PLP.Chemscore.Internal.Correction>
0.0216

> <Gold.Rescore>
     Score         DG    S(hbond)    S(metal)    S(lipo)     H(rot)  DE(clash)    DE(int)     intcor
     13.72     -16.29       1.90        0.00      72.76       1.58       0.04       2.53       ----

> <Gold.Chemscore.Fitness>
13.7209

> <Gold.Chemscore.DG>
-16.2872

> <Gold.Chemscore.ZeroCoef>
-5.4800

> <Gold.Chemscore.Hbond>
1.9012

> <Gold.Chemscore.Metal>
0.0000

> <Gold.Chemscore.Lipo>
72.7622

> <Gold.Chemscore.Internal_Hbond>
0.0000

> <Gold.Chemscore.DEClash>
0.0383

> <Gold.Chemscore.DEInternal>
2.5281

> <Gold.Chemscore.Rot>
1.5843

> <Gold.Chemscore.Internal.Correction>
   9.000000E+99

> <Gold.Chemscore.Hbonds>
donor molecule, donor type, donor heavy atom, donor atom, acceptor molecule, acceptor atom, score
      L1  H     8    27       P1  7948  0.94
      L1  H    11    28       P1  7948  0.87

> <Gold.Chemscore.Hbond.Weighted>
-6.3499

> <Gold.Chemscore.Metal.Weighted>
-0.0000

> <Gold.Chemscore.Lipo.Weighted>
-8.5132

> <Gold.Chemscore.Internal_Hbond.Weighted>
0.0000

> <Gold.Chemscore.DEClash.Weighted>
0.0383

> <Gold.Chemscore.DEInternal.Weighted>
2.5281

> <Gold.Chemscore.Rot.Weighted>
4.0558

> <Gold.Chemscore.Internal.Correction.Weighted>
   9.000000E+99

> <Gold.Protein.RotatedTorsions>
[ 6907 6896 6895 6894 ] final  -16.39 input  -60.11 | X-H torsion
[ 7974 7965 7964 7962 ] final  147.10 input  175.53 | X-H torsion
[ 8008 7997 7996 7995 ] final   33.15 input   59.86 | X-H torsion
[ 10167 10162 10161 10158 ] final    1.89 input  -65.29 | X-H torsion
[ 10718 10713 10712 10709 ] final -129.33 input   66.30 | X-H torsion
[ 10763 10752 10751 10750 ] final   37.90 input  -60.55 | X-H torsion
[ 11005 11000 10999 10996 ] final  176.13 input  -57.11 | X-H torsion

> <Gold.Protein.ActiveResidues>
 VAL166  LYS551  ARG553  GLY616  TRP617  ASP618  TYR619  PRO620  LYS621  CYS622 
 ASP623  PHE694  ASN695  SER759  ASP760  ASP761  ALA762  ILE779  LEU786  VAL792 
 PHE793  MET794  SER795  GLU796  ALA797  LYS798  CYS799  TRP800  GLU811  SER814 

> <Gold.Protein.RotatedAtoms>
  151.3094  135.0790  159.9266 H   0  0  0  0  0  0  0  0  0  0  0  0  # atno 6907 bound_to 6896
  152.5281  133.9752  159.7791 H   0  0  0  0  0  0  0  0  0  0  0  0  # atno 6908 bound_to 6896
  151.0052  133.5966  159.2720 H   0  0  0  0  0  0  0  0  0  0  0  0  # atno 6909 bound_to 6896
  144.8618  139.5987  143.5927 H   0  0  0  0  0  0  0  0  0  0  0  0  # atno 7974 bound_to 7965
  155.1339  140.3260  155.4467 H   0  0  0  0  0  0  0  0  0  0  0  0  # atno 8008 bound_to 7997
  156.2626  140.2005  156.6407 H   0  0  0  0  0  0  0  0  0  0  0  0  # atno 8009 bound_to 7997
  154.6592  140.0549  157.0029 H   0  0  0  0  0  0  0  0  0  0  0  0  # atno 8010 bound_to 7997
  140.6661  143.7174  150.7831 H   0  0  0  0  0  0  0  0  0  0  0  0  # atno 10167 bound_to 10162
  156.2036  130.6873  151.0568 H   0  0  0  0  0  0  0  0  0  0  0  0  # atno 10718 bound_to 10713
  153.0020  135.6264  154.2219 H   0  0  0  0  0  0  0  0  0  0  0  0  # atno 10763 bound_to 10752
  154.1962  135.2806  155.3008 H   0  0  0  0  0  0  0  0  0  0  0  0  # atno 10764 bound_to 10752
  154.5720  135.5673  153.7163 H   0  0  0  0  0  0  0  0  0  0  0  0  # atno 10765 bound_to 10752
  140.3698  134.7040  157.4385 H   0  0  0  0  0  0  0  0  0  0  0  0  # atno 11005 bound_to 11000
  146.2866  139.7022  142.9191 LP  0  0  0  0  0  0  0  0  0  0  0  0  # atno 17320 bound_to 7965
  145.4297  141.0414  143.2917 LP  0  0  0  0  0  0  0  0  0  0  0  0  # atno 17321 bound_to 7965
  140.0852  143.4931  152.2509 LP  0  0  0  0  0  0  0  0  0  0  0  0  # atno 17342 bound_to 10162
  139.5911  144.7550  151.3398 LP  0  0  0  0  0  0  0  0  0  0  0  0  # atno 17343 bound_to 10162
  157.7000  131.0780  150.6851 LP  0  0  0  0  0  0  0  0  0  0  0  0  # atno 17370 bound_to 10713
  156.6909  130.4595  149.5600 LP  0  0  0  0  0  0  0  0  0  0  0  0  # atno 17371 bound_to 10713
  140.0561  134.6062  155.8804 LP  0  0  0  0  0  0  0  0  0  0  0  0  # atno 17394 bound_to 11000
  141.1958  133.6589  156.5661 LP  0  0  0  0  0  0  0  0  0  0  0  0  # atno 17395 bound_to 11000

$$$$
