AV-unprocessed.smi:2358|AV-procd|sdf|9403|dock7
  -GOLD-   2272013 33D 1   1.00000     0.00000
 Structure written by MMmdl.
 45 47  0  0  0  0  0  0  0  0  1 V2000
  151.3333  144.8189  159.4987 C   0  0  0  0  0  0  0  0  0  0  0  0
  151.9924  143.4618  159.6357 C   0  0  0  0  0  0  0  0  0  0  0  0
  152.6433  143.1039  160.8332 C   0  0  0  0  0  0  0  0  0  0  0  0
  153.2520  141.8398  160.9553 C   0  0  0  0  0  0  0  0  0  0  0  0
  153.9503  141.4619  162.2453 C   0  0  0  0  0  0  0  0  0  0  0  0
  153.2080  140.9350  159.8748 C   0  0  0  0  0  0  0  0  0  0  0  0
  152.5624  141.2777  158.6692 C   0  0  0  0  0  0  0  0  0  0  0  0
  152.5702  140.3322  157.6657 O   0  0  0  0  0  0  0  0  0  0  0  0
  151.7037  140.5211  156.5547 C   0  0  0  0  0  0  0  0  0  0  0  0
  152.0544  139.4928  155.4663 C   0  0  2  0  0  0  0  0  0  0  0  0
  150.9324  139.3853  154.6113 O   0  0  0  0  0  0  0  0  0  0  0  0
  152.3284  138.0955  156.0662 C   0  0  0  0  0  0  0  0  0  0  0  0
  153.7443  137.9067  156.4041 N   0  0  0  0  0  0  0  0  0  0  0  0
  154.5985  138.0152  155.3219 N   0  0  0  0  0  0  0  0  0  0  0  0
  155.8768  137.8860  155.4657 C   0  0  0  0  0  0  0  0  0  0  0  0
  156.7600  138.0131  154.3205 N   0  0  0  0  0  0  0  0  0  0  0  0
  156.2858  138.1890  153.0198 C   0  0  0  0  0  0  0  0  0  0  0  0
  157.4035  138.2608  152.2178 C   0  0  0  0  0  0  0  0  0  0  0  0
  158.5563  138.1308  152.9902 N   0  0  0  0  0  0  0  0  0  0  0  0
  158.0968  137.9852  154.2259 C   0  0  0  0  0  0  0  0  0  0  0  0
  156.4303  137.6069  156.7864 C   0  0  0  0  0  0  0  0  0  0  0  0
  155.5867  137.5018  157.8359 C   0  0  0  0  0  0  0  0  0  0  0  0
  154.1413  137.6590  157.6867 C   0  0  0  0  0  0  0  0  0  0  0  0
  153.3532  137.5780  158.6286 O   0  0  0  0  0  0  0  0  0  0  0  0
  151.9513  142.5524  158.5592 C   0  0  0  0  0  0  0  0  0  0  0  0
  151.5784  145.4673  160.3406 H   0  0  0  0  0  0  0  0  0  0  0  0
  150.2495  144.7085  159.4563 H   0  0  0  0  0  0  0  0  0  0  0  0
  151.6648  145.3112  158.5839 H   0  0  0  0  0  0  0  0  0  0  0  0
  152.6763  143.7977  161.6610 H   0  0  0  0  0  0  0  0  0  0  0  0
  154.3145  140.4344  162.2163 H   0  0  0  0  0  0  0  0  0  0  0  0
  153.2645  141.5554  163.0878 H   0  0  0  0  0  0  0  0  0  0  0  0
  154.8014  142.1203  162.4204 H   0  0  0  0  0  0  0  0  0  0  0  0
  153.6750  139.9651  159.9663 H   0  0  0  0  0  0  0  0  0  0  0  0
  150.6797  140.3541  156.8923 H   0  0  0  0  0  0  0  0  0  0  0  0
  151.7646  141.5387  156.1637 H   0  0  0  0  0  0  0  0  0  0  0  0
  152.9201  139.8426  154.9024 H   0  0  0  0  0  0  0  0  0  0  0  0
  151.0428  138.6230  154.0640 H   0  0  0  0  0  0  0  0  0  0  0  0
  151.7371  137.9574  156.9732 H   0  0  0  0  0  0  0  0  0  0  0  0
  151.9815  137.3135  155.3877 H   0  0  0  0  0  0  0  0  0  0  0  0
  155.2471  138.2472  152.7377 H   0  0  0  0  0  0  0  0  0  0  0  0
  157.4658  138.3925  151.1476 H   0  0  0  0  0  0  0  0  0  0  0  0
  158.7479  137.8562  155.0783 H   0  0  0  0  0  0  0  0  0  0  0  0
  157.4853  137.4750  156.9574 H   0  0  0  0  0  0  0  0  0  0  0  0
  155.9901  137.2931  158.8159 H   0  0  0  0  0  0  0  0  0  0  0  0
  151.4425  142.8553  157.6565 H   0  0  0  0  0  0  0  0  0  0  0  0
  1  2  1  0  0  0  0
  1 26  1  0  0  0  0
  1 27  1  0  0  0  0
  1 28  1  0  0  0  0
  2 25  1  0  0  0  0
  2  3  2  0  0  0  0
  3  4  1  0  0  0  0
  3 29  1  0  0  0  0
  4  5  1  0  0  0  0
  4  6  2  0  0  0  0
  5 30  1  0  0  0  0
  5 31  1  0  0  0  0
  5 32  1  0  0  0  0
  6  7  1  0  0  0  0
  6 33  1  0  0  0  0
  7  8  1  0  0  0  0
  7 25  2  0  0  0  0
  8  9  1  0  0  0  0
  9 10  1  0  0  0  0
  9 34  1  0  0  0  0
  9 35  1  0  0  0  0
 10 11  1  0  0  0  0
 10 12  1  0  0  0  0
 10 36  1  0  0  0  0
 11 37  1  0  0  0  0
 12 13  1  0  0  0  0
 12 38  1  0  0  0  0
 12 39  1  0  0  0  0
 13 23  1  0  0  0  0
 13 14  1  0  0  0  0
 14 15  2  0  0  0  0
 15 16  1  0  0  0  0
 15 21  1  0  0  0  0
 16 20  1  0  0  0  0
 16 17  1  0  0  0  0
 17 18  2  0  0  0  0
 17 40  1  0  0  0  0
 18 19  1  0  0  0  0
 18 41  1  0  0  0  0
 19 20  2  0  0  0  0
 20 42  1  0  0  0  0
 21 22  2  0  0  0  0
 21 43  1  0  0  0  0
 22 23  1  0  0  0  0
 22 44  1  0  0  0  0
 23 24  2  0  0  0  0
 25 45  1  0  0  0  0
M  END
> <s_m_source_file>
AV-unprocessed.smi

> <i_m_source_file_index>
2358

> <i_lp_mmshare_version>
43012

> <i_f3d_flags>
0

> <s_epik_input>
W0NIM11jMVtjSF1jKFtDSDNdKVtjSF1jKFtjSF0xKU9bQ0gyXVtDQEhdKFtPSF0pW0NIMl1uMm5jKFtjSF1bY0hdYzI9TyktbjNbY0hdW2NIXW5bY0hdMw==

> <s_epik_cmdline>
J2VwaWtfcHl0aG9uJywgJy1waCcsICc3LjAnLCAnLXRuJywgJzgnLCAnLW1hJywgJzIwMCcsICctbWV0YWxfYmluZGluZycsICctaW1hZScsICc8aW5maWxlLm1hZT4nLCAnLW9tYWUnLCAnPG91dGZpbGUubWFlPic=

> <r_lp_tautomer_probability>
1

> <r_epik_Ionization_Penalty>
0.03707

> <r_epik_Ionization_Penalty_Charging>
0.0370699

> <r_epik_Ionization_Penalty_Neutral>
1.17174e-07

> <r_epik_State_Penalty>
0.0310055

> <r_epik_Charging_Adjusted_Penalty>
0.0680754

> <i_epik_Tot_Q>
0

> <i_epik_Tot_abs_Q>
0

> <r_epik_Metal_State_Penalty>
0.0291724

> <b_epik_Metal_Only>
0

> <s_lp_Force_Field>
OPLS_2005

> <r_lp_Energy>
37.1438

> <b_lp_Chiralities_Consistent>
1

> <s_lp_Variant>
AV-unprocessed.smi:2358-1

> <Gold.Version>
5.8.1

> <Gold.Id.Protein>
6NUR|6NUR_protein|mol2

> <Gold.PLP.Fitness>
53.3353

> <Gold.PLP.PLP>
-46.7874

> <Gold.PLP.part.hbond>
-4.0000

> <Gold.PLP.part.metal>
0.0000

> <Gold.PLP.part.buried>
-2.7933

> <Gold.PLP.part.nonpolar>
-41.6255

> <Gold.PLP.part.repulsive>
2.4212

> <Gold.PLP.ligand.clash>
0.0000

> <Gold.PLP.ligand.torsion>
0.7050

> <Gold.PLP.Chemscore.Hbond>
1.6440

> <Gold.PLP.Chemscore.CHOScore>
0.9915

> <Gold.PLP.Chemscore.Metal>
0.0000

> <Gold.Chemscore.Hbonds>
donor molecule, donor type, donor heavy atom, donor atom, acceptor molecule, acceptor atom, score
      P1  H  7989  7998       L1    11  0.50
      P1  H  7997  8009       L1     8  0.86
      L1  C    18    41       P1 10674  1.00

> <Gold.PLP.Chemscore.Internal.Correction>
0.0515

> <Gold.Rescore>
     Score         DG    S(hbond)    S(metal)    S(lipo)     H(rot)  DE(clash)    DE(int)     intcor
     13.44     -16.93       0.50        0.00     140.48       2.60       1.81       1.69       ----

> <Gold.Chemscore.Fitness>
13.4361

> <Gold.Chemscore.DG>
-16.9321

> <Gold.Chemscore.ZeroCoef>
-5.4800

> <Gold.Chemscore.Hbond>
0.4996

> <Gold.Chemscore.Metal>
0.0000

> <Gold.Chemscore.Lipo>
140.4774

> <Gold.Chemscore.Internal_Hbond>
0.0000

> <Gold.Chemscore.DEClash>
1.8098

> <Gold.Chemscore.DEInternal>
1.6862

> <Gold.Chemscore.Rot>
2.5986

> <Gold.Chemscore.Internal.Correction>
   9.000000E+99

> <Gold.Chemscore.Hbonds>
donor molecule, donor type, donor heavy atom, donor atom, acceptor molecule, acceptor atom, score
      P1  H  7989  7998       L1    11  0.01
      P1  H  7997  8009       L1     8  0.28

> <Gold.Chemscore.Hbond.Weighted>
-1.6686

> <Gold.Chemscore.Metal.Weighted>
-0.0000

> <Gold.Chemscore.Lipo.Weighted>
-16.4359

> <Gold.Chemscore.Internal_Hbond.Weighted>
0.0000

> <Gold.Chemscore.DEClash.Weighted>
1.8098

> <Gold.Chemscore.DEInternal.Weighted>
1.6862

> <Gold.Chemscore.Rot.Weighted>
6.6524

> <Gold.Chemscore.Internal.Correction.Weighted>
   9.000000E+99

> <Gold.Protein.RotatedTorsions>
[ 6907 6896 6895 6894 ] final   38.30 input  -60.11 | X-H torsion
[ 7974 7965 7964 7962 ] final  -89.49 input  175.53 | X-H torsion
[ 8008 7997 7996 7995 ] final  172.63 input   59.86 | X-H torsion
[ 10167 10162 10161 10158 ] final -121.29 input  -65.29 | X-H torsion
[ 10718 10713 10712 10709 ] final  152.19 input   66.30 | X-H torsion
[ 10763 10752 10751 10750 ] final    1.88 input  -60.55 | X-H torsion
[ 11005 11000 10999 10996 ] final  153.59 input  -57.11 | X-H torsion

> <Gold.Protein.ActiveResidues>
 VAL166  LYS551  ARG553  GLY616  TRP617  ASP618  TYR619  PRO620  LYS621  CYS622 
 ASP623  PHE694  ASN695  SER759  ASP760  ASP761  ALA762  ILE779  LEU786  VAL792 
 PHE793  MET794  SER795  GLU796  ALA797  LYS798  CYS799  TRP800  GLU811  SER814 

> <Gold.Protein.RotatedAtoms>
  152.1547  134.8960  160.0545 H   0  0  0  0  0  0  0  0  0  0  0  0  # atno 6907 bound_to 6896
  151.9979  133.3809  159.4178 H   0  0  0  0  0  0  0  0  0  0  0  0  # atno 6908 bound_to 6896
  150.6880  134.3788  159.5069 H   0  0  0  0  0  0  0  0  0  0  0  0  # atno 6909 bound_to 6896
  145.4391  140.9558  143.2085 H   0  0  0  0  0  0  0  0  0  0  0  0  # atno 7974 bound_to 7965
  156.1155  140.1481  156.9278 H   0  0  0  0  0  0  0  0  0  0  0  0  # atno 8008 bound_to 7997
  154.4798  140.0883  156.7391 H   0  0  0  0  0  0  0  0  0  0  0  0  # atno 8009 bound_to 7997
  155.4521  140.3435  155.4304 H   0  0  0  0  0  0  0  0  0  0  0  0  # atno 8010 bound_to 7997
  140.0266  143.5290  152.2196 H   0  0  0  0  0  0  0  0  0  0  0  0  # atno 10167 bound_to 10162
  157.2610  131.0798  151.1665 H   0  0  0  0  0  0  0  0  0  0  0  0  # atno 10718 bound_to 10713
  153.3025  135.6957  153.7190 H   0  0  0  0  0  0  0  0  0  0  0  0  # atno 10763 bound_to 10752
  153.6099  135.3446  155.2976 H   0  0  0  0  0  0  0  0  0  0  0  0  # atno 10764 bound_to 10752
  154.8554  135.4361  154.2139 H   0  0  0  0  0  0  0  0  0  0  0  0  # atno 10765 bound_to 10752
  140.1412  134.8738  157.2333 H   0  0  0  0  0  0  0  0  0  0  0  0  # atno 11005 bound_to 11000
  144.8133  139.5922  143.7019 LP  0  0  0  0  0  0  0  0  0  0  0  0  # atno 17320 bound_to 7965
  146.2566  139.6316  142.9390 LP  0  0  0  0  0  0  0  0  0  0  0  0  # atno 17321 bound_to 7965
  139.6104  144.7607  151.2965 LP  0  0  0  0  0  0  0  0  0  0  0  0  # atno 17342 bound_to 10162
  140.7320  143.6836  150.7980 LP  0  0  0  0  0  0  0  0  0  0  0  0  # atno 17343 bound_to 10162
  157.3175  130.6920  149.6250 LP  0  0  0  0  0  0  0  0  0  0  0  0  # atno 17370 bound_to 10713
  155.9664  130.4345  150.5052 LP  0  0  0  0  0  0  0  0  0  0  0  0  # atno 17371 bound_to 10713
  140.2720  134.3449  155.7370 LP  0  0  0  0  0  0  0  0  0  0  0  0  # atno 17394 bound_to 11000
  141.2186  133.7429  156.9237 LP  0  0  0  0  0  0  0  0  0  0  0  0  # atno 17395 bound_to 11000

$$$$
