AV-unprocessed.smi:1843|AV-procd|sdf|7500|dock8
  -GOLD-   22720 9203D 1   1.00000     0.00000
 Structure written by MMmdl.
 37 39  0  0  0  0  0  0  0  0  1 V2000
  152.8128  139.5060  157.4812 O   0  0  0  0  0  0  0  0  0  0  0  0
  151.6365  139.8455  157.3488 C   0  0  0  0  0  0  0  0  0  0  0  0
  150.6541  139.0712  156.8560 N   0  0  0  0  0  0  0  0  0  0  0  0
  150.7352  137.7268  156.4061 C   0  0  0  0  0  0  0  0  0  0  0  0
  151.7019  136.8751  156.7746 N   0  0  0  0  0  0  0  0  0  0  0  0
  151.5398  135.6251  156.1937 N   0  0  0  0  0  0  0  0  0  0  0  0
  150.4604  135.5673  155.4046 C   0  0  0  0  0  0  0  0  0  0  0  0
  150.0744  134.3242  154.6743 C   0  0  0  0  0  0  0  0  0  0  0  0
  148.6871  133.7426  154.8177 C   0  0  0  0  0  0  0  0  0  0  0  0
  149.8709  133.0097  155.3955 C   0  0  0  0  0  0  0  0  0  0  0  0
  149.5401  137.0651  155.3040 S   0  0  0  0  0  0  0  0  0  0  0  0
  151.1737  141.0563  157.6911 N   0  0  0  0  0  0  0  0  0  0  0  0
  151.9772  142.1364  158.2597 C   0  0  2  0  0  0  0  0  0  0  0  0
  152.1762  141.8724  159.7690 C   0  0  0  0  0  0  0  0  0  0  0  0
  152.8807  143.0393  160.4761 C   0  0  0  0  0  0  0  0  0  0  0  0
  152.1211  144.3541  160.2565 C   0  0  0  0  0  0  0  0  0  0  0  0
  151.9665  144.6461  158.7581 C   0  0  0  0  0  0  0  0  0  0  0  0
  151.2654  143.4887  158.0213 C   0  0  1  0  0  0  0  0  0  0  0  0
  151.2755  143.7940  156.6410 O   0  0  0  0  0  0  0  0  0  0  0  0
  149.7363  139.4882  156.8103 H   0  0  0  0  0  0  0  0  0  0  0  0
  150.5384  134.2978  153.6902 H   0  0  0  0  0  0  0  0  0  0  0  0
  148.0060  134.2248  155.5161 H   0  0  0  0  0  0  0  0  0  0  0  0
  148.2233  133.3274  153.9252 H   0  0  0  0  0  0  0  0  0  0  0  0
  150.1977  132.1044  154.8881 H   0  0  0  0  0  0  0  0  0  0  0  0
  149.9645  132.9952  156.4795 H   0  0  0  0  0  0  0  0  0  0  0  0
  150.1948  141.2524  157.5418 H   0  0  0  0  0  0  0  0  0  0  0  0
  152.9568  142.1666  157.7775 H   0  0  0  0  0  0  0  0  0  0  0  0
  151.2078  141.7045  160.2428 H   0  0  0  0  0  0  0  0  0  0  0  0
  152.7513  140.9575  159.9169 H   0  0  0  0  0  0  0  0  0  0  0  0
  152.9630  142.8313  161.5432 H   0  0  0  0  0  0  0  0  0  0  0  0
  153.8998  143.1355  160.0993 H   0  0  0  0  0  0  0  0  0  0  0  0
  151.1376  144.2959  160.7247 H   0  0  0  0  0  0  0  0  0  0  0  0
  152.6493  145.1745  160.7429 H   0  0  0  0  0  0  0  0  0  0  0  0
  151.4063  145.5718  158.6202 H   0  0  0  0  0  0  0  0  0  0  0  0
  152.9540  144.8159  158.3260 H   0  0  0  0  0  0  0  0  0  0  0  0
  150.2290  143.4279  158.3570 H   0  0  0  0  0  0  0  0  0  0  0  0
  150.5808  144.4102  156.4652 H   0  0  0  0  0  0  0  0  0  0  0  0
  1  2  2  0  0  0  0
  2  3  1  0  0  0  0
  2 12  1  0  0  0  0
  3  4  1  0  0  0  0
  3 20  1  0  0  0  0
  4 11  1  0  0  0  0
  4  5  2  0  0  0  0
  5  6  1  0  0  0  0
  6  7  2  0  0  0  0
  7  8  1  0  0  0  0
  7 11  1  0  0  0  0
  8 10  1  0  0  0  0
  8  9  1  0  0  0  0
  8 21  1  0  0  0  0
  9 10  1  0  0  0  0
  9 22  1  0  0  0  0
  9 23  1  0  0  0  0
 10 24  1  0  0  0  0
 10 25  1  0  0  0  0
 12 13  1  0  0  0  0
 12 26  1  0  0  0  0
 13 18  1  0  0  0  0
 13 14  1  0  0  0  0
 13 27  1  0  0  0  0
 14 15  1  0  0  0  0
 14 28  1  0  0  0  0
 14 29  1  0  0  0  0
 15 16  1  0  0  0  0
 15 30  1  0  0  0  0
 15 31  1  0  0  0  0
 16 17  1  0  0  0  0
 16 32  1  0  0  0  0
 16 33  1  0  0  0  0
 17 18  1  0  0  0  0
 17 34  1  0  0  0  0
 17 35  1  0  0  0  0
 18 19  1  0  0  0  0
 18 36  1  0  0  0  0
 19 37  1  0  0  0  0
M  END
> <s_m_source_file>
AV-unprocessed.smi

> <i_m_source_file_index>
1843

> <i_lp_mmshare_version>
43012

> <i_f3d_flags>
0

> <s_epik_input>
W09IXVtDQEBIXTFbQ0gyXVtDSDJdW0NIMl1bQ0gyXVtDQEhdMVtOSF1DKD1PKVtOSF1jMm5uYyhzMilbQ0hdM1tDSDJdW0NIMl0z

> <s_epik_cmdline>
J2VwaWtfcHl0aG9uJywgJy1waCcsICc3LjAnLCAnLXRuJywgJzgnLCAnLW1hJywgJzIwMCcsICctbWV0YWxfYmluZGluZycsICctaW1hZScsICc8aW5maWxlLm1hZT4nLCAnLW9tYWUnLCAnPG91dGZpbGUubWFlPic=

> <r_lp_tautomer_probability>
1

> <r_epik_Ionization_Penalty>
0.000257313

> <r_epik_Ionization_Penalty_Charging>
0

> <r_epik_Ionization_Penalty_Neutral>
0.000257313

> <r_epik_State_Penalty>
-0

> <r_epik_Charging_Adjusted_Penalty>
0

> <i_epik_Tot_Q>
0

> <i_epik_Tot_abs_Q>
0

> <r_epik_Metal_State_Penalty>
0.147479

> <b_epik_Metal_Only>
0

> <s_lp_Force_Field>
OPLS_2005

> <r_lp_Energy>
7.85459

> <b_lp_Chiralities_Consistent>
1

> <s_lp_Variant>
AV-unprocessed.smi:1843-1

> <Gold.Version>
5.8.1

> <Gold.Id.Protein>
6NUR|6NUR_protein|mol2

> <Gold.PLP.Fitness>
41.8681

> <Gold.PLP.PLP>
-33.9664

> <Gold.PLP.part.hbond>
-3.0000

> <Gold.PLP.part.metal>
0.0000

> <Gold.PLP.part.buried>
-6.0001

> <Gold.PLP.part.nonpolar>
-25.5875

> <Gold.PLP.part.repulsive>
0.0949

> <Gold.PLP.ligand.clash>
0.0000

> <Gold.PLP.ligand.torsion>
0.4586

> <Gold.PLP.Chemscore.Hbond>
2.8960

> <Gold.PLP.Chemscore.CHOScore>
0.0000

> <Gold.PLP.Chemscore.Metal>
0.0000

> <Gold.Chemscore.Hbonds>
donor molecule, donor type, donor heavy atom, donor atom, acceptor molecule, acceptor atom, score
      L1  H    19    37       P1  8028  0.98
      P1  H  7997  8009       L1     1  1.00
      P1  H 10752 10765       L1     6  1.00

> <Gold.PLP.Chemscore.Internal.Correction>
0.1310

> <Gold.Rescore>
     Score         DG    S(hbond)    S(metal)    S(lipo)     H(rot)  DE(clash)    DE(int)     intcor
     19.00     -20.81       2.66        0.00      93.27       1.74       0.12       1.69       ----

> <Gold.Chemscore.Fitness>
18.9981

> <Gold.Chemscore.DG>
-20.8137

> <Gold.Chemscore.ZeroCoef>
-5.4800

> <Gold.Chemscore.Hbond>
2.6576

> <Gold.Chemscore.Metal>
0.0000

> <Gold.Chemscore.Lipo>
93.2713

> <Gold.Chemscore.Internal_Hbond>
0.0000

> <Gold.Chemscore.DEClash>
0.1240

> <Gold.Chemscore.DEInternal>
1.6916

> <Gold.Chemscore.Rot>
1.7404

> <Gold.Chemscore.Internal.Correction>
   9.000000E+99

> <Gold.Chemscore.Hbonds>
donor molecule, donor type, donor heavy atom, donor atom, acceptor molecule, acceptor atom, score
      L1  H    19    37       P1  8028  0.93
      P1  H  7997  8009       L1     1  1.00
      P1  H 10752 10765       L1     6  0.13

> <Gold.Chemscore.Hbond.Weighted>
-8.8764

> <Gold.Chemscore.Metal.Weighted>
-0.0000

> <Gold.Chemscore.Lipo.Weighted>
-10.9127

> <Gold.Chemscore.Internal_Hbond.Weighted>
0.0000

> <Gold.Chemscore.DEClash.Weighted>
0.1240

> <Gold.Chemscore.DEInternal.Weighted>
1.6916

> <Gold.Chemscore.Rot.Weighted>
4.4555

> <Gold.Chemscore.Internal.Correction.Weighted>
   9.000000E+99

> <Gold.Protein.RotatedTorsions>
[ 6907 6896 6895 6894 ] final -146.67 input  -60.11 | X-H torsion
[ 7974 7965 7964 7962 ] final  141.16 input  175.53 | X-H torsion
[ 8008 7997 7996 7995 ] final  168.76 input   59.86 | X-H torsion
[ 10167 10162 10161 10158 ] final  -90.26 input  -65.29 | X-H torsion
[ 10718 10713 10712 10709 ] final -126.03 input   66.30 | X-H torsion
[ 10763 10752 10751 10750 ] final -166.53 input  -60.55 | X-H torsion
[ 11005 11000 10999 10996 ] final  -98.12 input  -57.11 | X-H torsion

> <Gold.Protein.ActiveResidues>
 VAL166  LYS551  ARG553  GLY616  TRP617  ASP618  TYR619  PRO620  LYS621  CYS622 
 ASP623  PHE694  ASN695  SER759  ASP760  ASP761  ALA762  ILE779  LEU786  VAL792 
 PHE793  MET794  SER795  GLU796  ALA797  LYS798  CYS799  TRP800  GLU811  SER814 

> <Gold.Protein.RotatedAtoms>
  151.1449  133.4946  159.2595 H   0  0  0  0  0  0  0  0  0  0  0  0  # atno 6907 bound_to 6896
  151.1615  135.0275  159.8722 H   0  0  0  0  0  0  0  0  0  0  0  0  # atno 6908 bound_to 6896
  152.5463  134.1323  159.8497 H   0  0  0  0  0  0  0  0  0  0  0  0  # atno 6909 bound_to 6896
  144.9121  139.5279  143.5704 H   0  0  0  0  0  0  0  0  0  0  0  0  # atno 7974 bound_to 7965
  156.1518  140.1582  156.8758 H   0  0  0  0  0  0  0  0  0  0  0  0  # atno 8008 bound_to 7997
  154.5078  140.0808  156.7966 H   0  0  0  0  0  0  0  0  0  0  0  0  # atno 8009 bound_to 7997
  155.3882  140.3408  155.4252 H   0  0  0  0  0  0  0  0  0  0  0  0  # atno 8010 bound_to 7997
  140.3566  143.2863  151.9664 H   0  0  0  0  0  0  0  0  0  0  0  0  # atno 10167 bound_to 10162
  156.1728  130.6679  151.0203 H   0  0  0  0  0  0  0  0  0  0  0  0  # atno 10718 bound_to 10713
  154.6824  135.2957  154.9594 H   0  0  0  0  0  0  0  0  0  0  0  0  # atno 10763 bound_to 10752
  154.0585  135.6634  153.4813 H   0  0  0  0  0  0  0  0  0  0  0  0  # atno 10764 bound_to 10752
  153.0556  135.5146  154.7874 H   0  0  0  0  0  0  0  0  0  0  0  0  # atno 10765 bound_to 10752
  141.1356  133.8221  157.0797 H   0  0  0  0  0  0  0  0  0  0  0  0  # atno 11005 bound_to 11000
  146.3163  139.7935  142.8980 LP  0  0  0  0  0  0  0  0  0  0  0  0  # atno 17320 bound_to 7965
  145.3437  141.0293  143.3378 LP  0  0  0  0  0  0  0  0  0  0  0  0  # atno 17321 bound_to 7965
  139.4819  144.6029  151.7573 LP  0  0  0  0  0  0  0  0  0  0  0  0  # atno 17342 bound_to 10162
  140.5167  144.0941  150.6010 LP  0  0  0  0  0  0  0  0  0  0  0  0  # atno 17343 bound_to 10162
  157.6815  131.0837  150.7357 LP  0  0  0  0  0  0  0  0  0  0  0  0  # atno 17370 bound_to 10713
  156.7416  130.4741  149.5476 LP  0  0  0  0  0  0  0  0  0  0  0  0  # atno 17371 bound_to 10713
  140.0459  134.9830  157.1048 LP  0  0  0  0  0  0  0  0  0  0  0  0  # atno 17394 bound_to 11000
  140.4063  134.2029  155.7163 LP  0  0  0  0  0  0  0  0  0  0  0  0  # atno 17395 bound_to 11000

$$$$
