AV-unprocessed.smi:40|AV-procd|sdf|378|dock3
  -GOLD-   2262016233D 1   1.00000     0.00000
 Structure written by MMmdl.
 47 48  0  0  0  0  0  0  0  0  1 V2000
  152.1775  145.1783  159.0727 C   0  0  0  0  0  0  0  0  0  0  0  0
  151.8017  144.4510  160.3679 C   0  0  0  0  0  0  0  0  0  0  0  0
  152.5562  143.1247  160.5389 C   0  0  0  0  0  0  0  0  0  0  0  0
  152.4053  142.2018  159.3228 C   0  0  0  0  0  0  0  0  0  0  0  0
  152.8797  140.7701  159.6149 C   0  0  0  0  0  0  0  0  0  0  0  0
  152.8184  139.9729  158.4401 O   0  0  0  0  0  0  0  0  0  0  0  0
  151.9322  138.9569  158.3394 C   0  0  0  0  0  0  0  0  0  0  0  0
  151.1523  138.6238  159.2314 O   0  0  0  0  0  0  0  0  0  0  0  0
  151.9996  138.3378  157.0316 N   0  0  0  0  0  0  0  0  0  0  0  0
  151.2584  137.2988  156.5899 C   0  0  0  0  0  0  0  0  0  0  0  0
  150.9197  136.3768  157.4707 N   0  0  0  0  0  0  0  0  0  0  0  0
  150.1711  135.2723  157.1647 C   0  0  0  0  0  0  0  0  0  0  0  0
  149.8406  134.4804  158.0460 O   0  0  0  0  0  0  0  0  0  0  0  0
  149.7881  135.0888  155.8123 N   0  0  0  0  0  0  0  0  0  0  0  0
  148.9243  133.8878  155.4583 C   0  0  1  0  0  0  0  0  0  0  0  0
  147.5811  134.1754  155.7368 O   0  0  0  0  0  0  0  0  0  0  0  0
  146.8479  134.4222  154.5402 C   0  0  1  0  0  0  0  0  0  0  0  0
  146.8691  135.9219  154.1838 C   0  0  0  0  0  0  0  0  0  0  0  0
  147.5327  133.4977  153.5317 C   0  0  1  0  0  0  0  0  0  0  0  0
  147.3610  133.9254  152.1943 O   0  0  0  0  0  0  0  0  0  0  0  0
  148.9971  133.5333  153.9515 C   0  0  2  0  0  0  0  0  0  0  0  0
  149.5769  132.2619  153.7369 O   0  0  0  0  0  0  0  0  0  0  0  0
  150.1077  136.0707  154.8815 C   0  0  0  0  0  0  0  0  0  0  0  0
  150.8364  137.1593  155.2081 C   0  0  0  0  0  0  0  0  0  0  0  0
  151.1613  138.0651  154.2688 F   0  0  0  0  0  0  0  0  0  0  0  0
  149.2742  133.0954  156.1223 H   0  0  0  0  0  0  0  0  0  0  0  0
  145.8112  134.1190  154.6902 H   0  0  0  0  0  0  0  0  0  0  0  0
  147.1262  132.4914  153.6474 H   0  0  0  0  0  0  0  0  0  0  0  0
  149.5381  134.3077  153.4052 H   0  0  0  0  0  0  0  0  0  0  0  0
  151.6260  146.1142  158.9791 H   0  0  0  0  0  0  0  0  0  0  0  0
  151.9476  144.5687  158.1983 H   0  0  0  0  0  0  0  0  0  0  0  0
  153.2416  145.4144  159.0475 H   0  0  0  0  0  0  0  0  0  0  0  0
  152.0074  145.1015  161.2187 H   0  0  0  0  0  0  0  0  0  0  0  0
  150.7272  144.2644  160.3745 H   0  0  0  0  0  0  0  0  0  0  0  0
  153.6143  143.3287  160.7081 H   0  0  0  0  0  0  0  0  0  0  0  0
  152.1940  142.6126  161.4312 H   0  0  0  0  0  0  0  0  0  0  0  0
  151.3613  142.1780  159.0080 H   0  0  0  0  0  0  0  0  0  0  0  0
  152.9710  142.6133  158.4859 H   0  0  0  0  0  0  0  0  0  0  0  0
  153.8873  140.7707  160.0338 H   0  0  0  0  0  0  0  0  0  0  0  0
  152.2315  140.3170  160.3653 H   0  0  0  0  0  0  0  0  0  0  0  0
  152.7119  138.7104  156.4210 H   0  0  0  0  0  0  0  0  0  0  0  0
  146.2597  136.1244  153.3029 H   0  0  0  0  0  0  0  0  0  0  0  0
  147.8775  136.2782  153.9744 H   0  0  0  0  0  0  0  0  0  0  0  0
  146.4636  136.5202  154.9995 H   0  0  0  0  0  0  0  0  0  0  0  0
  147.8629  134.7164  152.0685 H   0  0  0  0  0  0  0  0  0  0  0  0
  148.9708  131.6043  154.0442 H   0  0  0  0  0  0  0  0  0  0  0  0
  149.7847  135.9899  153.8550 H   0  0  0  0  0  0  0  0  0  0  0  0
  1  2  1  0  0  0  0
  1 30  1  0  0  0  0
  1 31  1  0  0  0  0
  1 32  1  0  0  0  0
  2  3  1  0  0  0  0
  2 33  1  0  0  0  0
  2 34  1  0  0  0  0
  3  4  1  0  0  0  0
  3 35  1  0  0  0  0
  3 36  1  0  0  0  0
  4  5  1  0  0  0  0
  4 37  1  0  0  0  0
  4 38  1  0  0  0  0
  5  6  1  0  0  0  0
  5 39  1  0  0  0  0
  5 40  1  0  0  0  0
  6  7  1  0  0  0  0
  7  8  2  0  0  0  0
  7  9  1  0  0  0  0
  9 10  1  0  0  0  0
  9 41  1  0  0  0  0
 10 24  1  0  0  0  0
 10 11  2  0  0  0  0
 11 12  1  0  0  0  0
 12 13  2  0  0  0  0
 12 14  1  0  0  0  0
 14 15  1  0  0  0  0
 14 23  1  0  0  0  0
 15 26  1  0  0  0  0
 15 21  1  0  0  0  0
 15 16  1  0  0  0  0
 16 17  1  0  0  0  0
 17 27  1  0  0  0  0
 17 18  1  0  0  0  0
 17 19  1  0  0  0  0
 18 42  1  0  0  0  0
 18 43  1  0  0  0  0
 18 44  1  0  0  0  0
 19 28  1  0  0  0  0
 19 20  1  0  0  0  0
 19 21  1  0  0  0  0
 20 45  1  0  0  0  0
 21 29  1  0  0  0  0
 21 22  1  0  0  0  0
 22 46  1  0  0  0  0
 23 24  2  0  0  0  0
 23 47  1  0  0  0  0
 24 25  1  0  0  0  0
M  END
> <s_m_source_file>
AV-unprocessed.smi

> <i_m_source_file_index>
40

> <i_lp_mmshare_version>
43012

> <i_f3d_flags>
0

> <s_epik_input>
W0NIM11bQ0gyXVtDSDJdW0NIMl1bQ0gyXU9DKD1PKVtOSF1jMW5jKD1PKW4oW2NIXWMxRilbQ0BASF0yT1tDQEhdKFtDSDNdKVtDQEBIXShbT0hdKVtDQEhdMltPSF0=

> <s_epik_cmdline>
J2VwaWtfcHl0aG9uJywgJy1waCcsICc3LjAnLCAnLXRuJywgJzgnLCAnLW1hJywgJzIwMCcsICctbWV0YWxfYmluZGluZycsICctaW1hZScsICc8aW5maWxlLm1hZT4nLCAnLW9tYWUnLCAnPG91dGZpbGUubWFlPic=

> <r_lp_tautomer_probability>
1

> <r_epik_Ionization_Penalty>
2.29506e-06

> <r_epik_Ionization_Penalty_Charging>
8.26867e-09

> <r_epik_Ionization_Penalty_Neutral>
2.2868e-06

> <r_epik_State_Penalty>
-0

> <r_epik_Charging_Adjusted_Penalty>
8.26867e-09

> <i_epik_Tot_Q>
0

> <i_epik_Tot_abs_Q>
0

> <r_epik_Metal_State_Penalty>
-0

> <b_epik_Metal_Only>
0

> <s_epik_Chemistry_Notes>
This compound has an ester and may undergo hydrolysis at high or low pH. This compound contains an acetal/aminal-like group ( X-CH(R)-Y where X, Y are N, S, or O) that may be acid/base labile, releasing an aldehyde.

> <s_lp_Force_Field>
OPLS_2005

> <r_lp_Energy>
34.9505

> <b_lp_Chiralities_Consistent>
1

> <s_lp_Variant>
AV-unprocessed.smi:40-12

> <Gold.Version>
5.8.1

> <Gold.Id.Protein>
6NUR|6NUR_protein|mol2

> <Gold.PLP.Fitness>
43.6895

> <Gold.PLP.PLP>
-37.1042

> <Gold.PLP.part.hbond>
-2.7510

> <Gold.PLP.part.metal>
0.0000

> <Gold.PLP.part.buried>
-3.1196

> <Gold.PLP.part.nonpolar>
-30.6044

> <Gold.PLP.part.repulsive>
0.0952

> <Gold.PLP.ligand.clash>
0.0000

> <Gold.PLP.ligand.torsion>
1.3138

> <Gold.PLP.Chemscore.Hbond>
2.0000

> <Gold.PLP.Chemscore.CHOScore>
1.0000

> <Gold.PLP.Chemscore.Metal>
0.0000

> <Gold.Chemscore.Hbonds>
donor molecule, donor type, donor heavy atom, donor atom, acceptor molecule, acceptor atom, score
      L1  H    20    45       P1  7948  1.00
      P1  H  6896  6908       L1    13  1.00
      L1  C    23    47       P1  7948  0.98

> <Gold.PLP.Chemscore.Internal.Correction>
0.2130

> <Gold.Rescore>
     Score         DG    S(hbond)    S(metal)    S(lipo)     H(rot)  DE(clash)    DE(int)     intcor
      8.66     -11.51       1.88        0.00      78.84       3.70       0.21       2.64       ----

> <Gold.Chemscore.Fitness>
8.6629

> <Gold.Chemscore.DG>
-11.5087

> <Gold.Chemscore.ZeroCoef>
-5.4800

> <Gold.Chemscore.Hbond>
1.8757

> <Gold.Chemscore.Metal>
0.0000

> <Gold.Chemscore.Lipo>
78.8442

> <Gold.Chemscore.Internal_Hbond>
0.0000

> <Gold.Chemscore.DEClash>
0.2070

> <Gold.Chemscore.DEInternal>
2.6388

> <Gold.Chemscore.Rot>
3.6957

> <Gold.Chemscore.Internal.Correction>
   9.000000E+99

> <Gold.Chemscore.Hbonds>
donor molecule, donor type, donor heavy atom, donor atom, acceptor molecule, acceptor atom, score
      L1  H    20    45       P1  7948  0.45
      P1  H  6896  6908       L1    13  0.95

> <Gold.Chemscore.Hbond.Weighted>
-6.2648

> <Gold.Chemscore.Metal.Weighted>
-0.0000

> <Gold.Chemscore.Lipo.Weighted>
-9.2248

> <Gold.Chemscore.Internal_Hbond.Weighted>
0.0000

> <Gold.Chemscore.DEClash.Weighted>
0.2070

> <Gold.Chemscore.DEInternal.Weighted>
2.6388

> <Gold.Chemscore.Rot.Weighted>
9.4610

> <Gold.Chemscore.Internal.Correction.Weighted>
   9.000000E+99

> <Gold.Protein.RotatedTorsions>
[ 6907 6896 6895 6894 ] final  145.14 input  -60.11 | X-H torsion
[ 7974 7965 7964 7962 ] final  -79.51 input  175.53 | X-H torsion
[ 8008 7997 7996 7995 ] final  -50.71 input   59.86 | X-H torsion
[ 10167 10162 10161 10158 ] final  164.05 input  -65.29 | X-H torsion
[ 10718 10713 10712 10709 ] final  -25.04 input   66.30 | X-H torsion
[ 10763 10752 10751 10750 ] final   25.06 input  -60.55 | X-H torsion
[ 11005 11000 10999 10996 ] final   36.85 input  -57.11 | X-H torsion

> <Gold.Protein.ActiveResidues>
 VAL166  LYS551  ARG553  GLY616  TRP617  ASP618  TYR619  PRO620  LYS621  CYS622 
 ASP623  PHE694  ASN695  SER759  ASP760  ASP761  ALA762  ILE779  LEU786  VAL792 
 PHE793  MET794  SER795  GLU796  ALA797  LYS798  CYS799  TRP800  GLU811  SER814 

> <Gold.Protein.RotatedAtoms>
  152.1847  133.4732  159.4976 H   0  0  0  0  0  0  0  0  0  0  0  0  # atno 6907 bound_to 6896
  150.6940  134.1788  159.4249 H   0  0  0  0  0  0  0  0  0  0  0  0  # atno 6908 bound_to 6896
  151.9701  135.0081  160.0603 H   0  0  0  0  0  0  0  0  0  0  0  0  # atno 6909 bound_to 6896
  145.5723  140.9464  143.1389 H   0  0  0  0  0  0  0  0  0  0  0  0  # atno 7974 bound_to 7965
  154.4067  140.1265  156.4711 H   0  0  0  0  0  0  0  0  0  0  0  0  # atno 8008 bound_to 7997
  155.7178  140.3493  155.4983 H   0  0  0  0  0  0  0  0  0  0  0  0  # atno 8009 bound_to 7997
  155.9242  140.1058  157.1173 H   0  0  0  0  0  0  0  0  0  0  0  0  # atno 8010 bound_to 7997
  139.4883  144.4275  151.9111 H   0  0  0  0  0  0  0  0  0  0  0  0  # atno 10167 bound_to 10162
  156.4697  130.4521  149.6877 H   0  0  0  0  0  0  0  0  0  0  0  0  # atno 10718 bound_to 10713
  153.0718  135.6591  154.0230 H   0  0  0  0  0  0  0  0  0  0  0  0  # atno 10763 bound_to 10752
  153.9874  135.2949  155.3416 H   0  0  0  0  0  0  0  0  0  0  0  0  # atno 10764 bound_to 10752
  154.7095  135.5211  153.8715 H   0  0  0  0  0  0  0  0  0  0  0  0  # atno 10765 bound_to 10752
  140.2285  134.3556  155.7974 H   0  0  0  0  0  0  0  0  0  0  0  0  # atno 11005 bound_to 11000
  144.7432  139.7391  143.7302 LP  0  0  0  0  0  0  0  0  0  0  0  0  # atno 17320 bound_to 7965
  146.1775  139.4953  142.9887 LP  0  0  0  0  0  0  0  0  0  0  0  0  # atno 17321 bound_to 7965
  140.3721  144.2842  150.5918 LP  0  0  0  0  0  0  0  0  0  0  0  0  # atno 17342 bound_to 10162
  140.5309  143.2243  151.8240 LP  0  0  0  0  0  0  0  0  0  0  0  0  # atno 17343 bound_to 10162
  156.3631  130.7492  151.2466 LP  0  0  0  0  0  0  0  0  0  0  0  0  # atno 17370 bound_to 10713
  157.7492  131.0344  150.4317 LP  0  0  0  0  0  0  0  0  0  0  0  0  # atno 17371 bound_to 10713
  141.2219  133.7232  156.8692 LP  0  0  0  0  0  0  0  0  0  0  0  0  # atno 17394 bound_to 11000
  140.1775  134.9056  157.2909 LP  0  0  0  0  0  0  0  0  0  0  0  0  # atno 17395 bound_to 11000

$$$$
