AV-unprocessed.smi:771|AV-procd|sdf|3684|dock5
  -GOLD-   22720 1103D 1   1.00000     0.00000
 Structure written by MMmdl.
 41 42  0  0  0  0  0  0  0  0  3 V2000
  146.1683  137.9416  155.0889 O   0  0  0  0  0  0  0  0  0  0  0  0
  146.8180  137.7601  154.0580 C   0  0  0  0  0  0  0  0  0  0  0  0
  147.4941  138.9304  153.3292 C   0  0  0  0  0  0  0  0  0  0  0  0
  148.5979  139.5352  154.0934 N   0  0  0  0  0  0  0  0  0  0  0  0
  149.7653  138.7605  154.2411 C   0  0  0  0  0  0  0  0  0  0  0  0
  150.8442  139.2111  154.9107 C   0  0  0  0  0  0  0  0  0  0  0  0
  152.0363  138.4035  155.0473 N   0  3  0  0  0  0  0  0  0  0  0  0
  152.9471  138.8143  155.7591 O   0  0  0  0  0  0  0  0  0  0  0  0
  152.1023  137.3335  154.4492 O   0  5  0  0  0  0  0  0  0  0  0  0
  150.7721  140.5389  155.4888 C   0  0  0  0  0  0  0  0  0  0  0  0
  149.6601  141.2870  155.3470 C   0  0  0  0  0  0  0  0  0  0  0  0
  148.4894  140.7966  154.6121 C   0  0  0  0  0  0  0  0  0  0  0  0
  147.4746  141.4790  154.4706 O   0  0  0  0  0  0  0  0  0  0  0  0
  146.9824  136.5518  153.4993 N   0  0  0  0  0  0  0  0  0  0  0  0
  146.4102  135.3077  154.0054 C   0  0  0  0  0  0  0  0  0  0  0  0
  146.6471  134.1051  153.0584 C   0  0  1  0  0  0  0  0  0  0  0  0
  146.3023  132.7633  153.7468 C   0  0  0  0  0  0  0  0  0  0  0  0
  146.5065  131.5626  152.8107 C   0  0  0  0  0  0  0  0  0  0  0  0
  145.6902  131.7213  151.5214 C   0  0  0  0  0  0  0  0  0  0  0  0
  146.0433  133.0355  150.8121 C   0  0  0  0  0  0  0  0  0  0  0  0
  145.8451  134.2478  151.7411 C   0  0  2  0  0  0  0  0  0  0  0  0
  146.2552  135.4033  151.0375 O   0  0  0  0  0  0  0  0  0  0  0  0
  147.8383  138.5823  152.3538 H   0  0  0  0  0  0  0  0  0  0  0  0
  146.7399  139.6879  153.1086 H   0  0  0  0  0  0  0  0  0  0  0  0
  149.7201  137.7898  153.7681 H   0  0  0  0  0  0  0  0  0  0  0  0
  151.6089  140.9438  156.0388 H   0  0  0  0  0  0  0  0  0  0  0  0
  149.6288  142.2738  155.7853 H   0  0  0  0  0  0  0  0  0  0  0  0
  147.5361  136.4890  152.6570 H   0  0  0  0  0  0  0  0  0  0  0  0
  146.8565  135.1053  154.9794 H   0  0  0  0  0  0  0  0  0  0  0  0
  145.3444  135.4579  154.1847 H   0  0  0  0  0  0  0  0  0  0  0  0
  147.7066  134.0784  152.7985 H   0  0  0  0  0  0  0  0  0  0  0  0
  146.9162  132.6216  154.6366 H   0  0  0  0  0  0  0  0  0  0  0  0
  145.2665  132.7827  154.0884 H   0  0  0  0  0  0  0  0  0  0  0  0
  147.5651  131.4651  152.5657 H   0  0  0  0  0  0  0  0  0  0  0  0
  146.2209  130.6419  153.3204 H   0  0  0  0  0  0  0  0  0  0  0  0
  145.8753  130.8772  150.8567 H   0  0  0  0  0  0  0  0  0  0  0  0
  144.6251  131.7045  151.7560 H   0  0  0  0  0  0  0  0  0  0  0  0
  147.0797  132.9929  150.4734 H   0  0  0  0  0  0  0  0  0  0  0  0
  145.4299  133.1454  149.9169 H   0  0  0  0  0  0  0  0  0  0  0  0
  144.7839  134.3527  151.9709 H   0  0  0  0  0  0  0  0  0  0  0  0
  147.1309  135.6286  151.3127 H   0  0  0  0  0  0  0  0  0  0  0  0
  1  2  2  0  0  0  0
  2  3  1  0  0  0  0
  2 14  1  0  0  0  0
  3  4  1  0  0  0  0
  3 23  1  0  0  0  0
  3 24  1  0  0  0  0
  4 12  1  0  0  0  0
  4  5  1  0  0  0  0
  5  6  2  0  0  0  0
  5 25  1  0  0  0  0
  6  7  1  0  0  0  0
  6 10  1  0  0  0  0
  7  8  2  0  0  0  0
  7  9  1  0  0  0  0
 10 11  2  0  0  0  0
 10 26  1  0  0  0  0
 11 12  1  0  0  0  0
 11 27  1  0  0  0  0
 12 13  2  0  0  0  0
 14 15  1  0  0  0  0
 14 28  1  0  0  0  0
 15 16  1  0  0  0  0
 15 29  1  0  0  0  0
 15 30  1  0  0  0  0
 16 21  1  0  0  0  0
 16 17  1  0  0  0  0
 16 31  1  0  0  0  0
 17 18  1  0  0  0  0
 17 32  1  0  0  0  0
 17 33  1  0  0  0  0
 18 19  1  0  0  0  0
 18 34  1  0  0  0  0
 18 35  1  0  0  0  0
 19 20  1  0  0  0  0
 19 36  1  0  0  0  0
 19 37  1  0  0  0  0
 20 21  1  0  0  0  0
 20 38  1  0  0  0  0
 20 39  1  0  0  0  0
 21 22  1  0  0  0  0
 21 40  1  0  0  0  0
 22 41  1  0  0  0  0
M  CHG  1   7   1
M  CHG  1   9  -1
M  END
> <s_m_source_file>
AV-unprocessed.smi

> <i_m_source_file_index>
771

> <i_lp_mmshare_version>
43012

> <i_f3d_flags>
0

> <s_epik_input>
Tz1jMVtjSF1bY0hdYyhbTitdKD1PKVtPLV0pW2NIXW4xW0NIMl1DKD1PKVtOSF1bQ0gyXVtDQEBIXTJbQ0gyXVtDSDJdW0NIMl1bQ0gyXVtDQEhdMltPSF0=

> <s_epik_cmdline>
J2VwaWtfcHl0aG9uJywgJy1waCcsICc3LjAnLCAnLXRuJywgJzgnLCAnLW1hJywgJzIwMCcsICctbWV0YWxfYmluZGluZycsICctaW1hZScsICc8aW5maWxlLm1hZT4nLCAnLW9tYWUnLCAnPG91dGZpbGUubWFlPic=

> <r_lp_tautomer_probability>
1

> <r_epik_Ionization_Penalty>
3.77175e-07

> <r_epik_Ionization_Penalty_Charging>
7.70067e-11

> <r_epik_Ionization_Penalty_Neutral>
3.77098e-07

> <r_epik_State_Penalty>
-0

> <r_epik_Charging_Adjusted_Penalty>
7.70067e-11

> <i_epik_Tot_Q>
0

> <i_epik_Tot_abs_Q>
2

> <r_epik_Metal_State_Penalty>
-0

> <b_epik_Metal_Only>
0

> <s_lp_Force_Field>
OPLS_2005

> <r_lp_Energy>
22.9473

> <b_lp_Chiralities_Consistent>
1

> <s_lp_Variant>
AV-unprocessed.smi:771-4

> <Gold.Version>
5.8.1

> <Gold.Id.Protein>
6NUR|6NUR_protein|mol2

> <Gold.PLP.Fitness>
50.0385

> <Gold.PLP.PLP>
-36.0216

> <Gold.PLP.part.hbond>
-4.0000

> <Gold.PLP.part.metal>
0.0000

> <Gold.PLP.part.buried>
-1.4634

> <Gold.PLP.part.nonpolar>
-30.0058

> <Gold.PLP.part.repulsive>
0.3228

> <Gold.PLP.ligand.clash>
0.0000

> <Gold.PLP.ligand.torsion>
0.2223

> <Gold.PLP.Chemscore.Hbond>
3.8080

> <Gold.PLP.Chemscore.CHOScore>
1.0000

> <Gold.PLP.Chemscore.Metal>
0.0000

> <Gold.Chemscore.Hbonds>
donor molecule, donor type, donor heavy atom, donor atom, acceptor molecule, acceptor atom, score
      L1  H    14    28       P1  7948  1.00
      L1  H    22    41       P1  7948  1.00
      P1  H  7997  8010       L1     8  1.00
      P1  H 10752 10763       L1     9  0.80
      L1  C     5    25       P1  7948  0.96

> <Gold.PLP.Chemscore.Internal.Correction>
0.0375

> <Gold.Rescore>
     Score         DG    S(hbond)    S(metal)    S(lipo)     H(rot)  DE(clash)    DE(int)     intcor
     17.86     -19.46       3.62        0.00      70.32       2.48       0.01       1.59       ----

> <Gold.Chemscore.Fitness>
17.8608

> <Gold.Chemscore.DG>
-19.4641

> <Gold.Chemscore.ZeroCoef>
-5.4800

> <Gold.Chemscore.Hbond>
3.6210

> <Gold.Chemscore.Metal>
0.0000

> <Gold.Chemscore.Lipo>
70.3165

> <Gold.Chemscore.Internal_Hbond>
0.0000

> <Gold.Chemscore.DEClash>
0.0095

> <Gold.Chemscore.DEInternal>
1.5938

> <Gold.Chemscore.Rot>
2.4753

> <Gold.Chemscore.Internal.Correction>
   9.000000E+99

> <Gold.Chemscore.Hbonds>
donor molecule, donor type, donor heavy atom, donor atom, acceptor molecule, acceptor atom, score
      L1  H    14    28       P1  7948  0.97
      L1  H    22    41       P1  7948  0.96
      P1  H  7997  8010       L1     8  0.97
      P1  H 10752 10763       L1     9  0.79

> <Gold.Chemscore.Hbond.Weighted>
-12.0940

> <Gold.Chemscore.Metal.Weighted>
-0.0000

> <Gold.Chemscore.Lipo.Weighted>
-8.2270

> <Gold.Chemscore.Internal_Hbond.Weighted>
0.0000

> <Gold.Chemscore.DEClash.Weighted>
0.0095

> <Gold.Chemscore.DEInternal.Weighted>
1.5938

> <Gold.Chemscore.Rot.Weighted>
6.3369

> <Gold.Chemscore.Internal.Correction.Weighted>
   9.000000E+99

> <Gold.Protein.RotatedTorsions>
[ 6907 6896 6895 6894 ] final   23.42 input  -60.11 | X-H torsion
[ 7974 7965 7964 7962 ] final   50.05 input  175.53 | X-H torsion
[ 8008 7997 7996 7995 ] final   81.79 input   59.86 | X-H torsion
[ 10167 10162 10161 10158 ] final -130.67 input  -65.29 | X-H torsion
[ 10718 10713 10712 10709 ] final -120.09 input   66.30 | X-H torsion
[ 10763 10752 10751 10750 ] final   29.34 input  -60.55 | X-H torsion
[ 11005 11000 10999 10996 ] final  -52.90 input  -57.11 | X-H torsion

> <Gold.Protein.ActiveResidues>
 VAL166  LYS551  ARG553  GLY616  TRP617  ASP618  TYR619  PRO620  LYS621  CYS622 
 ASP623  PHE694  ASN695  SER759  ASP760  ASP761  ALA762  ILE779  LEU786  VAL792 
 PHE793  MET794  SER795  GLU796  ALA797  LYS798  CYS799  TRP800  GLU811  SER814 

> <Gold.Protein.RotatedAtoms>
  151.9421  135.0208  160.0536 H   0  0  0  0  0  0  0  0  0  0  0  0  # atno 6907 bound_to 6896
  152.2027  133.4848  159.5075 H   0  0  0  0  0  0  0  0  0  0  0  0  # atno 6908 bound_to 6896
  150.6958  134.1487  159.4175 H   0  0  0  0  0  0  0  0  0  0  0  0  # atno 6909 bound_to 6896
  146.0050  139.4480  142.9991 H   0  0  0  0  0  0  0  0  0  0  0  0  # atno 7974 bound_to 7965
  155.9018  140.3433  155.6032 H   0  0  0  0  0  0  0  0  0  0  0  0  # atno 8008 bound_to 7997
  155.7490  140.0817  157.2229 H   0  0  0  0  0  0  0  0  0  0  0  0  # atno 8009 bound_to 7997
  154.4044  140.1556  156.2690 H   0  0  0  0  0  0  0  0  0  0  0  0  # atno 8010 bound_to 7997
  139.9269  143.6317  152.2539 H   0  0  0  0  0  0  0  0  0  0  0  0  # atno 10167 bound_to 10162
  156.1231  130.6338  150.9498 H   0  0  0  0  0  0  0  0  0  0  0  0  # atno 10718 bound_to 10713
  153.0436  135.6491  154.0876 H   0  0  0  0  0  0  0  0  0  0  0  0  # atno 10763 bound_to 10752
  154.0577  135.2890  155.3331 H   0  0  0  0  0  0  0  0  0  0  0  0  # atno 10764 bound_to 10752
  154.6678  135.5367  153.8164 H   0  0  0  0  0  0  0  0  0  0  0  0  # atno 10765 bound_to 10752
  141.0948  133.6626  156.4092 H   0  0  0  0  0  0  0  0  0  0  0  0  # atno 11005 bound_to 11000
  145.7430  141.0001  143.1291 LP  0  0  0  0  0  0  0  0  0  0  0  0  # atno 17320 bound_to 7965
  144.6932  139.9122  143.7464 LP  0  0  0  0  0  0  0  0  0  0  0  0  # atno 17321 bound_to 7965
  139.6815  144.7655  151.1601 LP  0  0  0  0  0  0  0  0  0  0  0  0  # atno 17342 bound_to 10162
  140.7648  143.5719  150.8987 LP  0  0  0  0  0  0  0  0  0  0  0  0  # atno 17343 bound_to 10162
  157.6414  131.0910  150.8243 LP  0  0  0  0  0  0  0  0  0  0  0  0  # atno 17370 bound_to 10713
  156.8337  130.5024  149.5328 LP  0  0  0  0  0  0  0  0  0  0  0  0  # atno 17371 bound_to 10713
  140.5166  134.6344  157.5303 LP  0  0  0  0  0  0  0  0  0  0  0  0  # atno 17394 bound_to 11000
  139.9782  134.7180  155.9909 LP  0  0  0  0  0  0  0  0  0  0  0  0  # atno 17395 bound_to 11000

$$$$
