#       Name:                AV-unprocessed.smi:677
#       Creating user name   scv26
#       Creation time:       Fri Mar 27 00:27:37 2020


#       File generated by GOLD software.
#

@<TRIPOS>MOLECULE
AV-unprocessed.smi:677
    48    49     1
SMALL
NO_CHARGES


@<TRIPOS>ATOM
      1 ****        -4.8238   1.9112   2.2882 C.3            1 S1                 0.0000
      2 ****        -4.2148   1.2322   1.0797 C.ar           1 S1                 0.0000
      3 ****        -3.6936  -0.0785   1.1319 C.ar           1 S1                 0.0000
      4 ****        -3.1409  -0.6469  -0.0346 C.ar           1 S1                 0.0000
      5 ****        -3.1201   0.1059  -1.2298 C.ar           1 S1                 0.0000
      6 ****        -2.5243  -0.4737  -2.5000 C.3            1 S1                 0.0000
      7 ****        -1.0277  -0.1687  -2.5618 C.2            1 S1                 0.0000
      8 ****        -0.6458   0.9795  -2.7872 O.2            1 S1                 0.0000
      9 ****        -0.1961  -1.1978  -2.3367 N.am           1 S1                 0.0000
     10 ****         1.2614  -1.1183  -2.3099 C.3            1 S1                 0.0000
     11 ****         1.8193  -1.0894  -0.8718 C.3            1 S1                 0.0000
     12 ****         1.3760   0.1477  -0.0664 C.3            1 S1                 0.0000
     13 ****         2.0306   0.1732   1.3263 C.3            1 S1                 0.0000
     14 ****         3.4887   0.1668   1.2079 N.3            1 S1                 0.0000
     15 ****         4.0692   0.2576   2.5436 C.3            1 S1                 0.0000
     16 ****         5.5307   0.4368   2.5154 C.1            1 S1                 0.0000
     17 ****         6.6791   0.5771   2.4938 N.1            1 S1                 0.0000
     18 ****         3.9240  -1.0681   0.5517 C.3            1 S1                 0.0000
     19 ****         3.3561  -1.1393  -0.8762 C.3            1 S1                 0.0000
     20 ****        -3.6561   1.4120  -1.2215 C.ar           1 S1                 0.0000
     21 ****        -4.1759   1.9205  -0.0831 N.pl3          1 S1                 1.0000
     22 ****        -4.7996   1.2577   3.1607 H              1 S1                 0.0000
     23 ****        -5.8626   2.1776   2.0910 H              1 S1                 0.0000
     24 ****        -4.2738   2.8214   2.5291 H              1 S1                 0.0000
     25 ****        -3.7147  -0.6432   2.0526 H              1 S1                 0.0000
     26 ****        -2.7352  -1.6479  -0.0094 H              1 S1                 0.0000
     27 ****        -2.7015  -1.5499  -2.5374 H              1 S1                 0.0000
     28 ****        -3.0165  -0.0420  -3.3723 H              1 S1                 0.0000
     29 ****        -0.6024  -2.1060  -2.1637 H              1 S1                 0.0000
     30 ****         1.6433  -1.9965  -2.8313 H              1 S1                 0.0000
     31 ****         1.6190  -0.2553  -2.8744 H              1 S1                 0.0000
     32 ****         1.4579  -1.9781  -0.3518 H              1 S1                 0.0000
     33 ****         1.6343   1.0581  -0.6093 H              1 S1                 0.0000
     34 ****         0.2925   0.1562   0.0528 H              1 S1                 0.0000
     35 ****         1.7149   1.0720   1.8570 H              1 S1                 0.0000
     36 ****         1.6988  -0.6810   1.9187 H              1 S1                 0.0000
     37 ****         3.6571   1.1197   3.0693 H              1 S1                 0.0000
     38 ****         3.8356  -0.6295   3.1342 H              1 S1                 0.0000
     39 ****         5.0126  -1.0990   0.5033 H              1 S1                 0.0000
     40 ****         3.6055  -1.9355   1.1321 H              1 S1                 0.0000
     41 ****         3.6978  -2.0555  -1.3588 H              1 S1                 0.0000
     42 ****         3.7545  -0.3128  -1.4669 H              1 S1                 0.0000
     43 ****        -3.6790   2.0633  -2.0833 H              1 S1                 0.0000
     44 ****        -4.5545   2.8677  -0.1017 H              1 S1                 0.0000
     45 ****        -1.3139   1.7098  -2.9293 LP             1 S1                 0.0000
     46 ****         0.3326   1.1820  -2.8282 LP             1 S1                 0.0000
     47 ****         3.7912   0.9454   0.6582 LP             1 S1                 0.0000
     48 ****         7.6715   0.6983   2.4751 LP             1 S1                 0.0000
@<TRIPOS>BOND
    1    1    2 1     
    2    1   22 1     
    3    1   23 1     
    4    1   24 1     
    5    2   21 ar    
    6    2    3 ar    
    7    3    4 ar    
    8    3   25 1     
    9    4    5 ar    
   10    4   26 1     
   11    5    6 1     
   12    5   20 ar    
   13    6    7 1     
   14    6   27 1     
   15    6   28 1     
   16    7    8 2     
   17    7    9 am    
   18    9   10 1     
   19    9   29 1     
   20   10   11 1     
   21   10   30 1     
   22   10   31 1     
   23   11   19 1     
   24   11   12 1     
   25   11   32 1     
   26   12   13 1     
   27   12   33 1     
   28   12   34 1     
   29   13   14 1     
   30   13   35 1     
   31   13   36 1     
   32   14   15 1     
   33   14   18 1     
   34   15   16 1     
   35   15   37 1     
   36   15   38 1     
   37   16   17 3     
   38   18   19 1     
   39   18   39 1     
   40   18   40 1     
   41   19   41 1     
   42   19   42 1     
   43   20   21 ar    
   44   20   43 1     
   45   21   44 1     
   46    8   45 1     
   47    8   46 1     
   48   14   47 1     
   49   17   48 1     
@<TRIPOS>SUBSTRUCTURE
      1 S1             1
@<TRIPOS>SET
LONE_PAIRS      STATIC     ATOMS    <user>   **** ""
4 45 46 47 48
DONOR_HYDROGENS      STATIC     ATOMS    <user>   **** ""
2 29 44
ATOM$BLUE        STATIC     ATOMS    COLORGROUP SYSTEM
4 45 46 47 48
ATOM$RED        STATIC     ATOMS    COLORGROUP SYSTEM
2 29 44
