AV-unprocessed.smi:197|AV-procd|sdf|1544|dock2
  -GOLD-   2262019403D 1   1.00000     0.00000
 Structure written by MMmdl.
 54 57  0  0  0  0  0  0  0  0  1 V2000
  145.8397  133.9525  150.6428 C   0  0  0  0  0  0  0  0  0  0  0  0
  145.5471  135.2403  151.1541 O   0  0  0  0  0  0  0  0  0  0  0  0
  144.2307  135.3350  151.6731 C   0  0  0  0  0  0  0  0  0  0  0  0
  144.2743  135.1382  153.1957 C   0  0  0  0  0  0  0  0  0  0  0  0
  142.9490  135.4890  153.9229 C   0  0  2  0  0  0  0  0  0  0  0  0
  141.7379  134.8136  153.2364 C   0  0  0  0  0  0  0  0  0  0  0  0
  140.5282  135.1661  153.8976 O   0  0  0  0  0  0  0  0  0  0  0  0
  140.2863  136.5655  153.8498 C   0  0  0  0  0  0  0  0  0  0  0  0
  141.4251  137.2940  154.5752 C   0  0  0  0  0  0  0  0  0  0  0  0
  142.7108  136.9374  153.9865 N   0  0  0  0  0  0  0  0  0  0  0  0
  143.6965  137.7075  154.5026 C   0  0  0  0  0  0  0  0  0  0  0  0
  143.4831  138.2297  155.7354 N   0  0  0  0  0  0  0  0  0  0  0  0
  144.4110  139.0062  156.3026 C   0  0  0  0  0  0  0  0  0  0  0  0
  145.6001  139.3744  155.8210 N   0  0  0  0  0  0  0  0  0  0  0  0
  145.8252  138.8368  154.5877 C   0  0  0  0  0  0  0  0  0  0  0  0
  144.9345  137.9980  153.8598 C   0  0  0  0  0  0  0  0  0  0  0  0
  145.5064  137.6465  152.6427 N   0  0  0  0  0  0  0  0  0  0  0  0
  146.6608  138.2541  152.6447 C   0  0  0  0  0  0  0  0  0  0  0  0
  146.9395  138.9817  153.7793 N   0  0  0  0  0  0  0  0  0  0  0  0
  148.1441  139.7534  154.0433 C   0  0  0  0  0  0  0  0  0  0  0  0
  149.0640  139.1450  155.1381 C   0  0  1  0  0  0  0  0  0  0  0  0
  148.3091  138.8849  156.3062 O   0  0  0  0  0  0  0  0  0  0  0  0
  149.7724  137.8650  154.7107 C   0  0  0  0  0  0  0  0  0  0  0  0
  150.9809  138.3926  153.9429 C   0  0  0  0  0  0  0  0  0  0  0  0
  151.2820  139.6612  154.5184 O   0  0  0  0  0  0  0  0  0  0  0  0
  150.2894  140.0142  155.4782 C   0  0  1  0  0  0  0  0  0  0  0  0
  150.0729  141.5346  155.5078 C   0  0  0  0  0  0  0  0  0  0  0  0
  146.8537  133.9399  150.2433 H   0  0  0  0  0  0  0  0  0  0  0  0
  145.1564  133.6821  149.8368 H   0  0  0  0  0  0  0  0  0  0  0  0
  145.7765  133.1952  151.4252 H   0  0  0  0  0  0  0  0  0  0  0  0
  143.8224  136.3212  151.4479 H   0  0  0  0  0  0  0  0  0  0  0  0
  143.5743  134.6055  151.1987 H   0  0  0  0  0  0  0  0  0  0  0  0
  144.5494  134.0985  153.3715 H   0  0  0  0  0  0  0  0  0  0  0  0
  145.0860  135.7336  153.6150 H   0  0  0  0  0  0  0  0  0  0  0  0
  142.9967  135.1107  154.9436 H   0  0  0  0  0  0  0  0  0  0  0  0
  141.6793  135.0918  152.1827 H   0  0  0  0  0  0  0  0  0  0  0  0
  141.8263  133.7287  153.2736 H   0  0  0  0  0  0  0  0  0  0  0  0
  140.2039  136.9004  152.8145 H   0  0  0  0  0  0  0  0  0  0  0  0
  139.3332  136.7798  154.3332 H   0  0  0  0  0  0  0  0  0  0  0  0
  141.2688  138.3721  154.5144 H   0  0  0  0  0  0  0  0  0  0  0  0
  141.4225  137.0271  155.6332 H   0  0  0  0  0  0  0  0  0  0  0  0
  144.1658  139.3878  157.2828 H   0  0  0  0  0  0  0  0  0  0  0  0
  147.3497  138.1811  151.8156 H   0  0  0  0  0  0  0  0  0  0  0  0
  148.6892  139.8523  153.1038 H   0  0  0  0  0  0  0  0  0  0  0  0
  147.8386  140.7625  154.3224 H   0  0  0  0  0  0  0  0  0  0  0  0
  148.5417  138.0284  156.6305 H   0  0  0  0  0  0  0  0  0  0  0  0
  150.1257  137.3192  155.5874 H   0  0  0  0  0  0  0  0  0  0  0  0
  149.1624  137.1746  154.1297 H   0  0  0  0  0  0  0  0  0  0  0  0
  151.8346  137.7169  154.0016 H   0  0  0  0  0  0  0  0  0  0  0  0
  150.7350  138.5357  152.8901 H   0  0  0  0  0  0  0  0  0  0  0  0
  150.6825  139.7030  156.4482 H   0  0  0  0  0  0  0  0  0  0  0  0
  149.2889  141.8044  156.2157 H   0  0  0  0  0  0  0  0  0  0  0  0
  149.7937  141.9238  154.5288 H   0  0  0  0  0  0  0  0  0  0  0  0
  150.9853  142.0467  155.8135 H   0  0  0  0  0  0  0  0  0  0  0  0
  1  2  1  0  0  0  0
  1 28  1  0  0  0  0
  1 29  1  0  0  0  0
  1 30  1  0  0  0  0
  2  3  1  0  0  0  0
  3  4  1  0  0  0  0
  3 31  1  0  0  0  0
  3 32  1  0  0  0  0
  4  5  1  0  0  0  0
  4 33  1  0  0  0  0
  4 34  1  0  0  0  0
  5 10  1  0  0  0  0
  5  6  1  0  0  0  0
  5 35  1  0  0  0  0
  6  7  1  0  0  0  0
  6 36  1  0  0  0  0
  6 37  1  0  0  0  0
  7  8  1  0  0  0  0
  8  9  1  0  0  0  0
  8 38  1  0  0  0  0
  8 39  1  0  0  0  0
  9 10  1  0  0  0  0
  9 40  1  0  0  0  0
  9 41  1  0  0  0  0
 10 11  1  0  0  0  0
 11 16  1  0  0  0  0
 11 12  2  0  0  0  0
 12 13  1  0  0  0  0
 13 14  2  0  0  0  0
 13 42  1  0  0  0  0
 14 15  1  0  0  0  0
 15 19  1  0  0  0  0
 15 16  2  0  0  0  0
 16 17  1  0  0  0  0
 17 18  2  0  0  0  0
 18 19  1  0  0  0  0
 18 43  1  0  0  0  0
 19 20  1  0  0  0  0
 20 21  1  0  0  0  0
 20 44  1  0  0  0  0
 20 45  1  0  0  0  0
 21 26  1  0  0  0  0
 21 22  1  0  0  0  0
 21 23  1  0  0  0  0
 22 46  1  0  0  0  0
 23 24  1  0  0  0  0
 23 47  1  0  0  0  0
 23 48  1  0  0  0  0
 24 25  1  0  0  0  0
 24 49  1  0  0  0  0
 24 50  1  0  0  0  0
 25 26  1  0  0  0  0
 26 27  1  0  0  0  0
 26 51  1  0  0  0  0
 27 52  1  0  0  0  0
 27 53  1  0  0  0  0
 27 54  1  0  0  0  0
M  END
> <s_m_source_file>
AV-unprocessed.smi

> <i_m_source_file_index>
197

> <i_lp_mmshare_version>
43012

> <i_f3d_flags>
0

> <s_epik_input>
W0NIM11PW0NIMl1bQ0gyXVtDQEBIXTFbQ0gyXU9bQ0gyXVtDSDJdTjFjKG5bY0hdbjIpYyhjMjMpbltjSF1uM1tDSDJdW0NAQF00KFtPSF0pW0NIMl1bQ0gyXU9bQ0BIXTRbQ0gzXQ==

> <s_epik_cmdline>
J2VwaWtfcHl0aG9uJywgJy1waCcsICc3LjAnLCAnLXRuJywgJzgnLCAnLW1hJywgJzIwMCcsICctbWV0YWxfYmluZGluZycsICctaW1hZScsICc8aW5maWxlLm1hZT4nLCAnLW9tYWUnLCAnPG91dGZpbGUubWFlPic=

> <r_lp_tautomer_probability>
1

> <r_epik_Ionization_Penalty>
0.000106218

> <r_epik_Ionization_Penalty_Charging>
0

> <r_epik_Ionization_Penalty_Neutral>
0.000106218

> <r_epik_State_Penalty>
-0

> <r_epik_Charging_Adjusted_Penalty>
0

> <i_epik_Tot_Q>
0

> <i_epik_Tot_abs_Q>
0

> <r_epik_Metal_State_Penalty>
-0

> <b_epik_Metal_Only>
0

> <s_lp_Force_Field>
OPLS_2005

> <r_lp_Energy>
43.403

> <b_lp_Chiralities_Consistent>
1

> <s_lp_Variant>
AV-unprocessed.smi:197-1

> <Gold.Version>
5.8.1

> <Gold.Id.Protein>
6NUR|6NUR_protein|mol2

> <Gold.PLP.Fitness>
39.5641

> <Gold.PLP.PLP>
-32.6067

> <Gold.PLP.part.hbond>
-2.7920

> <Gold.PLP.part.metal>
0.0000

> <Gold.PLP.part.buried>
-6.0310

> <Gold.PLP.part.nonpolar>
-25.0377

> <Gold.PLP.part.repulsive>
0.8755

> <Gold.PLP.ligand.clash>
0.0000

> <Gold.PLP.ligand.torsion>
0.9975

> <Gold.PLP.Chemscore.Hbond>
2.0000

> <Gold.PLP.Chemscore.CHOScore>
0.8408

> <Gold.PLP.Chemscore.Metal>
0.0000

> <Gold.Chemscore.Hbonds>
donor molecule, donor type, donor heavy atom, donor atom, acceptor molecule, acceptor atom, score
      P1  H  7989  7998       L1    25  1.00
      P1  H 11000 11005       L1     7  1.00
      L1  C    18    43       P1  7948  0.75

> <Gold.PLP.Chemscore.Internal.Correction>
0.4302

> <Gold.Rescore>
     Score         DG    S(hbond)    S(metal)    S(lipo)     H(rot)  DE(clash)    DE(int)     intcor
      8.08     -12.40       1.70        0.00      72.76       2.84       0.24       4.08       ----

> <Gold.Chemscore.Fitness>
8.0835

> <Gold.Chemscore.DG>
-12.4038

> <Gold.Chemscore.ZeroCoef>
-5.4800

> <Gold.Chemscore.Hbond>
1.6978

> <Gold.Chemscore.Metal>
0.0000

> <Gold.Chemscore.Lipo>
72.7595

> <Gold.Chemscore.Internal_Hbond>
0.0000

> <Gold.Chemscore.DEClash>
0.2413

> <Gold.Chemscore.DEInternal>
4.0791

> <Gold.Chemscore.Rot>
2.8358

> <Gold.Chemscore.Internal.Correction>
   9.000000E+99

> <Gold.Chemscore.Hbonds>
donor molecule, donor type, donor heavy atom, donor atom, acceptor molecule, acceptor atom, score
      P1  H  7989  7998       L1    25  0.83
      P1  H 11000 11005       L1     7  0.75

> <Gold.Chemscore.Hbond.Weighted>
-5.6705

> <Gold.Chemscore.Metal.Weighted>
-0.0000

> <Gold.Chemscore.Lipo.Weighted>
-8.5129

> <Gold.Chemscore.Internal_Hbond.Weighted>
0.0000

> <Gold.Chemscore.DEClash.Weighted>
0.2413

> <Gold.Chemscore.DEInternal.Weighted>
4.0791

> <Gold.Chemscore.Rot.Weighted>
7.2596

> <Gold.Chemscore.Internal.Correction.Weighted>
   9.000000E+99

> <Gold.Protein.RotatedTorsions>
[ 6907 6896 6895 6894 ] final   51.62 input  -60.11 | X-H torsion
[ 7974 7965 7964 7962 ] final  107.76 input  175.53 | X-H torsion
[ 8008 7997 7996 7995 ] final   -5.03 input   59.86 | X-H torsion
[ 10167 10162 10161 10158 ] final  109.26 input  -65.29 | X-H torsion
[ 10718 10713 10712 10709 ] final  -47.75 input   66.30 | X-H torsion
[ 10763 10752 10751 10750 ] final  106.68 input  -60.55 | X-H torsion
[ 11005 11000 10999 10996 ] final   33.38 input  -57.11 | X-H torsion

> <Gold.Protein.ActiveResidues>
 VAL166  LYS551  ARG553  GLY616  TRP617  ASP618  TYR619  PRO620  LYS621  CYS622 
 ASP623  PHE694  ASN695  SER759  ASP760  ASP761  ALA762  ILE779  LEU786  VAL792 
 PHE793  MET794  SER795  GLU796  ALA797  LYS798  CYS799  TRP800  GLU811  SER814 

> <Gold.Protein.RotatedAtoms>
  152.3145  134.7456  160.0328 H   0  0  0  0  0  0  0  0  0  0  0  0  # atno 6907 bound_to 6896
  151.7925  133.3355  159.3511 H   0  0  0  0  0  0  0  0  0  0  0  0  # atno 6908 bound_to 6896
  150.7337  134.5759  159.5958 H   0  0  0  0  0  0  0  0  0  0  0  0  # atno 6909 bound_to 6896
  145.2895  139.2605  143.3872 H   0  0  0  0  0  0  0  0  0  0  0  0  # atno 7974 bound_to 7965
  154.6082  140.2469  155.7704 H   0  0  0  0  0  0  0  0  0  0  0  0  # atno 8008 bound_to 7997
  156.2354  140.2952  156.0249 H   0  0  0  0  0  0  0  0  0  0  0  0  # atno 8009 bound_to 7997
  155.2097  140.0397  157.2922 H   0  0  0  0  0  0  0  0  0  0  0  0  # atno 8010 bound_to 7997
  139.6781  144.7120  151.1566 H   0  0  0  0  0  0  0  0  0  0  0  0  # atno 10167 bound_to 10162
  156.2054  130.4158  149.9185 H   0  0  0  0  0  0  0  0  0  0  0  0  # atno 10718 bound_to 10713
  153.3963  135.3869  155.1957 H   0  0  0  0  0  0  0  0  0  0  0  0  # atno 10763 bound_to 10752
  154.8725  135.3760  154.4674 H   0  0  0  0  0  0  0  0  0  0  0  0  # atno 10764 bound_to 10752
  153.5166  135.7087  153.5814 H   0  0  0  0  0  0  0  0  0  0  0  0  # atno 10765 bound_to 10752
  140.2637  134.3163  155.7849 H   0  0  0  0  0  0  0  0  0  0  0  0  # atno 11005 bound_to 11000
  146.3190  140.3382  142.8646 LP  0  0  0  0  0  0  0  0  0  0  0  0  # atno 17320 bound_to 7965
  144.9185  140.7840  143.5763 LP  0  0  0  0  0  0  0  0  0  0  0  0  # atno 17321 bound_to 7965
  140.7642  143.5741  150.8964 LP  0  0  0  0  0  0  0  0  0  0  0  0  # atno 17342 bound_to 10162
  139.9412  143.6380  152.3053 LP  0  0  0  0  0  0  0  0  0  0  0  0  # atno 17343 bound_to 10162
  156.6881  130.8885  151.3585 LP  0  0  0  0  0  0  0  0  0  0  0  0  # atno 17370 bound_to 10713
  157.7009  130.9332  150.0782 LP  0  0  0  0  0  0  0  0  0  0  0  0  # atno 17371 bound_to 10713
  141.2187  133.7425  156.9226 LP  0  0  0  0  0  0  0  0  0  0  0  0  # atno 17394 bound_to 11000
  140.1440  134.9275  157.2505 LP  0  0  0  0  0  0  0  0  0  0  0  0  # atno 17395 bound_to 11000

$$$$
