AV-unprocessed.smi:2750|AV-procd|sdf|10593|dock4
  -GOLD-   2272015 43D 1   1.00000     0.00000
 Structure written by MMmdl.
 24 25  0  0  0  0  0  0  0  0  3 V2000
  146.6668  137.2908  160.3845 O   0  0  0  0  0  0  0  0  0  0  0  0
  147.7579  136.7269  160.6211 C   0  0  0  0  0  0  0  0  0  0  0  0
  148.3059  136.6411  161.7424 O   0  5  0  0  0  0  0  0  0  0  0  0
  148.4770  136.0729  159.4412 C   0  0  0  0  0  0  0  0  0  0  0  0
  149.1533  137.0461  158.6027 N   0  0  0  0  0  0  0  0  0  0  0  0
  150.5034  137.1702  158.3474 C   0  0  0  0  0  0  0  0  0  0  0  0
  150.5701  138.2353  157.4947 C   0  0  0  0  0  0  0  0  0  0  0  0
  151.7778  138.8572  156.8553 C   0  0  0  0  0  0  0  0  0  0  0  0
  151.6549  139.0006  155.3215 C   0  0  2  0  0  0  0  0  0  0  0  0
  150.5879  139.9119  154.9408 N   0  5  0  0  0  0  0  0  0  0  0  0
  149.7069  139.2428  154.1615 C   0  0  0  0  0  0  0  0  0  0  0  0
  148.6832  139.6782  153.6393 O   0  0  0  0  0  0  0  0  0  0  0  0
  150.0844  137.9696  154.0070 N   0  0  0  0  0  0  0  0  0  0  0  0
  151.2129  137.7094  154.6593 C   0  0  0  0  0  0  0  0  0  0  0  0
  151.8055  136.6330  154.7258 O   0  0  0  0  0  0  0  0  0  0  0  0
  149.2770  138.7092  157.2714 N   0  0  0  0  0  0  0  0  0  0  0  0
  148.4361  137.9898  157.9464 N   0  0  0  0  0  0  0  0  0  0  0  0
  149.2150  135.3603  159.8120 H   0  0  0  0  0  0  0  0  0  0  0  0
  147.7662  135.5063  158.8374 H   0  0  0  0  0  0  0  0  0  0  0  0
  151.2555  136.5243  158.7750 H   0  0  0  0  0  0  0  0  0  0  0  0
  151.9377  139.8417  157.2971 H   0  0  0  0  0  0  0  0  0  0  0  0
  152.6699  138.2809  157.1066 H   0  0  0  0  0  0  0  0  0  0  0  0
  152.6191  139.2844  154.8972 H   0  0  0  0  0  0  0  0  0  0  0  0
  149.5694  137.2885  153.4696 H   0  0  0  0  0  0  0  0  0  0  0  0
  1  2  2  0  0  0  0
  2  3  1  0  0  0  0
  2  4  1  0  0  0  0
  4  5  1  0  0  0  0
  4 18  1  0  0  0  0
  4 19  1  0  0  0  0
  5 17  1  0  0  0  0
  5  6  1  0  0  0  0
  6  7  2  0  0  0  0
  6 20  1  0  0  0  0
  7  8  1  0  0  0  0
  7 16  1  0  0  0  0
  8  9  1  0  0  0  0
  8 21  1  0  0  0  0
  8 22  1  0  0  0  0
  9 14  1  0  0  0  0
  9 10  1  0  0  0  0
  9 23  1  0  0  0  0
 10 11  1  0  0  0  0
 11 12  2  0  0  0  0
 11 13  1  0  0  0  0
 13 14  1  0  0  0  0
 13 24  1  0  0  0  0
 14 15  2  0  0  0  0
 16 17  2  0  0  0  0
M  CHG  1   3  -1
M  CHG  1  10  -1
M  END
> <s_m_source_file>
AV-unprocessed.smi

> <i_m_source_file_index>
2750

> <i_lp_mmshare_version>
43012

> <i_f3d_flags>
0

> <s_epik_input>
Tz1DKFtPSF0pW0NIMl1uMVtjSF1jKG5uMSlbQ0gyXVtDQEBIXTJbTkhdQyg9TylbTkhdQzI9Tw==

> <s_epik_cmdline>
J2VwaWtfcHl0aG9uJywgJy1waCcsICc3LjAnLCAnLXRuJywgJzgnLCAnLW1hJywgJzIwMCcsICctbWV0YWxfYmluZGluZycsICctaW1hZScsICc8aW5maWxlLm1hZT4nLCAnLW9tYWUnLCAnPG91dGZpbGUubWFlPic=

> <r_lp_tautomer_probability>
1

> <r_epik_Ionization_Penalty>
5.10791

> <r_epik_Ionization_Penalty_Charging>
5.10788

> <r_epik_Ionization_Penalty_Neutral>
2.55687e-05

> <r_epik_State_Penalty>
5.12334

> <r_epik_Charging_Adjusted_Penalty>
10.2312

> <i_epik_Tot_Q>
-2

> <i_epik_Tot_abs_Q>
2

> <r_epik_Metal_State_Penalty>
1.50935

> <b_epik_Metal_Only>
1

> <s_lp_Force_Field>
OPLS_2005

> <r_lp_Energy>
16.0951

> <b_lp_Chiralities_Consistent>
1

> <s_lp_Variant>
AV-unprocessed.smi:2750-5

> <Gold.Version>
5.8.1

> <Gold.Id.Protein>
6NUR|6NUR_protein|mol2

> <Gold.PLP.Fitness>
40.3030

> <Gold.PLP.PLP>
-20.8157

> <Gold.PLP.part.hbond>
-5.0000

> <Gold.PLP.part.metal>
0.0000

> <Gold.PLP.part.buried>
-4.4569

> <Gold.PLP.part.nonpolar>
-14.6882

> <Gold.PLP.part.repulsive>
2.8528

> <Gold.PLP.ligand.clash>
0.0000

> <Gold.PLP.ligand.torsion>
0.3327

> <Gold.PLP.Chemscore.Hbond>
6.7137

> <Gold.PLP.Chemscore.CHOScore>
0.0000

> <Gold.PLP.Chemscore.Metal>
0.0000

> <Gold.Chemscore.Hbonds>
donor molecule, donor type, donor heavy atom, donor atom, acceptor molecule, acceptor atom, score
      L1  H    13    24       P1  7948  1.00
      P1  H  6931  6943       L1     3  2.00
      P1  H  6934  6947       L1     1  1.80
      P1  H  7989  7998       L1    10  0.76
      P1  H 10752 10764       L1    15  0.99

> <Gold.PLP.Chemscore.Internal.Correction>
0.0117

> <Gold.Rescore>
     Score         DG    S(hbond)    S(metal)    S(lipo)     H(rot)  DE(clash)    DE(int)     intcor
      7.42     -10.49       2.85        0.00      22.76       2.80       1.46       1.62       ----

> <Gold.Chemscore.Fitness>
7.4183

> <Gold.Chemscore.DG>
-10.4890

> <Gold.Chemscore.ZeroCoef>
-5.4800

> <Gold.Chemscore.Hbond>
2.8466

> <Gold.Chemscore.Metal>
0.0000

> <Gold.Chemscore.Lipo>
22.7558

> <Gold.Chemscore.Internal_Hbond>
0.0000

> <Gold.Chemscore.DEClash>
1.4555

> <Gold.Chemscore.DEInternal>
1.6151

> <Gold.Chemscore.Rot>
2.7973

> <Gold.Chemscore.Internal.Correction>
   9.000000E+99

> <Gold.Chemscore.Hbonds>
donor molecule, donor type, donor heavy atom, donor atom, acceptor molecule, acceptor atom, score
      L1  H    13    24       P1  7948  0.82
      P1  H  6931  6943       L1     3  0.35
      P1  H  6934  6947       L1     1  0.18
      P1  H  7989  7998       L1    10  0.02
      P1  H 10752 10764       L1    15  0.92

> <Gold.Chemscore.Hbond.Weighted>
-9.5077

> <Gold.Chemscore.Metal.Weighted>
-0.0000

> <Gold.Chemscore.Lipo.Weighted>
-2.6624

> <Gold.Chemscore.Internal_Hbond.Weighted>
0.0000

> <Gold.Chemscore.DEClash.Weighted>
1.4555

> <Gold.Chemscore.DEInternal.Weighted>
1.6151

> <Gold.Chemscore.Rot.Weighted>
7.1611

> <Gold.Chemscore.Internal.Correction.Weighted>
   9.000000E+99

> <Gold.Protein.RotatedTorsions>
[ 6907 6896 6895 6894 ] final -105.65 input  -60.11 | X-H torsion
[ 7974 7965 7964 7962 ] final  -21.29 input  175.53 | X-H torsion
[ 8008 7997 7996 7995 ] final  114.84 input   59.86 | X-H torsion
[ 10167 10162 10161 10158 ] final  -39.93 input  -65.29 | X-H torsion
[ 10718 10713 10712 10709 ] final  -20.70 input   66.30 | X-H torsion
[ 10763 10752 10751 10750 ] final  -68.89 input  -60.55 | X-H torsion
[ 11005 11000 10999 10996 ] final -166.83 input  -57.11 | X-H torsion

> <Gold.Protein.ActiveResidues>
 VAL166  LYS551  ARG553  GLY616  TRP617  ASP618  TYR619  PRO620  LYS621  CYS622 
 ASP623  PHE694  ASN695  SER759  ASP760  ASP761  ALA762  ILE779  LEU786  VAL792 
 PHE793  MET794  SER795  GLU796  ALA797  LYS798  CYS799  TRP800  GLU811  SER814 

> <Gold.Protein.RotatedAtoms>
  150.7348  134.0094  159.3664 H   0  0  0  0  0  0  0  0  0  0  0  0  # atno 6907 bound_to 6896
  151.8053  135.0695  160.0415 H   0  0  0  0  0  0  0  0  0  0  0  0  # atno 6908 bound_to 6896
  152.3112  133.5718  159.5718 H   0  0  0  0  0  0  0  0  0  0  0  0  # atno 6909 bound_to 6896
  146.1741  140.4320  142.8520 H   0  0  0  0  0  0  0  0  0  0  0  0  # atno 7974 bound_to 7965
  156.2345  140.2951  156.0276 H   0  0  0  0  0  0  0  0  0  0  0  0  # atno 8008 bound_to 7997
  155.2130  140.0413  157.2953 H   0  0  0  0  0  0  0  0  0  0  0  0  # atno 8009 bound_to 7997
  154.6055  140.2438  155.7744 H   0  0  0  0  0  0  0  0  0  0  0  0  # atno 8010 bound_to 7997
  140.7049  143.3184  151.2852 H   0  0  0  0  0  0  0  0  0  0  0  0  # atno 10167 bound_to 10162
  156.5282  130.4649  149.6561 H   0  0  0  0  0  0  0  0  0  0  0  0  # atno 10718 bound_to 10713
  154.3956  135.6043  153.5868 H   0  0  0  0  0  0  0  0  0  0  0  0  # atno 10763 bound_to 10752
  152.9787  135.5894  154.4246 H   0  0  0  0  0  0  0  0  0  0  0  0  # atno 10764 bound_to 10752
  154.4036  135.2843  155.2059 H   0  0  0  0  0  0  0  0  0  0  0  0  # atno 10765 bound_to 10752
  140.5601  134.5342  157.5141 H   0  0  0  0  0  0  0  0  0  0  0  0  # atno 11005 bound_to 11000
  144.8209  140.6548  143.6354 LP  0  0  0  0  0  0  0  0  0  0  0  0  # atno 17320 bound_to 7965
  145.4259  139.1556  143.4048 LP  0  0  0  0  0  0  0  0  0  0  0  0  # atno 17321 bound_to 7965
  139.6630  144.0155  152.2705 LP  0  0  0  0  0  0  0  0  0  0  0  0  # atno 17342 bound_to 10162
  139.9729  144.6481  150.7972 LP  0  0  0  0  0  0  0  0  0  0  0  0  # atno 17343 bound_to 10162
  156.3085  130.7216  151.2103 LP  0  0  0  0  0  0  0  0  0  0  0  0  # atno 17370 bound_to 10713
  157.7426  131.0487  150.5012 LP  0  0  0  0  0  0  0  0  0  0  0  0  # atno 17371 bound_to 10713
  139.9412  134.7783  156.0674 LP  0  0  0  0  0  0  0  0  0  0  0  0  # atno 17394 bound_to 11000
  141.1120  133.6640  156.3001 LP  0  0  0  0  0  0  0  0  0  0  0  0  # atno 17395 bound_to 11000

$$$$
