#       Name:                AV-unprocessed.smi:175
#       Creating user name   scv26
#       Creation time:       Thu Mar 26 19:21:15 2020


#       File generated by GOLD software.
#

@<TRIPOS>MOLECULE
AV-unprocessed.smi:175
    57    60     1
SMALL
NO_CHARGES


@<TRIPOS>ATOM
      1 ****        -5.7192  -0.8536   2.1170 C.3            1 S1                 0.0000
      2 ****        -5.1028   0.4894   1.6949 C.3            1 S1                 0.0000
      3 ****        -5.2646   1.3989   2.7806 O.3            1 S1                 0.0000
      4 ****        -4.1896   2.3211   2.7721 C.3            1 S1                 0.0000
      5 ****        -3.0044   1.4371   2.4165 C.3            1 S1                 0.0000
      6 ****        -3.5826   0.4913   1.3669 C.3            1 S1                 0.0000
      7 ****        -3.4168   1.1015   0.0979 O.3            1 S1                 0.0000
      8 ****        -2.8836  -0.8933   1.3284 C.3            1 S1                 0.0000
      9 ****        -1.4567  -0.8125   1.0553 N.pl3          1 S1                 0.0000
     10 ****        -0.4455  -0.6650   1.9791 C.2            1 S1                 0.0000
     11 ****         0.7606  -0.6105   1.4827 N.2            1 S1                 0.0000
     12 ****         0.5646  -0.7388   0.1141 C.ar           1 S1                 0.0000
     13 ****         1.4325  -0.7598  -1.0076 C.ar           1 S1                 0.0000
     14 ****         2.7722  -0.6480  -0.8745 N.3            1 S1                 0.0000
     15 ****         3.5160  -1.8866  -1.0959 C.3            1 S1                 0.0000
     16 ****         4.6816  -1.4283  -1.9496 C.2            1 S1                 0.0000
     17 ****         5.5596  -2.1877  -2.3557 O.2            1 S1                 0.0000
     18 ****         4.5937  -0.1173  -2.1816 N.am           1 S1                 0.0000
     19 ****         5.5109   0.6960  -2.9769 C.3            1 S1                 0.0000
     20 ****         6.7722   1.0987  -2.1921 C.3            1 S1                 0.0000
     21 ****         7.5258   1.8857  -2.9588 F              1 S1                 0.0000
     22 ****         6.4382   1.7725  -1.0916 F              1 S1                 0.0000
     23 ****         7.4905   0.0294  -1.8503 F              1 S1                 0.0000
     24 ****         3.4050   0.4652  -1.5831 C.3            1 S1                 0.0000
     25 ****         0.8807  -0.9166  -2.2398 N.ar           1 S1                 0.0000
     26 ****        -0.4447  -1.0381  -2.3644 C.ar           1 S1                 0.0000
     27 ****        -1.3776  -1.0307  -1.4092 N.ar           1 S1                 0.0000
     28 ****        -0.8218  -0.8753  -0.1728 C.ar           1 S1                 0.0000
     29 ****        -5.6381  -1.5970   1.3238 H              1 S1                 0.0000
     30 ****        -6.7790  -0.7349   2.3434 H              1 S1                 0.0000
     31 ****        -5.2381  -1.2520   3.0105 H              1 S1                 0.0000
     32 ****        -5.6747   0.8791   0.8506 H              1 S1                 0.0000
     33 ****        -4.3588   3.0815   2.0082 H              1 S1                 0.0000
     34 ****        -4.0741   2.8158   3.7365 H              1 S1                 0.0000
     35 ****        -2.1350   2.0003   2.0744 H              1 S1                 0.0000
     36 ****        -2.7086   0.8767   3.3041 H              1 S1                 0.0000
     37 ****        -3.8426   1.9450   0.1125 H              1 S1                 0.0000
     38 ****        -3.0063  -1.4103   2.2805 H              1 S1                 0.0000
     39 ****        -3.3404  -1.5297   0.5696 H              1 S1                 0.0000
     40 ****        -0.6316  -0.5928   3.0406 H              1 S1                 0.0000
     41 ****         3.8711  -2.2928  -0.1485 H              1 S1                 0.0000
     42 ****         2.9408  -2.6541  -1.6171 H              1 S1                 0.0000
     43 ****         5.7899   0.1520  -3.8806 H              1 S1                 0.0000
     44 ****         4.9879   1.5926  -3.3125 H              1 S1                 0.0000
     45 ****         2.7717   0.9111  -2.3520 H              1 S1                 0.0000
     46 ****         3.6812   1.2454  -0.8733 H              1 S1                 0.0000
     47 ****        -0.8101  -1.1586  -3.3735 H              1 S1                 0.0000
     48 ****        -5.2666   0.8939   3.6438 LP             1 S1                 0.0000
     49 ****        -6.1294   1.8908   2.6802 LP             1 S1                 0.0000
     50 ****        -3.8300   0.5273  -0.6089 LP             1 S1                 0.0000
     51 ****        -2.4426   1.2187  -0.0952 LP             1 S1                 0.0000
     52 ****         1.6248  -0.5017   1.9739 LP             1 S1                 0.0000
     53 ****         2.8390  -0.4236   0.0977 LP             1 S1                 0.0000
     54 ****         5.5256  -3.1602  -2.1250 LP             1 S1                 0.0000
     55 ****         6.3076  -1.8328  -2.9165 LP             1 S1                 0.0000
     56 ****         1.4648  -0.9411  -3.0511 LP             1 S1                 0.0000
     57 ****        -2.3585  -1.1268  -1.5783 LP             1 S1                 0.0000
@<TRIPOS>BOND
    1    1    2 1     
    2    1   29 1     
    3    1   30 1     
    4    1   31 1     
    5    2    6 1     
    6    2    3 1     
    7    2   32 1     
    8    3    4 1     
    9    4    5 1     
   10    4   33 1     
   11    4   34 1     
   12    5    6 1     
   13    5   35 1     
   14    5   36 1     
   15    6    7 1     
   16    6    8 1     
   17    7   37 1     
   18    8    9 1     
   19    8   38 1     
   20    8   39 1     
   21    9   28 1     
   22    9   10 1     
   23   10   11 2     
   24   10   40 1     
   25   11   12 1     
   26   12   28 ar    
   27   12   13 ar    
   28   13   14 1     
   29   13   25 ar    
   30   14   24 1     
   31   14   15 1     
   32   15   16 1     
   33   15   41 1     
   34   15   42 1     
   35   16   17 2     
   36   16   18 am    
   37   18   19 1     
   38   18   24 1     
   39   19   20 1     
   40   19   43 1     
   41   19   44 1     
   42   20   21 1     
   43   20   22 1     
   44   20   23 1     
   45   24   45 1     
   46   24   46 1     
   47   25   26 ar    
   48   26   27 ar    
   49   26   47 1     
   50   27   28 ar    
   51    3   48 1     
   52    3   49 1     
   53    7   50 1     
   54    7   51 1     
   55   11   52 1     
   56   14   53 1     
   57   17   54 1     
   58   17   55 1     
   59   25   56 1     
   60   27   57 1     
@<TRIPOS>SUBSTRUCTURE
      1 S1             1
@<TRIPOS>SET
LONE_PAIRS      STATIC     ATOMS    <user>   **** ""
10 48 49 50 51 52 53 54 55 56 57
DONOR_HYDROGENS      STATIC     ATOMS    <user>   **** ""
1 37
ATOM$BLUE        STATIC     ATOMS    COLORGROUP SYSTEM
10 48 49 50 51 52 53 54 55 56 57
ATOM$RED        STATIC     ATOMS    COLORGROUP SYSTEM
1 37
