AV-unprocessed.smi:3282|AV-procd|sdf|12563|dock2
  -GOLD-   2272018483D 1   1.00000     0.00000
 Structure written by MMmdl.
 34 35  0  0  0  0  0  0  0  0  1 V2000
  152.7940  142.8631  162.0626 C   0  0  0  0  0  0  0  0  0  0  0  0
  153.1071  142.9130  160.5583 C   0  0  0  0  0  0  0  0  0  0  0  0
  152.9027  141.5693  159.8385 C   0  0  0  0  0  0  0  0  0  0  0  0
  153.4936  140.5642  160.2366 O   0  0  0  0  0  0  0  0  0  0  0  0
  152.0703  141.5354  158.7771 N   0  0  0  0  0  0  0  0  0  0  0  0
  151.3408  142.7024  158.2887 C   0  0  0  0  0  0  0  0  0  0  0  0
  150.3492  142.1748  157.2521 C   0  0  0  0  0  0  0  0  0  0  0  0
  150.9628  140.8662  156.7628 C   0  0  2  0  0  0  0  0  0  0  0  0
  149.9378  139.9155  156.3432 N   0  0  0  0  0  0  0  0  0  0  0  0
  149.6824  139.5618  155.0750 C   0  0  0  0  0  0  0  0  0  0  0  0
  150.3151  140.0375  154.1269 O   0  0  0  0  0  0  0  0  0  0  0  0
  148.6251  138.6668  155.0267 N   0  0  0  0  0  0  0  0  0  0  0  0
  147.8436  138.6696  153.9905 C   0  0  0  0  0  0  0  0  0  0  0  0
  147.8076  139.4452  152.8344 N   0  0  0  0  0  0  0  0  0  0  0  0
  146.7534  139.0246  152.0728 C   0  0  0  0  0  0  0  0  0  0  0  0
  146.1506  138.0297  152.7168 C   0  0  0  0  0  0  0  0  0  0  0  0
  146.7949  137.7902  153.8934 O   0  0  0  0  0  0  0  0  0  0  0  0
  151.7715  140.3579  157.9642 C   0  0  0  0  0  0  0  0  0  0  0  0
  152.9687  143.8350  162.5242 H   0  0  0  0  0  0  0  0  0  0  0  0
  153.4244  142.1370  162.5773 H   0  0  0  0  0  0  0  0  0  0  0  0
  151.7522  142.5963  162.2445 H   0  0  0  0  0  0  0  0  0  0  0  0
  152.4737  143.6644  160.0859 H   0  0  0  0  0  0  0  0  0  0  0  0
  154.1399  143.2355  160.4228 H   0  0  0  0  0  0  0  0  0  0  0  0
  150.8280  143.2326  159.0927 H   0  0  0  0  0  0  0  0  0  0  0  0
  152.0471  143.3922  157.8245 H   0  0  0  0  0  0  0  0  0  0  0  0
  149.3933  141.9829  157.7427 H   0  0  0  0  0  0  0  0  0  0  0  0
  150.1686  142.8836  156.4434 H   0  0  0  0  0  0  0  0  0  0  0  0
  151.6407  141.0875  155.9362 H   0  0  0  0  0  0  0  0  0  0  0  0
  149.3750  139.4997  157.0713 H   0  0  0  0  0  0  0  0  0  0  0  0
  148.4286  140.1942  152.5636 H   0  0  0  0  0  0  0  0  0  0  0  0
  146.5417  139.4958  151.1244 H   0  0  0  0  0  0  0  0  0  0  0  0
  145.2922  137.4177  152.4822 H   0  0  0  0  0  0  0  0  0  0  0  0
  152.6759  139.8453  157.6334 H   0  0  0  0  0  0  0  0  0  0  0  0
  151.1864  139.6594  158.5650 H   0  0  0  0  0  0  0  0  0  0  0  0
  1  2  1  0  0  0  0
  1 19  1  0  0  0  0
  1 20  1  0  0  0  0
  1 21  1  0  0  0  0
  2  3  1  0  0  0  0
  2 22  1  0  0  0  0
  2 23  1  0  0  0  0
  3  4  2  0  0  0  0
  3  5  1  0  0  0  0
  5 18  1  0  0  0  0
  5  6  1  0  0  0  0
  6  7  1  0  0  0  0
  6 24  1  0  0  0  0
  6 25  1  0  0  0  0
  7  8  1  0  0  0  0
  7 26  1  0  0  0  0
  7 27  1  0  0  0  0
  8  9  1  0  0  0  0
  8 18  1  0  0  0  0
  8 28  1  0  0  0  0
  9 29  1  0  0  0  0
  9 10  1  0  0  0  0
 10 12  1  0  0  0  0
 10 11  2  0  0  0  0
 12 13  2  0  0  0  0
 13 17  1  0  0  0  0
 13 14  1  0  0  0  0
 14 30  1  0  0  0  0
 14 15  1  0  0  0  0
 15 31  1  0  0  0  0
 15 16  2  0  0  0  0
 16 32  1  0  0  0  0
 16 17  1  0  0  0  0
 18 33  1  0  0  0  0
 18 34  1  0  0  0  0
M  END
> <s_m_source_file>
AV-unprocessed.smi

> <i_m_source_file_index>
3282

> <i_lp_mmshare_version>
43012

> <i_f3d_flags>
0

> <s_epik_input>
W0NIM11bQ0gyXUMoPU8pTjFbQ0gyXVtDSDJdW0NASF0oW0NIMl0xKVtOSF1DKD1PKVtOSF1jMm5bY0hdW2NIXW8y

> <s_epik_cmdline>
J2VwaWtfcHl0aG9uJywgJy1waCcsICc3LjAnLCAnLXRuJywgJzgnLCAnLW1hJywgJzIwMCcsICctbWV0YWxfYmluZGluZycsICctaW1hZScsICc8aW5maWxlLm1hZT4nLCAnLW9tYWUnLCAnPG91dGZpbGUubWFlPic=

> <r_lp_tautomer_probability>
0.107061

> <r_epik_Ionization_Penalty>
0.434703

> <r_epik_Ionization_Penalty_Charging>
0.434345

> <r_epik_Ionization_Penalty_Neutral>
0.000358141

> <r_epik_State_Penalty>
2.49584

> <r_epik_Charging_Adjusted_Penalty>
2.93019

> <i_epik_Tot_Q>
0

> <i_epik_Tot_abs_Q>
0

> <r_epik_Metal_State_Penalty>
4.06361

> <b_epik_Metal_Only>
0

> <s_lp_Force_Field>
OPLS_2005

> <r_lp_Energy>
50.3275

> <b_lp_Chiralities_Consistent>
1

> <s_lp_Variant>
AV-unprocessed.smi:3282-4

> <Gold.Version>
5.8.1

> <Gold.Id.Protein>
6NUR|6NUR_protein|mol2

> <Gold.PLP.Fitness>
37.4691

> <Gold.PLP.PLP>
-33.8844

> <Gold.PLP.part.hbond>
-1.8044

> <Gold.PLP.part.metal>
0.0000

> <Gold.PLP.part.buried>
-5.2127

> <Gold.PLP.part.nonpolar>
-28.1821

> <Gold.PLP.part.repulsive>
1.1547

> <Gold.PLP.ligand.clash>
0.0000

> <Gold.PLP.ligand.torsion>
0.3650

> <Gold.PLP.Chemscore.Hbond>
1.4320

> <Gold.PLP.Chemscore.CHOScore>
0.0000

> <Gold.PLP.Chemscore.Metal>
0.0000

> <Gold.Chemscore.Hbonds>
donor molecule, donor type, donor heavy atom, donor atom, acceptor molecule, acceptor atom, score
      L1  H    14    30       P1  7957  0.45
      P1  H  7989  7998       L1    11  1.00

> <Gold.PLP.Chemscore.Internal.Correction>
0.0187

> <Gold.Rescore>
     Score         DG    S(hbond)    S(metal)    S(lipo)     H(rot)  DE(clash)    DE(int)     intcor
     15.65     -16.01       1.87        0.00      65.43       1.32       0.06       0.31       ----

> <Gold.Chemscore.Fitness>
15.6483

> <Gold.Chemscore.DG>
-16.0147

> <Gold.Chemscore.ZeroCoef>
-5.4800

> <Gold.Chemscore.Hbond>
1.8739

> <Gold.Chemscore.Metal>
0.0000

> <Gold.Chemscore.Lipo>
65.4254

> <Gold.Chemscore.Internal_Hbond>
0.0000

> <Gold.Chemscore.DEClash>
0.0565

> <Gold.Chemscore.DEInternal>
0.3099

> <Gold.Chemscore.Rot>
1.3199

> <Gold.Chemscore.Internal.Correction>
   9.000000E+99

> <Gold.Chemscore.Hbonds>
donor molecule, donor type, donor heavy atom, donor atom, acceptor molecule, acceptor atom, score
      L1  H    14    30       P1  7957  0.44
      P1  H  7989  7998       L1    11  0.97

> <Gold.Chemscore.Hbond.Weighted>
-6.2589

> <Gold.Chemscore.Metal.Weighted>
-0.0000

> <Gold.Chemscore.Lipo.Weighted>
-7.6548

> <Gold.Chemscore.Internal_Hbond.Weighted>
0.0000

> <Gold.Chemscore.DEClash.Weighted>
0.0565

> <Gold.Chemscore.DEInternal.Weighted>
0.3099

> <Gold.Chemscore.Rot.Weighted>
3.3789

> <Gold.Chemscore.Internal.Correction.Weighted>
   9.000000E+99

> <Gold.Protein.RotatedTorsions>
[ 6907 6896 6895 6894 ] final  -77.51 input  -60.11 | X-H torsion
[ 7974 7965 7964 7962 ] final -118.31 input  175.53 | X-H torsion
[ 8008 7997 7996 7995 ] final  -73.10 input   59.86 | X-H torsion
[ 10167 10162 10161 10158 ] final  -30.39 input  -65.29 | X-H torsion
[ 10718 10713 10712 10709 ] final  -67.43 input   66.30 | X-H torsion
[ 10763 10752 10751 10750 ] final  -55.12 input  -60.55 | X-H torsion
[ 11005 11000 10999 10996 ] final -138.06 input  -57.11 | X-H torsion

> <Gold.Protein.ActiveResidues>
 VAL166  LYS551  ARG553  GLY616  TRP617  ASP618  TYR619  PRO620  LYS621  CYS622 
 ASP623  PHE694  ASN695  SER759  ASP760  ASP761  ALA762  ILE779  LEU786  VAL792 
 PHE793  MET794  SER795  GLU796  ALA797  LYS798  CYS799  TRP800  GLU811  SER814 

> <Gold.Protein.RotatedAtoms>
  150.6997  134.4411  159.5292 H   0  0  0  0  0  0  0  0  0  0  0  0  # atno 6907 bound_to 6896
  152.2121  134.8489  160.0505 H   0  0  0  0  0  0  0  0  0  0  0  0  # atno 6908 bound_to 6896
  151.9371  133.3592  159.3988 H   0  0  0  0  0  0  0  0  0  0  0  0  # atno 6909 bound_to 6896
  145.0752  140.8387  143.4071 H   0  0  0  0  0  0  0  0  0  0  0  0  # atno 7974 bound_to 7965
  154.5219  140.0785  156.8188 H   0  0  0  0  0  0  0  0  0  0  0  0  # atno 8008 bound_to 7997
  155.3557  140.3415  155.4222 H   0  0  0  0  0  0  0  0  0  0  0  0  # atno 8009 bound_to 7997
  156.1690  140.1613  156.8467 H   0  0  0  0  0  0  0  0  0  0  0  0  # atno 8010 bound_to 7997
  140.7250  143.3852  151.1528 H   0  0  0  0  0  0  0  0  0  0  0  0  # atno 10167 bound_to 10162
  156.0558  130.4278  150.1853 H   0  0  0  0  0  0  0  0  0  0  0  0  # atno 10718 bound_to 10713
  154.1858  135.6435  153.5046 H   0  0  0  0  0  0  0  0  0  0  0  0  # atno 10763 bound_to 10752
  153.0047  135.5417  154.6467 H   0  0  0  0  0  0  0  0  0  0  0  0  # atno 10764 bound_to 10752
  154.5843  135.2928  155.0674 H   0  0  0  0  0  0  0  0  0  0  0  0  # atno 10765 bound_to 10752
  140.8651  134.2120  157.4684 H   0  0  0  0  0  0  0  0  0  0  0  0  # atno 11005 bound_to 11000
  145.1244  139.2673  143.5572 LP  0  0  0  0  0  0  0  0  0  0  0  0  # atno 17320 bound_to 7965
  146.3530  140.0877  142.8614 LP  0  0  0  0  0  0  0  0  0  0  0  0  # atno 17321 bound_to 7965
  139.7448  143.8869  152.3060 LP  0  0  0  0  0  0  0  0  0  0  0  0  # atno 17342 bound_to 10162
  139.8702  144.7072  150.8996 LP  0  0  0  0  0  0  0  0  0  0  0  0  # atno 17343 bound_to 10162
  156.9929  130.9899  151.3410 LP  0  0  0  0  0  0  0  0  0  0  0  0  # atno 17370 bound_to 10713
  157.5526  130.8192  149.8165 LP  0  0  0  0  0  0  0  0  0  0  0  0  # atno 17371 bound_to 10713
  139.8709  134.9748  156.4860 LP  0  0  0  0  0  0  0  0  0  0  0  0  # atno 17394 bound_to 11000
  140.8637  133.8040  155.9292 LP  0  0  0  0  0  0  0  0  0  0  0  0  # atno 17395 bound_to 11000

$$$$
