AV-unprocessed.smi:1032|AV-procd|sdf|4483|dock8
  -GOLD-   22720 2463D 1   1.00000     0.00000
 Structure written by MMmdl.
 46 47  0  0  0  0  0  0  0  0  2 V2000
  151.5305  142.4385  157.7235 C   0  0  0  0  0  0  0  0  0  0  0  0
  150.2770  141.7234  157.2007 C   0  0  2  0  0  0  0  0  0  0  0  0
  150.1894  140.2759  157.7131 C   0  0  0  0  0  0  0  0  0  0  0  0
  148.9459  139.5598  157.1584 C   0  0  0  0  0  0  0  0  0  0  0  0
  148.9281  139.5862  155.6733 N   0  3  1  0  0  0  0  0  0  0  0  0
  147.8127  138.7850  155.1056 C   0  0  0  0  0  0  0  0  0  0  0  0
  147.4709  139.1964  153.6591 C   0  0  1  0  0  0  0  0  0  0  0  0
  148.5623  138.8142  152.8444 O   0  0  0  0  0  0  0  0  0  0  0  0
  146.2012  138.4846  153.1510 C   0  0  0  0  0  0  0  0  0  0  0  0
  146.5238  137.2683  152.4118 N   0  0  0  0  0  0  0  0  0  0  0  0
  145.6225  136.4379  151.8678 C   0  0  0  0  0  0  0  0  0  0  0  0
  144.4091  136.6366  151.9142 O   0  0  0  0  0  0  0  0  0  0  0  0
  146.2242  135.3927  151.2728 N   0  0  0  0  0  0  0  0  0  0  0  0
  145.6445  134.2739  150.6124 C   0  0  0  0  0  0  0  0  0  0  0  0
  146.4856  133.1752  150.3381 C   0  0  0  0  0  0  0  0  0  0  0  0
  145.9418  132.0442  149.6975 C   0  0  0  0  0  0  0  0  0  0  0  0
  144.6462  131.9500  149.3325 N   0  0  0  0  0  0  0  0  0  0  0  0
  143.8396  132.9976  149.6036 C   0  0  0  0  0  0  0  0  0  0  0  0
  144.2814  134.1748  150.2402 C   0  0  0  0  0  0  0  0  0  0  0  0
  148.9761  140.9781  155.1522 C   0  0  0  0  0  0  0  0  0  0  0  0
  150.2227  141.7192  155.6638 C   0  0  0  0  0  0  0  0  0  0  0  0
  152.4415  141.9393  157.3915 H   0  0  0  0  0  0  0  0  0  0  0  0
  151.5428  142.4627  158.8137 H   0  0  0  0  0  0  0  0  0  0  0  0
  151.5693  143.4699  157.3718 H   0  0  0  0  0  0  0  0  0  0  0  0
  149.4070  142.2686  157.5700 H   0  0  0  0  0  0  0  0  0  0  0  0
  151.0853  139.7251  157.4229 H   0  0  0  0  0  0  0  0  0  0  0  0
  150.1614  140.2659  158.8032 H   0  0  0  0  0  0  0  0  0  0  0  0
  148.9460  138.5267  157.5084 H   0  0  0  0  0  0  0  0  0  0  0  0
  148.0374  140.0259  157.5434 H   0  0  0  0  0  0  0  0  0  0  0  0
  148.0727  137.7251  155.1118 H   0  0  0  0  0  0  0  0  0  0  0  0
  146.9392  138.8829  155.7521 H   0  0  0  0  0  0  0  0  0  0  0  0
  147.3342  140.2756  153.5925 H   0  0  0  0  0  0  0  0  0  0  0  0
  148.3788  137.9666  152.4674 H   0  0  0  0  0  0  0  0  0  0  0  0
  145.4969  138.2917  153.9626 H   0  0  0  0  0  0  0  0  0  0  0  0
  145.6785  139.1347  152.4490 H   0  0  0  0  0  0  0  0  0  0  0  0
  147.5019  137.0357  152.3200 H   0  0  0  0  0  0  0  0  0  0  0  0
  147.2333  135.4099  151.2729 H   0  0  0  0  0  0  0  0  0  0  0  0
  147.5308  133.1941  150.6101 H   0  0  0  0  0  0  0  0  0  0  0  0
  146.5649  131.1907  149.4745 H   0  0  0  0  0  0  0  0  0  0  0  0
  142.8060  132.8933  149.3086 H   0  0  0  0  0  0  0  0  0  0  0  0
  143.5666  134.9587  150.4331 H   0  0  0  0  0  0  0  0  0  0  0  0
  148.9888  140.9765  154.0630 H   0  0  0  0  0  0  0  0  0  0  0  0
  148.0745  141.5129  155.4552 H   0  0  0  0  0  0  0  0  0  0  0  0
  150.2199  142.7427  155.2873 H   0  0  0  0  0  0  0  0  0  0  0  0
  151.1192  141.2447  155.2616 H   0  0  0  0  0  0  0  0  0  0  0  0
  149.7790  139.1296  155.3754 H   0  0  0  0  0  0  0  0  0  0  0  0
  1  2  1  0  0  0  0
  1 22  1  0  0  0  0
  1 23  1  0  0  0  0
  1 24  1  0  0  0  0
  2 21  1  0  0  0  0
  2  3  1  0  0  0  0
  2 25  1  0  0  0  0
  3  4  1  0  0  0  0
  3 26  1  0  0  0  0
  3 27  1  0  0  0  0
  4  5  1  0  0  0  0
  4 28  1  0  0  0  0
  4 29  1  0  0  0  0
  5  6  1  0  0  0  0
  5 20  1  0  0  0  0
  5 46  1  0  0  0  0
  6  7  1  0  0  0  0
  6 30  1  0  0  0  0
  6 31  1  0  0  0  0
  7  8  1  0  0  0  0
  7  9  1  0  0  0  0
  7 32  1  0  0  0  0
  8 33  1  0  0  0  0
  9 10  1  0  0  0  0
  9 34  1  0  0  0  0
  9 35  1  0  0  0  0
 10 11  1  0  0  0  0
 10 36  1  0  0  0  0
 11 12  2  0  0  0  0
 11 13  1  0  0  0  0
 13 14  1  0  0  0  0
 13 37  1  0  0  0  0
 14 19  1  0  0  0  0
 14 15  2  0  0  0  0
 15 16  1  0  0  0  0
 15 38  1  0  0  0  0
 16 17  2  0  0  0  0
 16 39  1  0  0  0  0
 17 18  1  0  0  0  0
 18 19  2  0  0  0  0
 18 40  1  0  0  0  0
 19 41  1  0  0  0  0
 20 21  1  0  0  0  0
 20 42  1  0  0  0  0
 20 43  1  0  0  0  0
 21 44  1  0  0  0  0
 21 45  1  0  0  0  0
M  CHG  1   5   1
M  END
> <s_m_source_file>
AV-unprocessed.smi

> <i_m_source_file_index>
1032

> <i_lp_mmshare_version>
43012

> <i_f3d_flags>
0

> <s_epik_input>
W0NIM11bQ0hdMVtDSDJdW0NIMl1OKFtDSDJdW0NIMl0xKVtDSDJdW0NASF0oW09IXSlbQ0gyXVtOSF1DKD1PKVtOSF1jMltjSF1bY0hdbltjSF1bY0hdMg==

> <s_epik_cmdline>
J2VwaWtfcHl0aG9uJywgJy1waCcsICc3LjAnLCAnLXRuJywgJzgnLCAnLW1hJywgJzIwMCcsICctbWV0YWxfYmluZGluZycsICctaW1hZScsICc8aW5maWxlLm1hZT4nLCAnLW9tYWUnLCAnPG91dGZpbGUubWFlPic=

> <r_epik_Ionization_Penalty>
0.11743

> <r_epik_Ionization_Penalty_Charging>
0.00147689

> <r_epik_Ionization_Penalty_Neutral>
0.115954

> <r_epik_State_Penalty>
0.105552

> <r_epik_Charging_Adjusted_Penalty>
0.107029

> <i_epik_Tot_Q>
1

> <i_epik_Tot_abs_Q>
1

> <r_epik_Metal_State_Penalty>
0.0881315

> <b_epik_Metal_Only>
0

> <s_lp_Force_Field>
OPLS_2005

> <r_lp_Energy>
24.2585

> <b_lp_Chiralities_Consistent>
1

> <s_lp_Variant>
AV-unprocessed.smi:1032-2

> <Gold.Version>
5.8.1

> <Gold.Id.Protein>
6NUR|6NUR_protein|mol2

> <Gold.PLP.Fitness>
48.5389

> <Gold.PLP.PLP>
-34.9921

> <Gold.PLP.part.hbond>
-4.5724

> <Gold.PLP.part.metal>
0.0000

> <Gold.PLP.part.buried>
-5.9780

> <Gold.PLP.part.nonpolar>
-25.2737

> <Gold.PLP.part.repulsive>
1.1731

> <Gold.PLP.ligand.clash>
0.0000

> <Gold.PLP.ligand.torsion>
0.8176

> <Gold.PLP.Chemscore.Hbond>
3.1206

> <Gold.PLP.Chemscore.CHOScore>
1.9147

> <Gold.PLP.Chemscore.Metal>
0.0000

> <Gold.Chemscore.Hbonds>
donor molecule, donor type, donor heavy atom, donor atom, acceptor molecule, acceptor atom, score
      L1  H     8    33       P1  7948  1.00
      L1  H    10    36       P1  7948  1.00
      L1  H    13    37       P1  7948  1.00
      P1  H 10785 10796       L1    17  0.06
      L1  C    16    39       P1 10747  0.91
      L1  C    18    40       P1 10186  1.00

> <Gold.PLP.Chemscore.Internal.Correction>
0.0762

> <Gold.Rescore>
     Score         DG    S(hbond)    S(metal)    S(lipo)     H(rot)  DE(clash)    DE(int)     intcor
     17.66     -19.68       2.89        0.00      88.96       2.29       0.06       1.95       ----

> <Gold.Chemscore.Fitness>
17.6604

> <Gold.Chemscore.DG>
-19.6770

> <Gold.Chemscore.ZeroCoef>
-5.4800

> <Gold.Chemscore.Hbond>
2.8870

> <Gold.Chemscore.Metal>
0.0000

> <Gold.Chemscore.Lipo>
88.9572

> <Gold.Chemscore.Internal_Hbond>
0.0000

> <Gold.Chemscore.DEClash>
0.0625

> <Gold.Chemscore.DEInternal>
1.9541

> <Gold.Chemscore.Rot>
2.2865

> <Gold.Chemscore.Internal.Correction>
   9.000000E+99

> <Gold.Chemscore.Hbonds>
donor molecule, donor type, donor heavy atom, donor atom, acceptor molecule, acceptor atom, score
      L1  H     8    33       P1  7948  0.94
      L1  H    10    36       P1  7948  1.00
      L1  H    13    37       P1  7948  0.81
      P1  H 10785 10796       L1    17  0.04

> <Gold.Chemscore.Hbond.Weighted>
-9.6425

> <Gold.Chemscore.Metal.Weighted>
-0.0000

> <Gold.Chemscore.Lipo.Weighted>
-10.4080

> <Gold.Chemscore.Internal_Hbond.Weighted>
0.0000

> <Gold.Chemscore.DEClash.Weighted>
0.0625

> <Gold.Chemscore.DEInternal.Weighted>
1.9541

> <Gold.Chemscore.Rot.Weighted>
5.8536

> <Gold.Chemscore.Internal.Correction.Weighted>
   9.000000E+99

> <Gold.Protein.RotatedTorsions>
[ 6907 6896 6895 6894 ] final -134.24 input  -60.11 | X-H torsion
[ 7974 7965 7964 7962 ] final -129.12 input  175.53 | X-H torsion
[ 8008 7997 7996 7995 ] final -136.02 input   59.86 | X-H torsion
[ 10167 10162 10161 10158 ] final  114.49 input  -65.29 | X-H torsion
[ 10718 10713 10712 10709 ] final -158.14 input   66.30 | X-H torsion
[ 10763 10752 10751 10750 ] final  103.33 input  -60.55 | X-H torsion
[ 11005 11000 10999 10996 ] final   87.34 input  -57.11 | X-H torsion

> <Gold.Protein.ActiveResidues>
 VAL166  LYS551  ARG553  GLY616  TRP617  ASP618  TYR619  PRO620  LYS621  CYS622 
 ASP623  PHE694  ASN695  SER759  ASP760  ASP761  ALA762  ILE779  LEU786  VAL792 
 PHE793  MET794  SER795  GLU796  ALA797  LYS798  CYS799  TRP800  GLU811  SER814 

> <Gold.Protein.RotatedAtoms>
  150.9835  133.6221  159.2718 H   0  0  0  0  0  0  0  0  0  0  0  0  # atno 6907 bound_to 6896
  151.3468  135.0874  159.9399 H   0  0  0  0  0  0  0  0  0  0  0  0  # atno 6908 bound_to 6896
  152.5223  133.9436  159.7692 H   0  0  0  0  0  0  0  0  0  0  0  0  # atno 6909 bound_to 6896
  144.9603  140.7440  143.4733 H   0  0  0  0  0  0  0  0  0  0  0  0  # atno 7974 bound_to 7965
  155.3883  140.0498  157.3041 H   0  0  0  0  0  0  0  0  0  0  0  0  # atno 8008 bound_to 7997
  154.5049  140.2170  155.9234 H   0  0  0  0  0  0  0  0  0  0  0  0  # atno 8009 bound_to 7997
  156.1513  140.3135  155.8657 H   0  0  0  0  0  0  0  0  0  0  0  0  # atno 8010 bound_to 7997
  139.6384  144.7122  151.2286 H   0  0  0  0  0  0  0  0  0  0  0  0  # atno 10167 bound_to 10162
  156.5500  130.8601  151.2777 H   0  0  0  0  0  0  0  0  0  0  0  0  # atno 10718 bound_to 10713
  153.3513  135.3980  155.1648 H   0  0  0  0  0  0  0  0  0  0  0  0  # atno 10763 bound_to 10752
  154.8663  135.3657  154.5218 H   0  0  0  0  0  0  0  0  0  0  0  0  # atno 10764 bound_to 10752
  153.5670  135.7080  153.5581 H   0  0  0  0  0  0  0  0  0  0  0  0  # atno 10765 bound_to 10752
  139.8922  134.8416  156.2847 H   0  0  0  0  0  0  0  0  0  0  0  0  # atno 11005 bound_to 11000
  145.2710  139.1955  143.4842 LP  0  0  0  0  0  0  0  0  0  0  0  0  # atno 17320 bound_to 7965
  146.3351  140.2656  142.8603 LP  0  0  0  0  0  0  0  0  0  0  0  0  # atno 17321 bound_to 7965
  140.7478  143.6354  150.8384 LP  0  0  0  0  0  0  0  0  0  0  0  0  # atno 17342 bound_to 10162
  139.9989  143.5766  152.2883 LP  0  0  0  0  0  0  0  0  0  0  0  0  # atno 17343 bound_to 10162
  157.7389  130.9822  150.2282 LP  0  0  0  0  0  0  0  0  0  0  0  0  # atno 17370 bound_to 10713
  156.2893  130.3743  149.7857 LP  0  0  0  0  0  0  0  0  0  0  0  0  # atno 17371 bound_to 10713
  141.0016  133.7148  156.0969 LP  0  0  0  0  0  0  0  0  0  0  0  0  # atno 17394 bound_to 11000
  140.7490  134.4066  157.5544 LP  0  0  0  0  0  0  0  0  0  0  0  0  # atno 17395 bound_to 11000

$$$$
