AV-unprocessed.smi:1409|AV-procd|sdf|5728|dock6
  -GOLD-   22720 5363D 1   1.00000     0.00000
 Structure written by MMmdl.
 37 38  0  0  0  0  0  0  0  0  1 V2000
  144.9473  135.2402  150.7116 C   0  0  0  0  0  0  0  0  0  0  0  0
  145.9867  134.7772  151.5669 O   0  0  0  0  0  0  0  0  0  0  0  0
  146.0649  133.4242  151.8387 C   0  0  0  0  0  0  0  0  0  0  0  0
  145.1195  132.6063  151.3114 N   0  0  0  0  0  0  0  0  0  0  0  0
  145.1940  131.2856  151.5729 C   0  0  0  0  0  0  0  0  0  0  0  0
  146.2075  130.7139  152.3627 C   0  0  0  0  0  0  0  0  0  0  0  0
  147.1904  131.5593  152.9094 C   0  0  0  0  0  0  0  0  0  0  0  0
  147.1221  132.9512  152.6520 C   0  0  0  0  0  0  0  0  0  0  0  0
  148.0595  133.9066  153.1390 N   0  0  0  0  0  0  0  0  0  0  0  0
  148.8292  133.8717  154.2403 C   0  0  0  0  0  0  0  0  0  0  0  0
  148.8541  132.9647  155.0711 O   0  0  0  0  0  0  0  0  0  0  0  0
  149.5836  134.9764  154.3315 N   0  0  0  0  0  0  0  0  0  0  0  0
  150.5359  135.2713  155.3982 C   0  0  0  0  0  0  0  0  0  0  0  0
  150.6904  136.7868  155.6260 C   0  0  1  0  0  0  0  0  0  0  0  0
  151.5634  137.1076  156.8548 C   0  0  0  0  0  0  0  0  0  0  0  0
  151.8679  138.6087  156.8600 C   0  0  0  0  0  0  0  0  0  0  0  0
  152.0059  139.0878  155.0978 S   0  0  0  0  0  0  0  0  0  0  0  0
  151.0933  140.2107  154.8346 O   0  0  0  0  0  0  0  0  0  0  0  0
  153.4251  139.1603  154.7192 O   0  0  0  0  0  0  0  0  0  0  0  0
  151.2865  137.5417  154.4248 C   0  0  0  0  0  0  0  0  0  0  0  0
  145.0234  136.3221  150.6057 H   0  0  0  0  0  0  0  0  0  0  0  0
  143.9613  135.0167  151.1215 H   0  0  0  0  0  0  0  0  0  0  0  0
  145.0288  134.8041  149.7149 H   0  0  0  0  0  0  0  0  0  0  0  0
  144.4245  130.6658  151.1367 H   0  0  0  0  0  0  0  0  0  0  0  0
  146.2324  129.6493  152.5429 H   0  0  0  0  0  0  0  0  0  0  0  0
  147.9724  131.1143  153.5029 H   0  0  0  0  0  0  0  0  0  0  0  0
  148.1315  134.7463  152.5830 H   0  0  0  0  0  0  0  0  0  0  0  0
  149.4945  135.6694  153.6026 H   0  0  0  0  0  0  0  0  0  0  0  0
  150.1629  134.8030  156.3094 H   0  0  0  0  0  0  0  0  0  0  0  0
  151.5059  134.8128  155.1981 H   0  0  0  0  0  0  0  0  0  0  0  0
  149.7021  137.2074  155.8186 H   0  0  0  0  0  0  0  0  0  0  0  0
  151.0852  136.7964  157.7838 H   0  0  0  0  0  0  0  0  0  0  0  0
  152.5030  136.5583  156.7809 H   0  0  0  0  0  0  0  0  0  0  0  0
  151.0425  139.1698  157.2987 H   0  0  0  0  0  0  0  0  0  0  0  0
  152.7847  138.8587  157.3941 H   0  0  0  0  0  0  0  0  0  0  0  0
  152.0950  136.9722  153.9653 H   0  0  0  0  0  0  0  0  0  0  0  0
  150.5482  137.7742  153.6572 H   0  0  0  0  0  0  0  0  0  0  0  0
  1  2  1  0  0  0  0
  1 21  1  0  0  0  0
  1 22  1  0  0  0  0
  1 23  1  0  0  0  0
  2  3  1  0  0  0  0
  3  8  1  0  0  0  0
  3  4  2  0  0  0  0
  4  5  1  0  0  0  0
  5  6  2  0  0  0  0
  5 24  1  0  0  0  0
  6  7  1  0  0  0  0
  6 25  1  0  0  0  0
  7  8  2  0  0  0  0
  7 26  1  0  0  0  0
  8  9  1  0  0  0  0
  9 10  1  0  0  0  0
  9 27  1  0  0  0  0
 10 11  2  0  0  0  0
 10 12  1  0  0  0  0
 12 13  1  0  0  0  0
 12 28  1  0  0  0  0
 13 14  1  0  0  0  0
 13 29  1  0  0  0  0
 13 30  1  0  0  0  0
 14 20  1  0  0  0  0
 14 15  1  0  0  0  0
 14 31  1  0  0  0  0
 15 16  1  0  0  0  0
 15 32  1  0  0  0  0
 15 33  1  0  0  0  0
 16 17  1  0  0  0  0
 16 34  1  0  0  0  0
 16 35  1  0  0  0  0
 17 18  2  0  0  0  0
 17 19  2  0  0  0  0
 17 20  1  0  0  0  0
 20 36  1  0  0  0  0
 20 37  1  0  0  0  0
M  END
> <s_m_source_file>
AV-unprocessed.smi

> <i_m_source_file_index>
1409

> <i_lp_mmshare_version>
43012

> <i_f3d_flags>
0

> <s_epik_input>
W0NIM11PYzFuW2NIXVtjSF1bY0hdYzFbTkhdQyg9TylbTkhdW0NIMl1bQ0BASF0oW0NIMl0yKVtDSDJdW0NIMl1TMig9Tyk9Tw==

> <s_epik_cmdline>
J2VwaWtfcHl0aG9uJywgJy1waCcsICc3LjAnLCAnLXRuJywgJzgnLCAnLW1hJywgJzIwMCcsICctbWV0YWxfYmluZGluZycsICctaW1hZScsICc8aW5maWxlLm1hZT4nLCAnLW9tYWUnLCAnPG91dGZpbGUubWFlPic=

> <r_lp_tautomer_probability>
1

> <r_epik_Ionization_Penalty>
9.0549e-05

> <r_epik_Ionization_Penalty_Charging>
0

> <r_epik_Ionization_Penalty_Neutral>
9.0549e-05

> <r_epik_State_Penalty>
-0

> <r_epik_Charging_Adjusted_Penalty>
0

> <i_epik_Tot_Q>
0

> <i_epik_Tot_abs_Q>
0

> <r_epik_Metal_State_Penalty>
-0

> <b_epik_Metal_Only>
0

> <s_lp_Force_Field>
OPLS_2005

> <r_lp_Energy>
6.49732

> <b_lp_Chiralities_Consistent>
1

> <s_lp_Variant>
AV-unprocessed.smi:1409-2

> <Gold.Version>
5.8.1

> <Gold.Id.Protein>
6NUR|6NUR_protein|mol2

> <Gold.PLP.Fitness>
45.0828

> <Gold.PLP.PLP>
-33.7959

> <Gold.PLP.part.hbond>
-4.1260

> <Gold.PLP.part.metal>
0.0000

> <Gold.PLP.part.buried>
-5.6429

> <Gold.PLP.part.nonpolar>
-23.9667

> <Gold.PLP.part.repulsive>
0.4012

> <Gold.PLP.ligand.clash>
0.0000

> <Gold.PLP.ligand.torsion>
0.3591

> <Gold.PLP.Chemscore.Hbond>
4.0000

> <Gold.PLP.Chemscore.CHOScore>
0.0000

> <Gold.PLP.Chemscore.Metal>
0.0000

> <Gold.Chemscore.Hbonds>
donor molecule, donor type, donor heavy atom, donor atom, acceptor molecule, acceptor atom, score
      L1  H     9    27       P1  7948  1.00
      L1  H    12    28       P1  7948  1.00
      P1  H  7989  7998       L1    18  1.00
      P1  H  7997  8010       L1    19  1.00

> <Gold.PLP.Chemscore.Internal.Correction>
0.0051

> <Gold.Rescore>
     Score         DG    S(hbond)    S(metal)    S(lipo)     H(rot)  DE(clash)    DE(int)     intcor
     18.71     -19.75       3.51        0.00      56.69       1.59       0.02       1.02       ----

> <Gold.Chemscore.Fitness>
18.7063

> <Gold.Chemscore.DG>
-19.7468

> <Gold.Chemscore.ZeroCoef>
-5.4800

> <Gold.Chemscore.Hbond>
3.5060

> <Gold.Chemscore.Metal>
0.0000

> <Gold.Chemscore.Lipo>
56.6859

> <Gold.Chemscore.Internal_Hbond>
0.0000

> <Gold.Chemscore.DEClash>
0.0212

> <Gold.Chemscore.DEInternal>
1.0193

> <Gold.Chemscore.Rot>
1.5919

> <Gold.Chemscore.Internal.Correction>
   9.000000E+99

> <Gold.Chemscore.Hbonds>
donor molecule, donor type, donor heavy atom, donor atom, acceptor molecule, acceptor atom, score
      L1  H     9    27       P1  7948  0.59
      L1  H    12    28       P1  7948  0.25
      P1  H  7989  7998       L1    18  0.49
      P1  H  7997  8010       L1    19  0.90

> <Gold.Chemscore.Hbond.Weighted>
-11.7099

> <Gold.Chemscore.Metal.Weighted>
-0.0000

> <Gold.Chemscore.Lipo.Weighted>
-6.6323

> <Gold.Chemscore.Internal_Hbond.Weighted>
0.0000

> <Gold.Chemscore.DEClash.Weighted>
0.0212

> <Gold.Chemscore.DEInternal.Weighted>
1.0193

> <Gold.Chemscore.Rot.Weighted>
4.0754

> <Gold.Chemscore.Internal.Correction.Weighted>
   9.000000E+99

> <Gold.Protein.RotatedTorsions>
[ 6907 6896 6895 6894 ] final   73.22 input  -60.11 | X-H torsion
[ 7974 7965 7964 7962 ] final -106.67 input  175.53 | X-H torsion
[ 8008 7997 7996 7995 ] final  107.48 input   59.86 | X-H torsion
[ 10167 10162 10161 10158 ] final -148.50 input  -65.29 | X-H torsion
[ 10718 10713 10712 10709 ] final  -64.72 input   66.30 | X-H torsion
[ 10763 10752 10751 10750 ] final   96.57 input  -60.55 | X-H torsion
[ 11005 11000 10999 10996 ] final   99.45 input  -57.11 | X-H torsion

> <Gold.Protein.ActiveResidues>
 VAL166  LYS551  ARG553  GLY616  TRP617  ASP618  TYR619  PRO620  LYS621  CYS622 
 ASP623  PHE694  ASN695  SER759  ASP760  ASP761  ALA762  ILE779  LEU786  VAL792 
 PHE793  MET794  SER795  GLU796  ALA797  LYS798  CYS799  TRP800  GLU811  SER814 

> <Gold.Protein.RotatedAtoms>
  152.4911  134.4454  159.9556 H   0  0  0  0  0  0  0  0  0  0  0  0  # atno 6907 bound_to 6896
  151.4441  133.3629  159.2793 H   0  0  0  0  0  0  0  0  0  0  0  0  # atno 6908 bound_to 6896
  150.9067  134.8506  159.7457 H   0  0  0  0  0  0  0  0  0  0  0  0  # atno 6909 bound_to 6896
  145.2150  140.9111  143.3293 H   0  0  0  0  0  0  0  0  0  0  0  0  # atno 7974 bound_to 7965
  156.1827  140.3094  155.9180 H   0  0  0  0  0  0  0  0  0  0  0  0  # atno 8008 bound_to 7997
  155.3348  140.0462  157.3060 H   0  0  0  0  0  0  0  0  0  0  0  0  # atno 8009 bound_to 7997
  154.5361  140.2246  155.8730 H   0  0  0  0  0  0  0  0  0  0  0  0  # atno 8010 bound_to 7997
  139.7526  143.8496  152.2590 H   0  0  0  0  0  0  0  0  0  0  0  0  # atno 10167 bound_to 10162
  156.0712  130.4237  150.1460 H   0  0  0  0  0  0  0  0  0  0  0  0  # atno 10718 bound_to 10713
  153.2665  135.4214  155.0946 H   0  0  0  0  0  0  0  0  0  0  0  0  # atno 10763 bound_to 10752
  154.8440  135.3462  154.6304 H   0  0  0  0  0  0  0  0  0  0  0  0  # atno 10764 bound_to 10752
  153.6724  135.7043  153.5200 H   0  0  0  0  0  0  0  0  0  0  0  0  # atno 10765 bound_to 10752
  139.8771  134.9096  156.4608 H   0  0  0  0  0  0  0  0  0  0  0  0  # atno 11005 bound_to 11000
  144.9820  139.3774  143.6257 LP  0  0  0  0  0  0  0  0  0  0  0  0  # atno 17320 bound_to 7965
  146.3389  139.8965  142.8801 LP  0  0  0  0  0  0  0  0  0  0  0  0  # atno 17321 bound_to 7965
  139.8479  144.7179  150.9251 LP  0  0  0  0  0  0  0  0  0  0  0  0  # atno 17342 bound_to 10162
  140.7799  143.3925  151.1285 LP  0  0  0  0  0  0  0  0  0  0  0  0  # atno 17343 bound_to 10162
  156.9511  130.9775  151.3498 LP  0  0  0  0  0  0  0  0  0  0  0  0  # atno 17370 bound_to 10713
  157.5784  130.8359  149.8488 LP  0  0  0  0  0  0  0  0  0  0  0  0  # atno 17371 bound_to 10713
  140.8865  133.7879  155.9524 LP  0  0  0  0  0  0  0  0  0  0  0  0  # atno 17394 bound_to 11000
  140.8798  134.2625  157.5149 LP  0  0  0  0  0  0  0  0  0  0  0  0  # atno 17395 bound_to 11000

$$$$
