#       Name:                AV-unprocessed.smi:2182
#       Creating user name   scv26
#       Creation time:       Fri Mar 27 12:05:52 2020


#       File generated by GOLD software.
#

@<TRIPOS>MOLECULE
AV-unprocessed.smi:2182
    50    52     1
SMALL
NO_CHARGES


@<TRIPOS>ATOM
      1 ****        -3.7761  -4.7186   2.3083 N.1            1 S1                 0.0000
      2 ****        -3.1979  -3.7284   2.1510 C.1            1 S1                 0.0000
      3 ****        -2.5134  -2.4931   1.9559 C.2            1 S1                 0.0000
      4 ****        -3.1771  -1.3435   1.7159 C.2            1 S1                 0.0000
      5 ****        -2.5329  -0.1395   1.5323 N.am           1 S1                 0.0000
      6 ****        -3.2465   1.0353   1.1171 C.3            1 S1                 0.0000
      7 ****        -3.1195   2.3274   1.9008 C.3            1 S1                 0.0000
      8 ****        -4.3997   1.5304   1.9621 C.3            1 S1                 0.0000
      9 ****        -1.1224  -0.0860   1.5133 C.2            1 S1                 0.0000
     10 ****        -0.5263   0.9629   1.2540 O.2            1 S1                 0.0000
     11 ****        -0.4094  -1.2790   1.7865 N.am           1 S1                 0.0000
     12 ****         1.0688  -1.2280   1.7747 C.3            1 S1                 0.0000
     13 ****         1.6537  -1.3342   0.3590 C.2            1 S1                 0.0000
     14 ****         1.0813  -1.9951  -0.5086 O.2            1 S1                 0.0000
     15 ****         2.8013  -0.6734   0.1447 N.am           1 S1                 0.0000
     16 ****         3.5017  -0.5874  -1.1324 C.3            1 S1                 0.0000
     17 ****         3.0991   0.6744  -1.9160 C.3            1 S1                 0.0000
     18 ****         1.6526   0.7068  -2.4071 C.3            1 S1                 0.0000
     19 ****         1.7065   1.6994  -3.5542 C.3            1 S1                 0.0000
     20 ****         3.1801   1.6984  -3.9757 C.3            1 S1                 0.0000
     21 ****         3.8286   0.7556  -3.1295 O.3            1 S1                 0.0000
     22 ****        -1.0538  -2.5214   2.0177 C.2            1 S1                 0.0000
     23 ****        -0.4034  -3.5440   2.2397 O.2            1 S1                 0.0000
     24 ****        -4.2566  -1.3636   1.6697 H              1 S1                 0.0000
     25 ****        -3.3679   1.1462   0.0409 H              1 S1                 0.0000
     26 ****        -2.4946   2.3313   2.7920 H              1 S1                 0.0000
     27 ****        -3.1324   3.2581   1.3373 H              1 S1                 0.0000
     28 ****        -5.2666   1.9318   1.4412 H              1 S1                 0.0000
     29 ****        -4.6162   1.0076   2.8920 H              1 S1                 0.0000
     30 ****         1.4152  -0.3058   2.2451 H              1 S1                 0.0000
     31 ****         1.5097  -2.0183   2.3835 H              1 S1                 0.0000
     32 ****         3.2044  -0.1646   0.9181 H              1 S1                 0.0000
     33 ****         4.5711  -0.5568  -0.9228 H              1 S1                 0.0000
     34 ****         3.3347  -1.4835  -1.7327 H              1 S1                 0.0000
     35 ****         3.3105   1.5680  -1.3250 H              1 S1                 0.0000
     36 ****         1.3619  -0.2742  -2.7854 H              1 S1                 0.0000
     37 ****         0.9442   0.9943  -1.6294 H              1 S1                 0.0000
     38 ****         1.0415   1.4103  -4.3687 H              1 S1                 0.0000
     39 ****         1.4123   2.6941  -3.2171 H              1 S1                 0.0000
     40 ****         3.3113   1.4217  -5.0222 H              1 S1                 0.0000
     41 ****         3.6221   2.6848  -3.8279 H              1 S1                 0.0000
     42 ****        -4.2757  -5.5742   2.4443 LP             1 S1                 0.0000
     43 ****        -1.0430   1.7950   1.0525 LP             1 S1                 0.0000
     44 ****         0.4735   0.9808   1.2455 LP             1 S1                 0.0000
     45 ****         0.2272  -2.4689  -0.2940 LP             1 S1                 0.0000
     46 ****         1.4707  -2.0578  -1.4275 LP             1 S1                 0.0000
     47 ****         3.8482  -0.1403  -3.5733 LP             1 S1                 0.0000
     48 ****         4.7641   1.0556  -2.9427 LP             1 S1                 0.0000
     49 ****        -0.8742  -4.4135   2.3890 LP             1 S1                 0.0000
     50 ****         0.5953  -3.5045   2.2707 LP             1 S1                 0.0000
@<TRIPOS>BOND
    1    1    2 3     
    2    2    3 1     
    3    3   22 1     
    4    3    4 2     
    5    4    5 1     
    6    4   24 1     
    7    5    6 1     
    8    5    9 am    
    9    6    8 1     
   10    6    7 1     
   11    6   25 1     
   12    7    8 1     
   13    7   26 1     
   14    7   27 1     
   15    8   28 1     
   16    8   29 1     
   17    9   10 2     
   18    9   11 am    
   19   11   12 1     
   20   11   22 am    
   21   12   13 1     
   22   12   30 1     
   23   12   31 1     
   24   13   14 2     
   25   13   15 am    
   26   15   16 1     
   27   15   32 1     
   28   16   17 1     
   29   16   33 1     
   30   16   34 1     
   31   17   21 1     
   32   17   18 1     
   33   17   35 1     
   34   18   19 1     
   35   18   36 1     
   36   18   37 1     
   37   19   20 1     
   38   19   38 1     
   39   19   39 1     
   40   20   21 1     
   41   20   40 1     
   42   20   41 1     
   43   22   23 2     
   44    1   42 1     
   45   10   43 1     
   46   10   44 1     
   47   14   45 1     
   48   14   46 1     
   49   21   47 1     
   50   21   48 1     
   51   23   49 1     
   52   23   50 1     
@<TRIPOS>SUBSTRUCTURE
      1 S1             1
@<TRIPOS>SET
LONE_PAIRS      STATIC     ATOMS    <user>   **** ""
9 42 43 44 45 46 47 48 49 50
DONOR_HYDROGENS      STATIC     ATOMS    <user>   **** ""
1 32
ATOM$BLUE        STATIC     ATOMS    COLORGROUP SYSTEM
9 42 43 44 45 46 47 48 49 50
ATOM$RED        STATIC     ATOMS    COLORGROUP SYSTEM
1 32
