AV-unprocessed.smi:2510|AV-procd|sdf|9875|dock2
  -GOLD-   2272013503D 1   1.00000     0.00000
 Structure written by MMmdl.
 48 49  0  0  0  0  0  0  0  0  1 V2000
  150.8550  137.8631  154.3596 C   0  0  0  0  0  0  0  0  0  0  0  0
  151.1346  139.0608  155.2836 C   0  0  0  0  0  0  0  0  0  0  0  0
  149.9256  139.9490  155.6656 C   0  0  0  0  0  0  0  0  0  0  0  0
  149.7080  139.7829  157.1971 C   0  0  0  0  0  0  0  0  0  0  0  0
  149.4753  138.3470  157.7046 C   0  0  0  0  0  0  0  0  0  0  0  0
  149.9333  141.4184  155.1477 C   0  0  2  0  0  0  0  0  0  0  0  0
  150.2971  142.4084  156.1570 N   0  0  0  0  0  0  0  0  0  0  0  0
  151.3444  142.3063  156.9875 C   0  0  0  0  0  0  0  0  0  0  0  0
  152.1076  141.3389  156.9886 O   0  0  0  0  0  0  0  0  0  0  0  0
  151.5435  143.4846  157.9495 C   0  0  0  0  0  0  0  0  0  0  0  0
  152.2104  143.0689  159.2357 C   0  0  0  0  0  0  0  0  0  0  0  0
  152.3002  143.8050  160.4543 C   0  0  0  0  0  0  0  0  0  0  0  0
  153.0000  142.9851  161.2937 C   0  0  0  0  0  0  0  0  0  0  0  0
  153.4291  143.1585  162.7106 C   0  0  0  0  0  0  0  0  0  0  0  0
  153.2873  141.8501  160.5714 N   0  0  0  0  0  0  0  0  0  0  0  0
  152.8151  141.8910  159.3118 N   0  0  0  0  0  0  0  0  0  0  0  0
  148.4204  141.3326  154.9072 C   0  0  1  0  0  0  0  0  0  0  0  0
  147.8156  142.1193  153.7505 C   0  0  0  0  0  0  0  0  0  0  0  0
  148.6646  139.8217  154.7628 C   0  0  2  0  0  0  0  0  0  0  0  0
  147.6476  139.0014  155.3170 O   0  0  0  0  0  0  0  0  0  0  0  0
  146.4483  138.9993  154.5628 C   0  0  0  0  0  0  0  0  0  0  0  0
  153.7985  141.0517  160.9198 H   0  0  0  0  0  0  0  0  0  0  0  0
  151.7537  137.2567  154.2457 H   0  0  0  0  0  0  0  0  0  0  0  0
  150.5630  138.1850  153.3600 H   0  0  0  0  0  0  0  0  0  0  0  0
  150.0747  137.2125  154.7526 H   0  0  0  0  0  0  0  0  0  0  0  0
  151.5872  138.6628  156.1923 H   0  0  0  0  0  0  0  0  0  0  0  0
  151.9093  139.6642  154.8086 H   0  0  0  0  0  0  0  0  0  0  0  0
  150.5657  140.1863  157.7366 H   0  0  0  0  0  0  0  0  0  0  0  0
  148.8608  140.3851  157.5253 H   0  0  0  0  0  0  0  0  0  0  0  0
  149.2517  138.3565  158.7715 H   0  0  0  0  0  0  0  0  0  0  0  0
  150.3573  137.7208  157.5726 H   0  0  0  0  0  0  0  0  0  0  0  0
  148.6404  137.8584  157.2052 H   0  0  0  0  0  0  0  0  0  0  0  0
  150.4598  141.5507  154.2016 H   0  0  0  0  0  0  0  0  0  0  0  0
  149.7170  143.2327  156.2190 H   0  0  0  0  0  0  0  0  0  0  0  0
  152.1296  144.2542  157.4454 H   0  0  0  0  0  0  0  0  0  0  0  0
  150.5709  143.9286  158.1645 H   0  0  0  0  0  0  0  0  0  0  0  0
  151.9063  144.7857  160.6766 H   0  0  0  0  0  0  0  0  0  0  0  0
  153.1450  144.1418  163.0861 H   0  0  0  0  0  0  0  0  0  0  0  0
  154.5110  143.0627  162.8021 H   0  0  0  0  0  0  0  0  0  0  0  0
  152.9657  142.4068  163.3499 H   0  0  0  0  0  0  0  0  0  0  0  0
  147.8767  141.5319  155.8326 H   0  0  0  0  0  0  0  0  0  0  0  0
  148.3010  141.8753  152.8053 H   0  0  0  0  0  0  0  0  0  0  0  0
  147.9238  143.1924  153.9073 H   0  0  0  0  0  0  0  0  0  0  0  0
  146.7519  141.9137  153.6387 H   0  0  0  0  0  0  0  0  0  0  0  0
  148.9125  139.5374  153.7385 H   0  0  0  0  0  0  0  0  0  0  0  0
  145.7393  138.3033  155.0108 H   0  0  0  0  0  0  0  0  0  0  0  0
  146.6262  138.6818  153.5346 H   0  0  0  0  0  0  0  0  0  0  0  0
  145.9830  139.9843  154.5523 H   0  0  0  0  0  0  0  0  0  0  0  0
  1  2  1  0  0  0  0
  1 23  1  0  0  0  0
  1 24  1  0  0  0  0
  1 25  1  0  0  0  0
  2  3  1  0  0  0  0
  2 26  1  0  0  0  0
  2 27  1  0  0  0  0
  3 19  1  0  0  0  0
  3  4  1  0  0  0  0
  3  6  1  0  0  0  0
  4  5  1  0  0  0  0
  4 28  1  0  0  0  0
  4 29  1  0  0  0  0
  5 30  1  0  0  0  0
  5 31  1  0  0  0  0
  5 32  1  0  0  0  0
  6  7  1  0  0  0  0
  6 17  1  0  0  0  0
  6 33  1  0  0  0  0
  7  8  1  0  0  0  0
  7 34  1  0  0  0  0
  8  9  2  0  0  0  0
  8 10  1  0  0  0  0
 10 11  1  0  0  0  0
 10 35  1  0  0  0  0
 10 36  1  0  0  0  0
 11 16  2  0  0  0  0
 11 12  1  0  0  0  0
 12 13  2  0  0  0  0
 12 37  1  0  0  0  0
 13 14  1  0  0  0  0
 13 15  1  0  0  0  0
 14 38  1  0  0  0  0
 14 39  1  0  0  0  0
 14 40  1  0  0  0  0
 15 22  1  0  0  0  0
 15 16  1  0  0  0  0
 17 18  1  0  0  0  0
 17 19  1  0  0  0  0
 17 41  1  0  0  0  0
 18 42  1  0  0  0  0
 18 43  1  0  0  0  0
 18 44  1  0  0  0  0
 19 20  1  0  0  0  0
 19 45  1  0  0  0  0
 20 21  1  0  0  0  0
 21 46  1  0  0  0  0
 21 47  1  0  0  0  0
 21 48  1  0  0  0  0
M  END
> <s_m_source_file>
AV-unprocessed.smi

> <i_m_source_file_index>
2510

> <i_lp_mmshare_version>
43012

> <i_f3d_flags>
0

> <s_epik_input>
W0NIM11PW0NAQEhdMVtDQEhdKFtDSDNdKVtDQEBIXShDMShbQ0gyXVtDSDNdKVtDSDJdW0NIM10pW05IXUMoPU8pW0NIMl1jMltjSF1jKFtDSDNdKVtuSF1uMg==

> <s_epik_cmdline>
J2VwaWtfcHl0aG9uJywgJy1waCcsICc3LjAnLCAnLXRuJywgJzgnLCAnLW1hJywgJzIwMCcsICctbWV0YWxfYmluZGluZycsICctaW1hZScsICc8aW5maWxlLm1hZT4nLCAnLW9tYWUnLCAnPG91dGZpbGUubWFlPic=

> <r_lp_tautomer_probability>
0.5

> <r_epik_Ionization_Penalty>
9.73156e-05

> <r_epik_Ionization_Penalty_Charging>
0

> <r_epik_Ionization_Penalty_Neutral>
9.73156e-05

> <r_epik_State_Penalty>
0.41068

> <r_epik_Charging_Adjusted_Penalty>
0.41068

> <i_epik_Tot_Q>
0

> <i_epik_Tot_abs_Q>
0

> <r_epik_Metal_State_Penalty>
0.410699

> <b_epik_Metal_Only>
0

> <s_lp_Force_Field>
OPLS_2005

> <r_lp_Energy>
28.5674

> <b_lp_Chiralities_Consistent>
1

> <s_lp_Variant>
AV-unprocessed.smi:2510-6

> <Gold.Version>
5.8.1

> <Gold.Id.Protein>
6NUR|6NUR_protein|mol2

> <Gold.PLP.Fitness>
37.4405

> <Gold.PLP.PLP>
-38.2105

> <Gold.PLP.part.hbond>
-1.0000

> <Gold.PLP.part.metal>
0.0000

> <Gold.PLP.part.buried>
-4.9361

> <Gold.PLP.part.nonpolar>
-32.4231

> <Gold.PLP.part.repulsive>
0.1978

> <Gold.PLP.ligand.clash>
0.3802

> <Gold.PLP.ligand.torsion>
1.9720

> <Gold.PLP.Chemscore.Hbond>
0.9920

> <Gold.PLP.Chemscore.CHOScore>
0.0000

> <Gold.PLP.Chemscore.Metal>
0.0000

> <Gold.Chemscore.Hbonds>
donor molecule, donor type, donor heavy atom, donor atom, acceptor molecule, acceptor atom, score
      L1  H     7    34       P1  8028  1.00

> <Gold.PLP.Chemscore.Internal.Correction>
0.5782

> <Gold.Rescore>
     Score         DG    S(hbond)    S(metal)    S(lipo)     H(rot)  DE(clash)    DE(int)     intcor
     10.49     -15.61       0.64        0.00     107.85       1.81       1.94       3.18       ----

> <Gold.Chemscore.Fitness>
10.4905

> <Gold.Chemscore.DG>
-15.6131

> <Gold.Chemscore.ZeroCoef>
-5.4800

> <Gold.Chemscore.Hbond>
0.6434

> <Gold.Chemscore.Metal>
0.0000

> <Gold.Chemscore.Lipo>
107.8493

> <Gold.Chemscore.Internal_Hbond>
0.0000

> <Gold.Chemscore.DEClash>
1.9423

> <Gold.Chemscore.DEInternal>
3.1803

> <Gold.Chemscore.Rot>
1.8102

> <Gold.Chemscore.Internal.Correction>
   9.000000E+99

> <Gold.Chemscore.Hbonds>
donor molecule, donor type, donor heavy atom, donor atom, acceptor molecule, acceptor atom, score
      L1  H     7    34       P1  8028  0.99

> <Gold.Chemscore.Hbond.Weighted>
-2.1489

> <Gold.Chemscore.Metal.Weighted>
-0.0000

> <Gold.Chemscore.Lipo.Weighted>
-12.6184

> <Gold.Chemscore.Internal_Hbond.Weighted>
0.0000

> <Gold.Chemscore.DEClash.Weighted>
1.9423

> <Gold.Chemscore.DEInternal.Weighted>
3.1803

> <Gold.Chemscore.Rot.Weighted>
4.6341

> <Gold.Chemscore.Internal.Correction.Weighted>
   9.000000E+99

> <Gold.Protein.RotatedTorsions>
[ 6907 6896 6895 6894 ] final  -88.81 input  -60.11 | X-H torsion
[ 7974 7965 7964 7962 ] final   35.33 input  175.53 | X-H torsion
[ 8008 7997 7996 7995 ] final   61.35 input   59.86 | X-H torsion
[ 10167 10162 10161 10158 ] final -141.87 input  -65.29 | X-H torsion
[ 10718 10713 10712 10709 ] final  125.08 input   66.30 | X-H torsion
[ 10763 10752 10751 10750 ] final -129.88 input  -60.55 | X-H torsion
[ 11005 11000 10999 10996 ] final -102.89 input  -57.11 | X-H torsion

> <Gold.Protein.ActiveResidues>
 VAL166  LYS551  ARG553  GLY616  TRP617  ASP618  TYR619  PRO620  LYS621  CYS622 
 ASP623  PHE694  ASN695  SER759  ASP760  ASP761  ALA762  ILE779  LEU786  VAL792 
 PHE793  MET794  SER795  GLU796  ALA797  LYS798  CYS799  TRP800  GLU811  SER814 

> <Gold.Protein.RotatedAtoms>
  150.6870  134.2683  159.4577 H   0  0  0  0  0  0  0  0  0  0  0  0  # atno 6907 bound_to 6896
  152.0608  134.9593  160.0584 H   0  0  0  0  0  0  0  0  0  0  0  0  # atno 6908 bound_to 6896
  152.1021  133.4220  159.4629 H   0  0  0  0  0  0  0  0  0  0  0  0  # atno 6909 bound_to 6896
  146.1290  139.6156  142.9239 H   0  0  0  0  0  0  0  0  0  0  0  0  # atno 7974 bound_to 7965
  155.5969  140.3493  155.4582 H   0  0  0  0  0  0  0  0  0  0  0  0  # atno 8008 bound_to 7997
  156.0258  140.1263  157.0334 H   0  0  0  0  0  0  0  0  0  0  0  0  # atno 8009 bound_to 7997
  154.4333  140.1053  156.6015 H   0  0  0  0  0  0  0  0  0  0  0  0  # atno 8010 bound_to 7997
  139.8143  143.7660  152.2664 H   0  0  0  0  0  0  0  0  0  0  0  0  # atno 10167 bound_to 10162
  157.5533  131.1093  150.8665 H   0  0  0  0  0  0  0  0  0  0  0  0  # atno 10718 bound_to 10713
  154.8757  135.3881  154.3992 H   0  0  0  0  0  0  0  0  0  0  0  0  # atno 10763 bound_to 10752
  153.4719  135.7030  153.5994 H   0  0  0  0  0  0  0  0  0  0  0  0  # atno 10764 bound_to 10752
  153.4447  135.3848  155.2217 H   0  0  0  0  0  0  0  0  0  0  0  0  # atno 10765 bound_to 10752
  141.1170  133.8595  157.1417 H   0  0  0  0  0  0  0  0  0  0  0  0  # atno 11005 bound_to 11000
  145.5301  141.0427  143.2387 LP  0  0  0  0  0  0  0  0  0  0  0  0  # atno 17320 bound_to 7965
  144.7672  139.6819  143.7210 LP  0  0  0  0  0  0  0  0  0  0  0  0  # atno 17321 bound_to 7965
  139.7819  144.7441  151.0076 LP  0  0  0  0  0  0  0  0  0  0  0  0  # atno 17342 bound_to 10162
  140.7816  143.4533  151.0381 LP  0  0  0  0  0  0  0  0  0  0  0  0  # atno 17343 bound_to 10162
  156.9184  130.5306  149.5279 LP  0  0  0  0  0  0  0  0  0  0  0  0  # atno 17370 bound_to 10713
  156.0596  130.5651  150.9164 LP  0  0  0  0  0  0  0  0  0  0  0  0  # atno 17371 bound_to 10713
  140.0098  134.9993  157.0371 LP  0  0  0  0  0  0  0  0  0  0  0  0  # atno 17394 bound_to 11000
  140.4618  134.1476  155.7192 LP  0  0  0  0  0  0  0  0  0  0  0  0  # atno 17395 bound_to 11000

$$$$
