AV-unprocessed.smi:1809|AV-procd|sdf|7321|dock2
  -GOLD-   22720 8573D 1   1.00000     0.00000
 Structure written by MMmdl.
 39 41  0  0  0  0  0  0  0  0  3 V2000
  150.8197  141.3358  156.0110 C   0  0  0  0  0  0  0  0  0  0  0  0
  151.1662  139.9402  155.6195 C   0  0  0  0  0  0  0  0  0  0  0  0
  152.3997  139.4429  155.7367 N   0  0  0  0  0  0  0  0  0  0  0  0
  152.4742  138.1242  155.3121 N   0  0  0  0  0  0  0  0  0  0  0  0
  151.2975  137.6399  154.8908 C   0  0  0  0  0  0  0  0  0  0  0  0
  151.1588  136.3832  154.4364 N   0  5  0  0  0  0  0  0  0  0  0  0
  150.5575  135.4482  155.2057 C   0  0  0  0  0  0  0  0  0  0  0  0
  150.4472  135.4713  156.4338 O   0  0  0  0  0  0  0  0  0  0  0  0
  150.0464  134.4241  154.5082 N   0  0  0  0  0  0  0  0  0  0  0  0
  149.3315  133.2842  155.0717 C   0  0  0  0  0  0  0  0  0  0  0  0
  148.6449  132.4480  153.9786 C   0  0  2  0  0  0  0  0  0  0  0  0
  148.0808  133.3335  152.8435 C   0  0  0  0  0  0  0  0  0  0  0  0
  147.3546  132.4629  151.9013 N   0  3  2  0  0  0  0  0  0  0  0  0
  146.7426  133.0757  150.7103 C   0  0  0  0  0  0  0  0  0  0  0  0
  145.6221  132.0996  150.2985 C   0  0  0  0  0  0  0  0  0  0  0  0
  145.5471  131.0497  151.4228 C   0  0  0  0  0  0  0  0  0  0  0  0
  146.2843  131.7248  152.5752 C   0  0  1  0  0  0  0  0  0  0  0  0
  146.8986  130.8373  153.6655 C   0  0  0  0  0  0  0  0  0  0  0  0
  147.5845  131.6943  154.5794 O   0  0  0  0  0  0  0  0  0  0  0  0
  149.9845  138.8146  154.9723 S   0  0  0  0  0  0  0  0  0  0  0  0
  150.6940  141.3982  157.0919 H   0  0  0  0  0  0  0  0  0  0  0  0
  149.8909  141.6440  155.5309 H   0  0  0  0  0  0  0  0  0  0  0  0
  151.6118  142.0213  155.7088 H   0  0  0  0  0  0  0  0  0  0  0  0
  150.1609  134.4432  153.5052 H   0  0  0  0  0  0  0  0  0  0  0  0
  150.0430  132.6699  155.6241 H   0  0  0  0  0  0  0  0  0  0  0  0
  148.5981  133.6371  155.7989 H   0  0  0  0  0  0  0  0  0  0  0  0
  149.3677  131.7513  153.5500 H   0  0  0  0  0  0  0  0  0  0  0  0
  147.4101  134.0957  153.2430 H   0  0  0  0  0  0  0  0  0  0  0  0
  148.8877  133.8481  152.3207 H   0  0  0  0  0  0  0  0  0  0  0  0
  146.3181  134.0474  150.9675 H   0  0  0  0  0  0  0  0  0  0  0  0
  147.4815  133.2239  149.9224 H   0  0  0  0  0  0  0  0  0  0  0  0
  144.6760  132.6334  150.2005 H   0  0  0  0  0  0  0  0  0  0  0  0
  145.8326  131.6262  149.3387 H   0  0  0  0  0  0  0  0  0  0  0  0
  144.5232  130.7764  151.6798 H   0  0  0  0  0  0  0  0  0  0  0  0
  146.0720  130.1426  151.1193 H   0  0  0  0  0  0  0  0  0  0  0  0
  145.6061  132.4426  153.0425 H   0  0  0  0  0  0  0  0  0  0  0  0
  146.1208  130.2912  154.1993 H   0  0  0  0  0  0  0  0  0  0  0  0
  147.5859  130.1016  153.2447 H   0  0  0  0  0  0  0  0  0  0  0  0
  148.0105  131.7721  151.5647 H   0  0  0  0  0  0  0  0  0  0  0  0
  1  2  1  0  0  0  0
  1 21  1  0  0  0  0
  1 22  1  0  0  0  0
  1 23  1  0  0  0  0
  2 20  1  0  0  0  0
  2  3  2  0  0  0  0
  3  4  1  0  0  0  0
  4  5  2  0  0  0  0
  5  6  1  0  0  0  0
  5 20  1  0  0  0  0
  6  7  1  0  0  0  0
  7  8  2  0  0  0  0
  7  9  1  0  0  0  0
  9 10  1  0  0  0  0
  9 24  1  0  0  0  0
 10 11  1  0  0  0  0
 10 25  1  0  0  0  0
 10 26  1  0  0  0  0
 11 19  1  0  0  0  0
 11 12  1  0  0  0  0
 11 27  1  0  0  0  0
 12 13  1  0  0  0  0
 12 28  1  0  0  0  0
 12 29  1  0  0  0  0
 13 17  1  0  0  0  0
 13 14  1  0  0  0  0
 13 39  1  0  0  0  0
 14 15  1  0  0  0  0
 14 30  1  0  0  0  0
 14 31  1  0  0  0  0
 15 16  1  0  0  0  0
 15 32  1  0  0  0  0
 15 33  1  0  0  0  0
 16 17  1  0  0  0  0
 16 34  1  0  0  0  0
 16 35  1  0  0  0  0
 17 18  1  0  0  0  0
 17 36  1  0  0  0  0
 18 19  1  0  0  0  0
 18 37  1  0  0  0  0
 18 38  1  0  0  0  0
M  CHG  1   6  -1
M  CHG  1  13   1
M  END
> <s_m_source_file>
AV-unprocessed.smi

> <i_m_source_file_index>
1809

> <i_lp_mmshare_version>
43012

> <i_f3d_flags>
0

> <s_epik_input>
W0NIM11jMW5uYyhzMSlbTkhdQyg9TylbTkhdW0NIMl1bQ0BIXShbQ0gyXTIpT1tDSDJdW0NAQEhdKE4yMylbQ0gyXVtDSDJdW0NIMl0z

> <s_epik_cmdline>
J2VwaWtfcHl0aG9uJywgJy1waCcsICc3LjAnLCAnLXRuJywgJzgnLCAnLW1hJywgJzIwMCcsICctbWV0YWxfYmluZGluZycsICctaW1hZScsICc8aW5maWxlLm1hZT4nLCAnLW9tYWUnLCAnPG91dGZpbGUubWFlPic=

> <r_lp_tautomer_probability>
1

> <r_epik_Ionization_Penalty>
3.2601

> <r_epik_Ionization_Penalty_Charging>
3.1406

> <r_epik_Ionization_Penalty_Neutral>
0.119497

> <r_epik_State_Penalty>
3.08894

> <r_epik_Charging_Adjusted_Penalty>
6.22954

> <i_epik_Tot_Q>
0

> <i_epik_Tot_abs_Q>
2

> <r_epik_Metal_State_Penalty>
0.510807

> <b_epik_Metal_Only>
1

> <s_lp_Force_Field>
OPLS_2005

> <r_lp_Energy>
28.6606

> <b_lp_Chiralities_Consistent>
1

> <s_lp_Variant>
AV-unprocessed.smi:1809-13

> <Gold.Version>
5.8.1

> <Gold.Id.Protein>
6NUR|6NUR_protein|mol2

> <Gold.PLP.Fitness>
44.6027

> <Gold.PLP.PLP>
-34.8040

> <Gold.PLP.part.hbond>
-3.4049

> <Gold.PLP.part.metal>
0.0000

> <Gold.PLP.part.buried>
-3.8775

> <Gold.PLP.part.nonpolar>
-28.3025

> <Gold.PLP.part.repulsive>
1.6204

> <Gold.PLP.ligand.clash>
0.0000

> <Gold.PLP.ligand.torsion>
1.1058

> <Gold.PLP.Chemscore.Hbond>
4.0000

> <Gold.PLP.Chemscore.CHOScore>
0.0000

> <Gold.PLP.Chemscore.Metal>
0.0000

> <Gold.Chemscore.Hbonds>
donor molecule, donor type, donor heavy atom, donor atom, acceptor molecule, acceptor atom, score
      L1  H    13    39       P1 10747  1.00
      P1  H  7997  8009       L1     3  0.78
      P1  H 10752 10765       L1     6  2.00

> <Gold.PLP.Chemscore.Internal.Correction>
0.0103

> <Gold.Rescore>
     Score         DG    S(hbond)    S(metal)    S(lipo)     H(rot)  DE(clash)    DE(int)     intcor
     17.49     -18.84       2.46        0.00      73.06       1.32       0.33       1.02       ----

> <Gold.Chemscore.Fitness>
17.4869

> <Gold.Chemscore.DG>
-18.8420

> <Gold.Chemscore.ZeroCoef>
-5.4800

> <Gold.Chemscore.Hbond>
2.4564

> <Gold.Chemscore.Metal>
0.0000

> <Gold.Chemscore.Lipo>
73.0648

> <Gold.Chemscore.Internal_Hbond>
0.0000

> <Gold.Chemscore.DEClash>
0.3328

> <Gold.Chemscore.DEInternal>
1.0223

> <Gold.Chemscore.Rot>
1.3246

> <Gold.Chemscore.Internal.Correction>
   9.000000E+99

> <Gold.Chemscore.Hbonds>
donor molecule, donor type, donor heavy atom, donor atom, acceptor molecule, acceptor atom, score
      L1  H    13    39       P1 10747  0.98
      P1  H  7997  8009       L1     3  0.54
      P1  H 10752 10765       L1     6  0.24

> <Gold.Chemscore.Hbond.Weighted>
-8.2044

> <Gold.Chemscore.Metal.Weighted>
-0.0000

> <Gold.Chemscore.Lipo.Weighted>
-8.5486

> <Gold.Chemscore.Internal_Hbond.Weighted>
0.0000

> <Gold.Chemscore.DEClash.Weighted>
0.3328

> <Gold.Chemscore.DEInternal.Weighted>
1.0223

> <Gold.Chemscore.Rot.Weighted>
3.3910

> <Gold.Chemscore.Internal.Correction.Weighted>
   9.000000E+99

> <Gold.Protein.RotatedTorsions>
[ 6907 6896 6895 6894 ] final  -51.51 input  -60.11 | X-H torsion
[ 7974 7965 7964 7962 ] final -119.96 input  175.53 | X-H torsion
[ 8008 7997 7996 7995 ] final -150.63 input   59.86 | X-H torsion
[ 10167 10162 10161 10158 ] final   63.47 input  -65.29 | X-H torsion
[ 10718 10713 10712 10709 ] final  -50.94 input   66.30 | X-H torsion
[ 10763 10752 10751 10750 ] final  156.67 input  -60.55 | X-H torsion
[ 11005 11000 10999 10996 ] final -143.93 input  -57.11 | X-H torsion

> <Gold.Protein.ActiveResidues>
 VAL166  LYS551  ARG553  GLY616  TRP617  ASP618  TYR619  PRO620  LYS621  CYS622 
 ASP623  PHE694  ASN695  SER759  ASP760  ASP761  ALA762  ILE779  LEU786  VAL792 
 PHE793  MET794  SER795  GLU796  ALA797  LYS798  CYS799  TRP800  GLU811  SER814 

> <Gold.Protein.RotatedAtoms>
  150.8604  134.7954  159.7078 H   0  0  0  0  0  0  0  0  0  0  0  0  # atno 6907 bound_to 6896
  152.4643  134.5109  159.9763 H   0  0  0  0  0  0  0  0  0  0  0  0  # atno 6908 bound_to 6896
  151.5214  133.3427  159.2937 H   0  0  0  0  0  0  0  0  0  0  0  0  # atno 6909 bound_to 6896
  145.0567  140.8259  143.4177 H   0  0  0  0  0  0  0  0  0  0  0  0  # atno 7974 bound_to 7965
  155.6266  140.0687  157.2662 H   0  0  0  0  0  0  0  0  0  0  0  0  # atno 8008 bound_to 7997
  154.4216  140.1775  156.1476 H   0  0  0  0  0  0  0  0  0  0  0  0  # atno 8009 bound_to 7997
  155.9967  140.3340  155.6809 H   0  0  0  0  0  0  0  0  0  0  0  0  # atno 8010 bound_to 7997
  140.1327  144.4628  150.6855 H   0  0  0  0  0  0  0  0  0  0  0  0  # atno 10167 bound_to 10162
  156.1755  130.4150  149.9583 H   0  0  0  0  0  0  0  0  0  0  0  0  # atno 10718 bound_to 10713
  154.1880  135.2796  155.3031 H   0  0  0  0  0  0  0  0  0  0  0  0  # atno 10763 bound_to 10752
  154.5951  135.5547  153.7321 H   0  0  0  0  0  0  0  0  0  0  0  0  # atno 10764 bound_to 10752
  153.0120  135.6378  154.2019 H   0  0  0  0  0  0  0  0  0  0  0  0  # atno 10765 bound_to 10752
  140.8076  134.2783  157.4954 H   0  0  0  0  0  0  0  0  0  0  0  0  # atno 11005 bound_to 11000
  145.1459  139.2543  143.5466 LP  0  0  0  0  0  0  0  0  0  0  0  0  # atno 17320 bound_to 7965
  146.3522  140.1149  142.8602 LP  0  0  0  0  0  0  0  0  0  0  0  0  # atno 17321 bound_to 7965
  140.6807  143.2325  151.5391 LP  0  0  0  0  0  0  0  0  0  0  0  0  # atno 17342 bound_to 10162
  139.5511  144.2393  152.1532 LP  0  0  0  0  0  0  0  0  0  0  0  0  # atno 17343 bound_to 10162
  156.7370  130.9065  151.3629 LP  0  0  0  0  0  0  0  0  0  0  0  0  # atno 17370 bound_to 10713
  157.6833  130.9161  150.0321 LP  0  0  0  0  0  0  0  0  0  0  0  0  # atno 17371 bound_to 10713
  139.8716  134.9465  156.3940 LP  0  0  0  0  0  0  0  0  0  0  0  0  # atno 17394 bound_to 11000
  140.9231  133.7631  155.9931 LP  0  0  0  0  0  0  0  0  0  0  0  0  # atno 17395 bound_to 11000

$$$$
