AV-unprocessed.smi:1120|AV-procd|sdf|4822|dock9
  -GOLD-   22720 3383D 1   1.00000     0.00000
 Structure written by MMmdl.
 47 48  0  0  0  0  0  0  0  0  2 V2000
  152.1511  144.4736  160.0996 C   0  0  0  0  0  0  0  0  0  0  0  0
  152.6680  143.2157  159.3879 C   0  0  2  0  0  0  0  0  0  0  0  0
  151.5231  142.4178  158.7219 C   0  0  0  0  0  0  0  0  0  0  0  0
  152.0159  141.1182  158.0374 C   0  0  0  0  0  0  0  0  0  0  0  0
  152.7858  140.1742  158.9926 C   0  0  1  0  0  0  0  0  0  0  0  0
  153.3113  139.0424  158.2402 N   0  5  0  0  0  0  0  0  0  0  0  0
  152.7333  137.5481  158.4987 S   0  0  0  0  0  0  0  0  0  0  0  0
  152.4794  136.8213  157.2436 O   0  0  0  0  0  0  0  0  0  0  0  0
  153.4668  136.8249  159.5504 O   0  0  0  0  0  0  0  0  0  0  0  0
  151.0753  137.9476  159.2144 C   0  0  0  0  0  0  0  0  0  0  0  0
  149.9970  137.0073  158.6729 C   0  0  0  0  0  0  0  0  0  0  0  0
  150.3142  135.9335  158.1614 O   0  0  0  0  0  0  0  0  0  0  0  0
  148.7261  137.4068  158.8141 N   0  0  0  0  0  0  0  0  0  0  0  0
  147.5541  136.6610  158.3753 C   0  0  0  0  0  0  0  0  0  0  0  0
  146.4569  136.6662  159.4536 C   0  0  0  0  0  0  0  0  0  0  0  0
  146.9561  136.2336  160.8221 C   0  0  0  0  0  0  0  0  0  0  0  0
  147.1590  134.8680  161.1166 C   0  0  0  0  0  0  0  0  0  0  0  0
  147.5957  134.5172  162.4081 C   0  0  0  0  0  0  0  0  0  0  0  0
  147.8162  135.5404  163.3502 C   0  0  0  0  0  0  0  0  0  0  0  0
  147.5874  136.8741  162.9567 C   0  0  0  0  0  0  0  0  0  0  0  0
  147.1654  137.2214  161.7217 N   0  0  0  0  0  0  0  0  0  0  0  0
  153.9254  140.9794  159.6684 C   0  0  0  0  0  0  0  0  0  0  0  0
  153.4347  142.2808  160.3516 C   0  0  0  0  0  0  0  0  0  0  0  0
  151.4496  144.2192  160.8948 H   0  0  0  0  0  0  0  0  0  0  0  0
  151.6380  145.1355  159.4016 H   0  0  0  0  0  0  0  0  0  0  0  0
  152.9715  145.0362  160.5459 H   0  0  0  0  0  0  0  0  0  0  0  0
  153.3584  143.5349  158.6054 H   0  0  0  0  0  0  0  0  0  0  0  0
  150.7585  142.1811  159.4649 H   0  0  0  0  0  0  0  0  0  0  0  0
  151.0292  143.0450  157.9791 H   0  0  0  0  0  0  0  0  0  0  0  0
  151.1626  140.5917  157.6084 H   0  0  0  0  0  0  0  0  0  0  0  0
  152.6574  141.3903  157.1974 H   0  0  0  0  0  0  0  0  0  0  0  0
  152.0913  139.8467  159.7670 H   0  0  0  0  0  0  0  0  0  0  0  0
  151.1406  137.8557  160.2985 H   0  0  0  0  0  0  0  0  0  0  0  0
  150.8317  138.9828  158.9770 H   0  0  0  0  0  0  0  0  0  0  0  0
  148.5600  138.3064  159.2436 H   0  0  0  0  0  0  0  0  0  0  0  0
  147.1630  137.0852  157.4494 H   0  0  0  0  0  0  0  0  0  0  0  0
  147.8565  135.6361  158.1563 H   0  0  0  0  0  0  0  0  0  0  0  0
  146.0299  137.6669  159.5336 H   0  0  0  0  0  0  0  0  0  0  0  0
  145.6382  136.0130  159.1489 H   0  0  0  0  0  0  0  0  0  0  0  0
  146.9722  134.1049  160.3748 H   0  0  0  0  0  0  0  0  0  0  0  0
  147.7557  133.4823  162.6717 H   0  0  0  0  0  0  0  0  0  0  0  0
  148.1504  135.3086  164.3505 H   0  0  0  0  0  0  0  0  0  0  0  0
  147.7453  137.6838  163.6538 H   0  0  0  0  0  0  0  0  0  0  0  0
  154.4270  140.3634  160.4146 H   0  0  0  0  0  0  0  0  0  0  0  0
  154.6826  141.2354  158.9257 H   0  0  0  0  0  0  0  0  0  0  0  0
  154.2940  142.8108  160.7640 H   0  0  0  0  0  0  0  0  0  0  0  0
  152.8011  142.0355  161.2064 H   0  0  0  0  0  0  0  0  0  0  0  0
  1  2  1  0  0  0  0
  1 24  1  0  0  0  0
  1 25  1  0  0  0  0
  1 26  1  0  0  0  0
  2 23  1  0  0  0  0
  2  3  1  0  0  0  0
  2 27  1  0  0  0  0
  3  4  1  0  0  0  0
  3 28  1  0  0  0  0
  3 29  1  0  0  0  0
  4  5  1  0  0  0  0
  4 30  1  0  0  0  0
  4 31  1  0  0  0  0
  5  6  1  0  0  0  0
  5 22  1  0  0  0  0
  5 32  1  0  0  0  0
  6  7  1  0  0  0  0
  7  8  2  0  0  0  0
  7  9  2  0  0  0  0
  7 10  1  0  0  0  0
 10 11  1  0  0  0  0
 10 33  1  0  0  0  0
 10 34  1  0  0  0  0
 11 12  2  0  0  0  0
 11 13  1  0  0  0  0
 13 14  1  0  0  0  0
 13 35  1  0  0  0  0
 14 15  1  0  0  0  0
 14 36  1  0  0  0  0
 14 37  1  0  0  0  0
 15 16  1  0  0  0  0
 15 38  1  0  0  0  0
 15 39  1  0  0  0  0
 16 21  1  0  0  0  0
 16 17  2  0  0  0  0
 17 18  1  0  0  0  0
 17 40  1  0  0  0  0
 18 19  2  0  0  0  0
 18 41  1  0  0  0  0
 19 20  1  0  0  0  0
 19 42  1  0  0  0  0
 20 21  2  0  0  0  0
 20 43  1  0  0  0  0
 22 23  1  0  0  0  0
 22 44  1  0  0  0  0
 22 45  1  0  0  0  0
 23 46  1  0  0  0  0
 23 47  1  0  0  0  0
M  CHG  1   6  -1
M  END
> <s_m_source_file>
AV-unprocessed.smi

> <i_m_source_file_index>
1120

> <i_lp_mmshare_version>
43012

> <i_f3d_flags>
0

> <s_epik_input>
W0NIM11bQ0BASF0xW0NIMl1bQ0gyXVtDQEhdKFtDSDJdW0NIMl0xKVtOSF1TKD1PKSg9TylbQ0gyXUMoPU8pW05IXVtDSDJdW0NIMl1jMltjSF1bY0hdW2NIXVtjSF1uMg==

> <s_epik_cmdline>
J2VwaWtfcHl0aG9uJywgJy1waCcsICc3LjAnLCAnLXRuJywgJzgnLCAnLW1hJywgJzIwMCcsICctbWV0YWxfYmluZGluZycsICctaW1hZScsICc8aW5maWxlLm1hZT4nLCAnLW9tYWUnLCAnPG91dGZpbGUubWFlPic=

> <r_epik_Ionization_Penalty>
5.68623

> <r_epik_Ionization_Penalty_Charging>
5.66033

> <r_epik_Ionization_Penalty_Neutral>
0.0259005

> <r_epik_State_Penalty>
5.67764

> <r_epik_Charging_Adjusted_Penalty>
11.338

> <i_epik_Tot_Q>
-1

> <i_epik_Tot_abs_Q>
1

> <r_epik_Metal_State_Penalty>
1.68319

> <b_epik_Metal_Only>
1

> <s_lp_Force_Field>
OPLS_2005

> <r_lp_Energy>
8.54043

> <b_lp_Chiralities_Consistent>
1

> <s_lp_Variant>
AV-unprocessed.smi:1120-5

> <Gold.Version>
5.8.1

> <Gold.Id.Protein>
6NUR|6NUR_protein|mol2

> <Gold.PLP.Fitness>
54.3707

> <Gold.PLP.PLP>
-44.7676

> <Gold.PLP.part.hbond>
-3.8900

> <Gold.PLP.part.metal>
0.0000

> <Gold.PLP.part.buried>
-5.3997

> <Gold.PLP.part.nonpolar>
-35.2424

> <Gold.PLP.part.repulsive>
0.1542

> <Gold.PLP.ligand.clash>
0.0000

> <Gold.PLP.ligand.torsion>
1.6817

> <Gold.PLP.Chemscore.Hbond>
3.9699

> <Gold.PLP.Chemscore.CHOScore>
0.0000

> <Gold.PLP.Chemscore.Metal>
0.0000

> <Gold.Chemscore.Hbonds>
donor molecule, donor type, donor heavy atom, donor atom, acceptor molecule, acceptor atom, score
      P1  H  6896  6907       L1    12  0.66
      P1  H  6896  6908       L1     9  0.28
      P1  H  6934  6947       L1    21  0.90
      P1  H  7997  8010       L1     6  1.90

> <Gold.PLP.Chemscore.Internal.Correction>
1.0570

> <Gold.Rescore>
     Score         DG    S(hbond)    S(metal)    S(lipo)     H(rot)  DE(clash)    DE(int)     intcor
     20.40     -23.75       2.80        0.00     116.90       1.86       0.05       3.30       ----

> <Gold.Chemscore.Fitness>
20.4015

> <Gold.Chemscore.DG>
-23.7523

> <Gold.Chemscore.ZeroCoef>
-5.4800

> <Gold.Chemscore.Hbond>
2.8015

> <Gold.Chemscore.Metal>
0.0000

> <Gold.Chemscore.Lipo>
116.9004

> <Gold.Chemscore.Internal_Hbond>
0.0000

> <Gold.Chemscore.DEClash>
0.0502

> <Gold.Chemscore.DEInternal>
3.3006

> <Gold.Chemscore.Rot>
1.8602

> <Gold.Chemscore.Internal.Correction>
   9.000000E+99

> <Gold.Chemscore.Hbonds>
donor molecule, donor type, donor heavy atom, donor atom, acceptor molecule, acceptor atom, score
      P1  H  6896  6907       L1    12  0.56
      P1  H  6896  6908       L1     9  0.16
      P1  H  6934  6947       L1    21  0.77
      P1  H  7997  8010       L1     6  0.20

> <Gold.Chemscore.Hbond.Weighted>
-9.3571

> <Gold.Chemscore.Metal.Weighted>
-0.0000

> <Gold.Chemscore.Lipo.Weighted>
-13.6773

> <Gold.Chemscore.Internal_Hbond.Weighted>
0.0000

> <Gold.Chemscore.DEClash.Weighted>
0.0502

> <Gold.Chemscore.DEInternal.Weighted>
3.3006

> <Gold.Chemscore.Rot.Weighted>
4.7622

> <Gold.Chemscore.Internal.Correction.Weighted>
   9.000000E+99

> <Gold.Protein.RotatedTorsions>
[ 6907 6896 6895 6894 ] final  -78.64 input  -60.11 | X-H torsion
[ 7974 7965 7964 7962 ] final -143.93 input  175.53 | X-H torsion
[ 8008 7997 7996 7995 ] final   28.53 input   59.86 | X-H torsion
[ 10167 10162 10161 10158 ] final  -96.42 input  -65.29 | X-H torsion
[ 10718 10713 10712 10709 ] final  -96.20 input   66.30 | X-H torsion
[ 10763 10752 10751 10750 ] final  -13.15 input  -60.55 | X-H torsion
[ 11005 11000 10999 10996 ] final  -11.86 input  -57.11 | X-H torsion

> <Gold.Protein.ActiveResidues>
 VAL166  LYS551  ARG553  GLY616  TRP617  ASP618  TYR619  PRO620  LYS621  CYS622 
 ASP623  PHE694  ASN695  SER759  ASP760  ASP761  ALA762  ILE779  LEU786  VAL792 
 PHE793  MET794  SER795  GLU796  ALA797  LYS798  CYS799  TRP800  GLU811  SER814 

> <Gold.Protein.RotatedAtoms>
  150.6968  134.4242  159.5218 H   0  0  0  0  0  0  0  0  0  0  0  0  # atno 6907 bound_to 6896
  152.1979  134.8611  160.0520 H   0  0  0  0  0  0  0  0  0  0  0  0  # atno 6908 bound_to 6896
  151.9542  133.3640  159.4048 H   0  0  0  0  0  0  0  0  0  0  0  0  # atno 6909 bound_to 6896
  144.8334  140.5773  143.5500 H   0  0  0  0  0  0  0  0  0  0  0  0  # atno 7974 bound_to 7965
  155.0601  140.3189  155.4663 H   0  0  0  0  0  0  0  0  0  0  0  0  # atno 8008 bound_to 7997
  156.2815  140.2130  156.5672 H   0  0  0  0  0  0  0  0  0  0  0  0  # atno 8009 bound_to 7997
  154.7139  140.0495  157.0564 H   0  0  0  0  0  0  0  0  0  0  0  0  # atno 8010 bound_to 7997
  140.2940  143.3203  152.0316 H   0  0  0  0  0  0  0  0  0  0  0  0  # atno 10167 bound_to 10162
  156.0057  130.5141  150.6191 H   0  0  0  0  0  0  0  0  0  0  0  0  # atno 10718 bound_to 10713
  153.5091  135.7016  153.5790 H   0  0  0  0  0  0  0  0  0  0  0  0  # atno 10763 bound_to 10752
  153.3889  135.3901  155.1909 H   0  0  0  0  0  0  0  0  0  0  0  0  # atno 10764 bound_to 10752
  154.8705  135.3853  154.4569 H   0  0  0  0  0  0  0  0  0  0  0  0  # atno 10765 bound_to 10752
  140.7597  133.8525  155.9114 H   0  0  0  0  0  0  0  0  0  0  0  0  # atno 11005 bound_to 11000
  145.4847  139.1493  143.3742 LP  0  0  0  0  0  0  0  0  0  0  0  0  # atno 17320 bound_to 7965
  146.2635  140.4984  142.8844 LP  0  0  0  0  0  0  0  0  0  0  0  0  # atno 17321 bound_to 7965
  139.4931  144.6504  151.6688 LP  0  0  0  0  0  0  0  0  0  0  0  0  # atno 17342 bound_to 10162
  140.5708  144.0112  150.6215 LP  0  0  0  0  0  0  0  0  0  0  0  0  # atno 17343 bound_to 10162
  157.4010  131.0810  151.1309 LP  0  0  0  0  0  0  0  0  0  0  0  0  # atno 17370 bound_to 10713
  157.1970  130.6377  149.5725 LP  0  0  0  0  0  0  0  0  0  0  0  0  # atno 17371 bound_to 10713
  140.9674  134.1575  157.4604 LP  0  0  0  0  0  0  0  0  0  0  0  0  # atno 17394 bound_to 11000
  139.8773  134.9967  156.5806 LP  0  0  0  0  0  0  0  0  0  0  0  0  # atno 17395 bound_to 11000

$$$$
