AV-unprocessed.smi:157|AV-procd|sdf|1320|dock4
  -GOLD-   2262019 13D 1   1.00000     0.00000
 Structure written by MMmdl.
 36 38  0  0  0  0  0  0  0  0  2 V2000
  143.3600  131.8767  149.1312 O   0  0  0  0  0  0  0  0  0  0  0  0
  144.6596  131.8746  149.6825 C   0  0  0  0  0  0  0  0  0  0  0  0
  144.7107  132.7479  150.9464 C   0  0  2  0  0  0  0  0  0  0  0  0
  144.7799  134.1217  150.5690 O   0  0  0  0  0  0  0  0  0  0  0  0
  145.5909  134.8310  151.4586 C   0  0  1  0  0  0  0  0  0  0  0  0
  144.7860  135.9473  152.0418 N   0  0  0  0  0  0  0  0  0  0  0  0
  145.0981  137.2598  151.9992 C   0  0  0  0  0  0  0  0  0  0  0  0
  144.2191  138.0489  152.5932 N   0  3  0  0  0  0  0  0  0  0  0  0
  143.2265  137.2277  153.0847 C   0  0  0  0  0  0  0  0  0  0  0  0
  143.5895  135.9278  152.7219 C   0  0  0  0  0  0  0  0  0  0  0  0
  142.9290  134.7118  152.9564 N   0  0  0  0  0  0  0  0  0  0  0  0
  141.6943  134.6404  153.3354 C   0  0  0  0  0  0  0  0  0  0  0  0
  140.8199  135.6619  153.6674 N   0  0  0  0  0  0  0  0  0  0  0  0
  141.1837  136.7735  154.5281 C   0  0  0  0  0  0  0  0  0  0  0  0
  142.0777  137.8150  153.8432 C   0  0  2  0  0  0  0  0  0  0  0  0
  141.2681  138.6496  153.0408 O   0  0  0  0  0  0  0  0  0  0  0  0
  146.0275  133.8594  152.5548 C   0  0  0  0  0  0  0  0  0  0  0  0
  145.9486  132.5359  151.8249 C   0  0  1  0  0  0  0  0  0  0  0  0
  145.7869  131.4728  152.7411 O   0  0  0  0  0  0  0  0  0  0  0  0
  143.8009  132.6224  151.5368 H   0  0  0  0  0  0  0  0  0  0  0  0
  146.4193  135.2961  150.9236 H   0  0  0  0  0  0  0  0  0  0  0  0
  142.4911  138.4571  154.6219 H   0  0  0  0  0  0  0  0  0  0  0  0
  146.8411  132.3840  151.2158 H   0  0  0  0  0  0  0  0  0  0  0  0
  143.2481  132.6684  148.6269 H   0  0  0  0  0  0  0  0  0  0  0  0
  144.9653  130.8507  149.9008 H   0  0  0  0  0  0  0  0  0  0  0  0
  145.3482  132.2636  148.9321 H   0  0  0  0  0  0  0  0  0  0  0  0
  145.9893  137.6266  151.5218 H   0  0  0  0  0  0  0  0  0  0  0  0
  141.2285  133.6584  153.4297 H   0  0  0  0  0  0  0  0  0  0  0  0
  139.8335  135.4529  153.7311 H   0  0  0  0  0  0  0  0  0  0  0  0
  140.2816  137.2398  154.9255 H   0  0  0  0  0  0  0  0  0  0  0  0
  141.7147  136.3612  155.3873 H   0  0  0  0  0  0  0  0  0  0  0  0
  141.7601  139.4235  152.8138 H   0  0  0  0  0  0  0  0  0  0  0  0
  147.0227  134.1027  152.9280 H   0  0  0  0  0  0  0  0  0  0  0  0
  145.3174  133.8892  153.3836 H   0  0  0  0  0  0  0  0  0  0  0  0
  145.6389  131.8380  153.6009 H   0  0  0  0  0  0  0  0  0  0  0  0
  144.2741  139.0563  152.6747 H   0  0  0  0  0  0  0  0  0  0  0  0
  1  2  1  0  0  0  0
  1 24  1  0  0  0  0
  2  3  1  0  0  0  0
  2 25  1  0  0  0  0
  2 26  1  0  0  0  0
  3 20  1  0  0  0  0
  3 18  1  0  0  0  0
  3  4  1  0  0  0  0
  4  5  1  0  0  0  0
  5 21  1  0  0  0  0
  5  6  1  0  0  0  0
  5 17  1  0  0  0  0
  6 10  1  0  0  0  0
  6  7  1  0  0  0  0
  7  8  2  0  0  0  0
  7 27  1  0  0  0  0
  8  9  1  0  0  0  0
  8 36  1  0  0  0  0
  9 15  1  0  0  0  0
  9 10  2  0  0  0  0
 10 11  1  0  0  0  0
 11 12  2  0  0  0  0
 12 13  1  0  0  0  0
 12 28  1  0  0  0  0
 13 14  1  0  0  0  0
 13 29  1  0  0  0  0
 14 15  1  0  0  0  0
 14 30  1  0  0  0  0
 14 31  1  0  0  0  0
 15 22  1  0  0  0  0
 15 16  1  0  0  0  0
 16 32  1  0  0  0  0
 17 18  1  0  0  0  0
 17 33  1  0  0  0  0
 17 34  1  0  0  0  0
 18 23  1  0  0  0  0
 18 19  1  0  0  0  0
 19 35  1  0  0  0  0
M  CHG  1   8   1
M  END
> <s_m_source_file>
AV-unprocessed.smi

> <i_m_source_file_index>
157

> <i_lp_mmshare_version>
43012

> <i_f3d_flags>
0

> <s_epik_input>
W09IXVtDSDJdW0NASF0xT1tDQEhdKFtDSDJdW0NAQEhdMVtPSF0pbihbY0hdbjIpYyhjMjMpTj1bQ0hdW05IXVtDSDJdW0NASF0zW09IXQ==

> <s_epik_cmdline>
J2VwaWtfcHl0aG9uJywgJy1waCcsICc3LjAnLCAnLXRuJywgJzgnLCAnLW1hJywgJzIwMCcsICctbWV0YWxfYmluZGluZycsICctaW1hZScsICc8aW5maWxlLm1hZT4nLCAnLW9tYWUnLCAnPG91dGZpbGUubWFlPic=

> <r_epik_Ionization_Penalty>
1.68594

> <r_epik_Ionization_Penalty_Charging>
0

> <r_epik_Ionization_Penalty_Neutral>
1.68594

> <r_epik_State_Penalty>
1.79006

> <r_epik_Charging_Adjusted_Penalty>
1.79006

> <i_epik_Tot_Q>
1

> <i_epik_Tot_abs_Q>
1

> <r_epik_Metal_State_Penalty>
5.85324

> <b_epik_Metal_Only>
0

> <s_epik_Chemistry_Notes>
This compound has an imine and may undergo hydrolysis. This compound contains an acetal/aminal-like group ( X-CH(R)-Y where X, Y are N, S, or O) that may be acid/base labile, releasing an aldehyde.

> <s_lp_Force_Field>
OPLS_2005

> <r_lp_Energy>
53.8289

> <b_lp_Chiralities_Consistent>
1

> <s_lp_Variant>
AV-unprocessed.smi:157-30

> <Gold.Version>
5.8.1

> <Gold.Id.Protein>
6NUR|6NUR_protein|mol2

> <Gold.PLP.Fitness>
44.6834

> <Gold.PLP.PLP>
-32.3718

> <Gold.PLP.part.hbond>
-6.1168

> <Gold.PLP.part.metal>
0.0000

> <Gold.PLP.part.buried>
-4.6411

> <Gold.PLP.part.nonpolar>
-23.1117

> <Gold.PLP.part.repulsive>
0.4741

> <Gold.PLP.ligand.clash>
0.0000

> <Gold.PLP.ligand.torsion>
0.1524

> <Gold.PLP.Chemscore.Hbond>
3.9440

> <Gold.PLP.Chemscore.CHOScore>
0.2581

> <Gold.PLP.Chemscore.Metal>
0.0000

> <Gold.Chemscore.Hbonds>
donor molecule, donor type, donor heavy atom, donor atom, acceptor molecule, acceptor atom, score
      L1  H     8    36       P1 10175  1.98
      L1  H    16    32       P1 10175  0.78
      P1  H 10785 10796       L1     1  1.00
      L1  C    12    28       P1 10957  0.43

> <Gold.PLP.Chemscore.Internal.Correction>
0.0100

> <Gold.Rescore>
     Score         DG    S(hbond)    S(metal)    S(lipo)     H(rot)  DE(clash)    DE(int)     intcor
      8.77      -8.96       2.50        0.00      38.72       3.67       0.02       0.18       ----

> <Gold.Chemscore.Fitness>
8.7662

> <Gold.Chemscore.DG>
-8.9611

> <Gold.Chemscore.ZeroCoef>
-5.4800

> <Gold.Chemscore.Hbond>
2.4958

> <Gold.Chemscore.Metal>
0.0000

> <Gold.Chemscore.Lipo>
38.7165

> <Gold.Chemscore.Internal_Hbond>
0.0000

> <Gold.Chemscore.DEClash>
0.0185

> <Gold.Chemscore.DEInternal>
0.1764

> <Gold.Chemscore.Rot>
3.6659

> <Gold.Chemscore.Internal.Correction>
   9.000000E+99

> <Gold.Chemscore.Hbonds>
donor molecule, donor type, donor heavy atom, donor atom, acceptor molecule, acceptor atom, score
      L1  H     8    36       P1 10175  0.88
      L1  H    16    32       P1 10175  0.42
      P1  H 10785 10796       L1     1  0.24

> <Gold.Chemscore.Hbond.Weighted>
-8.3360

> <Gold.Chemscore.Metal.Weighted>
-0.0000

> <Gold.Chemscore.Lipo.Weighted>
-4.5298

> <Gold.Chemscore.Internal_Hbond.Weighted>
0.0000

> <Gold.Chemscore.DEClash.Weighted>
0.0185

> <Gold.Chemscore.DEInternal.Weighted>
0.1764

> <Gold.Chemscore.Rot.Weighted>
9.3848

> <Gold.Chemscore.Internal.Correction.Weighted>
   9.000000E+99

> <Gold.Protein.RotatedTorsions>
[ 6907 6896 6895 6894 ] final   32.06 input  -60.11 | X-H torsion
[ 7974 7965 7964 7962 ] final  -93.36 input  175.53 | X-H torsion
[ 8008 7997 7996 7995 ] final  -78.49 input   59.86 | X-H torsion
[ 10167 10162 10161 10158 ] final  -39.38 input  -65.29 | X-H torsion
[ 10718 10713 10712 10709 ] final    0.48 input   66.30 | X-H torsion
[ 10763 10752 10751 10750 ] final   67.94 input  -60.55 | X-H torsion
[ 11005 11000 10999 10996 ] final  148.45 input  -57.11 | X-H torsion

> <Gold.Protein.ActiveResidues>
 VAL166  LYS551  ARG553  GLY616  TRP617  ASP618  TYR619  PRO620  LYS621  CYS622 
 ASP623  PHE694  ASN695  SER759  ASP760  ASP761  ALA762  ILE779  LEU786  VAL792 
 PHE793  MET794  SER795  GLU796  ALA797  LYS798  CYS799  TRP800  GLU811  SER814 

> <Gold.Protein.RotatedAtoms>
  152.0691  134.9545  160.0574 H   0  0  0  0  0  0  0  0  0  0  0  0  # atno 6907 bound_to 6896
  152.0878  133.4180  159.4538 H   0  0  0  0  0  0  0  0  0  0  0  0  # atno 6908 bound_to 6896
  150.6836  134.2827  159.4677 H   0  0  0  0  0  0  0  0  0  0  0  0  # atno 6909 bound_to 6896
  145.3876  140.9524  143.2358 H   0  0  0  0  0  0  0  0  0  0  0  0  # atno 7974 bound_to 7965
  154.5694  140.0693  156.8941 H   0  0  0  0  0  0  0  0  0  0  0  0  # atno 8008 bound_to 7997
  155.2662  140.3362  155.4251 H   0  0  0  0  0  0  0  0  0  0  0  0  # atno 8009 bound_to 7997
  156.2106  140.1758  156.7688 H   0  0  0  0  0  0  0  0  0  0  0  0  # atno 8010 bound_to 7997
  140.7066  143.3218  151.2774 H   0  0  0  0  0  0  0  0  0  0  0  0  # atno 10167 bound_to 10162
  156.8339  130.5498  149.5684 H   0  0  0  0  0  0  0  0  0  0  0  0  # atno 10718 bound_to 10713
  153.0211  135.5265  154.7058 H   0  0  0  0  0  0  0  0  0  0  0  0  # atno 10763 bound_to 10752
  154.6154  135.2883  155.0388 H   0  0  0  0  0  0  0  0  0  0  0  0  # atno 10764 bound_to 10752
  154.1394  135.6580  153.4991 H   0  0  0  0  0  0  0  0  0  0  0  0  # atno 10765 bound_to 10752
  140.0960  134.9012  157.1724 H   0  0  0  0  0  0  0  0  0  0  0  0  # atno 11005 bound_to 11000
  144.8463  139.5392  143.6877 LP  0  0  0  0  0  0  0  0  0  0  0  0  # atno 17320 bound_to 7965
  146.2813  139.6884  142.9227 LP  0  0  0  0  0  0  0  0  0  0  0  0  # atno 17321 bound_to 7965
  139.6674  144.0081  152.2731 LP  0  0  0  0  0  0  0  0  0  0  0  0  # atno 17342 bound_to 10162
  139.9668  144.6521  150.8027 LP  0  0  0  0  0  0  0  0  0  0  0  0  # atno 17343 bound_to 10162
  156.0918  130.5902  150.9746 LP  0  0  0  0  0  0  0  0  0  0  0  0  # atno 17370 bound_to 10713
  157.6392  131.0912  150.8287 LP  0  0  0  0  0  0  0  0  0  0  0  0  # atno 17371 bound_to 10713
  140.3285  134.2836  155.7232 LP  0  0  0  0  0  0  0  0  0  0  0  0  # atno 17394 bound_to 11000
  141.2092  133.7755  157.0011 LP  0  0  0  0  0  0  0  0  0  0  0  0  # atno 17395 bound_to 11000

$$$$
