AV-unprocessed.smi:1346|AV-procd|sdf|5512|dock10
  -GOLD-   22720 5 93D 1   1.00000     0.00000
 Structure written by MMmdl.
 47 48  0  0  0  0  0  0  0  0  1 V2000
  148.8337  141.6802  156.1646 C   0  0  0  0  0  0  0  0  0  0  0  0
  148.0882  141.1622  154.9681 C   0  0  0  0  0  0  0  0  0  0  0  0
  147.2415  141.9575  154.3367 N   0  0  0  0  0  0  0  0  0  0  0  0
  146.7152  141.2003  153.2861 O   0  0  0  0  0  0  0  0  0  0  0  0
  147.2697  139.9624  153.3283 C   0  0  0  0  0  0  0  0  0  0  0  0
  146.8303  139.0039  152.2734 C   0  0  0  0  0  0  0  0  0  0  0  0
  148.1504  139.8696  154.3716 C   0  0  0  0  0  0  0  0  0  0  0  0
  148.9907  138.6927  154.7991 C   0  0  0  0  0  0  0  0  0  0  0  0
  150.3096  139.1789  155.4010 C   0  0  0  0  0  0  0  0  0  0  0  0
  151.1718  139.6711  154.6736 O   0  0  0  0  0  0  0  0  0  0  0  0
  150.4476  139.0450  156.7295 N   0  0  0  0  0  0  0  0  0  0  0  0
  151.6023  139.4824  157.5059 C   0  0  0  0  0  0  0  0  0  0  0  0
  151.2886  140.7614  158.2941 C   0  0  0  0  0  0  0  0  0  0  0  0
  152.2892  141.7327  158.0277 O   0  0  0  0  0  0  0  0  0  0  0  0
  152.9282  142.2512  159.1859 C   0  0  2  0  0  0  0  0  0  0  0  0
  153.3468  141.0737  160.0917 C   0  0  0  0  0  0  0  0  0  0  0  0
  153.9198  141.5654  161.4288 C   0  0  0  0  0  0  0  0  0  0  0  0
  152.9215  142.4806  162.1513 C   0  0  0  0  0  0  0  0  0  0  0  0
  152.5069  143.6591  161.2571 C   0  0  0  0  0  0  0  0  0  0  0  0
  151.9280  143.1807  159.9101 C   0  0  1  0  0  0  0  0  0  0  0  0
  151.5299  144.3802  159.0349 C   0  0  0  0  0  0  0  0  0  0  0  0
  149.7807  141.1567  156.2985 H   0  0  0  0  0  0  0  0  0  0  0  0
  148.2493  141.5474  157.0752 H   0  0  0  0  0  0  0  0  0  0  0  0
  149.0591  142.7423  156.0640 H   0  0  0  0  0  0  0  0  0  0  0  0
  147.1963  137.9978  152.4770 H   0  0  0  0  0  0  0  0  0  0  0  0
  147.2070  139.3077  151.2966 H   0  0  0  0  0  0  0  0  0  0  0  0
  145.7425  138.9613  152.2184 H   0  0  0  0  0  0  0  0  0  0  0  0
  148.4666  138.0830  155.5360 H   0  0  0  0  0  0  0  0  0  0  0  0
  149.2087  138.0277  153.9629 H   0  0  0  0  0  0  0  0  0  0  0  0
  149.6868  138.6244  157.2428 H   0  0  0  0  0  0  0  0  0  0  0  0
  151.8517  138.6806  158.2012 H   0  0  0  0  0  0  0  0  0  0  0  0
  152.4780  139.6228  156.8702 H   0  0  0  0  0  0  0  0  0  0  0  0
  150.2945  141.1250  158.0315 H   0  0  0  0  0  0  0  0  0  0  0  0
  151.2815  140.5464  159.3634 H   0  0  0  0  0  0  0  0  0  0  0  0
  153.8074  142.8359  158.9066 H   0  0  0  0  0  0  0  0  0  0  0  0
  152.4823  140.4357  160.2812 H   0  0  0  0  0  0  0  0  0  0  0  0
  154.0848  140.4467  159.5917 H   0  0  0  0  0  0  0  0  0  0  0  0
  154.1698  140.7137  162.0621 H   0  0  0  0  0  0  0  0  0  0  0  0
  154.8513  142.1048  161.2518 H   0  0  0  0  0  0  0  0  0  0  0  0
  152.0380  141.9076  162.4359 H   0  0  0  0  0  0  0  0  0  0  0  0
  153.3606  142.8528  163.0774 H   0  0  0  0  0  0  0  0  0  0  0  0
  151.7735  144.2723  161.7820 H   0  0  0  0  0  0  0  0  0  0  0  0
  153.3720  144.2997  161.0797 H   0  0  0  0  0  0  0  0  0  0  0  0
  151.0230  142.6080  160.1195 H   0  0  0  0  0  0  0  0  0  0  0  0
  152.3982  144.9866  158.7754 H   0  0  0  0  0  0  0  0  0  0  0  0
  150.8167  145.0233  159.5517 H   0  0  0  0  0  0  0  0  0  0  0  0
  151.0615  144.0555  158.1053 H   0  0  0  0  0  0  0  0  0  0  0  0
  1  2  1  0  0  0  0
  1 22  1  0  0  0  0
  1 23  1  0  0  0  0
  1 24  1  0  0  0  0
  2  7  1  0  0  0  0
  2  3  2  0  0  0  0
  3  4  1  0  0  0  0
  4  5  1  0  0  0  0
  5  6  1  0  0  0  0
  5  7  2  0  0  0  0
  6 25  1  0  0  0  0
  6 26  1  0  0  0  0
  6 27  1  0  0  0  0
  7  8  1  0  0  0  0
  8  9  1  0  0  0  0
  8 28  1  0  0  0  0
  8 29  1  0  0  0  0
  9 10  2  0  0  0  0
  9 11  1  0  0  0  0
 11 12  1  0  0  0  0
 11 30  1  0  0  0  0
 12 13  1  0  0  0  0
 12 31  1  0  0  0  0
 12 32  1  0  0  0  0
 13 14  1  0  0  0  0
 13 33  1  0  0  0  0
 13 34  1  0  0  0  0
 14 15  1  0  0  0  0
 15 20  1  0  0  0  0
 15 16  1  0  0  0  0
 15 35  1  0  0  0  0
 16 17  1  0  0  0  0
 16 36  1  0  0  0  0
 16 37  1  0  0  0  0
 17 18  1  0  0  0  0
 17 38  1  0  0  0  0
 17 39  1  0  0  0  0
 18 19  1  0  0  0  0
 18 40  1  0  0  0  0
 18 41  1  0  0  0  0
 19 20  1  0  0  0  0
 19 42  1  0  0  0  0
 19 43  1  0  0  0  0
 20 21  1  0  0  0  0
 20 44  1  0  0  0  0
 21 45  1  0  0  0  0
 21 46  1  0  0  0  0
 21 47  1  0  0  0  0
M  END
> <s_m_source_file>
AV-unprocessed.smi

> <i_m_source_file_index>
1346

> <i_lp_mmshare_version>
43012

> <i_f3d_flags>
0

> <s_epik_input>
W0NIM11jMW5vYyhbQ0gzXSljMVtDSDJdQyg9TylbTkhdW0NIMl1bQ0gyXU9bQ0BASF0yW0NIMl1bQ0gyXVtDSDJdW0NIMl1bQ0BIXTJbQ0gzXQ==

> <s_epik_cmdline>
J2VwaWtfcHl0aG9uJywgJy1waCcsICc3LjAnLCAnLXRuJywgJzgnLCAnLW1hJywgJzIwMCcsICctbWV0YWxfYmluZGluZycsICctaW1hZScsICc8aW5maWxlLm1hZT4nLCAnLW9tYWUnLCAnPG91dGZpbGUubWFlPic=

> <r_lp_tautomer_probability>
1

> <r_epik_Ionization_Penalty>
3.26154e-08

> <r_epik_Ionization_Penalty_Charging>
0

> <r_epik_Ionization_Penalty_Neutral>
3.26154e-08

> <r_epik_State_Penalty>
-0

> <r_epik_Charging_Adjusted_Penalty>
0

> <i_epik_Tot_Q>
0

> <i_epik_Tot_abs_Q>
0

> <r_epik_Metal_State_Penalty>
-0

> <b_epik_Metal_Only>
0

> <s_lp_Force_Field>
OPLS_2005

> <r_lp_Energy>
5.71646

> <b_lp_Chiralities_Consistent>
1

> <s_lp_Variant>
AV-unprocessed.smi:1346-1

> <Gold.Version>
5.8.1

> <Gold.Id.Protein>
6NUR|6NUR_protein|mol2

> <Gold.PLP.Fitness>
42.2734

> <Gold.PLP.PLP>
-41.9363

> <Gold.PLP.part.hbond>
-1.0000

> <Gold.PLP.part.metal>
0.0000

> <Gold.PLP.part.buried>
-2.4747

> <Gold.PLP.part.nonpolar>
-38.4031

> <Gold.PLP.part.repulsive>
0.4311

> <Gold.PLP.ligand.clash>
0.0000

> <Gold.PLP.ligand.torsion>
1.3832

> <Gold.PLP.Chemscore.Hbond>
1.0000

> <Gold.PLP.Chemscore.CHOScore>
0.0000

> <Gold.PLP.Chemscore.Metal>
0.0000

> <Gold.Chemscore.Hbonds>
donor molecule, donor type, donor heavy atom, donor atom, acceptor molecule, acceptor atom, score
      P1  H  7989  7998       L1    10  1.00

> <Gold.PLP.Chemscore.Internal.Correction>
0.1036

> <Gold.Rescore>
     Score         DG    S(hbond)    S(metal)    S(lipo)     H(rot)  DE(clash)    DE(int)     intcor
     16.25     -18.56       1.00        0.00     121.19       1.74       0.04       2.26       ----

> <Gold.Chemscore.Fitness>
16.2535

> <Gold.Chemscore.DG>
-18.5570

> <Gold.Chemscore.ZeroCoef>
-5.4800

> <Gold.Chemscore.Hbond>
0.9999

> <Gold.Chemscore.Metal>
0.0000

> <Gold.Chemscore.Lipo>
121.1899

> <Gold.Chemscore.Internal_Hbond>
0.0000

> <Gold.Chemscore.DEClash>
0.0397

> <Gold.Chemscore.DEInternal>
2.2637

> <Gold.Chemscore.Rot>
1.7352

> <Gold.Chemscore.Internal.Correction>
   9.000000E+99

> <Gold.Chemscore.Hbonds>
donor molecule, donor type, donor heavy atom, donor atom, acceptor molecule, acceptor atom, score
      P1  H  7989  7998       L1    10  1.00

> <Gold.Chemscore.Hbond.Weighted>
-3.3398

> <Gold.Chemscore.Metal.Weighted>
-0.0000

> <Gold.Chemscore.Lipo.Weighted>
-14.1792

> <Gold.Chemscore.Internal_Hbond.Weighted>
0.0000

> <Gold.Chemscore.DEClash.Weighted>
0.0397

> <Gold.Chemscore.DEInternal.Weighted>
2.2637

> <Gold.Chemscore.Rot.Weighted>
4.4420

> <Gold.Chemscore.Internal.Correction.Weighted>
   9.000000E+99

> <Gold.Protein.RotatedTorsions>
[ 6907 6896 6895 6894 ] final   67.29 input  -60.11 | X-H torsion
[ 7974 7965 7964 7962 ] final   27.58 input  175.53 | X-H torsion
[ 8008 7997 7996 7995 ] final  163.25 input   59.86 | X-H torsion
[ 10167 10162 10161 10158 ] final   76.63 input  -65.29 | X-H torsion
[ 10718 10713 10712 10709 ] final  179.86 input   66.30 | X-H torsion
[ 10763 10752 10751 10750 ] final   65.05 input  -60.55 | X-H torsion
[ 11005 11000 10999 10996 ] final  -99.34 input  -57.11 | X-H torsion

> <Gold.Protein.ActiveResidues>
 VAL166  LYS551  ARG553  GLY616  TRP617  ASP618  TYR619  PRO620  LYS621  CYS622 
 ASP623  PHE694  ASN695  SER759  ASP760  ASP761  ALA762  ILE779  LEU786  VAL792 
 PHE793  MET794  SER795  GLU796  ALA797  LYS798  CYS799  TRP800  GLU811  SER814 

> <Gold.Protein.RotatedAtoms>
  152.4542  134.5328  159.9815 H   0  0  0  0  0  0  0  0  0  0  0  0  # atno 6907 bound_to 6896
  151.5393  133.3429  159.2940 H   0  0  0  0  0  0  0  0  0  0  0  0  # atno 6908 bound_to 6896
  150.8480  134.7827  159.7049 H   0  0  0  0  0  0  0  0  0  0  0  0  # atno 6909 bound_to 6896
  146.1776  139.7172  142.8923 H   0  0  0  0  0  0  0  0  0  0  0  0  # atno 7974 bound_to 7965
  156.1971  140.1728  156.7976 H   0  0  0  0  0  0  0  0  0  0  0  0  # atno 8008 bound_to 7997
  154.5544  140.0711  156.8750 H   0  0  0  0  0  0  0  0  0  0  0  0  # atno 8009 bound_to 7997
  155.2968  140.3359  155.4252 H   0  0  0  0  0  0  0  0  0  0  0  0  # atno 8010 bound_to 7997
  139.9902  144.5763  150.7825 H   0  0  0  0  0  0  0  0  0  0  0  0  # atno 10167 bound_to 10162
  156.8694  130.9779  151.3075 H   0  0  0  0  0  0  0  0  0  0  0  0  # atno 10718 bound_to 10713
  153.0080  135.5371  154.6606 H   0  0  0  0  0  0  0  0  0  0  0  0  # atno 10763 bound_to 10752
  154.5815  135.2850  155.0730 H   0  0  0  0  0  0  0  0  0  0  0  0  # atno 10764 bound_to 10752
  154.1857  135.6508  153.5098 H   0  0  0  0  0  0  0  0  0  0  0  0  # atno 10765 bound_to 10752
  141.1312  133.8314  157.0959 H   0  0  0  0  0  0  0  0  0  0  0  0  # atno 11005 bound_to 11000
  145.4167  141.0402  143.2987 LP  0  0  0  0  0  0  0  0  0  0  0  0  # atno 17320 bound_to 7965
  144.8262  139.5706  143.6964 LP  0  0  0  0  0  0  0  0  0  0  0  0  # atno 17321 bound_to 7965
  140.7457  143.2880  151.3409 LP  0  0  0  0  0  0  0  0  0  0  0  0  # atno 17342 bound_to 10162
  139.6346  144.0656  152.2505 LP  0  0  0  0  0  0  0  0  0  0  0  0  # atno 17343 bound_to 10162
  157.6204  130.8651  149.9099 LP  0  0  0  0  0  0  0  0  0  0  0  0  # atno 17370 bound_to 10713
  156.0734  130.3682  150.0728 LP  0  0  0  0  0  0  0  0  0  0  0  0  # atno 17371 bound_to 10713
  140.0363  134.9876  157.0877 LP  0  0  0  0  0  0  0  0  0  0  0  0  # atno 17394 bound_to 11000
  140.4205  134.1886  155.7164 LP  0  0  0  0  0  0  0  0  0  0  0  0  # atno 17395 bound_to 11000

$$$$
