AV-unprocessed.smi:1378|AV-procd|sdf|5597|dock10
  -GOLD-   22720 5203D 1   1.00000     0.00000
 Structure written by MMmdl.
 47 49  0  0  0  0  0  0  0  0  2 V2000
  150.5464  138.6672  155.8725 C   0  0  0  0  0  0  0  0  0  0  0  0
  151.8756  139.1106  156.0854 O   0  0  0  0  0  0  0  0  0  0  0  0
  151.9587  140.1032  157.0919 C   0  0  0  0  0  0  0  0  0  0  0  0
  152.4072  139.4445  158.4050 C   0  0  0  0  0  0  0  0  0  0  0  0
  153.2381  140.3337  159.2296 N   0  0  0  0  0  0  0  0  0  0  0  0
  154.4410  140.1277  159.8386 C   0  0  0  0  0  0  0  0  0  0  0  0
  155.3933  138.6428  159.8540 S   0  0  0  0  0  0  0  0  0  0  0  0
  155.9670  138.4422  161.5653 C   0  0  0  0  0  0  0  0  0  0  0  0
  157.1301  137.4583  161.6883 C   0  0  0  0  0  0  0  0  0  0  0  0
  158.2017  137.6920  161.1314 O   0  0  0  0  0  0  0  0  0  0  0  0
  156.9054  136.3730  162.4427 N   0  0  0  0  0  0  0  0  0  0  0  0
  157.8714  135.3250  162.7501 C   0  0  0  0  0  0  0  0  0  0  0  0
  157.3188  133.9328  162.3813 C   0  0  0  0  0  0  0  0  0  0  0  0
  157.3316  133.1062  163.6713 C   0  0  0  0  0  0  0  0  0  0  0  0
  157.2928  134.1356  164.7972 C   0  0  0  0  0  0  0  0  0  0  0  0
  158.1365  135.2912  164.2641 C   0  0  0  0  0  0  0  0  0  0  0  0
  154.7884  141.2808  160.4719 N   0  3  0  0  0  0  0  0  0  0  0  0
  153.7981  142.2418  160.2673 C   0  0  0  0  0  0  0  0  0  0  0  0
  153.6985  143.5561  160.7127 C   0  0  0  0  0  0  0  0  0  0  0  0
  152.5492  144.2723  160.3187 C   0  0  0  0  0  0  0  0  0  0  0  0
  151.5558  143.6805  159.5120 C   0  0  0  0  0  0  0  0  0  0  0  0
  151.6673  142.3470  159.0665 C   0  0  0  0  0  0  0  0  0  0  0  0
  152.8043  141.6440  159.4636 C   0  0  0  0  0  0  0  0  0  0  0  0
  150.5339  137.9093  155.0892 H   0  0  0  0  0  0  0  0  0  0  0  0
  149.9021  139.4886  155.5565 H   0  0  0  0  0  0  0  0  0  0  0  0
  150.1287  138.2232  156.7772 H   0  0  0  0  0  0  0  0  0  0  0  0
  152.6624  140.8788  156.7871 H   0  0  0  0  0  0  0  0  0  0  0  0
  150.9861  140.5762  157.2181 H   0  0  0  0  0  0  0  0  0  0  0  0
  151.5387  139.1490  158.9940 H   0  0  0  0  0  0  0  0  0  0  0  0
  152.9741  138.5337  158.2086 H   0  0  0  0  0  0  0  0  0  0  0  0
  156.2587  139.4162  161.9583 H   0  0  0  0  0  0  0  0  0  0  0  0
  155.1331  138.0958  162.1763 H   0  0  0  0  0  0  0  0  0  0  0  0
  155.9878  136.2699  162.8507 H   0  0  0  0  0  0  0  0  0  0  0  0
  158.8091  135.5200  162.2263 H   0  0  0  0  0  0  0  0  0  0  0  0
  156.2972  134.0044  162.0042 H   0  0  0  0  0  0  0  0  0  0  0  0
  157.9124  133.4568  161.6004 H   0  0  0  0  0  0  0  0  0  0  0  0
  156.5046  132.3975  163.7225 H   0  0  0  0  0  0  0  0  0  0  0  0
  158.2598  132.5365  163.7312 H   0  0  0  0  0  0  0  0  0  0  0  0
  156.2671  134.4711  164.9570 H   0  0  0  0  0  0  0  0  0  0  0  0
  157.6678  133.7408  165.7418 H   0  0  0  0  0  0  0  0  0  0  0  0
  159.1910  135.0744  164.4401 H   0  0  0  0  0  0  0  0  0  0  0  0
  157.9148  136.2334  164.7663 H   0  0  0  0  0  0  0  0  0  0  0  0
  154.4592  144.0128  161.3289 H   0  0  0  0  0  0  0  0  0  0  0  0
  152.4282  145.2965  160.6403 H   0  0  0  0  0  0  0  0  0  0  0  0
  150.6896  144.2610  159.2288 H   0  0  0  0  0  0  0  0  0  0  0  0
  150.9000  141.9025  158.4499 H   0  0  0  0  0  0  0  0  0  0  0  0
  155.6389  141.3960  161.0082 H   0  0  0  0  0  0  0  0  0  0  0  0
  1  2  1  0  0  0  0
  1 24  1  0  0  0  0
  1 25  1  0  0  0  0
  1 26  1  0  0  0  0
  2  3  1  0  0  0  0
  3  4  1  0  0  0  0
  3 27  1  0  0  0  0
  3 28  1  0  0  0  0
  4  5  1  0  0  0  0
  4 29  1  0  0  0  0
  4 30  1  0  0  0  0
  5 23  1  0  0  0  0
  5  6  1  0  0  0  0
  6  7  1  0  0  0  0
  6 17  2  0  0  0  0
  7  8  1  0  0  0  0
  8  9  1  0  0  0  0
  8 31  1  0  0  0  0
  8 32  1  0  0  0  0
  9 10  2  0  0  0  0
  9 11  1  0  0  0  0
 11 12  1  0  0  0  0
 11 33  1  0  0  0  0
 12 16  1  0  0  0  0
 12 13  1  0  0  0  0
 12 34  1  0  0  0  0
 13 14  1  0  0  0  0
 13 35  1  0  0  0  0
 13 36  1  0  0  0  0
 14 15  1  0  0  0  0
 14 37  1  0  0  0  0
 14 38  1  0  0  0  0
 15 16  1  0  0  0  0
 15 39  1  0  0  0  0
 15 40  1  0  0  0  0
 16 41  1  0  0  0  0
 16 42  1  0  0  0  0
 17 18  1  0  0  0  0
 17 47  1  0  0  0  0
 18 23  2  0  0  0  0
 18 19  1  0  0  0  0
 19 20  2  0  0  0  0
 19 43  1  0  0  0  0
 20 21  1  0  0  0  0
 20 44  1  0  0  0  0
 21 22  2  0  0  0  0
 21 45  1  0  0  0  0
 22 23  1  0  0  0  0
 22 46  1  0  0  0  0
M  CHG  1  17   1
M  END
> <s_m_source_file>
AV-unprocessed.smi

> <i_m_source_file_index>
1378

> <i_lp_mmshare_version>
43012

> <i_f3d_flags>
0

> <s_epik_input>
W2NIXTFbY0hdW2NIXVtjSF1jKGMxMiluKFtDSDJdW0NIMl1PW0NIM10pYyhuMilTW0NIMl1DKD1PKVtOSF1bQ0hdM1tDSDJdW0NIMl1bQ0gyXVtDSDJdMw==

> <s_epik_cmdline>
J2VwaWtfcHl0aG9uJywgJy1waCcsICc3LjAnLCAnLXRuJywgJzgnLCAnLW1hJywgJzIwMCcsICctbWV0YWxfYmluZGluZycsICctaW1hZScsICc8aW5maWxlLm1hZT4nLCAnLW9tYWUnLCAnPG91dGZpbGUubWFlPic=

> <r_epik_Ionization_Penalty>
1.66257

> <r_epik_Ionization_Penalty_Charging>
1.66257

> <r_epik_Ionization_Penalty_Neutral>
9.72138e-08

> <r_epik_State_Penalty>
1.76557

> <r_epik_Charging_Adjusted_Penalty>
3.42813

> <i_epik_Tot_Q>
1

> <i_epik_Tot_abs_Q>
1

> <r_epik_Metal_State_Penalty>
1.80074

> <b_epik_Metal_Only>
0

> <s_lp_Force_Field>
OPLS_2005

> <r_lp_Energy>
23.1428

> <b_lp_Chiralities_Consistent>
1

> <s_lp_Variant>
AV-unprocessed.smi:1378-2

> <Gold.Version>
5.8.1

> <Gold.Id.Protein>
6NUR|6NUR_protein|mol2

> <Gold.PLP.Fitness>
42.2211

> <Gold.PLP.PLP>
-43.9510

> <Gold.PLP.part.hbond>
-0.1272

> <Gold.PLP.part.metal>
0.0000

> <Gold.PLP.part.buried>
-4.4100

> <Gold.PLP.part.nonpolar>
-39.3105

> <Gold.PLP.part.repulsive>
0.0675

> <Gold.PLP.ligand.clash>
0.0000

> <Gold.PLP.ligand.torsion>
0.9245

> <Gold.PLP.Chemscore.Hbond>
0.0000

> <Gold.PLP.Chemscore.CHOScore>
0.0000

> <Gold.PLP.Chemscore.Metal>
0.0000

> <Gold.PLP.Chemscore.Internal.Correction>
0.1191

> <Gold.Rescore>
     Score         DG    S(hbond)    S(metal)    S(lipo)     H(rot)  DE(clash)    DE(int)     intcor
     14.38     -14.96       0.00        0.00     126.03       2.06       0.09       0.49       ----

> <Gold.Chemscore.Fitness>
14.3824

> <Gold.Chemscore.DG>
-14.9602

> <Gold.Chemscore.ZeroCoef>
-5.4800

> <Gold.Chemscore.Hbond>
0.0000

> <Gold.Chemscore.Metal>
0.0000

> <Gold.Chemscore.Lipo>
126.0295

> <Gold.Chemscore.Internal_Hbond>
0.0000

> <Gold.Chemscore.DEClash>
0.0871

> <Gold.Chemscore.DEInternal>
0.4907

> <Gold.Chemscore.Rot>
2.0567

> <Gold.Chemscore.Internal.Correction>
   9.000000E+99

> <Gold.Chemscore.Hbond.Weighted>
-0.0000

> <Gold.Chemscore.Metal.Weighted>
-0.0000

> <Gold.Chemscore.Lipo.Weighted>
-14.7454

> <Gold.Chemscore.Internal_Hbond.Weighted>
0.0000

> <Gold.Chemscore.DEClash.Weighted>
0.0871

> <Gold.Chemscore.DEInternal.Weighted>
0.4907

> <Gold.Chemscore.Rot.Weighted>
5.2652

> <Gold.Chemscore.Internal.Correction.Weighted>
   9.000000E+99

> <Gold.Protein.RotatedTorsions>
[ 6907 6896 6895 6894 ] final -157.54 input  -60.11 | X-H torsion
[ 7974 7965 7964 7962 ] final  175.86 input  175.53 | X-H torsion
[ 8008 7997 7996 7995 ] final  -29.55 input   59.86 | X-H torsion
[ 10167 10162 10161 10158 ] final  -95.16 input  -65.29 | X-H torsion
[ 10718 10713 10712 10709 ] final   51.62 input   66.30 | X-H torsion
[ 10763 10752 10751 10750 ] final -101.37 input  -60.55 | X-H torsion
[ 11005 11000 10999 10996 ] final   22.54 input  -57.11 | X-H torsion

> <Gold.Protein.ActiveResidues>
 VAL166  LYS551  ARG553  GLY616  TRP617  ASP618  TYR619  PRO620  LYS621  CYS622 
 ASP623  PHE694  ASN695  SER759  ASP760  ASP761  ALA762  ILE779  LEU786  VAL792 
 PHE793  MET794  SER795  GLU796  ALA797  LYS798  CYS799  TRP800  GLU811  SER814 

> <Gold.Protein.RotatedAtoms>
  151.3044  133.4108  159.2641 H   0  0  0  0  0  0  0  0  0  0  0  0  # atno 6907 bound_to 6896
  151.0168  134.9439  159.8048 H   0  0  0  0  0  0  0  0  0  0  0  0  # atno 6908 bound_to 6896
  152.5314  134.3008  159.9130 H   0  0  0  0  0  0  0  0  0  0  0  0  # atno 6909 bound_to 6896
  144.7194  140.0010  143.6440 H   0  0  0  0  0  0  0  0  0  0  0  0  # atno 7974 bound_to 7965
  154.4285  140.1815  156.1265 H   0  0  0  0  0  0  0  0  0  0  0  0  # atno 8008 bound_to 7997
  156.0101  140.3351  155.6907 H   0  0  0  0  0  0  0  0  0  0  0  0  # atno 8009 bound_to 7997
  155.6122  140.0651  157.2693 H   0  0  0  0  0  0  0  0  0  0  0  0  # atno 8010 bound_to 7997
  140.3070  143.3128  152.0189 H   0  0  0  0  0  0  0  0  0  0  0  0  # atno 10167 bound_to 10162
  157.4998  130.8430  149.8303 H   0  0  0  0  0  0  0  0  0  0  0  0  # atno 10718 bound_to 10713
  154.7652  135.4900  153.9541 H   0  0  0  0  0  0  0  0  0  0  0  0  # atno 10763 bound_to 10752
  153.1299  135.6750  153.9202 H   0  0  0  0  0  0  0  0  0  0  0  0  # atno 10764 bound_to 10752
  153.8909  135.3121  155.3426 H   0  0  0  0  0  0  0  0  0  0  0  0  # atno 10765 bound_to 10752
  140.3795  134.1936  155.7664 H   0  0  0  0  0  0  0  0  0  0  0  0  # atno 11005 bound_to 11000
  146.0335  139.3356  143.0741 LP  0  0  0  0  0  0  0  0  0  0  0  0  # atno 17320 bound_to 7965
  145.8423  140.9574  143.0793 LP  0  0  0  0  0  0  0  0  0  0  0  0  # atno 17321 bound_to 7965
  139.4902  144.6413  151.6870 LP  0  0  0  0  0  0  0  0  0  0  0  0  # atno 17342 bound_to 10162
  140.5602  144.0282  150.6166 LP  0  0  0  0  0  0  0  0  0  0  0  0  # atno 17343 bound_to 10162
  156.0222  130.3791  150.1927 LP  0  0  0  0  0  0  0  0  0  0  0  0  # atno 17370 bound_to 10713
  157.0117  130.9953  151.3364 LP  0  0  0  0  0  0  0  0  0  0  0  0  # atno 17371 bound_to 10713
  141.1928  133.8165  157.0824 LP  0  0  0  0  0  0  0  0  0  0  0  0  # atno 17394 bound_to 11000
  140.0489  134.9816  157.1101 LP  0  0  0  0  0  0  0  0  0  0  0  0  # atno 17395 bound_to 11000

$$$$
