AV-unprocessed.smi:1829|AV-procd|sdf|7431|dock4
  -GOLD-   22720 9113D 1   1.00000     0.00000
 Structure written by MMmdl.
 46 48  0  0  0  0  0  0  0  0  2 V2000
  148.0669  133.3755  153.0256 C   0  0  0  0  0  0  0  0  0  0  0  0
  149.2673  133.4377  153.9826 C   0  0  0  0  0  0  0  0  0  0  0  0
  149.2876  132.2415  154.9477 C   0  0  0  0  0  0  0  0  0  0  0  0
  149.3172  134.7666  154.7254 C   0  0  0  0  0  0  0  0  0  0  0  0
  150.4486  135.6013  154.6054 C   0  0  0  0  0  0  0  0  0  0  0  0
  150.4944  136.8394  155.2747 C   0  0  0  0  0  0  0  0  0  0  0  0
  149.4089  137.2568  156.0752 C   0  0  0  0  0  0  0  0  0  0  0  0
  149.4218  138.6143  156.7650 C   0  0  1  0  0  0  0  0  0  0  0  0
  148.9323  138.5544  158.0887 O   0  0  0  0  0  0  0  0  0  0  0  0
  150.8278  139.2490  156.7951 C   0  0  0  0  0  0  0  0  0  0  0  0
  150.7843  140.7151  156.9253 N   0  0  0  0  0  0  0  0  0  0  0  0
  150.1044  141.6404  156.1881 C   0  0  0  0  0  0  0  0  0  0  0  0
  149.1905  141.3799  155.0363 C   0  0  0  0  0  0  0  0  0  0  0  0
  148.5084  142.5426  154.6224 O   0  0  0  0  0  0  0  0  0  0  0  0
  150.4055  142.8663  156.7008 N   0  3  0  0  0  0  0  0  0  0  0  0
  151.2872  142.7275  157.7728 C   0  0  0  0  0  0  0  0  0  0  0  0
  151.8744  143.6822  158.5973 C   0  0  0  0  0  0  0  0  0  0  0  0
  152.7402  143.2041  159.6026 C   0  0  0  0  0  0  0  0  0  0  0  0
  152.9906  141.8259  159.7607 C   0  0  0  0  0  0  0  0  0  0  0  0
  152.3843  140.8675  158.9228 C   0  0  0  0  0  0  0  0  0  0  0  0
  151.5326  141.3473  157.9272 C   0  0  0  0  0  0  0  0  0  0  0  0
  148.2821  136.4177  156.2036 C   0  0  0  0  0  0  0  0  0  0  0  0
  148.2345  135.1826  155.5304 C   0  0  0  0  0  0  0  0  0  0  0  0
  148.0932  134.1986  152.3108 H   0  0  0  0  0  0  0  0  0  0  0  0
  147.1200  133.4311  153.5634 H   0  0  0  0  0  0  0  0  0  0  0  0
  148.0687  132.4457  152.4558 H   0  0  0  0  0  0  0  0  0  0  0  0
  150.1679  133.3672  153.3712 H   0  0  0  0  0  0  0  0  0  0  0  0
  150.1708  132.2698  155.5867 H   0  0  0  0  0  0  0  0  0  0  0  0
  149.3087  131.2982  154.4012 H   0  0  0  0  0  0  0  0  0  0  0  0
  148.4091  132.2266  155.5932 H   0  0  0  0  0  0  0  0  0  0  0  0
  151.2853  135.2998  153.9923 H   0  0  0  0  0  0  0  0  0  0  0  0
  151.3623  137.4718  155.1583 H   0  0  0  0  0  0  0  0  0  0  0  0
  148.7445  139.2765  156.2240 H   0  0  0  0  0  0  0  0  0  0  0  0
  148.0769  138.1533  158.0758 H   0  0  0  0  0  0  0  0  0  0  0  0
  151.3860  138.8748  157.6544 H   0  0  0  0  0  0  0  0  0  0  0  0
  151.4111  138.9747  155.9160 H   0  0  0  0  0  0  0  0  0  0  0  0
  149.7685  140.9891  154.1984 H   0  0  0  0  0  0  0  0  0  0  0  0
  148.4615  140.6156  155.3050 H   0  0  0  0  0  0  0  0  0  0  0  0
  148.8865  143.2871  155.0653 H   0  0  0  0  0  0  0  0  0  0  0  0
  151.6841  144.7387  158.4778 H   0  0  0  0  0  0  0  0  0  0  0  0
  153.2219  143.9086  160.2654 H   0  0  0  0  0  0  0  0  0  0  0  0
  153.6621  141.4959  160.5400 H   0  0  0  0  0  0  0  0  0  0  0  0
  152.5891  139.8157  159.0539 H   0  0  0  0  0  0  0  0  0  0  0  0
  147.4404  136.7278  156.8054 H   0  0  0  0  0  0  0  0  0  0  0  0
  147.3586  134.5589  155.6302 H   0  0  0  0  0  0  0  0  0  0  0  0
  150.0302  143.7343  156.3409 H   0  0  0  0  0  0  0  0  0  0  0  0
  1  2  1  0  0  0  0
  1 24  1  0  0  0  0
  1 25  1  0  0  0  0
  1 26  1  0  0  0  0
  2  3  1  0  0  0  0
  2  4  1  0  0  0  0
  2 27  1  0  0  0  0
  3 28  1  0  0  0  0
  3 29  1  0  0  0  0
  3 30  1  0  0  0  0
  4 23  1  0  0  0  0
  4  5  2  0  0  0  0
  5  6  1  0  0  0  0
  5 31  1  0  0  0  0
  6  7  2  0  0  0  0
  6 32  1  0  0  0  0
  7  8  1  0  0  0  0
  7 22  1  0  0  0  0
  8  9  1  0  0  0  0
  8 10  1  0  0  0  0
  8 33  1  0  0  0  0
  9 34  1  0  0  0  0
 10 11  1  0  0  0  0
 10 35  1  0  0  0  0
 10 36  1  0  0  0  0
 11 21  1  0  0  0  0
 11 12  1  0  0  0  0
 12 13  1  0  0  0  0
 12 15  2  0  0  0  0
 13 14  1  0  0  0  0
 13 37  1  0  0  0  0
 13 38  1  0  0  0  0
 14 39  1  0  0  0  0
 15 16  1  0  0  0  0
 15 46  1  0  0  0  0
 16 21  2  0  0  0  0
 16 17  1  0  0  0  0
 17 18  2  0  0  0  0
 17 40  1  0  0  0  0
 18 19  1  0  0  0  0
 18 41  1  0  0  0  0
 19 20  2  0  0  0  0
 19 42  1  0  0  0  0
 20 21  1  0  0  0  0
 20 43  1  0  0  0  0
 22 23  2  0  0  0  0
 22 44  1  0  0  0  0
 23 45  1  0  0  0  0
M  CHG  1  15   1
M  END
> <s_m_source_file>
AV-unprocessed.smi

> <i_m_source_file_index>
1829

> <i_lp_mmshare_version>
43012

> <i_f3d_flags>
0

> <s_epik_input>
W0NIM11bQ0hdKFtDSDNdKWMxW2NIXVtjSF1jKFtjSF1bY0hdMSlbQ0BIXShbT0hdKVtDSDJdbihjKG4yKVtDSDJdW09IXSljKGMyMylbY0hdW2NIXVtjSF1bY0hdMw==

> <s_epik_cmdline>
J2VwaWtfcHl0aG9uJywgJy1waCcsICc3LjAnLCAnLXRuJywgJzgnLCAnLW1hJywgJzIwMCcsICctbWV0YWxfYmluZGluZycsICctaW1hZScsICc8aW5maWxlLm1hZT4nLCAnLW9tYWUnLCAnPG91dGZpbGUubWFlPic=

> <r_epik_Ionization_Penalty>
1.35642

> <r_epik_Ionization_Penalty_Charging>
1.35557

> <r_epik_Ionization_Penalty_Neutral>
0.000856322

> <r_epik_State_Penalty>
1.43401

> <r_epik_Charging_Adjusted_Penalty>
2.78958

> <i_epik_Tot_Q>
1

> <i_epik_Tot_abs_Q>
1

> <r_epik_Metal_State_Penalty>
5.47166

> <b_epik_Metal_Only>
0

> <s_lp_Force_Field>
OPLS_2005

> <r_lp_Energy>
15.3906

> <b_lp_Chiralities_Consistent>
1

> <s_lp_Variant>
AV-unprocessed.smi:1829-4

> <Gold.Version>
5.8.1

> <Gold.Id.Protein>
6NUR|6NUR_protein|mol2

> <Gold.PLP.Fitness>
52.6766

> <Gold.PLP.PLP>
-44.7302

> <Gold.PLP.part.hbond>
-3.0000

> <Gold.PLP.part.metal>
0.0000

> <Gold.PLP.part.buried>
-4.7163

> <Gold.PLP.part.nonpolar>
-37.6145

> <Gold.PLP.part.repulsive>
0.0950

> <Gold.PLP.ligand.clash>
0.0000

> <Gold.PLP.ligand.torsion>
0.7847

> <Gold.PLP.Chemscore.Hbond>
3.1422

> <Gold.PLP.Chemscore.CHOScore>
0.0000

> <Gold.PLP.Chemscore.Metal>
0.0000

> <Gold.Chemscore.Hbonds>
donor molecule, donor type, donor heavy atom, donor atom, acceptor molecule, acceptor atom, score
      L1  H    14    39       P1  8028  1.00
      L1  H    15    46       P1  8028  2.00

> <Gold.PLP.Chemscore.Internal.Correction>
0.0893

> <Gold.Rescore>
     Score         DG    S(hbond)    S(metal)    S(lipo)     H(rot)  DE(clash)    DE(int)     intcor
     17.51     -18.61       1.94        0.00     117.16       2.75       0.09       1.00       ----

> <Gold.Chemscore.Fitness>
17.5107

> <Gold.Chemscore.DG>
-18.6067

> <Gold.Chemscore.ZeroCoef>
-5.4800

> <Gold.Chemscore.Hbond>
1.9377

> <Gold.Chemscore.Metal>
0.0000

> <Gold.Chemscore.Lipo>
117.1587

> <Gold.Chemscore.Internal_Hbond>
0.0000

> <Gold.Chemscore.DEClash>
0.0916

> <Gold.Chemscore.DEInternal>
1.0045

> <Gold.Chemscore.Rot>
2.7550

> <Gold.Chemscore.Internal.Correction>
   9.000000E+99

> <Gold.Chemscore.Hbonds>
donor molecule, donor type, donor heavy atom, donor atom, acceptor molecule, acceptor atom, score
      L1  H    14    39       P1  8028  0.91
      L1  H    15    46       P1  8028  0.99

> <Gold.Chemscore.Hbond.Weighted>
-6.4718

> <Gold.Chemscore.Metal.Weighted>
-0.0000

> <Gold.Chemscore.Lipo.Weighted>
-13.7076

> <Gold.Chemscore.Internal_Hbond.Weighted>
0.0000

> <Gold.Chemscore.DEClash.Weighted>
0.0916

> <Gold.Chemscore.DEInternal.Weighted>
1.0045

> <Gold.Chemscore.Rot.Weighted>
7.0527

> <Gold.Chemscore.Internal.Correction.Weighted>
   9.000000E+99

> <Gold.Protein.RotatedTorsions>
[ 6907 6896 6895 6894 ] final  100.19 input  -60.11 | X-H torsion
[ 7974 7965 7964 7962 ] final   32.32 input  175.53 | X-H torsion
[ 8008 7997 7996 7995 ] final  121.67 input   59.86 | X-H torsion
[ 10167 10162 10161 10158 ] final  -68.61 input  -65.29 | X-H torsion
[ 10718 10713 10712 10709 ] final  -79.65 input   66.30 | X-H torsion
[ 10763 10752 10751 10750 ] final  -47.62 input  -60.55 | X-H torsion
[ 11005 11000 10999 10996 ] final   65.59 input  -57.11 | X-H torsion

> <Gold.Protein.ActiveResidues>
 VAL166  LYS551  ARG553  GLY616  TRP617  ASP618  TYR619  PRO620  LYS621  CYS622 
 ASP623  PHE694  ASN695  SER759  ASP760  ASP761  ALA762  ILE779  LEU786  VAL792 
 PHE793  MET794  SER795  GLU796  ALA797  LYS798  CYS799  TRP800  GLU811  SER814 

> <Gold.Protein.RotatedAtoms>
  152.5377  134.0315  159.8026 H   0  0  0  0  0  0  0  0  0  0  0  0  # atno 6907 bound_to 6896
  151.0485  133.5637  159.2651 H   0  0  0  0  0  0  0  0  0  0  0  0  # atno 6908 bound_to 6896
  151.2580  135.0652  159.9141 H   0  0  0  0  0  0  0  0  0  0  0  0  # atno 6909 bound_to 6896
  146.1494  139.6541  142.9109 H   0  0  0  0  0  0  0  0  0  0  0  0  # atno 7974 bound_to 7965
  156.2696  140.2803  156.1345 H   0  0  0  0  0  0  0  0  0  0  0  0  # atno 8008 bound_to 7997
  155.1019  140.0390  157.2717 H   0  0  0  0  0  0  0  0  0  0  0  0  # atno 8009 bound_to 7997
  154.6808  140.2608  155.6916 H   0  0  0  0  0  0  0  0  0  0  0  0  # atno 8010 bound_to 7997
  140.5494  143.2312  151.6940 H   0  0  0  0  0  0  0  0  0  0  0  0  # atno 10167 bound_to 10162
  156.0087  130.4552  150.3681 H   0  0  0  0  0  0  0  0  0  0  0  0  # atno 10718 bound_to 10713
  154.0644  135.6613  153.4816 H   0  0  0  0  0  0  0  0  0  0  0  0  # atno 10763 bound_to 10752
  153.0414  135.5142  154.7627 H   0  0  0  0  0  0  0  0  0  0  0  0  # atno 10764 bound_to 10752
  154.6674  135.3024  154.9754 H   0  0  0  0  0  0  0  0  0  0  0  0  # atno 10765 bound_to 10752
  139.9885  134.6630  156.0134 H   0  0  0  0  0  0  0  0  0  0  0  0  # atno 11005 bound_to 11000
  145.4860  141.0438  143.2619 LP  0  0  0  0  0  0  0  0  0  0  0  0  # atno 17320 bound_to 7965
  144.7885  139.6377  143.7123 LP  0  0  0  0  0  0  0  0  0  0  0  0  # atno 17321 bound_to 7965
  139.5021  144.3843  152.0345 LP  0  0  0  0  0  0  0  0  0  0  0  0  # atno 17342 bound_to 10162
  140.2958  144.3702  150.6075 LP  0  0  0  0  0  0  0  0  0  0  0  0  # atno 17343 bound_to 10162
  157.1767  131.0382  151.2769 LP  0  0  0  0  0  0  0  0  0  0  0  0  # atno 17370 bound_to 10713
  157.4182  130.7422  149.6892 LP  0  0  0  0  0  0  0  0  0  0  0  0  # atno 17371 bound_to 10713
  141.1545  133.6544  156.4118 LP  0  0  0  0  0  0  0  0  0  0  0  0  # atno 17394 bound_to 11000
  140.4955  134.6534  157.5228 LP  0  0  0  0  0  0  0  0  0  0  0  0  # atno 17395 bound_to 11000

$$$$
