AV-unprocessed.smi:3344|AV-procd|sdf|12898|dock6
  -GOLD-   2272019303D 1   1.00000     0.00000
 Structure written by MMmdl.
 43 44  0  0  0  0  0  0  0  0  2 V2000
  149.4321  141.0228  154.1107 C   0  0  0  0  0  0  0  0  0  0  0  0
  149.3639  139.7058  154.9101 C   0  0  1  0  0  0  0  0  0  0  0  0
  148.0421  138.9523  154.6930 C   0  0  0  0  0  0  0  0  0  0  0  0
  147.3537  138.6006  155.6516 O   0  0  0  0  0  0  0  0  0  0  0  0
  147.6959  138.7087  153.4189 N   0  0  0  0  0  0  0  0  0  0  0  0
  146.4752  138.0289  153.0018 C   0  0  0  0  0  0  0  0  0  0  0  0
  146.4606  136.5566  153.4597 C   0  0  0  0  0  0  0  0  0  0  0  0
  146.5355  135.5951  152.3267 N   0  3  0  0  0  0  0  0  0  0  0  0
  145.5397  135.8972  151.2603 C   0  0  0  0  0  0  0  0  0  0  0  0
  144.1485  135.2748  151.4862 C   0  0  0  0  0  0  0  0  0  0  0  0
  144.0124  133.8846  150.8458 C   0  0  0  0  0  0  0  0  0  0  0  0
  144.8332  132.7902  151.5407 C   0  0  0  0  0  0  0  0  0  0  0  0
  146.3286  133.1178  151.6896 C   0  0  0  0  0  0  0  0  0  0  0  0
  146.6064  134.1749  152.7765 C   0  0  0  0  0  0  0  0  0  0  0  0
  150.4954  138.8313  154.6267 N   0  0  0  0  0  0  0  0  0  0  0  0
  150.5169  137.5666  154.1998 C   0  0  0  0  0  0  0  0  0  0  0  0
  151.7361  137.0850  154.0018 N   0  0  0  0  0  0  0  0  0  0  0  0
  152.4732  138.1843  154.3403 C   0  0  0  0  0  0  0  0  0  0  0  0
  151.7796  139.2606  154.7109 N   0  0  0  0  0  0  0  0  0  0  0  0
  148.6050  141.6840  154.3716 H   0  0  0  0  0  0  0  0  0  0  0  0
  149.3916  140.8534  153.0338 H   0  0  0  0  0  0  0  0  0  0  0  0
  150.3575  141.5586  154.3243 H   0  0  0  0  0  0  0  0  0  0  0  0
  149.4206  139.9694  155.9678 H   0  0  0  0  0  0  0  0  0  0  0  0
  148.3144  139.0303  152.6881 H   0  0  0  0  0  0  0  0  0  0  0  0
  145.6030  138.5603  153.3866 H   0  0  0  0  0  0  0  0  0  0  0  0
  146.4283  138.0967  151.9152 H   0  0  0  0  0  0  0  0  0  0  0  0
  147.2775  136.3672  154.1574 H   0  0  0  0  0  0  0  0  0  0  0  0
  145.5373  136.3814  154.0133 H   0  0  0  0  0  0  0  0  0  0  0  0
  145.4373  136.9781  151.1561 H   0  0  0  0  0  0  0  0  0  0  0  0
  145.9429  135.5711  150.3009 H   0  0  0  0  0  0  0  0  0  0  0  0
  143.8857  135.2509  152.5444 H   0  0  0  0  0  0  0  0  0  0  0  0
  143.4100  135.9238  151.0141 H   0  0  0  0  0  0  0  0  0  0  0  0
  142.9624  133.5901  150.8583 H   0  0  0  0  0  0  0  0  0  0  0  0
  144.2917  133.9377  149.7928 H   0  0  0  0  0  0  0  0  0  0  0  0
  144.4043  132.5761  152.5206 H   0  0  0  0  0  0  0  0  0  0  0  0
  144.7301  131.8685  150.9668 H   0  0  0  0  0  0  0  0  0  0  0  0
  146.8294  132.1970  151.9913 H   0  0  0  0  0  0  0  0  0  0  0  0
  146.7779  133.3917  150.7344 H   0  0  0  0  0  0  0  0  0  0  0  0
  147.6142  134.0075  153.1568 H   0  0  0  0  0  0  0  0  0  0  0  0
  145.9360  134.0150  153.6223 H   0  0  0  0  0  0  0  0  0  0  0  0
  149.6223  136.9861  154.0270 H   0  0  0  0  0  0  0  0  0  0  0  0
  153.5527  138.1943  154.3060 H   0  0  0  0  0  0  0  0  0  0  0  0
  147.4251  135.7821  151.8861 H   0  0  0  0  0  0  0  0  0  0  0  0
  1  2  1  0  0  0  0
  1 20  1  0  0  0  0
  1 21  1  0  0  0  0
  1 22  1  0  0  0  0
  2  3  1  0  0  0  0
  2 15  1  0  0  0  0
  2 23  1  0  0  0  0
  3  4  2  0  0  0  0
  3  5  1  0  0  0  0
  5  6  1  0  0  0  0
  5 24  1  0  0  0  0
  6  7  1  0  0  0  0
  6 25  1  0  0  0  0
  6 26  1  0  0  0  0
  7  8  1  0  0  0  0
  7 27  1  0  0  0  0
  7 28  1  0  0  0  0
  8 14  1  0  0  0  0
  8  9  1  0  0  0  0
  8 43  1  0  0  0  0
  9 10  1  0  0  0  0
  9 29  1  0  0  0  0
  9 30  1  0  0  0  0
 10 11  1  0  0  0  0
 10 31  1  0  0  0  0
 10 32  1  0  0  0  0
 11 12  1  0  0  0  0
 11 33  1  0  0  0  0
 11 34  1  0  0  0  0
 12 13  1  0  0  0  0
 12 35  1  0  0  0  0
 12 36  1  0  0  0  0
 13 14  1  0  0  0  0
 13 37  1  0  0  0  0
 13 38  1  0  0  0  0
 14 39  1  0  0  0  0
 14 40  1  0  0  0  0
 15 19  1  0  0  0  0
 15 16  1  0  0  0  0
 16 17  2  0  0  0  0
 16 41  1  0  0  0  0
 17 18  1  0  0  0  0
 18 19  2  0  0  0  0
 18 42  1  0  0  0  0
M  CHG  1   8   1
M  END
> <s_m_source_file>
AV-unprocessed.smi

> <i_m_source_file_index>
3344

> <i_lp_mmshare_version>
43012

> <i_f3d_flags>
0

> <s_epik_input>
bjFbY0hdbltjSF1uMVtDQEhdKFtDSDNdKUMoPU8pW05IXVtDSDJdW0NIMl1OMltDSDJdW0NIMl1bQ0gyXVtDSDJdW0NIMl1bQ0gyXTI=

> <s_epik_cmdline>
J2VwaWtfcHl0aG9uJywgJy1waCcsICc3LjAnLCAnLXRuJywgJzgnLCAnLW1hJywgJzIwMCcsICctbWV0YWxfYmluZGluZycsICctaW1hZScsICc8aW5maWxlLm1hZT4nLCAnLW9tYWUnLCAnPG91dGZpbGUubWFlPic=

> <r_lp_tautomer_probability>
1

> <r_epik_Ionization_Penalty>
0.00266407

> <r_epik_Ionization_Penalty_Charging>
0.00265606

> <r_epik_Ionization_Penalty_Neutral>
8.01095e-06

> <r_epik_State_Penalty>
0.00184955

> <r_epik_Charging_Adjusted_Penalty>
0.00450561

> <i_epik_Tot_Q>
1

> <i_epik_Tot_abs_Q>
1

> <r_epik_Metal_State_Penalty>
-0

> <b_epik_Metal_Only>
0

> <s_lp_Force_Field>
OPLS_2005

> <r_lp_Energy>
28.0166

> <b_lp_Chiralities_Consistent>
1

> <s_lp_Variant>
AV-unprocessed.smi:3344-2

> <Gold.Version>
5.8.1

> <Gold.Id.Protein>
6NUR|6NUR_protein|mol2

> <Gold.PLP.Fitness>
44.7144

> <Gold.PLP.PLP>
-30.0852

> <Gold.PLP.part.hbond>
-3.5114

> <Gold.PLP.part.metal>
0.0000

> <Gold.PLP.part.buried>
-0.5150

> <Gold.PLP.part.nonpolar>
-26.6915

> <Gold.PLP.part.repulsive>
0.6852

> <Gold.PLP.ligand.clash>
0.0000

> <Gold.PLP.ligand.torsion>
0.6412

> <Gold.PLP.Chemscore.Hbond>
4.4138

> <Gold.PLP.Chemscore.CHOScore>
0.8424

> <Gold.PLP.Chemscore.Metal>
0.0000

> <Gold.Chemscore.Hbonds>
donor molecule, donor type, donor heavy atom, donor atom, acceptor molecule, acceptor atom, score
      L1  H     5    24       P1  7957  0.50
      L1  H     8    43       P1  7948  2.00
      P1  H  7989  7998       L1    19  0.95
      P1  H 10752 10764       L1    17  1.00
      L1  C    16    41       P1  7948  0.84

> <Gold.PLP.Chemscore.Internal.Correction>
0.1432

> <Gold.Rescore>
     Score         DG    S(hbond)    S(metal)    S(lipo)     H(rot)  DE(clash)    DE(int)     intcor
     13.45     -14.92       2.86        0.00      54.42       2.54       0.33       1.14       ----

> <Gold.Chemscore.Fitness>
13.4482

> <Gold.Chemscore.DG>
-14.9153

> <Gold.Chemscore.ZeroCoef>
-5.4800

> <Gold.Chemscore.Hbond>
2.8636

> <Gold.Chemscore.Metal>
0.0000

> <Gold.Chemscore.Lipo>
54.4225

> <Gold.Chemscore.Internal_Hbond>
0.0000

> <Gold.Chemscore.DEClash>
0.3305

> <Gold.Chemscore.DEInternal>
1.1366

> <Gold.Chemscore.Rot>
2.5377

> <Gold.Chemscore.Internal.Correction>
   9.000000E+99

> <Gold.Chemscore.Hbonds>
donor molecule, donor type, donor heavy atom, donor atom, acceptor molecule, acceptor atom, score
      L1  H     5    24       P1  7957  0.50
      L1  H     8    43       P1  7948  0.95
      P1  H  7989  7998       L1    19  0.19
      P1  H 10752 10764       L1    17  0.39

> <Gold.Chemscore.Hbond.Weighted>
-9.5645

> <Gold.Chemscore.Metal.Weighted>
-0.0000

> <Gold.Chemscore.Lipo.Weighted>
-6.3674

> <Gold.Chemscore.Internal_Hbond.Weighted>
0.0000

> <Gold.Chemscore.DEClash.Weighted>
0.3305

> <Gold.Chemscore.DEInternal.Weighted>
1.1366

> <Gold.Chemscore.Rot.Weighted>
6.4966

> <Gold.Chemscore.Internal.Correction.Weighted>
   9.000000E+99

> <Gold.Protein.RotatedTorsions>
[ 6907 6896 6895 6894 ] final  -86.02 input  -60.11 | X-H torsion
[ 7974 7965 7964 7962 ] final -101.81 input  175.53 | X-H torsion
[ 8008 7997 7996 7995 ] final  115.14 input   59.86 | X-H torsion
[ 10167 10162 10161 10158 ] final   87.25 input  -65.29 | X-H torsion
[ 10718 10713 10712 10709 ] final  132.30 input   66.30 | X-H torsion
[ 10763 10752 10751 10750 ] final  -84.80 input  -60.55 | X-H torsion
[ 11005 11000 10999 10996 ] final  121.24 input  -57.11 | X-H torsion

> <Gold.Protein.ActiveResidues>
 VAL166  LYS551  ARG553  GLY616  TRP617  ASP618  TYR619  PRO620  LYS621  CYS622 
 ASP623  PHE694  ASN695  SER759  ASP760  ASP761  ALA762  ILE779  LEU786  VAL792 
 PHE793  MET794  SER795  GLU796  ALA797  LYS798  CYS799  TRP800  GLU811  SER814 

> <Gold.Protein.RotatedAtoms>
  150.6868  134.3114  159.4747 H   0  0  0  0  0  0  0  0  0  0  0  0  # atno 6907 bound_to 6896
  152.1000  134.9346  160.0579 H   0  0  0  0  0  0  0  0  0  0  0  0  # atno 6908 bound_to 6896
  152.0629  133.4035  159.4462 H   0  0  0  0  0  0  0  0  0  0  0  0  # atno 6909 bound_to 6896
  145.2768  140.9315  143.2955 H   0  0  0  0  0  0  0  0  0  0  0  0  # atno 7974 bound_to 7965
  156.2364  140.2944  156.0324 H   0  0  0  0  0  0  0  0  0  0  0  0  # atno 8008 bound_to 7997
  155.2080  140.0411  157.2946 H   0  0  0  0  0  0  0  0  0  0  0  0  # atno 8009 bound_to 7997
  154.6086  140.2446  155.7705 H   0  0  0  0  0  0  0  0  0  0  0  0  # atno 8010 bound_to 7997
  139.8793  144.6449  150.8861 H   0  0  0  0  0  0  0  0  0  0  0  0  # atno 10167 bound_to 10162
  157.4884  131.1089  150.9589 H   0  0  0  0  0  0  0  0  0  0  0  0  # atno 10718 bound_to 10713
  154.6037  135.5508  153.7400 H   0  0  0  0  0  0  0  0  0  0  0  0  # atno 10763 bound_to 10752
  153.0165  135.6372  154.1678 H   0  0  0  0  0  0  0  0  0  0  0  0  # atno 10764 bound_to 10752
  154.1617  135.2897  155.3086 H   0  0  0  0  0  0  0  0  0  0  0  0  # atno 10765 bound_to 10752
  139.9217  134.9638  156.7928 H   0  0  0  0  0  0  0  0  0  0  0  0  # atno 11005 bound_to 11000
  144.9287  139.4324  143.6505 LP  0  0  0  0  0  0  0  0  0  0  0  0  # atno 17320 bound_to 7965
  146.3229  139.8187  142.8931 LP  0  0  0  0  0  0  0  0  0  0  0  0  # atno 17321 bound_to 7965
  140.7747  143.3599  151.1849 LP  0  0  0  0  0  0  0  0  0  0  0  0  # atno 17342 bound_to 10162
  139.7211  143.9222  152.2985 LP  0  0  0  0  0  0  0  0  0  0  0  0  # atno 17343 bound_to 10162
  157.0299  130.5707  149.5342 LP  0  0  0  0  0  0  0  0  0  0  0  0  # atno 17370 bound_to 10713
  156.0160  130.5254  150.8134 LP  0  0  0  0  0  0  0  0  0  0  0  0  # atno 17371 bound_to 10713
  140.6453  133.9780  155.7728 LP  0  0  0  0  0  0  0  0  0  0  0  0  # atno 17394 bound_to 11000
  141.0744  134.0157  157.3479 LP  0  0  0  0  0  0  0  0  0  0  0  0  # atno 17395 bound_to 11000

$$$$
