AV-unprocessed.smi:1007|AV-procd|sdf|4409|dock8
  -GOLD-   22720 2353D 1   1.00000     0.00000
 Structure written by MMmdl.
 57 59  0  0  0  0  0  0  0  0  3 V2000
  147.3532  134.0546  159.5130 C   0  0  0  0  0  0  0  0  0  0  0  0
  148.4600  133.6352  158.7337 O   0  0  0  0  0  0  0  0  0  0  0  0
  148.1821  133.6483  157.3434 C   0  0  0  0  0  0  0  0  0  0  0  0
  147.9766  135.1030  156.8942 C   0  0  0  0  0  0  0  0  0  0  0  0
  147.9745  135.2418  155.4132 N   0  3  2  0  0  0  0  0  0  0  0  0
  149.2065  134.7525  154.7399 C   0  0  0  0  0  0  0  0  0  0  0  0
  150.3833  135.7403  154.8831 C   0  0  0  0  0  0  0  0  0  0  0  0
  150.0085  137.1046  154.4263 N   0  3  2  0  0  0  0  0  0  0  0  0
  151.1273  138.0807  154.4963 C   0  0  0  0  0  0  0  0  0  0  0  0
  151.8995  137.9998  155.8277 C   0  0  1  0  0  0  0  0  0  0  0  0
  153.1804  138.5730  155.6442 O   0  0  0  0  0  0  0  0  0  0  0  0
  151.1631  138.7362  156.9636 C   0  0  0  0  0  0  0  0  0  0  0  0
  151.1090  140.1717  156.7523 N   0  0  0  0  0  0  0  0  0  0  0  0
  150.5882  140.8145  155.6895 C   0  0  0  0  0  0  0  0  0  0  0  0
  150.6387  142.1430  155.6961 N   0  0  0  0  0  0  0  0  0  0  0  0
  151.2694  142.3923  156.9028 C   0  0  0  0  0  0  0  0  0  0  0  0
  151.6285  143.6134  157.5144 C   0  0  0  0  0  0  0  0  0  0  0  0
  152.2756  143.6321  158.7704 C   0  0  0  0  0  0  0  0  0  0  0  0
  152.6435  144.9680  159.3919 C   0  0  0  0  0  0  0  0  0  0  0  0
  152.5734  142.4152  159.4347 C   0  0  0  0  0  0  0  0  0  0  0  0
  153.2700  142.4114  160.7840 C   0  0  0  0  0  0  0  0  0  0  0  0
  152.2211  141.1863  158.8382 C   0  0  0  0  0  0  0  0  0  0  0  0
  151.5777  141.1804  157.5878 C   0  0  0  0  0  0  0  0  0  0  0  0
  148.7909  137.5908  155.1220 C   0  0  0  0  0  0  0  0  0  0  0  0
  147.6204  136.6053  154.9466 C   0  0  0  0  0  0  0  0  0  0  0  0
  147.6178  134.0269  160.5700 H   0  0  0  0  0  0  0  0  0  0  0  0
  146.4951  133.3982  159.3643 H   0  0  0  0  0  0  0  0  0  0  0  0
  147.0604  135.0759  159.2663 H   0  0  0  0  0  0  0  0  0  0  0  0
  149.0259  133.2196  156.8004 H   0  0  0  0  0  0  0  0  0  0  0  0
  147.3114  133.0319  157.1187 H   0  0  0  0  0  0  0  0  0  0  0  0
  147.0221  135.4449  157.2969 H   0  0  0  0  0  0  0  0  0  0  0  0
  148.7371  135.7453  157.3373 H   0  0  0  0  0  0  0  0  0  0  0  0
  149.4899  133.7682  155.1111 H   0  0  0  0  0  0  0  0  0  0  0  0
  148.9805  134.6186  153.6811 H   0  0  0  0  0  0  0  0  0  0  0  0
  150.7200  135.7821  155.9198 H   0  0  0  0  0  0  0  0  0  0  0  0
  151.2254  135.3668  154.3020 H   0  0  0  0  0  0  0  0  0  0  0  0
  151.8287  137.8998  153.6800 H   0  0  0  0  0  0  0  0  0  0  0  0
  150.7362  139.0871  154.3399 H   0  0  0  0  0  0  0  0  0  0  0  0
  152.0349  136.9603  156.1244 H   0  0  0  0  0  0  0  0  0  0  0  0
  153.6249  138.1102  154.9495 H   0  0  0  0  0  0  0  0  0  0  0  0
  150.1453  138.3588  157.0711 H   0  0  0  0  0  0  0  0  0  0  0  0
  151.6630  138.5531  157.9157 H   0  0  0  0  0  0  0  0  0  0  0  0
  150.1443  140.2764  154.8645 H   0  0  0  0  0  0  0  0  0  0  0  0
  151.4010  144.5401  157.0081 H   0  0  0  0  0  0  0  0  0  0  0  0
  153.7182  145.0265  159.5640 H   0  0  0  0  0  0  0  0  0  0  0  0
  152.1314  145.1001  160.3453 H   0  0  0  0  0  0  0  0  0  0  0  0
  152.3632  145.7991  158.7441 H   0  0  0  0  0  0  0  0  0  0  0  0
  153.4121  141.3962  161.1559 H   0  0  0  0  0  0  0  0  0  0  0  0
  152.6810  142.9582  161.5207 H   0  0  0  0  0  0  0  0  0  0  0  0
  154.2517  142.8796  160.7083 H   0  0  0  0  0  0  0  0  0  0  0  0
  152.4422  140.2534  159.3346 H   0  0  0  0  0  0  0  0  0  0  0  0
  149.0082  137.7409  156.1806 H   0  0  0  0  0  0  0  0  0  0  0  0
  148.5019  138.5621  154.7185 H   0  0  0  0  0  0  0  0  0  0  0  0
  147.3513  136.5471  153.8910 H   0  0  0  0  0  0  0  0  0  0  0  0
  146.7312  136.9666  155.4645 H   0  0  0  0  0  0  0  0  0  0  0  0
  149.7631  137.0326  153.4486 H   0  0  0  0  0  0  0  0  0  0  0  0
  147.2205  134.6447  155.1022 H   0  0  0  0  0  0  0  0  0  0  0  0
  1  2  1  0  0  0  0
  1 26  1  0  0  0  0
  1 27  1  0  0  0  0
  1 28  1  0  0  0  0
  2  3  1  0  0  0  0
  3  4  1  0  0  0  0
  3 29  1  0  0  0  0
  3 30  1  0  0  0  0
  4  5  1  0  0  0  0
  4 31  1  0  0  0  0
  4 32  1  0  0  0  0
  5 25  1  0  0  0  0
  5  6  1  0  0  0  0
  5 57  1  0  0  0  0
  6  7  1  0  0  0  0
  6 33  1  0  0  0  0
  6 34  1  0  0  0  0
  7  8  1  0  0  0  0
  7 35  1  0  0  0  0
  7 36  1  0  0  0  0
  8  9  1  0  0  0  0
  8 24  1  0  0  0  0
  8 56  1  0  0  0  0
  9 10  1  0  0  0  0
  9 37  1  0  0  0  0
  9 38  1  0  0  0  0
 10 11  1  0  0  0  0
 10 12  1  0  0  0  0
 10 39  1  0  0  0  0
 11 40  1  0  0  0  0
 12 13  1  0  0  0  0
 12 41  1  0  0  0  0
 12 42  1  0  0  0  0
 13 23  1  0  0  0  0
 13 14  1  0  0  0  0
 14 15  2  0  0  0  0
 14 43  1  0  0  0  0
 15 16  1  0  0  0  0
 16 23  2  0  0  0  0
 16 17  1  0  0  0  0
 17 18  2  0  0  0  0
 17 44  1  0  0  0  0
 18 19  1  0  0  0  0
 18 20  1  0  0  0  0
 19 45  1  0  0  0  0
 19 46  1  0  0  0  0
 19 47  1  0  0  0  0
 20 21  1  0  0  0  0
 20 22  2  0  0  0  0
 21 48  1  0  0  0  0
 21 49  1  0  0  0  0
 21 50  1  0  0  0  0
 22 23  1  0  0  0  0
 22 51  1  0  0  0  0
 24 25  1  0  0  0  0
 24 52  1  0  0  0  0
 24 53  1  0  0  0  0
 25 54  1  0  0  0  0
 25 55  1  0  0  0  0
M  CHG  1   5   1
M  CHG  1   8   1
M  END
> <s_m_source_file>
AV-unprocessed.smi

> <i_m_source_file_index>
1007

> <i_lp_mmshare_version>
43012

> <i_f3d_flags>
0

> <s_epik_input>
W0NIM11PW0NIMl1bQ0gyXU4xW0NIMl1bQ0gyXU4oW0NIMl1bQ0gyXTEpW0NIMl1bQ0BIXShbT0hdKVtDSDJdbihbY0hdbjIpYyhjMjMpW2NIXWMoW0NIM10pYyhbY0hdMylbQ0gzXQ==

> <s_epik_cmdline>
J2VwaWtfcHl0aG9uJywgJy1waCcsICc3LjAnLCAnLXRuJywgJzgnLCAnLW1hJywgJzIwMCcsICctbWV0YWxfYmluZGluZycsICctaW1hZScsICc8aW5maWxlLm1hZT4nLCAnLW9tYWUnLCAnPG91dGZpbGUubWFlPic=

> <r_epik_Ionization_Penalty>
3.88944

> <r_epik_Ionization_Penalty_Charging>
3.80608

> <r_epik_Ionization_Penalty_Neutral>
0.0833653

> <r_epik_State_Penalty>
2.70739

> <r_epik_Charging_Adjusted_Penalty>
6.51347

> <i_epik_Tot_Q>
2

> <i_epik_Tot_abs_Q>
2

> <r_epik_Metal_State_Penalty>
2.62239

> <b_epik_Metal_Only>
0

> <s_lp_Force_Field>
OPLS_2005

> <r_lp_Energy>
30.9183

> <b_lp_Chiralities_Consistent>
1

> <s_lp_Variant>
AV-unprocessed.smi:1007-12

> <Gold.Version>
5.8.1

> <Gold.Id.Protein>
6NUR|6NUR_protein|mol2

> <Gold.PLP.Fitness>
55.4892

> <Gold.PLP.PLP>
-44.2110

> <Gold.PLP.part.hbond>
-3.3451

> <Gold.PLP.part.metal>
0.0000

> <Gold.PLP.part.buried>
-5.0362

> <Gold.PLP.part.nonpolar>
-37.3281

> <Gold.PLP.part.repulsive>
0.4072

> <Gold.PLP.ligand.clash>
0.0000

> <Gold.PLP.ligand.torsion>
0.4445

> <Gold.PLP.Chemscore.Hbond>
4.0000

> <Gold.PLP.Chemscore.CHOScore>
0.0000

> <Gold.PLP.Chemscore.Metal>
0.0000

> <Gold.Chemscore.Hbonds>
donor molecule, donor type, donor heavy atom, donor atom, acceptor molecule, acceptor atom, score
      L1  H     8    56       P1  7948  2.00
      P1  H  6896  6908       L1     2  0.21
      P1  H  7997  8008       L1    11  0.99

> <Gold.PLP.Chemscore.Internal.Correction>
0.1672

> <Gold.Rescore>
     Score         DG    S(hbond)    S(metal)    S(lipo)     H(rot)  DE(clash)    DE(int)     intcor
     19.08     -21.51       2.47        0.00     123.99       2.63       1.22       1.21       ----

> <Gold.Chemscore.Fitness>
19.0784

> <Gold.Chemscore.DG>
-21.5067

> <Gold.Chemscore.ZeroCoef>
-5.4800

> <Gold.Chemscore.Hbond>
2.4746

> <Gold.Chemscore.Metal>
0.0000

> <Gold.Chemscore.Lipo>
123.9853

> <Gold.Chemscore.Internal_Hbond>
0.0000

> <Gold.Chemscore.DEClash>
1.2168

> <Gold.Chemscore.DEInternal>
1.2114

> <Gold.Chemscore.Rot>
2.6347

> <Gold.Chemscore.Internal.Correction>
   9.000000E+99

> <Gold.Chemscore.Hbonds>
donor molecule, donor type, donor heavy atom, donor atom, acceptor molecule, acceptor atom, score
      L1  H     8    56       P1  7948  0.54
      P1  H  6896  6908       L1     2  0.20
      P1  H  7997  8008       L1    11  0.49

> <Gold.Chemscore.Hbond.Weighted>
-8.2651

> <Gold.Chemscore.Metal.Weighted>
-0.0000

> <Gold.Chemscore.Lipo.Weighted>
-14.5063

> <Gold.Chemscore.Internal_Hbond.Weighted>
0.0000

> <Gold.Chemscore.DEClash.Weighted>
1.2168

> <Gold.Chemscore.DEInternal.Weighted>
1.2114

> <Gold.Chemscore.Rot.Weighted>
6.7448

> <Gold.Chemscore.Internal.Correction.Weighted>
   9.000000E+99

> <Gold.Protein.RotatedTorsions>
[ 6907 6896 6895 6894 ] final  125.77 input  -60.11 | X-H torsion
[ 7974 7965 7964 7962 ] final  174.77 input  175.53 | X-H torsion
[ 8008 7997 7996 7995 ] final  -32.11 input   59.86 | X-H torsion
[ 10167 10162 10161 10158 ] final  107.17 input  -65.29 | X-H torsion
[ 10718 10713 10712 10709 ] final   70.10 input   66.30 | X-H torsion
[ 10763 10752 10751 10750 ] final  158.92 input  -60.55 | X-H torsion
[ 11005 11000 10999 10996 ] final -126.88 input  -57.11 | X-H torsion

> <Gold.Protein.ActiveResidues>
 VAL166  LYS551  ARG553  GLY616  TRP617  ASP618  TYR619  PRO620  LYS621  CYS622 
 ASP623  PHE694  ASN695  SER759  ASP760  ASP761  ALA762  ILE779  LEU786  VAL792 
 PHE793  MET794  SER795  GLU796  ALA797  LYS798  CYS799  TRP800  GLU811  SER814 

> <Gold.Protein.RotatedAtoms>
  152.3963  133.6751  159.6278 H   0  0  0  0  0  0  0  0  0  0  0  0  # atno 6907 bound_to 6896
  150.7861  133.8868  159.3310 H   0  0  0  0  0  0  0  0  0  0  0  0  # atno 6908 bound_to 6896
  151.6644  135.0986  160.0237 H   0  0  0  0  0  0  0  0  0  0  0  0  # atno 6909 bound_to 6896
  144.7215  139.9847  143.6439 H   0  0  0  0  0  0  0  0  0  0  0  0  # atno 7974 bound_to 7965
  154.4191  140.1746  156.1675 H   0  0  0  0  0  0  0  0  0  0  0  0  # atno 8008 bound_to 7997
  155.9788  140.3379  155.6619 H   0  0  0  0  0  0  0  0  0  0  0  0  # atno 8009 bound_to 7997
  155.6528  140.0692  157.2572 H   0  0  0  0  0  0  0  0  0  0  0  0  # atno 8010 bound_to 7997
  139.6949  144.7103  151.1284 H   0  0  0  0  0  0  0  0  0  0  0  0  # atno 10167 bound_to 10162
  157.6382  130.9460  150.0604 H   0  0  0  0  0  0  0  0  0  0  0  0  # atno 10718 bound_to 10713
  154.2237  135.2781  155.2915 H   0  0  0  0  0  0  0  0  0  0  0  0  # atno 10763 bound_to 10752
  154.5681  135.5627  153.7073 H   0  0  0  0  0  0  0  0  0  0  0  0  # atno 10764 bound_to 10752
  153.0036  135.6314  154.2377 H   0  0  0  0  0  0  0  0  0  0  0  0  # atno 10765 bound_to 10752
  140.9645  134.0891  157.3934 H   0  0  0  0  0  0  0  0  0  0  0  0  # atno 11005 bound_to 11000
  146.0460  139.3465  143.0669 LP  0  0  0  0  0  0  0  0  0  0  0  0  # atno 17320 bound_to 7965
  145.8276  140.9647  143.0866 LP  0  0  0  0  0  0  0  0  0  0  0  0  # atno 17321 bound_to 7965
  140.7693  143.5506  150.9209 LP  0  0  0  0  0  0  0  0  0  0  0  0  # atno 17342 bound_to 10162
  139.9185  143.6635  152.3101 LP  0  0  0  0  0  0  0  0  0  0  0  0  # atno 17343 bound_to 10162
  156.1638  130.3644  149.9261 LP  0  0  0  0  0  0  0  0  0  0  0  0  # atno 17370 bound_to 10713
  156.7253  130.9022  151.3621 LP  0  0  0  0  0  0  0  0  0  0  0  0  # atno 17371 bound_to 10713
  139.8889  135.0101  156.6651 LP  0  0  0  0  0  0  0  0  0  0  0  0  # atno 17394 bound_to 11000
  140.7419  133.8970  155.8284 LP  0  0  0  0  0  0  0  0  0  0  0  0  # atno 17395 bound_to 11000

$$$$
