AV-unprocessed.smi:705|AV-procd|sdf|3449|dock5
  -GOLD-   22720 0433D 1   1.00000     0.00000
 Structure written by MMmdl.
 29 30  0  0  0  0  0  0  0  0  2 V2000
  144.7620  133.1087  156.4485 N   0  0  0  0  0  0  0  0  0  0  0  0
  145.9001  133.7793  156.2502 C   0  0  0  0  0  0  0  0  0  0  0  0
  146.6161  134.1634  157.1734 O   0  0  0  0  0  0  0  0  0  0  0  0
  146.2546  134.0434  154.8163 C   0  0  0  0  0  0  0  0  0  0  0  0
  145.4455  133.5268  153.7598 C   0  0  0  0  0  0  0  0  0  0  0  0
  146.0616  133.9579  152.6177 C   0  0  0  0  0  0  0  0  0  0  0  0
  145.7156  133.7637  151.1749 C   0  0  1  0  0  0  0  0  0  0  0  0
  145.8408  132.2888  150.7452 C   0  0  0  0  0  0  0  0  0  0  0  0
  145.4563  132.1162  149.2678 C   0  0  0  0  0  0  0  0  0  0  0  0
  144.0531  132.6817  148.9976 C   0  0  0  0  0  0  0  0  0  0  0  0
  143.9715  134.0961  149.4215 N   0  3  0  0  0  0  0  0  0  0  0  0
  144.3020  134.2905  150.8508 C   0  0  0  0  0  0  0  0  0  0  0  0
  147.1577  134.6847  153.0251 N   0  0  0  0  0  0  0  0  0  0  0  0
  147.2875  134.7432  154.3636 N   0  0  0  0  0  0  0  0  0  0  0  0
  147.8203  135.1360  152.4102 H   0  0  0  0  0  0  0  0  0  0  0  0
  144.4600  132.8962  157.3880 H   0  0  0  0  0  0  0  0  0  0  0  0
  144.2093  132.8188  155.6547 H   0  0  0  0  0  0  0  0  0  0  0  0
  144.5481  132.9296  153.8296 H   0  0  0  0  0  0  0  0  0  0  0  0
  146.4248  134.3391  150.5774 H   0  0  0  0  0  0  0  0  0  0  0  0
  146.8598  131.9352  150.9063 H   0  0  0  0  0  0  0  0  0  0  0  0
  145.1939  131.6637  151.3624 H   0  0  0  0  0  0  0  0  0  0  0  0
  146.1857  132.6253  148.6362 H   0  0  0  0  0  0  0  0  0  0  0  0
  145.4931  131.0612  148.9944 H   0  0  0  0  0  0  0  0  0  0  0  0
  143.8142  132.6124  147.9361 H   0  0  0  0  0  0  0  0  0  0  0  0
  143.3004  132.1019  149.5337 H   0  0  0  0  0  0  0  0  0  0  0  0
  144.6182  134.6364  148.8649 H   0  0  0  0  0  0  0  0  0  0  0  0
  143.5540  133.7815  151.4607 H   0  0  0  0  0  0  0  0  0  0  0  0
  144.2314  135.3534  151.0842 H   0  0  0  0  0  0  0  0  0  0  0  0
  143.0349  134.4355  149.2534 H   0  0  0  0  0  0  0  0  0  0  0  0
  1  2  1  0  0  0  0
  1 16  1  0  0  0  0
  1 17  1  0  0  0  0
  2  3  2  0  0  0  0
  2  4  1  0  0  0  0
  4 14  2  0  0  0  0
  4  5  1  0  0  0  0
  5  6  2  0  0  0  0
  5 18  1  0  0  0  0
  6  7  1  0  0  0  0
  6 13  1  0  0  0  0
  7 12  1  0  0  0  0
  7  8  1  0  0  0  0
  7 19  1  0  0  0  0
  8  9  1  0  0  0  0
  8 20  1  0  0  0  0
  8 21  1  0  0  0  0
  9 10  1  0  0  0  0
  9 22  1  0  0  0  0
  9 23  1  0  0  0  0
 10 11  1  0  0  0  0
 10 24  1  0  0  0  0
 10 25  1  0  0  0  0
 11 12  1  0  0  0  0
 11 26  1  0  0  0  0
 11 29  1  0  0  0  0
 12 27  1  0  0  0  0
 12 28  1  0  0  0  0
 13 15  1  0  0  0  0
 13 14  1  0  0  0  0
M  CHG  1  11   1
M  END
> <s_m_source_file>
AV-unprocessed.smi

> <i_m_source_file_index>
705

> <i_lp_mmshare_version>
43012

> <i_f3d_flags>
0

> <s_epik_input>
W05IMl1DKD1PKWMxW2NIXWMoW25IXW4xKVtDQEBIXTJbQ0gyXVtDSDJdW0NIMl1bTkhdW0NIMl0y

> <s_epik_cmdline>
J2VwaWtfcHl0aG9uJywgJy1waCcsICc3LjAnLCAnLXRuJywgJzgnLCAnLW1hJywgJzIwMCcsICctbWV0YWxfYmluZGluZycsICctaW1hZScsICc8aW5maWxlLm1hZT4nLCAnLW9tYWUnLCAnPG91dGZpbGUubWFlPic=

> <r_lp_tautomer_probability>
0.5

> <r_epik_Ionization_Penalty>
0.000245231

> <r_epik_Ionization_Penalty_Charging>
0.000226378

> <r_epik_Ionization_Penalty_Neutral>
1.88531e-05

> <r_epik_State_Penalty>
0.41068

> <r_epik_Charging_Adjusted_Penalty>
0.410906

> <i_epik_Tot_Q>
1

> <i_epik_Tot_abs_Q>
1

> <r_epik_Metal_State_Penalty>
0.446108

> <b_epik_Metal_Only>
0

> <s_lp_Force_Field>
OPLS_2005

> <r_lp_Energy>
15.347

> <b_lp_Chiralities_Consistent>
1

> <s_lp_Variant>
AV-unprocessed.smi:705-4

> <Gold.Version>
5.8.1

> <Gold.Id.Protein>
6NUR|6NUR_protein|mol2

> <Gold.PLP.Fitness>
36.6717

> <Gold.PLP.PLP>
-21.7450

> <Gold.PLP.part.hbond>
-4.0000

> <Gold.PLP.part.metal>
0.0000

> <Gold.PLP.part.buried>
-3.5623

> <Gold.PLP.part.nonpolar>
-14.5751

> <Gold.PLP.part.repulsive>
0.1844

> <Gold.PLP.ligand.clash>
0.0000

> <Gold.PLP.ligand.torsion>
0.0450

> <Gold.PLP.Chemscore.Hbond>
5.0000

> <Gold.PLP.Chemscore.CHOScore>
0.0000

> <Gold.PLP.Chemscore.Metal>
0.0000

> <Gold.Chemscore.Hbonds>
donor molecule, donor type, donor heavy atom, donor atom, acceptor molecule, acceptor atom, score
      L1  H     1    17       P1 10957  0.98
      L1  H    11    26       P1  7921  1.00
      L1  H    11    29       P1 10186  1.95
      L1  H    13    15       P1  7948  1.00

> <Gold.PLP.Chemscore.Internal.Correction>
0.0166

> <Gold.Rescore>
     Score         DG    S(hbond)    S(metal)    S(lipo)     H(rot)  DE(clash)    DE(int)     intcor
     22.37     -22.41       3.84        0.00      57.09       1.00       0.03       0.02       ----

> <Gold.Chemscore.Fitness>
22.3689

> <Gold.Chemscore.DG>
-22.4148

> <Gold.Chemscore.ZeroCoef>
-5.4800

> <Gold.Chemscore.Hbond>
3.8368

> <Gold.Chemscore.Metal>
0.0000

> <Gold.Chemscore.Lipo>
57.0937

> <Gold.Chemscore.Internal_Hbond>
0.0000

> <Gold.Chemscore.DEClash>
0.0299

> <Gold.Chemscore.DEInternal>
0.0159

> <Gold.Chemscore.Rot>
1.0000

> <Gold.Chemscore.Internal.Correction>
   9.000000E+99

> <Gold.Chemscore.Hbonds>
donor molecule, donor type, donor heavy atom, donor atom, acceptor molecule, acceptor atom, score
      L1  H     1    17       P1 10957  0.88
      L1  H    11    26       P1  7921  0.96
      L1  H    11    29       P1 10186  0.90
      L1  H    13    15       P1  7948  0.96

> <Gold.Chemscore.Hbond.Weighted>
-12.8148

> <Gold.Chemscore.Metal.Weighted>
-0.0000

> <Gold.Chemscore.Lipo.Weighted>
-6.6800

> <Gold.Chemscore.Internal_Hbond.Weighted>
0.0000

> <Gold.Chemscore.DEClash.Weighted>
0.0299

> <Gold.Chemscore.DEInternal.Weighted>
0.0159

> <Gold.Chemscore.Rot.Weighted>
2.5600

> <Gold.Chemscore.Internal.Correction.Weighted>
   9.000000E+99

> <Gold.Protein.RotatedTorsions>
[ 6907 6896 6895 6894 ] final   36.19 input  -60.11 | X-H torsion
[ 7974 7965 7964 7962 ] final  -23.05 input  175.53 | X-H torsion
[ 8008 7997 7996 7995 ] final  -96.56 input   59.86 | X-H torsion
[ 10167 10162 10161 10158 ] final  -87.76 input  -65.29 | X-H torsion
[ 10718 10713 10712 10709 ] final  121.60 input   66.30 | X-H torsion
[ 10763 10752 10751 10750 ] final   39.04 input  -60.55 | X-H torsion
[ 11005 11000 10999 10996 ] final  -29.51 input  -57.11 | X-H torsion

> <Gold.Protein.ActiveResidues>
 VAL166  LYS551  ARG553  GLY616  TRP617  ASP618  TYR619  PRO620  LYS621  CYS622 
 ASP623  PHE694  ASN695  SER759  ASP760  ASP761  ALA762  ILE779  LEU786  VAL792 
 PHE793  MET794  SER795  GLU796  ALA797  LYS798  CYS799  TRP800  GLU811  SER814 

> <Gold.Protein.RotatedAtoms>
  152.1264  134.9168  160.0560 H   0  0  0  0  0  0  0  0  0  0  0  0  # atno 6907 bound_to 6896
  152.0289  133.3924  159.4297 H   0  0  0  0  0  0  0  0  0  0  0  0  # atno 6908 bound_to 6896
  150.6853  134.3464  159.4934 H   0  0  0  0  0  0  0  0  0  0  0  0  # atno 6909 bound_to 6896
  146.1639  140.4563  142.8560 H   0  0  0  0  0  0  0  0  0  0  0  0  # atno 7974 bound_to 7965
  154.7761  140.0470  157.1090 H   0  0  0  0  0  0  0  0  0  0  0  0  # atno 8008 bound_to 7997
  154.9761  140.3095  155.4947 H   0  0  0  0  0  0  0  0  0  0  0  0  # atno 8009 bound_to 7997
  156.2929  140.2244  156.4856 H   0  0  0  0  0  0  0  0  0  0  0  0  # atno 8010 bound_to 7997
  140.3813  143.2747  151.9380 H   0  0  0  0  0  0  0  0  0  0  0  0  # atno 10167 bound_to 10162
  157.5806  131.1075  150.8195 H   0  0  0  0  0  0  0  0  0  0  0  0  # atno 10718 bound_to 10713
  152.9980  135.6232  154.2401 H   0  0  0  0  0  0  0  0  0  0  0  0  # atno 10763 bound_to 10752
  154.2142  135.2798  155.2949 H   0  0  0  0  0  0  0  0  0  0  0  0  # atno 10764 bound_to 10752
  154.5582  135.5713  153.7041 H   0  0  0  0  0  0  0  0  0  0  0  0  # atno 10765 bound_to 10752
  140.9302  133.7343  156.0926 H   0  0  0  0  0  0  0  0  0  0  0  0  # atno 11005 bound_to 11000
  144.8065  140.6309  143.6443 LP  0  0  0  0  0  0  0  0  0  0  0  0  # atno 17320 bound_to 7965
  145.4517  139.1523  143.3915 LP  0  0  0  0  0  0  0  0  0  0  0  0  # atno 17321 bound_to 7965
  139.4795  144.5816  151.7924 LP  0  0  0  0  0  0  0  0  0  0  0  0  # atno 17342 bound_to 10162
  140.4934  144.1276  150.5955 LP  0  0  0  0  0  0  0  0  0  0  0  0  # atno 17343 bound_to 10162
  156.8642  130.5124  149.5301 LP  0  0  0  0  0  0  0  0  0  0  0  0  # atno 17370 bound_to 10713
  156.0851  130.5852  150.9634 LP  0  0  0  0  0  0  0  0  0  0  0  0  # atno 17371 bound_to 10713
  140.7872  134.3659  157.5473 LP  0  0  0  0  0  0  0  0  0  0  0  0  # atno 17394 bound_to 11000
  139.8795  134.9118  156.3045 LP  0  0  0  0  0  0  0  0  0  0  0  0  # atno 17395 bound_to 11000

$$$$
