#       Name:                AV-unprocessed.smi:3341
#       Creating user name   scv26
#       Creation time:       Fri Mar 27 19:28:59 2020


#       File generated by GOLD software.
#

@<TRIPOS>MOLECULE
AV-unprocessed.smi:3341
    49    50     1
SMALL
NO_CHARGES


@<TRIPOS>ATOM
      1 ****        -4.3348   6.4202   0.9810 C.3            1 S1                 0.0000
      2 ****        -4.1296   5.6279  -0.3154 C.3            1 S1                 0.0000
      3 ****        -4.1439   4.1978  -0.0779 N.pl3          1 S1                 0.0000
      4 ****        -3.0671   3.3435   0.0541 C.2            1 S1                 0.0000
      5 ****        -3.6023   2.1052   0.2705 C.2            1 S1                 0.0000
      6 ****        -2.9471   0.8642   0.4732 N.am           1 S1                 0.0000
      7 ****        -1.6239   0.6384   0.5134 C.2            1 S1                 0.0000
      8 ****        -0.7530   1.4975   0.3746 O.2            1 S1                 0.0000
      9 ****        -1.3546  -0.6579   0.7245 N.am           1 S1                 0.0000
     10 ****        -0.0149  -1.2239   0.8346 C.3            1 S1                 0.0000
     11 ****         0.6346  -1.4173  -0.5496 C.3            1 S1                 0.0000
     12 ****         2.0168  -1.9507  -0.4548 N.4            1 S1                 1.0000
     13 ****         2.8285  -1.6254  -1.6558 C.3            1 S1                 0.0000
     14 ****         4.2939  -2.0472  -1.4656 C.3            1 S1                 0.0000
     15 ****         4.3974  -3.5390  -1.1197 C.3            1 S1                 0.0000
     16 ****         3.5103  -3.8948   0.0875 C.3            1 S1                 0.0000
     17 ****         4.0901  -3.3954   1.4225 C.3            1 S1                 0.0000
     18 ****         2.0651  -3.4048  -0.1400 C.3            1 S1                 0.0000
     19 ****        -5.0100   2.2843   0.2563 C.2            1 S1                 0.0000
     20 ****        -5.3298   3.5521   0.0460 N.2            1 S1                 0.0000
     21 ****        -4.3145   7.4927   0.7870 H              1 S1                 0.0000
     22 ****        -3.5511   6.1980   1.7059 H              1 S1                 0.0000
     23 ****        -5.2948   6.1839   1.4407 H              1 S1                 0.0000
     24 ****        -4.9091   5.8732  -1.0381 H              1 S1                 0.0000
     25 ****        -3.1769   5.8959  -0.7735 H              1 S1                 0.0000
     26 ****        -2.0475   3.6920  -0.0160 H              1 S1                 0.0000
     27 ****        -3.5511   0.0661   0.6061 H              1 S1                 0.0000
     28 ****        -2.1311  -1.2952   0.8280 H              1 S1                 0.0000
     29 ****         0.6080  -0.5847   1.4629 H              1 S1                 0.0000
     30 ****        -0.1091  -2.1748   1.3574 H              1 S1                 0.0000
     31 ****         0.0264  -2.0704  -1.1777 H              1 S1                 0.0000
     32 ****         0.6635  -0.4492  -1.0521 H              1 S1                 0.0000
     33 ****         2.4028  -2.1205  -2.5301 H              1 S1                 0.0000
     34 ****         2.7918  -0.5526  -1.8492 H              1 S1                 0.0000
     35 ****         4.8608  -1.8378  -2.3731 H              1 S1                 0.0000
     36 ****         4.7502  -1.4482  -0.6769 H              1 S1                 0.0000
     37 ****         4.0810  -4.1264  -1.9827 H              1 S1                 0.0000
     38 ****         5.4352  -3.8140  -0.9282 H              1 S1                 0.0000
     39 ****         3.4792  -4.9830   0.1559 H              1 S1                 0.0000
     40 ****         4.1311  -2.3072   1.4681 H              1 S1                 0.0000
     41 ****         5.1018  -3.7721   1.5756 H              1 S1                 0.0000
     42 ****         3.4847  -3.7364   2.2627 H              1 S1                 0.0000
     43 ****         1.4686  -3.6281   0.7438 H              1 S1                 0.0000
     44 ****         1.6142  -3.9603  -0.9639 H              1 S1                 0.0000
     45 ****        -5.7940   1.5538   0.3895 H              1 S1                 0.0000
     46 ****         2.4550  -1.4674   0.3164 H              1 S1                 0.0000
     47 ****        -1.0115   2.4506   0.2177 LP             1 S1                 0.0000
     48 ****         0.2128   1.2421   0.4188 LP             1 S1                 0.0000
     49 ****        -6.2467   3.9473  -0.0093 LP             1 S1                 0.0000
@<TRIPOS>BOND
    1    1    2 1     
    2    1   21 1     
    3    1   22 1     
    4    1   23 1     
    5    2    3 1     
    6    2   24 1     
    7    2   25 1     
    8    3   20 1     
    9    3    4 1     
   10    4    5 2     
   11    4   26 1     
   12    5    6 1     
   13    5   19 1     
   14    6    7 am    
   15    6   27 1     
   16    7    8 2     
   17    7    9 am    
   18    9   10 1     
   19    9   28 1     
   20   10   11 1     
   21   10   29 1     
   22   10   30 1     
   23   11   12 1     
   24   11   31 1     
   25   11   32 1     
   26   12   18 1     
   27   12   13 1     
   28   12   46 1     
   29   13   14 1     
   30   13   33 1     
   31   13   34 1     
   32   14   15 1     
   33   14   35 1     
   34   14   36 1     
   35   15   16 1     
   36   15   37 1     
   37   15   38 1     
   38   16   17 1     
   39   16   18 1     
   40   16   39 1     
   41   17   40 1     
   42   17   41 1     
   43   17   42 1     
   44   18   43 1     
   45   18   44 1     
   46   19   20 2     
   47   19   45 1     
   48    8   47 1     
   49    8   48 1     
   50   20   49 1     
@<TRIPOS>SUBSTRUCTURE
      1 S1             1
@<TRIPOS>SET
LONE_PAIRS      STATIC     ATOMS    <user>   **** ""
3 47 48 49
DONOR_HYDROGENS      STATIC     ATOMS    <user>   **** ""
3 27 28 46
ATOM$BLUE        STATIC     ATOMS    COLORGROUP SYSTEM
3 47 48 49
ATOM$RED        STATIC     ATOMS    COLORGROUP SYSTEM
3 27 28 46
