AV-unprocessed.smi:261|AV-procd|sdf|1983|dock9
  -GOLD-   2262021163D 1   1.00000     0.00000
 Structure written by MMmdl.
 51 54  0  0  0  0  0  0  0  0  1 V2000
  152.7856  143.2597  160.2742 C   0  0  0  0  0  0  0  0  0  0  0  0
  151.9612  142.2099  159.7958 O   0  0  0  0  0  0  0  0  0  0  0  0
  152.6840  141.1815  159.1360 C   0  0  1  0  0  0  0  0  0  0  0  0
  153.4192  140.3057  160.1428 C   0  0  0  0  0  0  0  0  0  0  0  0
  153.6576  139.0058  159.3621 C   0  0  1  0  0  0  0  0  0  0  0  0
  153.8107  137.7947  160.2930 C   0  0  0  0  0  0  0  0  0  0  0  0
  154.7707  137.8653  161.2178 N   0  0  0  0  0  0  0  0  0  0  0  0
  153.0695  136.8181  160.1937 O   0  0  0  0  0  0  0  0  0  0  0  0
  152.4848  138.8858  158.4912 N   0  0  0  0  0  0  0  0  0  0  0  0
  152.7109  138.2711  157.3092 C   0  0  0  0  0  0  0  0  0  0  0  0
  153.6050  138.8474  156.4698 N   0  0  0  0  0  0  0  0  0  0  0  0
  153.8593  138.2907  155.2815 C   0  0  0  0  0  0  0  0  0  0  0  0
  153.3363  137.1840  154.7480 N   0  0  0  0  0  0  0  0  0  0  0  0
  152.4342  136.6050  155.5917 C   0  0  0  0  0  0  0  0  0  0  0  0
  152.0663  137.0763  156.8826 C   0  0  0  0  0  0  0  0  0  0  0  0
  151.1195  136.2293  157.4468 N   0  0  0  0  0  0  0  0  0  0  0  0
  150.9368  135.3094  156.5394 C   0  0  0  0  0  0  0  0  0  0  0  0
  151.6861  135.4580  155.3942 N   0  0  0  0  0  0  0  0  0  0  0  0
  151.6721  134.5870  154.2315 C   0  0  0  0  0  0  0  0  0  0  0  0
  150.9960  133.2290  154.5173 C   0  0  2  0  0  0  0  0  0  0  0  0
  151.8735  132.4628  155.3198 O   0  0  0  0  0  0  0  0  0  0  0  0
  150.6986  132.4202  153.2383 C   0  0  2  0  0  0  0  0  0  0  0  0
  149.7272  133.0910  152.2640 C   0  0  0  0  0  0  0  0  0  0  0  0
  149.1366  131.9272  151.4853 C   0  0  0  0  0  0  0  0  0  0  0  0
  149.4465  130.7083  152.3572 C   0  0  0  0  0  0  0  0  0  0  0  0
  149.9768  131.2409  153.5630 O   0  0  0  0  0  0  0  0  0  0  0  0
  151.7884  140.1670  158.4183 C   0  0  0  0  0  0  0  0  0  0  0  0
  153.4116  141.6029  158.4394 H   0  0  0  0  0  0  0  0  0  0  0  0
  154.5627  139.1161  158.7607 H   0  0  0  0  0  0  0  0  0  0  0  0
  152.1719  143.9964  160.7922 H   0  0  0  0  0  0  0  0  0  0  0  0
  153.3006  143.7687  159.4589 H   0  0  0  0  0  0  0  0  0  0  0  0
  153.5293  142.8868  160.9796 H   0  0  0  0  0  0  0  0  0  0  0  0
  154.3456  140.7628  160.4926 H   0  0  0  0  0  0  0  0  0  0  0  0
  152.7831  140.1284  161.0122 H   0  0  0  0  0  0  0  0  0  0  0  0
  154.9149  137.0962  161.8557 H   0  0  0  0  0  0  0  0  0  0  0  0
  155.3501  138.6901  161.2746 H   0  0  0  0  0  0  0  0  0  0  0  0
  154.5846  138.8069  154.6699 H   0  0  0  0  0  0  0  0  0  0  0  0
  150.2454  134.4910  156.6805 H   0  0  0  0  0  0  0  0  0  0  0  0
  151.1525  135.1152  153.4320 H   0  0  0  0  0  0  0  0  0  0  0  0
  152.6968  134.4375  153.8886 H   0  0  0  0  0  0  0  0  0  0  0  0
  150.0699  133.3966  155.0690 H   0  0  0  0  0  0  0  0  0  0  0  0
  151.6745  131.5478  155.1928 H   0  0  0  0  0  0  0  0  0  0  0  0
  151.6209  132.1586  152.7148 H   0  0  0  0  0  0  0  0  0  0  0  0
  148.9336  133.5983  152.8147 H   0  0  0  0  0  0  0  0  0  0  0  0
  150.2132  133.8248  151.6199 H   0  0  0  0  0  0  0  0  0  0  0  0
  148.0647  132.0597  151.3335 H   0  0  0  0  0  0  0  0  0  0  0  0
  149.6065  131.8257  150.5064 H   0  0  0  0  0  0  0  0  0  0  0  0
  148.5642  130.0991  152.5545 H   0  0  0  0  0  0  0  0  0  0  0  0
  150.1978  130.0764  151.8814 H   0  0  0  0  0  0  0  0  0  0  0  0
  150.8432  140.0539  158.9504 H   0  0  0  0  0  0  0  0  0  0  0  0
  151.5513  140.4848  157.4015 H   0  0  0  0  0  0  0  0  0  0  0  0
  1  2  1  0  0  0  0
  1 30  1  0  0  0  0
  1 31  1  0  0  0  0
  1 32  1  0  0  0  0
  2  3  1  0  0  0  0
  3 28  1  0  0  0  0
  3 27  1  0  0  0  0
  3  4  1  0  0  0  0
  4  5  1  0  0  0  0
  4 33  1  0  0  0  0
  4 34  1  0  0  0  0
  5 29  1  0  0  0  0
  5  6  1  0  0  0  0
  5  9  1  0  0  0  0
  6  7  1  0  0  0  0
  6  8  2  0  0  0  0
  7 35  1  0  0  0  0
  7 36  1  0  0  0  0
  9 10  1  0  0  0  0
  9 27  1  0  0  0  0
 10 15  1  0  0  0  0
 10 11  2  0  0  0  0
 11 12  1  0  0  0  0
 12 13  2  0  0  0  0
 12 37  1  0  0  0  0
 13 14  1  0  0  0  0
 14 18  1  0  0  0  0
 14 15  2  0  0  0  0
 15 16  1  0  0  0  0
 16 17  2  0  0  0  0
 17 18  1  0  0  0  0
 17 38  1  0  0  0  0
 18 19  1  0  0  0  0
 19 20  1  0  0  0  0
 19 39  1  0  0  0  0
 19 40  1  0  0  0  0
 20 21  1  0  0  0  0
 20 22  1  0  0  0  0
 20 41  1  0  0  0  0
 21 42  1  0  0  0  0
 22 26  1  0  0  0  0
 22 23  1  0  0  0  0
 22 43  1  0  0  0  0
 23 24  1  0  0  0  0
 23 44  1  0  0  0  0
 23 45  1  0  0  0  0
 24 25  1  0  0  0  0
 24 46  1  0  0  0  0
 24 47  1  0  0  0  0
 25 26  1  0  0  0  0
 25 48  1  0  0  0  0
 25 49  1  0  0  0  0
 27 50  1  0  0  0  0
 27 51  1  0  0  0  0
M  END
> <s_m_source_file>
AV-unprocessed.smi

> <i_m_source_file_index>
261

> <i_lp_mmshare_version>
43012

> <i_f3d_flags>
0

> <s_epik_input>
W0NIM11PW0NASF0xW0NIMl1bQ0BASF0oQyg9TylbTkgyXSlOKFtDSDJdMSljKG5bY0hdbjIpYyhjMjMpbltjSF1uM1tDSDJdW0NASF0oW09IXSlbQ0BASF00W0NIMl1bQ0gyXVtDSDJdTzQ=

> <s_epik_cmdline>
J2VwaWtfcHl0aG9uJywgJy1waCcsICc3LjAnLCAnLXRuJywgJzgnLCAnLW1hJywgJzIwMCcsICctbWV0YWxfYmluZGluZycsICctaW1hZScsICc8aW5maWxlLm1hZT4nLCAnLW9tYWUnLCAnPG91dGZpbGUubWFlPic=

> <r_lp_tautomer_probability>
1

> <r_epik_Ionization_Penalty>
0.000713824

> <r_epik_Ionization_Penalty_Charging>
0

> <r_epik_Ionization_Penalty_Neutral>
0.000713824

> <r_epik_State_Penalty>
0.000402132

> <r_epik_Charging_Adjusted_Penalty>
0.000402132

> <i_epik_Tot_Q>
0

> <i_epik_Tot_abs_Q>
0

> <r_epik_Metal_State_Penalty>
-0

> <b_epik_Metal_Only>
0

> <s_lp_Force_Field>
OPLS_2005

> <r_lp_Energy>
45.6621

> <b_lp_Chiralities_Consistent>
1

> <s_lp_Variant>
AV-unprocessed.smi:261-1

> <Gold.Version>
5.8.1

> <Gold.Id.Protein>
6NUR|6NUR_protein|mol2

> <Gold.PLP.Fitness>
47.0957

> <Gold.PLP.PLP>
-39.7853

> <Gold.PLP.part.hbond>
-4.0996

> <Gold.PLP.part.metal>
0.0000

> <Gold.PLP.part.buried>
-7.3443

> <Gold.PLP.part.nonpolar>
-29.2928

> <Gold.PLP.part.repulsive>
0.1586

> <Gold.PLP.ligand.clash>
0.0000

> <Gold.PLP.ligand.torsion>
0.4898

> <Gold.PLP.Chemscore.Hbond>
2.7025

> <Gold.PLP.Chemscore.CHOScore>
0.0000

> <Gold.PLP.Chemscore.Metal>
0.0000

> <Gold.Chemscore.Hbonds>
donor molecule, donor type, donor heavy atom, donor atom, acceptor molecule, acceptor atom, score
      P1  H  6896  6909       L1     8  0.96
      P1  H  7997  8009       L1    11  0.70

> <Gold.PLP.Chemscore.Internal.Correction>
0.1825

> <Gold.Rescore>
     Score         DG    S(hbond)    S(metal)    S(lipo)     H(rot)  DE(clash)    DE(int)     intcor
     12.07     -12.79       2.30        0.00      75.01       3.57       0.04       0.69       ----

> <Gold.Chemscore.Fitness>
12.0696

> <Gold.Chemscore.DG>
-12.7950

> <Gold.Chemscore.ZeroCoef>
-5.4800

> <Gold.Chemscore.Hbond>
2.3019

> <Gold.Chemscore.Metal>
0.0000

> <Gold.Chemscore.Lipo>
75.0107

> <Gold.Chemscore.Internal_Hbond>
0.0000

> <Gold.Chemscore.DEClash>
0.0354

> <Gold.Chemscore.DEInternal>
0.6900

> <Gold.Chemscore.Rot>
3.5740

> <Gold.Chemscore.Internal.Correction>
   9.000000E+99

> <Gold.Chemscore.Hbonds>
donor molecule, donor type, donor heavy atom, donor atom, acceptor molecule, acceptor atom, score
      P1  H  6896  6909       L1     8  0.90
      P1  H  7997  8009       L1    11  0.30

> <Gold.Chemscore.Hbond.Weighted>
-7.6882

> <Gold.Chemscore.Metal.Weighted>
-0.0000

> <Gold.Chemscore.Lipo.Weighted>
-8.7763

> <Gold.Chemscore.Internal_Hbond.Weighted>
0.0000

> <Gold.Chemscore.DEClash.Weighted>
0.0354

> <Gold.Chemscore.DEInternal.Weighted>
0.6900

> <Gold.Chemscore.Rot.Weighted>
9.1495

> <Gold.Chemscore.Internal.Correction.Weighted>
   9.000000E+99

> <Gold.Protein.RotatedTorsions>
[ 6907 6896 6895 6894 ] final  149.78 input  -60.11 | X-H torsion
[ 7974 7965 7964 7962 ] final -144.37 input  175.53 | X-H torsion
[ 8008 7997 7996 7995 ] final -168.39 input   59.86 | X-H torsion
[ 10167 10162 10161 10158 ] final  121.48 input  -65.29 | X-H torsion
[ 10718 10713 10712 10709 ] final   87.19 input   66.30 | X-H torsion
[ 10763 10752 10751 10750 ] final  155.26 input  -60.55 | X-H torsion
[ 11005 11000 10999 10996 ] final  -83.21 input  -57.11 | X-H torsion

> <Gold.Protein.ActiveResidues>
 VAL166  LYS551  ARG553  GLY616  TRP617  ASP618  TYR619  PRO620  LYS621  CYS622 
 ASP623  PHE694  ASN695  SER759  ASP760  ASP761  ALA762  ILE779  LEU786  VAL792 
 PHE793  MET794  SER795  GLU796  ALA797  LYS798  CYS799  TRP800  GLU811  SER814 

> <Gold.Protein.RotatedAtoms>
  152.1234  133.4366  159.4686 H   0  0  0  0  0  0  0  0  0  0  0  0  # atno 6907 bound_to 6896
  150.6873  134.2507  159.4519 H   0  0  0  0  0  0  0  0  0  0  0  0  # atno 6908 bound_to 6896
  152.0386  134.9725  160.0624 H   0  0  0  0  0  0  0  0  0  0  0  0  # atno 6909 bound_to 6896
  144.8302  140.5718  143.5520 H   0  0  0  0  0  0  0  0  0  0  0  0  # atno 7974 bound_to 7965
  155.8908  140.1024  157.1420 H   0  0  0  0  0  0  0  0  0  0  0  0  # atno 8008 bound_to 7997
  154.4015  140.1311  156.4377 H   0  0  0  0  0  0  0  0  0  0  0  0  # atno 8009 bound_to 7997
  155.7536  140.3464  155.5165 H   0  0  0  0  0  0  0  0  0  0  0  0  # atno 8010 bound_to 7997
  139.5917  144.7027  151.3274 H   0  0  0  0  0  0  0  0  0  0  0  0  # atno 10167 bound_to 10162
  157.6937  131.0246  150.3086 H   0  0  0  0  0  0  0  0  0  0  0  0  # atno 10718 bound_to 10713
  154.1655  135.2807  155.3096 H   0  0  0  0  0  0  0  0  0  0  0  0  # atno 10763 bound_to 10752
  154.6115  135.5497  153.7481 H   0  0  0  0  0  0  0  0  0  0  0  0  # atno 10764 bound_to 10752
  153.0180  135.6416  154.1796 H   0  0  0  0  0  0  0  0  0  0  0  0  # atno 10765 bound_to 10752
  141.1659  133.7283  156.8686 H   0  0  0  0  0  0  0  0  0  0  0  0  # atno 11005 bound_to 11000
  145.4911  139.1488  143.3709 LP  0  0  0  0  0  0  0  0  0  0  0  0  # atno 17320 bound_to 7965
  146.2606  140.5050  142.8855 LP  0  0  0  0  0  0  0  0  0  0  0  0  # atno 17321 bound_to 7965
  140.7178  143.7218  150.7690 LP  0  0  0  0  0  0  0  0  0  0  0  0  # atno 17342 bound_to 10162
  140.0775  143.5001  152.2547 LP  0  0  0  0  0  0  0  0  0  0  0  0  # atno 17343 bound_to 10162
  156.3591  130.3844  149.7266 LP  0  0  0  0  0  0  0  0  0  0  0  0  # atno 17370 bound_to 10713
  156.4718  130.8000  151.3018 LP  0  0  0  0  0  0  0  0  0  0  0  0  # atno 17371 bound_to 10713
  140.1797  134.9042  157.2934 LP  0  0  0  0  0  0  0  0  0  0  0  0  # atno 17394 bound_to 11000
  140.2409  134.3797  155.7481 LP  0  0  0  0  0  0  0  0  0  0  0  0  # atno 17395 bound_to 11000

$$$$
