AV-unprocessed.smi:1875|AV-procd|sdf|7616|dock8
  -GOLD-   22720 9343D 1   1.00000     0.00000
 Structure written by MMmdl.
 49 51  0  0  0  0  0  0  0  0  3 V2000
  147.7333  134.4870  158.9849 C   0  0  0  0  0  0  0  0  0  0  0  0
  148.7191  134.6668  157.8493 C   0  0  0  0  0  0  0  0  0  0  0  0
  149.5401  133.6445  157.5913 N   0  0  0  0  0  0  0  0  0  0  0  0
  150.4201  133.8056  156.5793 C   0  0  0  0  0  0  0  0  0  0  0  0
  150.4666  134.9926  155.8201 C   0  0  0  0  0  0  0  0  0  0  0  0
  149.5502  136.0014  156.1836 C   0  0  0  0  0  0  0  0  0  0  0  0
  149.4875  137.3176  155.4307 C   0  0  0  0  0  0  0  0  0  0  0  0
  150.3401  137.3010  154.2233 N   0  3  0  0  0  0  0  0  0  0  0  0
  150.9945  138.5891  153.9073 C   0  0  0  0  0  0  0  0  0  0  0  0
  152.2509  138.8114  154.7690 C   0  0  2  0  0  0  0  0  0  0  0  0
  153.0541  137.6504  154.7214 O   0  0  0  0  0  0  0  0  0  0  0  0
  151.9383  139.1072  156.2509 C   0  0  0  0  0  0  0  0  0  0  0  0
  151.4383  140.4700  156.4778 N   0  0  0  0  0  0  0  0  0  0  0  0
  150.5614  141.2165  155.7509 C   0  0  0  0  0  0  0  0  0  0  0  0
  150.4266  142.4175  156.3785 N   0  3  0  0  0  0  0  0  0  0  0  0
  151.2191  142.4343  157.5283 C   0  0  0  0  0  0  0  0  0  0  0  0
  151.4119  143.4211  158.4877 C   0  0  0  0  0  0  0  0  0  0  0  0
  152.2897  143.1212  159.5540 C   0  0  0  0  0  0  0  0  0  0  0  0
  152.5202  144.1778  160.6209 C   0  0  0  0  0  0  0  0  0  0  0  0
  152.9418  141.8632  159.6318 C   0  0  0  0  0  0  0  0  0  0  0  0
  153.8801  141.5507  160.7853 C   0  0  0  0  0  0  0  0  0  0  0  0
  152.7353  140.8738  158.6436 C   0  0  0  0  0  0  0  0  0  0  0  0
  151.8672  141.1860  157.6004 C   0  0  0  0  0  0  0  0  0  0  0  0
  148.6756  135.8348  157.2012 N   0  0  0  0  0  0  0  0  0  0  0  0
  147.7436  133.4646  159.3653 H   0  0  0  0  0  0  0  0  0  0  0  0
  146.7208  134.7129  158.6492 H   0  0  0  0  0  0  0  0  0  0  0  0
  147.9809  135.1584  159.8075 H   0  0  0  0  0  0  0  0  0  0  0  0
  151.0868  132.9822  156.3707 H   0  0  0  0  0  0  0  0  0  0  0  0
  151.1681  135.1169  155.0082 H   0  0  0  0  0  0  0  0  0  0  0  0
  148.4582  137.5574  155.1595 H   0  0  0  0  0  0  0  0  0  0  0  0
  149.8327  138.1158  156.0882 H   0  0  0  0  0  0  0  0  0  0  0  0
  151.0660  136.6121  154.3596 H   0  0  0  0  0  0  0  0  0  0  0  0
  151.2758  138.5792  152.8552 H   0  0  0  0  0  0  0  0  0  0  0  0
  150.2867  139.4084  154.0411 H   0  0  0  0  0  0  0  0  0  0  0  0
  152.8293  139.6371  154.3530 H   0  0  0  0  0  0  0  0  0  0  0  0
  153.8825  137.8683  154.3210 H   0  0  0  0  0  0  0  0  0  0  0  0
  151.1771  138.4188  156.6211 H   0  0  0  0  0  0  0  0  0  0  0  0
  152.8205  138.9580  156.8753 H   0  0  0  0  0  0  0  0  0  0  0  0
  150.0659  140.9145  154.8391 H   0  0  0  0  0  0  0  0  0  0  0  0
  150.9110  144.3762  158.4237 H   0  0  0  0  0  0  0  0  0  0  0  0
  152.2065  143.8099  161.5981 H   0  0  0  0  0  0  0  0  0  0  0  0
  151.9560  145.0867  160.4100 H   0  0  0  0  0  0  0  0  0  0  0  0
  153.5758  144.4461  160.6731 H   0  0  0  0  0  0  0  0  0  0  0  0
  154.2832  140.5403  160.7103 H   0  0  0  0  0  0  0  0  0  0  0  0
  153.3559  141.6285  161.7381 H   0  0  0  0  0  0  0  0  0  0  0  0
  154.7203  142.2455  160.7940 H   0  0  0  0  0  0  0  0  0  0  0  0
  153.2308  139.9158  158.7032 H   0  0  0  0  0  0  0  0  0  0  0  0
  149.7747  137.0193  153.4352 H   0  0  0  0  0  0  0  0  0  0  0  0
  149.8304  143.1664  156.0493 H   0  0  0  0  0  0  0  0  0  0  0  0
  1  2  1  0  0  0  0
  1 25  1  0  0  0  0
  1 26  1  0  0  0  0
  1 27  1  0  0  0  0
  2 24  1  0  0  0  0
  2  3  2  0  0  0  0
  3  4  1  0  0  0  0
  4  5  2  0  0  0  0
  4 28  1  0  0  0  0
  5  6  1  0  0  0  0
  5 29  1  0  0  0  0
  6  7  1  0  0  0  0
  6 24  2  0  0  0  0
  7  8  1  0  0  0  0
  7 30  1  0  0  0  0
  7 31  1  0  0  0  0
  8  9  1  0  0  0  0
  8 32  1  0  0  0  0
  8 48  1  0  0  0  0
  9 10  1  0  0  0  0
  9 33  1  0  0  0  0
  9 34  1  0  0  0  0
 10 11  1  0  0  0  0
 10 12  1  0  0  0  0
 10 35  1  0  0  0  0
 11 36  1  0  0  0  0
 12 13  1  0  0  0  0
 12 37  1  0  0  0  0
 12 38  1  0  0  0  0
 13 23  1  0  0  0  0
 13 14  1  0  0  0  0
 14 15  2  0  0  0  0
 14 39  1  0  0  0  0
 15 16  1  0  0  0  0
 15 49  1  0  0  0  0
 16 23  2  0  0  0  0
 16 17  1  0  0  0  0
 17 18  2  0  0  0  0
 17 40  1  0  0  0  0
 18 19  1  0  0  0  0
 18 20  1  0  0  0  0
 19 41  1  0  0  0  0
 19 42  1  0  0  0  0
 19 43  1  0  0  0  0
 20 21  1  0  0  0  0
 20 22  2  0  0  0  0
 21 44  1  0  0  0  0
 21 45  1  0  0  0  0
 21 46  1  0  0  0  0
 22 23  1  0  0  0  0
 22 47  1  0  0  0  0
M  CHG  1   8   1
M  CHG  1  15   1
M  END
> <s_m_source_file>
AV-unprocessed.smi

> <i_m_source_file_index>
1875

> <i_lp_mmshare_version>
43012

> <i_f3d_flags>
0

> <s_epik_input>
W0NIM11jMW5bY0hdW2NIXWMobjEpW0NIMl1bTkhdW0NIMl1bQ0BIXShbT0hdKVtDSDJdbihbY0hdbjIpYyhjMjMpW2NIXWMoW0NIM10pYyhbY0hdMylbQ0gzXQ==

> <s_epik_cmdline>
J2VwaWtfcHl0aG9uJywgJy1waCcsICc3LjAnLCAnLXRuJywgJzgnLCAnLW1hJywgJzIwMCcsICctbWV0YWxfYmluZGluZycsICctaW1hZScsICc8aW5maWxlLm1hZT4nLCAnLW9tYWUnLCAnPG91dGZpbGUubWFlPic=

> <r_lp_tautomer_probability>
1

> <r_epik_Ionization_Penalty>
1.27527

> <r_epik_Ionization_Penalty_Charging>
1.27526

> <r_epik_Ionization_Penalty_Neutral>
8.72389e-06

> <r_epik_State_Penalty>
1.28654

> <r_epik_Charging_Adjusted_Penalty>
2.5618

> <i_epik_Tot_Q>
2

> <i_epik_Tot_abs_Q>
2

> <r_epik_Metal_State_Penalty>
1.36882

> <b_epik_Metal_Only>
0

> <s_epik_Chemistry_Notes>
This compound contains an electron-poor aromatic ring that is susceptible to covalent hydrolysis at low pH, typically resulting in measured values for nitrogen ring protonation that are around two units higher than predicted values.

> <s_lp_Force_Field>
OPLS_2005

> <r_lp_Energy>
13.455

> <b_lp_Chiralities_Consistent>
1

> <s_lp_Variant>
AV-unprocessed.smi:1875-5

> <Gold.Version>
5.8.1

> <Gold.Id.Protein>
6NUR|6NUR_protein|mol2

> <Gold.PLP.Fitness>
60.6201

> <Gold.PLP.PLP>
-46.6583

> <Gold.PLP.part.hbond>
-4.9137

> <Gold.PLP.part.metal>
0.0000

> <Gold.PLP.part.buried>
-6.2218

> <Gold.PLP.part.nonpolar>
-35.6556

> <Gold.PLP.part.repulsive>
0.1454

> <Gold.PLP.ligand.clash>
0.0000

> <Gold.PLP.ligand.torsion>
0.8584

> <Gold.PLP.Chemscore.Hbond>
5.1989

> <Gold.PLP.Chemscore.CHOScore>
0.0000

> <Gold.PLP.Chemscore.Metal>
0.0000

> <Gold.Chemscore.Hbonds>
donor molecule, donor type, donor heavy atom, donor atom, acceptor molecule, acceptor atom, score
      L1  H     8    48       P1  7948  2.00
      L1  H    15    49       P1  8028  2.00
      P1  H  6896  6909       L1     3  0.61
      P1  H 10752 10765       L1    11  0.24

> <Gold.PLP.Chemscore.Internal.Correction>
0.0820

> <Gold.Rescore>
     Score         DG    S(hbond)    S(metal)    S(lipo)     H(rot)  DE(clash)    DE(int)     intcor
     17.99     -19.82       2.36        0.00     118.33       2.88       0.22       1.61       ----

> <Gold.Chemscore.Fitness>
17.9910

> <Gold.Chemscore.DG>
-19.8159

> <Gold.Chemscore.ZeroCoef>
-5.4800

> <Gold.Chemscore.Hbond>
2.3576

> <Gold.Chemscore.Metal>
0.0000

> <Gold.Chemscore.Lipo>
118.3251

> <Gold.Chemscore.Internal_Hbond>
0.0000

> <Gold.Chemscore.DEClash>
0.2184

> <Gold.Chemscore.DEInternal>
1.6066

> <Gold.Chemscore.Rot>
2.8838

> <Gold.Chemscore.Internal.Correction>
   9.000000E+99

> <Gold.Chemscore.Hbonds>
donor molecule, donor type, donor heavy atom, donor atom, acceptor molecule, acceptor atom, score
      L1  H     8    48       P1  7948  0.55
      L1  H    15    49       P1  8028  1.00
      P1  H  6896  6909       L1     3  0.06
      P1  H 10752 10765       L1    11  0.05

> <Gold.Chemscore.Hbond.Weighted>
-7.8743

> <Gold.Chemscore.Metal.Weighted>
-0.0000

> <Gold.Chemscore.Lipo.Weighted>
-13.8440

> <Gold.Chemscore.Internal_Hbond.Weighted>
0.0000

> <Gold.Chemscore.DEClash.Weighted>
0.2184

> <Gold.Chemscore.DEInternal.Weighted>
1.6066

> <Gold.Chemscore.Rot.Weighted>
7.3824

> <Gold.Chemscore.Internal.Correction.Weighted>
   9.000000E+99

> <Gold.Protein.RotatedTorsions>
[ 6907 6896 6895 6894 ] final  -15.53 input  -60.11 | X-H torsion
[ 7974 7965 7964 7962 ] final   70.07 input  175.53 | X-H torsion
[ 8008 7997 7996 7995 ] final -118.67 input   59.86 | X-H torsion
[ 10167 10162 10161 10158 ] final   70.53 input  -65.29 | X-H torsion
[ 10718 10713 10712 10709 ] final  144.80 input   66.30 | X-H torsion
[ 10763 10752 10751 10750 ] final  158.28 input  -60.55 | X-H torsion
[ 11005 11000 10999 10996 ] final -172.53 input  -57.11 | X-H torsion

> <Gold.Protein.ActiveResidues>
 VAL166  LYS551  ARG553  GLY616  TRP617  ASP618  TYR619  PRO620  LYS621  CYS622 
 ASP623  PHE694  ASN695  SER759  ASP760  ASP761  ALA762  ILE779  LEU786  VAL792 
 PHE793  MET794  SER795  GLU796  ALA797  LYS798  CYS799  TRP800  GLU811  SER814 

> <Gold.Protein.RotatedAtoms>
  151.3225  135.0822  159.9310 H   0  0  0  0  0  0  0  0  0  0  0  0  # atno 6907 bound_to 6896
  152.5253  133.9625  159.7734 H   0  0  0  0  0  0  0  0  0  0  0  0  # atno 6908 bound_to 6896
  150.9948  133.6061  159.2733 H   0  0  0  0  0  0  0  0  0  0  0  0  # atno 6909 bound_to 6896
  145.7827  139.2895  143.1256 H   0  0  0  0  0  0  0  0  0  0  0  0  # atno 7974 bound_to 7965
  155.1033  140.0396  157.2703 H   0  0  0  0  0  0  0  0  0  0  0  0  # atno 8008 bound_to 7997
  154.6741  140.2618  155.6951 H   0  0  0  0  0  0  0  0  0  0  0  0  # atno 8009 bound_to 7997
  156.2670  140.2792  156.1261 H   0  0  0  0  0  0  0  0  0  0  0  0  # atno 8010 bound_to 7997
  140.0559  144.5273  150.7329 H   0  0  0  0  0  0  0  0  0  0  0  0  # atno 10167 bound_to 10162
  157.3528  131.0953  151.0984 H   0  0  0  0  0  0  0  0  0  0  0  0  # atno 10718 bound_to 10713
  154.2136  135.2785  155.2950 H   0  0  0  0  0  0  0  0  0  0  0  0  # atno 10763 bound_to 10752
  154.5759  135.5604  153.7142 H   0  0  0  0  0  0  0  0  0  0  0  0  # atno 10764 bound_to 10752
  153.0058  135.6332  154.2275 H   0  0  0  0  0  0  0  0  0  0  0  0  # atno 10765 bound_to 10752
  140.4959  134.5940  157.4971 H   0  0  0  0  0  0  0  0  0  0  0  0  # atno 11005 bound_to 11000
  146.0058  140.8480  142.9996 LP  0  0  0  0  0  0  0  0  0  0  0  0  # atno 17320 bound_to 7965
  144.6794  140.2418  143.7343 LP  0  0  0  0  0  0  0  0  0  0  0  0  # atno 17321 bound_to 7965
  140.7195  143.2575  151.4326 LP  0  0  0  0  0  0  0  0  0  0  0  0  # atno 17342 bound_to 10162
  139.5924  144.1471  152.2104 LP  0  0  0  0  0  0  0  0  0  0  0  0  # atno 17343 bound_to 10162
  157.2154  130.6457  149.5790 LP  0  0  0  0  0  0  0  0  0  0  0  0  # atno 17370 bound_to 10713
  155.9724  130.4646  150.6225 LP  0  0  0  0  0  0  0  0  0  0  0  0  # atno 17371 bound_to 10713
  139.9741  134.7244  155.9983 LP  0  0  0  0  0  0  0  0  0  0  0  0  # atno 17394 bound_to 11000
  141.1460  133.6556  156.3869 LP  0  0  0  0  0  0  0  0  0  0  0  0  # atno 17395 bound_to 11000

$$$$
