AV-unprocessed.smi:33|AV-procd|sdf|203|dock10
  -GOLD-   2262015483D 1   1.00000     0.00000
 Structure written by MMmdl.
 67 72  0  0  0  0  0  0  0  0  1 V2000
  153.6276  140.6251  160.2245 O   0  0  0  0  0  0  0  0  0  0  0  0
  152.9317  141.2232  159.4014 C   0  0  0  0  0  0  0  0  0  0  0  0
  152.4471  140.6530  158.2803 O   0  0  0  0  0  0  0  0  0  0  0  0
  152.8028  139.3199  157.9521 C   0  0  0  0  0  0  0  0  0  0  0  0
  151.7514  138.7359  157.0003 C   0  0  2  0  0  0  0  0  0  0  0  0
  151.5427  137.3505  157.2529 O   0  0  0  0  0  0  0  0  0  0  0  0
  150.9749  136.7495  156.1256 C   0  0  1  0  0  0  0  0  0  0  0  0
  149.5150  136.5561  156.4084 N   0  0  0  0  0  0  0  0  0  0  0  0
  148.4458  137.3768  156.1089 C   0  0  0  0  0  0  0  0  0  0  0  0
  147.2798  136.9510  156.5137 N   0  0  0  0  0  0  0  0  0  0  0  0
  147.5663  135.7546  157.1558 C   0  0  0  0  0  0  0  0  0  0  0  0
  146.7808  134.7839  157.8323 C   0  0  0  0  0  0  0  0  0  0  0  0
  145.4397  134.8950  157.9700 N   0  0  0  0  0  0  0  0  0  0  0  0
  144.8955  134.7491  159.3278 C   0  0  0  0  0  0  0  0  0  0  0  0
  143.7274  134.3860  159.4794 O   0  0  0  0  0  0  0  0  0  0  0  0
  145.7634  134.9991  160.5280 C   0  0  0  0  0  0  0  0  0  0  0  0
  146.5718  136.1555  160.5878 C   0  0  0  0  0  0  0  0  0  0  0  0
  147.3966  136.3878  161.7055 C   0  0  0  0  0  0  0  0  0  0  0  0
  147.4331  135.4563  162.7607 C   0  0  0  0  0  0  0  0  0  0  0  0
  146.6523  134.2867  162.6935 C   0  0  0  0  0  0  0  0  0  0  0  0
  145.8267  134.0540  161.5768 C   0  0  0  0  0  0  0  0  0  0  0  0
  144.6583  135.1399  156.7487 C   0  0  0  0  0  0  0  0  0  0  0  0
  143.5486  135.6699  156.8340 O   0  0  0  0  0  0  0  0  0  0  0  0
  145.2213  134.8024  155.3970 C   0  0  0  0  0  0  0  0  0  0  0  0
  145.0005  135.6700  154.3048 C   0  0  0  0  0  0  0  0  0  0  0  0
  145.5108  135.3531  153.0312 C   0  0  0  0  0  0  0  0  0  0  0  0
  146.2290  134.1578  152.8372 C   0  0  0  0  0  0  0  0  0  0  0  0
  146.4289  133.2747  153.9153 C   0  0  0  0  0  0  0  0  0  0  0  0
  145.9193  133.5911  155.1895 C   0  0  0  0  0  0  0  0  0  0  0  0
  147.4139  133.7086  158.3676 N   0  0  0  0  0  0  0  0  0  0  0  0
  148.7397  133.5922  158.2449 C   0  0  0  0  0  0  0  0  0  0  0  0
  149.5988  134.4179  157.6415 N   0  0  0  0  0  0  0  0  0  0  0  0
  148.9637  135.4997  157.1026 C   0  0  0  0  0  0  0  0  0  0  0  0
  151.1931  137.7117  154.9420 C   0  0  2  0  0  0  0  0  0  0  0  0
  151.7390  137.0886  153.7969 O   0  0  0  0  0  0  0  0  0  0  0  0
  152.1659  138.7248  155.5302 C   0  0  2  0  0  0  0  0  0  0  0  0
  153.4238  138.2815  155.4420 F   0  0  0  0  0  0  0  0  0  0  0  0
  152.5375  142.6551  159.5431 C   0  0  0  0  0  0  0  0  0  0  0  0
  152.2214  143.4042  158.3854 C   0  0  0  0  0  0  0  0  0  0  0  0
  151.8486  144.7586  158.4866 C   0  0  0  0  0  0  0  0  0  0  0  0
  151.7875  145.3809  159.7471 C   0  0  0  0  0  0  0  0  0  0  0  0
  152.0985  144.6464  160.9065 C   0  0  0  0  0  0  0  0  0  0  0  0
  152.4713  143.2917  160.8072 C   0  0  0  0  0  0  0  0  0  0  0  0
  153.7782  139.3241  157.4634 H   0  0  0  0  0  0  0  0  0  0  0  0
  152.8875  138.7133  158.8548 H   0  0  0  0  0  0  0  0  0  0  0  0
  150.8128  139.2803  157.1080 H   0  0  0  0  0  0  0  0  0  0  0  0
  151.3893  135.7527  155.9730 H   0  0  0  0  0  0  0  0  0  0  0  0
  148.5476  138.3081  155.5729 H   0  0  0  0  0  0  0  0  0  0  0  0
  146.5511  136.8771  159.7839 H   0  0  0  0  0  0  0  0  0  0  0  0
  148.0018  137.2811  161.7526 H   0  0  0  0  0  0  0  0  0  0  0  0
  148.0649  135.6357  163.6181 H   0  0  0  0  0  0  0  0  0  0  0  0
  146.6868  133.5669  163.4979 H   0  0  0  0  0  0  0  0  0  0  0  0
  145.2352  133.1506  161.5332 H   0  0  0  0  0  0  0  0  0  0  0  0
  144.4506  136.5901  154.4418 H   0  0  0  0  0  0  0  0  0  0  0  0
  145.3502  136.0273  152.2028 H   0  0  0  0  0  0  0  0  0  0  0  0
  146.6201  133.9154  151.8603 H   0  0  0  0  0  0  0  0  0  0  0  0
  146.9721  132.3536  153.7651 H   0  0  0  0  0  0  0  0  0  0  0  0
  146.0741  132.9028  156.0079 H   0  0  0  0  0  0  0  0  0  0  0  0
  149.1749  132.7124  158.6954 H   0  0  0  0  0  0  0  0  0  0  0  0
  150.2595  138.2053  154.6716 H   0  0  0  0  0  0  0  0  0  0  0  0
  151.0495  136.9761  153.1602 H   0  0  0  0  0  0  0  0  0  0  0  0
  152.1182  139.7042  155.0535 H   0  0  0  0  0  0  0  0  0  0  0  0
  152.2619  142.9486  157.4064 H   0  0  0  0  0  0  0  0  0  0  0  0
  151.6100  145.3202  157.5955 H   0  0  0  0  0  0  0  0  0  0  0  0
  151.5025  146.4197  159.8243 H   0  0  0  0  0  0  0  0  0  0  0  0
  152.0520  145.1230  161.8748 H   0  0  0  0  0  0  0  0  0  0  0  0
  152.7045  142.7574  161.7167 H   0  0  0  0  0  0  0  0  0  0  0  0
  1  2  2  0  0  0  0
  2  3  1  0  0  0  0
  2 38  1  0  0  0  0
  3  4  1  0  0  0  0
  4  5  1  0  0  0  0
  4 44  1  0  0  0  0
  4 45  1  0  0  0  0
  5 36  1  0  0  0  0
  5  6  1  0  0  0  0
  5 46  1  0  0  0  0
  6  7  1  0  0  0  0
  7  8  1  0  0  0  0
  7 34  1  0  0  0  0
  7 47  1  0  0  0  0
  8 33  1  0  0  0  0
  8  9  1  0  0  0  0
  9 10  2  0  0  0  0
  9 48  1  0  0  0  0
 10 11  1  0  0  0  0
 11 33  2  0  0  0  0
 11 12  1  0  0  0  0
 12 13  1  0  0  0  0
 12 30  2  0  0  0  0
 13 14  1  0  0  0  0
 13 22  1  0  0  0  0
 14 15  2  0  0  0  0
 14 16  1  0  0  0  0
 16 21  1  0  0  0  0
 16 17  2  0  0  0  0
 17 18  1  0  0  0  0
 17 49  1  0  0  0  0
 18 19  2  0  0  0  0
 18 50  1  0  0  0  0
 19 20  1  0  0  0  0
 19 51  1  0  0  0  0
 20 21  2  0  0  0  0
 20 52  1  0  0  0  0
 21 53  1  0  0  0  0
 22 23  2  0  0  0  0
 22 24  1  0  0  0  0
 24 29  1  0  0  0  0
 24 25  2  0  0  0  0
 25 26  1  0  0  0  0
 25 54  1  0  0  0  0
 26 27  2  0  0  0  0
 26 55  1  0  0  0  0
 27 28  1  0  0  0  0
 27 56  1  0  0  0  0
 28 29  2  0  0  0  0
 28 57  1  0  0  0  0
 29 58  1  0  0  0  0
 30 31  1  0  0  0  0
 31 32  2  0  0  0  0
 31 59  1  0  0  0  0
 32 33  1  0  0  0  0
 34 35  1  0  0  0  0
 34 36  1  0  0  0  0
 34 60  1  0  0  0  0
 35 61  1  0  0  0  0
 36 37  1  0  0  0  0
 36 62  1  0  0  0  0
 38 43  1  0  0  0  0
 38 39  2  0  0  0  0
 39 40  1  0  0  0  0
 39 63  1  0  0  0  0
 40 41  2  0  0  0  0
 40 64  1  0  0  0  0
 41 42  1  0  0  0  0
 41 65  1  0  0  0  0
 42 43  2  0  0  0  0
 42 66  1  0  0  0  0
 43 67  1  0  0  0  0
M  END
> <s_m_source_file>
AV-unprocessed.smi

> <i_m_source_file_index>
33

> <i_lp_mmshare_version>
43012

> <i_f3d_flags>
0

> <s_epik_input>
W2NIXTFbY0hdW2NIXVtjSF1bY0hdYzFDKD1PKU9bQ0gyXVtDQEBIXTJPW0NASF0oW0NAQEhdKFtPSF0pW0NAQEhdMkYpbihbY0hdbjMpYyhjMzQpbltjSF1uYzROKEMoPU8pYzVbY0hdW2NIXVtjSF1bY0hdW2NIXTUpQyg9TyljNltjSF1bY0hdW2NIXVtjSF1bY0hdNg==

> <s_epik_cmdline>
J2VwaWtfcHl0aG9uJywgJy1waCcsICc3LjAnLCAnLXRuJywgJzgnLCAnLW1hJywgJzIwMCcsICctbWV0YWxfYmluZGluZycsICctaW1hZScsICc8aW5maWxlLm1hZT4nLCAnLW9tYWUnLCAnPG91dGZpbGUubWFlPic=

> <r_lp_tautomer_probability>
1

> <r_epik_Ionization_Penalty>
0.00067664

> <r_epik_Ionization_Penalty_Charging>
0

> <r_epik_Ionization_Penalty_Neutral>
0.00067664

> <r_epik_State_Penalty>
0.000428095

> <r_epik_Charging_Adjusted_Penalty>
0.000428095

> <i_epik_Tot_Q>
0

> <i_epik_Tot_abs_Q>
0

> <r_epik_Metal_State_Penalty>
-0

> <b_epik_Metal_Only>
0

> <s_epik_Chemistry_Notes>
This compound has an ester and may undergo hydrolysis at high or low pH. This compound contains an acetal/aminal-like group ( X-CH(R)-Y where X, Y are N, S, or O) that may be acid/base labile, releasing an aldehyde.

> <s_lp_Force_Field>
OPLS_2005

> <r_lp_Energy>
70.8142

> <b_lp_Chiralities_Consistent>
1

> <s_lp_Variant>
AV-unprocessed.smi:33-5

> <Gold.Version>
5.8.1

> <Gold.Id.Protein>
6NUR|6NUR_protein|mol2

> <Gold.PLP.Fitness>
59.3133

> <Gold.PLP.PLP>
-58.3151

> <Gold.PLP.part.hbond>
-3.0000

> <Gold.PLP.part.metal>
0.0000

> <Gold.PLP.part.buried>
-6.4495

> <Gold.PLP.part.nonpolar>
-50.3534

> <Gold.PLP.part.repulsive>
0.0249

> <Gold.PLP.ligand.clash>
0.0000

> <Gold.PLP.ligand.torsion>
4.3860

> <Gold.PLP.Chemscore.Hbond>
1.8714

> <Gold.PLP.Chemscore.CHOScore>
0.0000

> <Gold.PLP.Chemscore.Metal>
0.0000

> <Gold.Chemscore.Hbonds>
donor molecule, donor type, donor heavy atom, donor atom, acceptor molecule, acceptor atom, score
      L1  H    35    61       P1  7949  0.53
      P1  H  6896  6909       L1    32  0.20
      P1  H 10752 10764       L1    35  1.00

> <Gold.PLP.Chemscore.Internal.Correction>
4.1560

> <Gold.Rescore>
     Score         DG    S(hbond)    S(metal)    S(lipo)     H(rot)  DE(clash)    DE(int)     intcor
     14.24     -21.17       1.37        0.00     150.34       2.52       0.32       6.62       ----

> <Gold.Chemscore.Fitness>
14.2357

> <Gold.Chemscore.DG>
-21.1720

> <Gold.Chemscore.ZeroCoef>
-5.4800

> <Gold.Chemscore.Hbond>
1.3669

> <Gold.Chemscore.Metal>
0.0000

> <Gold.Chemscore.Lipo>
150.3392

> <Gold.Chemscore.Internal_Hbond>
0.0000

> <Gold.Chemscore.DEClash>
0.3176

> <Gold.Chemscore.DEInternal>
6.6187

> <Gold.Chemscore.Rot>
2.5247

> <Gold.Chemscore.Internal.Correction>
   9.000000E+99

> <Gold.Chemscore.Hbonds>
donor molecule, donor type, donor heavy atom, donor atom, acceptor molecule, acceptor atom, score
      L1  H    35    61       P1  7949  0.19
      P1  H 10752 10764       L1    35  0.93

> <Gold.Chemscore.Hbond.Weighted>
-4.5655

> <Gold.Chemscore.Metal.Weighted>
-0.0000

> <Gold.Chemscore.Lipo.Weighted>
-17.5897

> <Gold.Chemscore.Internal_Hbond.Weighted>
0.0000

> <Gold.Chemscore.DEClash.Weighted>
0.3176

> <Gold.Chemscore.DEInternal.Weighted>
6.6187

> <Gold.Chemscore.Rot.Weighted>
6.4633

> <Gold.Chemscore.Internal.Correction.Weighted>
   9.000000E+99

> <Gold.Protein.RotatedTorsions>
[ 6907 6896 6895 6894 ] final   37.03 input  -60.11 | X-H torsion
[ 7974 7965 7964 7962 ] final   -8.05 input  175.53 | X-H torsion
[ 8008 7997 7996 7995 ] final  150.50 input   59.86 | X-H torsion
[ 10167 10162 10161 10158 ] final   88.69 input  -65.29 | X-H torsion
[ 10718 10713 10712 10709 ] final  157.55 input   66.30 | X-H torsion
[ 10763 10752 10751 10750 ] final  -99.90 input  -60.55 | X-H torsion
[ 11005 11000 10999 10996 ] final  153.66 input  -57.11 | X-H torsion

> <Gold.Protein.ActiveResidues>
 VAL166  LYS551  ARG553  GLY616  TRP617  ASP618  TYR619  PRO620  LYS621  CYS622 
 ASP623  PHE694  ASN695  SER759  ASP760  ASP761  ALA762  ILE779  LEU786  VAL792 
 PHE793  MET794  SER795  GLU796  ALA797  LYS798  CYS799  TRP800  GLU811  SER814 

> <Gold.Protein.RotatedAtoms>
  152.1376  134.9087  160.0555 H   0  0  0  0  0  0  0  0  0  0  0  0  # atno 6907 bound_to 6896
  152.0167  133.3877  159.4250 H   0  0  0  0  0  0  0  0  0  0  0  0  # atno 6908 bound_to 6896
  150.6862  134.3592  159.4987 H   0  0  0  0  0  0  0  0  0  0  0  0  # atno 6909 bound_to 6896
  146.2291  140.2410  142.8343 H   0  0  0  0  0  0  0  0  0  0  0  0  # atno 7974 bound_to 7965
  156.2713  140.2073  156.6027 H   0  0  0  0  0  0  0  0  0  0  0  0  # atno 8008 bound_to 7997
  154.6894  140.0532  157.0371 H   0  0  0  0  0  0  0  0  0  0  0  0  # atno 8009 bound_to 7997
  155.0888  140.3194  155.4582 H   0  0  0  0  0  0  0  0  0  0  0  0  # atno 8010 bound_to 7997
  139.8648  144.6525  150.9017 H   0  0  0  0  0  0  0  0  0  0  0  0  # atno 10167 bound_to 10162
  157.1899  131.0652  151.2085 H   0  0  0  0  0  0  0  0  0  0  0  0  # atno 10718 bound_to 10713
  154.7535  135.4955  153.9333 H   0  0  0  0  0  0  0  0  0  0  0  0  # atno 10763 bound_to 10752
  153.1170  135.6723  153.9408 H   0  0  0  0  0  0  0  0  0  0  0  0  # atno 10764 bound_to 10752
  153.9151  135.3094  155.3427 H   0  0  0  0  0  0  0  0  0  0  0  0  # atno 10765 bound_to 10752
  140.1418  134.8734  157.2340 H   0  0  0  0  0  0  0  0  0  0  0  0  # atno 11005 bound_to 11000
  144.9484  140.8153  143.5587 LP  0  0  0  0  0  0  0  0  0  0  0  0  # atno 17320 bound_to 7965
  145.2369  139.2090  143.5013 LP  0  0  0  0  0  0  0  0  0  0  0  0  # atno 17321 bound_to 7965
  140.7770  143.3714  151.1643 LP  0  0  0  0  0  0  0  0  0  0  0  0  # atno 17342 bound_to 10162
  139.7340  143.9028  152.3029 LP  0  0  0  0  0  0  0  0  0  0  0  0  # atno 17343 bound_to 10162
  157.3871  130.7262  149.6671 LP  0  0  0  0  0  0  0  0  0  0  0  0  # atno 17370 bound_to 10713
  155.9713  130.4156  150.4192 LP  0  0  0  0  0  0  0  0  0  0  0  0  # atno 17371 bound_to 10713
  140.2713  134.3457  155.7372 LP  0  0  0  0  0  0  0  0  0  0  0  0  # atno 17394 bound_to 11000
  141.2187  133.7425  156.9227 LP  0  0  0  0  0  0  0  0  0  0  0  0  # atno 17395 bound_to 11000

$$$$
