AV-unprocessed.smi:240|AV-procd|sdf|1833|dock7
  -GOLD-   2262020443D 1   1.00000     0.00000
 Structure written by MMmdl.
 55 59  0  0  0  0  0  0  0  0  1 V2000
  149.6503  140.0416  153.9543 O   0  0  0  0  0  0  0  0  0  0  0  0
  149.7657  138.6417  154.1101 C   0  0  1  0  0  0  0  0  0  0  0  0
  151.2561  138.3201  154.2724 C   0  0  0  0  0  0  0  0  0  0  0  0
  151.5571  138.4712  155.7741 C   0  0  0  0  0  0  0  0  0  0  0  0
  150.1987  138.5047  156.4944 C   0  0  0  0  0  0  0  0  0  0  0  0
  149.1667  138.1138  155.4264 C   0  0  1  0  0  0  0  0  0  0  0  0
  147.6602  138.3924  155.7492 C   0  0  2  0  0  0  0  0  0  0  0  0
  147.4328  139.4358  156.8767 C   0  0  0  0  0  0  0  0  0  0  0  0
  146.0466  139.6026  157.1490 O   0  0  0  0  0  0  0  0  0  0  0  0
  145.4475  138.3989  157.6020 C   0  0  0  0  0  0  0  0  0  0  0  0
  145.5425  137.3616  156.4797 C   0  0  0  0  0  0  0  0  0  0  0  0
  146.9336  137.1571  156.0911 N   0  0  0  0  0  0  0  0  0  0  0  0
  147.0140  136.1223  155.2226 C   0  0  0  0  0  0  0  0  0  0  0  0
  147.7288  135.0112  155.5434 N   0  0  0  0  0  0  0  0  0  0  0  0
  147.8084  133.9971  154.6765 C   0  0  0  0  0  0  0  0  0  0  0  0
  147.2680  133.8942  153.4598 N   0  0  0  0  0  0  0  0  0  0  0  0
  146.5607  135.0142  153.1333 C   0  0  0  0  0  0  0  0  0  0  0  0
  146.3851  136.1644  153.9513 C   0  0  0  0  0  0  0  0  0  0  0  0
  145.6009  137.1038  153.2956 N   0  0  0  0  0  0  0  0  0  0  0  0
  145.3269  136.5399  152.1508 C   0  0  0  0  0  0  0  0  0  0  0  0
  145.8713  135.2880  151.9646 N   0  0  0  0  0  0  0  0  0  0  0  0
  145.7267  134.4403  150.7903 C   0  0  0  0  0  0  0  0  0  0  0  0
  144.4219  133.6071  150.7808 C   0  0  2  0  0  0  0  0  0  0  0  0
  143.3416  134.4441  151.1534 O   0  0  0  0  0  0  0  0  0  0  0  0
  144.4832  132.4171  151.7411 C   0  0  0  0  0  0  0  0  0  0  0  0
  144.5853  131.2130  150.8128 C   0  0  0  0  0  0  0  0  0  0  0  0
  143.7860  131.6040  149.7111 O   0  0  0  0  0  0  0  0  0  0  0  0
  144.1132  132.9548  149.4178 C   0  0  0  0  0  0  0  0  0  0  0  0
  149.8677  140.2617  153.0612 H   0  0  0  0  0  0  0  0  0  0  0  0
  149.3350  138.1498  153.2373 H   0  0  0  0  0  0  0  0  0  0  0  0
  151.4298  137.2838  153.9789 H   0  0  0  0  0  0  0  0  0  0  0  0
  151.9012  138.9394  153.6476 H   0  0  0  0  0  0  0  0  0  0  0  0
  152.1728  137.6429  156.1261 H   0  0  0  0  0  0  0  0  0  0  0  0
  152.1086  139.3916  155.9690 H   0  0  0  0  0  0  0  0  0  0  0  0
  150.1736  137.8315  157.3520 H   0  0  0  0  0  0  0  0  0  0  0  0
  150.0151  139.5120  156.8659 H   0  0  0  0  0  0  0  0  0  0  0  0
  149.2643  137.0335  155.3167 H   0  0  0  0  0  0  0  0  0  0  0  0
  147.1996  138.7951  154.8457 H   0  0  0  0  0  0  0  0  0  0  0  0
  147.9474  139.1566  157.7963 H   0  0  0  0  0  0  0  0  0  0  0  0
  147.8010  140.4166  156.5868 H   0  0  0  0  0  0  0  0  0  0  0  0
  145.9364  138.0442  158.5109 H   0  0  0  0  0  0  0  0  0  0  0  0
  144.4038  138.5909  157.8508 H   0  0  0  0  0  0  0  0  0  0  0  0
  145.1018  136.4208  156.8134 H   0  0  0  0  0  0  0  0  0  0  0  0
  144.9675  137.6984  155.6156 H   0  0  0  0  0  0  0  0  0  0  0  0
  148.3898  133.1477  155.0034 H   0  0  0  0  0  0  0  0  0  0  0  0
  144.7190  137.0274  151.4025 H   0  0  0  0  0  0  0  0  0  0  0  0
  145.7689  135.0737  149.9033 H   0  0  0  0  0  0  0  0  0  0  0  0
  146.5959  133.7835  150.7355 H   0  0  0  0  0  0  0  0  0  0  0  0
  142.6392  134.3180  150.5337 H   0  0  0  0  0  0  0  0  0  0  0  0
  145.3135  132.4678  152.4464 H   0  0  0  0  0  0  0  0  0  0  0  0
  143.5644  132.3358  152.3246 H   0  0  0  0  0  0  0  0  0  0  0  0
  145.6147  131.0546  150.4862 H   0  0  0  0  0  0  0  0  0  0  0  0
  144.2209  130.2937  151.2716 H   0  0  0  0  0  0  0  0  0  0  0  0
  143.3121  133.4488  148.8662 H   0  0  0  0  0  0  0  0  0  0  0  0
  144.9947  132.9448  148.7765 H   0  0  0  0  0  0  0  0  0  0  0  0
  1  2  1  0  0  0  0
  1 29  1  0  0  0  0
  2  6  1  0  0  0  0
  2  3  1  0  0  0  0
  2 30  1  0  0  0  0
  3  4  1  0  0  0  0
  3 31  1  0  0  0  0
  3 32  1  0  0  0  0
  4  5  1  0  0  0  0
  4 33  1  0  0  0  0
  4 34  1  0  0  0  0
  5  6  1  0  0  0  0
  5 35  1  0  0  0  0
  5 36  1  0  0  0  0
  6  7  1  0  0  0  0
  6 37  1  0  0  0  0
  7 12  1  0  0  0  0
  7  8  1  0  0  0  0
  7 38  1  0  0  0  0
  8  9  1  0  0  0  0
  8 39  1  0  0  0  0
  8 40  1  0  0  0  0
  9 10  1  0  0  0  0
 10 11  1  0  0  0  0
 10 41  1  0  0  0  0
 10 42  1  0  0  0  0
 11 12  1  0  0  0  0
 11 43  1  0  0  0  0
 11 44  1  0  0  0  0
 12 13  1  0  0  0  0
 13 18  1  0  0  0  0
 13 14  2  0  0  0  0
 14 15  1  0  0  0  0
 15 16  2  0  0  0  0
 15 45  1  0  0  0  0
 16 17  1  0  0  0  0
 17 21  1  0  0  0  0
 17 18  2  0  0  0  0
 18 19  1  0  0  0  0
 19 20  2  0  0  0  0
 20 21  1  0  0  0  0
 20 46  1  0  0  0  0
 21 22  1  0  0  0  0
 22 23  1  0  0  0  0
 22 47  1  0  0  0  0
 22 48  1  0  0  0  0
 23 28  1  0  0  0  0
 23 24  1  0  0  0  0
 23 25  1  0  0  0  0
 24 49  1  0  0  0  0
 25 26  1  0  0  0  0
 25 50  1  0  0  0  0
 25 51  1  0  0  0  0
 26 27  1  0  0  0  0
 26 52  1  0  0  0  0
 26 53  1  0  0  0  0
 27 28  1  0  0  0  0
 28 54  1  0  0  0  0
 28 55  1  0  0  0  0
M  END
> <s_m_source_file>
AV-unprocessed.smi

> <i_m_source_file_index>
240

> <i_lp_mmshare_version>
43012

> <i_f3d_flags>
0

> <s_epik_input>
W09IXVtDQEBIXTFbQ0gyXVtDSDJdW0NIMl1bQ0BIXTFbQ0BASF0yW0NIMl1PW0NIMl1bQ0gyXU4yYyhuW2NIXW4zKWMoYzM0KW5bY0hdbjRbQ0gyXVtDQEBdNShbT0hdKVtDSDJdW0NIMl1PW0NIMl01

> <s_epik_cmdline>
J2VwaWtfcHl0aG9uJywgJy1waCcsICc3LjAnLCAnLXRuJywgJzgnLCAnLW1hJywgJzIwMCcsICctbWV0YWxfYmluZGluZycsICctaW1hZScsICc8aW5maWxlLm1hZT4nLCAnLW9tYWUnLCAnPG91dGZpbGUubWFlPic=

> <r_lp_tautomer_probability>
1

> <r_epik_Ionization_Penalty>
0.000130618

> <r_epik_Ionization_Penalty_Charging>
0

> <r_epik_Ionization_Penalty_Neutral>
0.000130618

> <r_epik_State_Penalty>
-0

> <r_epik_Charging_Adjusted_Penalty>
0

> <i_epik_Tot_Q>
0

> <i_epik_Tot_abs_Q>
0

> <r_epik_Metal_State_Penalty>
-0

> <b_epik_Metal_Only>
0

> <s_lp_Force_Field>
OPLS_2005

> <r_lp_Energy>
64.6726

> <b_lp_Chiralities_Consistent>
1

> <s_lp_Variant>
AV-unprocessed.smi:240-10

> <Gold.Version>
5.8.1

> <Gold.Id.Protein>
6NUR|6NUR_protein|mol2

> <Gold.PLP.Fitness>
37.2700

> <Gold.PLP.PLP>
-29.3600

> <Gold.PLP.part.hbond>
-3.9939

> <Gold.PLP.part.metal>
0.0000

> <Gold.PLP.part.buried>
-2.6061

> <Gold.PLP.part.nonpolar>
-23.1322

> <Gold.PLP.part.repulsive>
0.5160

> <Gold.PLP.ligand.clash>
0.0000

> <Gold.PLP.ligand.torsion>
1.9078

> <Gold.PLP.Chemscore.Hbond>
2.8320

> <Gold.PLP.Chemscore.CHOScore>
1.0000

> <Gold.PLP.Chemscore.Metal>
0.0000

> <Gold.Chemscore.Hbonds>
donor molecule, donor type, donor heavy atom, donor atom, acceptor molecule, acceptor atom, score
      L1  H     1    29       P1  7957  1.00
      L1  H    24    49       P1 10186  1.00
      P1  H 10785 10796       L1    27  0.83
      L1  C    20    46       P1 10171  1.00

> <Gold.PLP.Chemscore.Internal.Correction>
0.2297

> <Gold.Rescore>
     Score         DG    S(hbond)    S(metal)    S(lipo)     H(rot)  DE(clash)    DE(int)     intcor
     12.39     -14.49       2.52        0.00      70.80       3.00       0.17       1.92       ----

> <Gold.Chemscore.Fitness>
12.3931

> <Gold.Chemscore.DG>
-14.4874

> <Gold.Chemscore.ZeroCoef>
-5.4800

> <Gold.Chemscore.Hbond>
2.5190

> <Gold.Chemscore.Metal>
0.0000

> <Gold.Chemscore.Lipo>
70.8020

> <Gold.Chemscore.Internal_Hbond>
0.0000

> <Gold.Chemscore.DEClash>
0.1723

> <Gold.Chemscore.DEInternal>
1.9220

> <Gold.Chemscore.Rot>
3.0039

> <Gold.Chemscore.Internal.Correction>
   9.000000E+99

> <Gold.Chemscore.Hbonds>
donor molecule, donor type, donor heavy atom, donor atom, acceptor molecule, acceptor atom, score
      L1  H     1    29       P1  7957  0.95
      L1  H    24    49       P1 10186  0.55
      P1  H 10785 10796       L1    27  0.64

> <Gold.Chemscore.Hbond.Weighted>
-8.4135

> <Gold.Chemscore.Metal.Weighted>
-0.0000

> <Gold.Chemscore.Lipo.Weighted>
-8.2838

> <Gold.Chemscore.Internal_Hbond.Weighted>
0.0000

> <Gold.Chemscore.DEClash.Weighted>
0.1723

> <Gold.Chemscore.DEInternal.Weighted>
1.9220

> <Gold.Chemscore.Rot.Weighted>
7.6899

> <Gold.Chemscore.Internal.Correction.Weighted>
   9.000000E+99

> <Gold.Protein.RotatedTorsions>
[ 6907 6896 6895 6894 ] final -141.16 input  -60.11 | X-H torsion
[ 7974 7965 7964 7962 ] final   82.75 input  175.53 | X-H torsion
[ 8008 7997 7996 7995 ] final    6.54 input   59.86 | X-H torsion
[ 10167 10162 10161 10158 ] final -140.64 input  -65.29 | X-H torsion
[ 10718 10713 10712 10709 ] final   98.20 input   66.30 | X-H torsion
[ 10763 10752 10751 10750 ] final  138.63 input  -60.55 | X-H torsion
[ 11005 11000 10999 10996 ] final -113.65 input  -57.11 | X-H torsion

> <Gold.Protein.ActiveResidues>
 VAL166  LYS551  ARG553  GLY616  TRP617  ASP618  TYR619  PRO620  LYS621  CYS622 
 ASP623  PHE694  ASN695  SER759  ASP760  ASP761  ALA762  ILE779  LEU786  VAL792 
 PHE793  MET794  SER795  GLU796  ALA797  LYS798  CYS799  TRP800  GLU811  SER814 

> <Gold.Protein.RotatedAtoms>
  151.0702  133.5473  159.2627 H   0  0  0  0  0  0  0  0  0  0  0  0  # atno 6907 bound_to 6896
  151.2415  135.0590  159.9037 H   0  0  0  0  0  0  0  0  0  0  0  0  # atno 6908 bound_to 6896
  152.5410  134.0476  159.8149 H   0  0  0  0  0  0  0  0  0  0  0  0  # atno 6909 bound_to 6896
  145.6209  139.2386  143.2139 H   0  0  0  0  0  0  0  0  0  0  0  0  # atno 7974 bound_to 7965
  154.7423  140.2751  155.6362 H   0  0  0  0  0  0  0  0  0  0  0  0  # atno 8008 bound_to 7997
  156.2876  140.2694  156.2080 H   0  0  0  0  0  0  0  0  0  0  0  0  # atno 8009 bound_to 7997
  155.0242  140.0371  157.2439 H   0  0  0  0  0  0  0  0  0  0  0  0  # atno 8010 bound_to 7997
  139.8262  143.7508  152.2666 H   0  0  0  0  0  0  0  0  0  0  0  0  # atno 10167 bound_to 10162
  157.6900  131.0633  150.4760 H   0  0  0  0  0  0  0  0  0  0  0  0  # atno 10718 bound_to 10713
  153.8927  135.3031  155.3447 H   0  0  0  0  0  0  0  0  0  0  0  0  # atno 10763 bound_to 10752
  154.7708  135.4887  153.9649 H   0  0  0  0  0  0  0  0  0  0  0  0  # atno 10764 bound_to 10752
  153.1288  135.6799  153.9311 H   0  0  0  0  0  0  0  0  0  0  0  0  # atno 10765 bound_to 10752
  141.0601  133.9550  157.2683 H   0  0  0  0  0  0  0  0  0  0  0  0  # atno 11005 bound_to 11000
  146.1431  140.7029  142.9357 LP  0  0  0  0  0  0  0  0  0  0  0  0  # atno 17320 bound_to 7965
  144.7231  140.4439  143.6993 LP  0  0  0  0  0  0  0  0  0  0  0  0  # atno 17321 bound_to 7965
  139.7701  144.7479  151.0237 LP  0  0  0  0  0  0  0  0  0  0  0  0  # atno 17342 bound_to 10162
  140.7810  143.4654  151.0219 LP  0  0  0  0  0  0  0  0  0  0  0  0  # atno 17343 bound_to 10162
  156.5094  130.4136  149.6309 LP  0  0  0  0  0  0  0  0  0  0  0  0  # atno 17370 bound_to 10713
  156.3254  130.7303  151.2223 LP  0  0  0  0  0  0  0  0  0  0  0  0  # atno 17371 bound_to 10713
  139.9425  135.0189  156.8751 LP  0  0  0  0  0  0  0  0  0  0  0  0  # atno 17394 bound_to 11000
  140.5886  134.0283  155.7491 LP  0  0  0  0  0  0  0  0  0  0  0  0  # atno 17395 bound_to 11000

$$$$
