AV-unprocessed.smi:1715|AV-procd|sdf|6915|dock7
  -GOLD-   22720 8123D 1   1.00000     0.00000
 Structure written by MMmdl.
 41 42  0  0  0  0  0  0  0  0  2 V2000
  145.6801  134.4658  150.8422 C   0  0  0  0  0  0  0  0  0  0  0  0
  146.2533  133.1265  151.3173 C   0  0  1  0  0  0  0  0  0  0  0  0
  147.4967  133.3141  152.2049 C   0  0  0  0  0  0  0  0  0  0  0  0
  147.9700  132.0081  152.7187 N   0  3  1  0  0  0  0  0  0  0  0  0
  149.2285  132.1309  153.4953 C   0  0  0  0  0  0  0  0  0  0  0  0
  149.1077  133.1315  154.6615 C   0  0  0  0  0  0  0  0  0  0  0  0
  149.3784  134.4969  154.2272 N   0  0  0  0  0  0  0  0  0  0  0  0
  150.1809  135.3609  154.8649 C   0  0  0  0  0  0  0  0  0  0  0  0
  150.7798  135.0891  155.9057 O   0  0  0  0  0  0  0  0  0  0  0  0
  150.2370  136.5398  154.2243 N   0  0  0  0  0  0  0  0  0  0  0  0
  150.9668  137.6936  154.6071 C   0  0  0  0  0  0  0  0  0  0  0  0
  150.6596  139.0189  154.1950 C   0  0  0  0  0  0  0  0  0  0  0  0
  151.5111  139.8947  154.7090 N   0  0  0  0  0  0  0  0  0  0  0  0
  152.3583  139.1411  155.4460 N   0  0  0  0  0  0  0  0  0  0  0  0
  152.0654  137.7956  155.4136 C   0  0  0  0  0  0  0  0  0  0  0  0
  146.8803  131.3224  153.4568 C   0  0  0  0  0  0  0  0  0  0  0  0
  145.6186  131.1833  152.5824 C   0  0  2  0  0  0  0  0  0  0  0  0
  145.7485  130.1145  151.4825 C   0  0  0  0  0  0  0  0  0  0  0  0
  145.2380  132.4555  152.0587 O   0  0  0  0  0  0  0  0  0  0  0  0
  153.1235  139.5548  155.9597 H   0  0  0  0  0  0  0  0  0  0  0  0
  146.4119  135.0208  150.2547 H   0  0  0  0  0  0  0  0  0  0  0  0
  145.3841  135.0905  151.6855 H   0  0  0  0  0  0  0  0  0  0  0  0
  144.8001  134.3126  150.2171 H   0  0  0  0  0  0  0  0  0  0  0  0
  146.5159  132.5399  150.4367 H   0  0  0  0  0  0  0  0  0  0  0  0
  148.2877  133.7928  151.6261 H   0  0  0  0  0  0  0  0  0  0  0  0
  147.2698  133.9742  153.0441 H   0  0  0  0  0  0  0  0  0  0  0  0
  149.4862  131.1560  153.9122 H   0  0  0  0  0  0  0  0  0  0  0  0
  150.0442  132.4037  152.8241 H   0  0  0  0  0  0  0  0  0  0  0  0
  148.1189  133.0964  155.1192 H   0  0  0  0  0  0  0  0  0  0  0  0
  149.8224  132.8777  155.4446 H   0  0  0  0  0  0  0  0  0  0  0  0
  148.9282  134.8042  153.3772 H   0  0  0  0  0  0  0  0  0  0  0  0
  149.6995  136.6234  153.3739 H   0  0  0  0  0  0  0  0  0  0  0  0
  149.8633  139.3672  153.5537 H   0  0  0  0  0  0  0  0  0  0  0  0
  152.6493  137.0637  155.9516 H   0  0  0  0  0  0  0  0  0  0  0  0
  147.1971  130.3364  153.7943 H   0  0  0  0  0  0  0  0  0  0  0  0
  146.6415  131.8979  154.3527 H   0  0  0  0  0  0  0  0  0  0  0  0
  144.8000  130.8684  153.2303 H   0  0  0  0  0  0  0  0  0  0  0  0
  145.9038  129.1281  151.9199 H   0  0  0  0  0  0  0  0  0  0  0  0
  146.5872  130.3063  150.8137 H   0  0  0  0  0  0  0  0  0  0  0  0
  144.8426  130.0666  150.8781 H   0  0  0  0  0  0  0  0  0  0  0  0
  148.1828  131.4440  151.9081 H   0  0  0  0  0  0  0  0  0  0  0  0
  1  2  1  0  0  0  0
  1 21  1  0  0  0  0
  1 22  1  0  0  0  0
  1 23  1  0  0  0  0
  2 19  1  0  0  0  0
  2  3  1  0  0  0  0
  2 24  1  0  0  0  0
  3  4  1  0  0  0  0
  3 25  1  0  0  0  0
  3 26  1  0  0  0  0
  4  5  1  0  0  0  0
  4 16  1  0  0  0  0
  4 41  1  0  0  0  0
  5  6  1  0  0  0  0
  5 27  1  0  0  0  0
  5 28  1  0  0  0  0
  6  7  1  0  0  0  0
  6 29  1  0  0  0  0
  6 30  1  0  0  0  0
  7  8  1  0  0  0  0
  7 31  1  0  0  0  0
  8  9  2  0  0  0  0
  8 10  1  0  0  0  0
 10 11  1  0  0  0  0
 10 32  1  0  0  0  0
 11 15  2  0  0  0  0
 11 12  1  0  0  0  0
 12 13  2  0  0  0  0
 12 33  1  0  0  0  0
 13 14  1  0  0  0  0
 14 20  1  0  0  0  0
 14 15  1  0  0  0  0
 15 34  1  0  0  0  0
 16 17  1  0  0  0  0
 16 35  1  0  0  0  0
 16 36  1  0  0  0  0
 17 18  1  0  0  0  0
 17 19  1  0  0  0  0
 17 37  1  0  0  0  0
 18 38  1  0  0  0  0
 18 39  1  0  0  0  0
 18 40  1  0  0  0  0
M  CHG  1   4   1
M  END
> <s_m_source_file>
AV-unprocessed.smi

> <i_m_source_file_index>
1715

> <i_lp_mmshare_version>
43012

> <i_f3d_flags>
0

> <s_epik_input>
W0NIM11bQ0BASF0xW0NIMl1OKFtDSDJdW0NASF0oTzEpW0NIM10pW0NIMl1bQ0gyXVtOSF1DKD1PKVtOSF1jMltjSF1uW25IXVtjSF0y

> <s_epik_cmdline>
J2VwaWtfcHl0aG9uJywgJy1waCcsICc3LjAnLCAnLXRuJywgJzgnLCAnLW1hJywgJzIwMCcsICctbWV0YWxfYmluZGluZycsICctaW1hZScsICc8aW5maWxlLm1hZT4nLCAnLW9tYWUnLCAnPG91dGZpbGUubWFlPic=

> <r_lp_tautomer_probability>
0.5

> <r_epik_Ionization_Penalty>
0.646007

> <r_epik_Ionization_Penalty_Charging>
0.645968

> <r_epik_Ionization_Penalty_Neutral>
3.91671e-05

> <r_epik_State_Penalty>
0.664063

> <r_epik_Charging_Adjusted_Penalty>
1.31003

> <i_epik_Tot_Q>
1

> <i_epik_Tot_abs_Q>
1

> <r_epik_Metal_State_Penalty>
0.664064

> <b_epik_Metal_Only>
0

> <s_lp_Force_Field>
OPLS_2005

> <r_lp_Energy>
20.0624

> <b_lp_Chiralities_Consistent>
1

> <s_lp_Variant>
AV-unprocessed.smi:1715-7

> <Gold.Version>
5.8.1

> <Gold.Id.Protein>
6NUR|6NUR_protein|mol2

> <Gold.PLP.Fitness>
46.9430

> <Gold.PLP.PLP>
-32.9937

> <Gold.PLP.part.hbond>
-4.9852

> <Gold.PLP.part.metal>
0.0000

> <Gold.PLP.part.buried>
-4.2063

> <Gold.PLP.part.nonpolar>
-23.2282

> <Gold.PLP.part.repulsive>
0.5161

> <Gold.PLP.ligand.clash>
0.0000

> <Gold.PLP.ligand.torsion>
0.3654

> <Gold.PLP.Chemscore.Hbond>
3.8882

> <Gold.PLP.Chemscore.CHOScore>
1.0000

> <Gold.PLP.Chemscore.Metal>
0.0000

> <Gold.Chemscore.Hbonds>
donor molecule, donor type, donor heavy atom, donor atom, acceptor molecule, acceptor atom, score
      L1  H     4    41       P1 10747  1.00
      L1  H     7    31       P1  7948  0.87
      L1  H    10    32       P1  7948  1.00
      P1  H  7989  7998       L1    13  1.00
      L1  C    12    33       P1  7957  1.00

> <Gold.PLP.Chemscore.Internal.Correction>
0.0157

> <Gold.Rescore>
     Score         DG    S(hbond)    S(metal)    S(lipo)     H(rot)  DE(clash)    DE(int)     intcor
     16.65     -19.28       2.80        0.00      74.60       1.67       0.24       2.38       ----

> <Gold.Chemscore.Fitness>
16.6470

> <Gold.Chemscore.DG>
-19.2756

> <Gold.Chemscore.ZeroCoef>
-5.4800

> <Gold.Chemscore.Hbond>
2.7950

> <Gold.Chemscore.Metal>
0.0000

> <Gold.Chemscore.Lipo>
74.5976

> <Gold.Chemscore.Internal_Hbond>
0.0000

> <Gold.Chemscore.DEClash>
0.2443

> <Gold.Chemscore.DEInternal>
2.3843

> <Gold.Chemscore.Rot>
1.6671

> <Gold.Chemscore.Internal.Correction>
   9.000000E+99

> <Gold.Chemscore.Hbonds>
donor molecule, donor type, donor heavy atom, donor atom, acceptor molecule, acceptor atom, score
      L1  H     4    41       P1 10747  1.00
      L1  H     7    31       P1  7948  0.21
      L1  H    10    32       P1  7948  0.45
      P1  H  7989  7998       L1    13  0.24

> <Gold.Chemscore.Hbond.Weighted>
-9.3354

> <Gold.Chemscore.Metal.Weighted>
-0.0000

> <Gold.Chemscore.Lipo.Weighted>
-8.7279

> <Gold.Chemscore.Internal_Hbond.Weighted>
0.0000

> <Gold.Chemscore.DEClash.Weighted>
0.2443

> <Gold.Chemscore.DEInternal.Weighted>
2.3843

> <Gold.Chemscore.Rot.Weighted>
4.2677

> <Gold.Chemscore.Internal.Correction.Weighted>
   9.000000E+99

> <Gold.Protein.RotatedTorsions>
[ 6907 6896 6895 6894 ] final   -4.83 input  -60.11 | X-H torsion
[ 7974 7965 7964 7962 ] final -140.50 input  175.53 | X-H torsion
[ 8008 7997 7996 7995 ] final    2.07 input   59.86 | X-H torsion
[ 10167 10162 10161 10158 ] final   36.60 input  -65.29 | X-H torsion
[ 10718 10713 10712 10709 ] final   -4.09 input   66.30 | X-H torsion
[ 10763 10752 10751 10750 ] final   22.21 input  -60.55 | X-H torsion
[ 11005 11000 10999 10996 ] final   54.53 input  -57.11 | X-H torsion

> <Gold.Protein.ActiveResidues>
 VAL166  LYS551  ARG553  GLY616  TRP617  ASP618  TYR619  PRO620  LYS621  CYS622 
 ASP623  PHE694  ASN695  SER759  ASP760  ASP761  ALA762  ILE779  LEU786  VAL792 
 PHE793  MET794  SER795  GLU796  ALA797  LYS798  CYS799  TRP800  GLU811  SER814 

> <Gold.Protein.RotatedAtoms>
  151.4914  135.1057  159.9804 H   0  0  0  0  0  0  0  0  0  0  0  0  # atno 6907 bound_to 6896
  152.4739  133.8090  159.7003 H   0  0  0  0  0  0  0  0  0  0  0  0  # atno 6908 bound_to 6896
  150.8765  133.7369  159.2971 H   0  0  0  0  0  0  0  0  0  0  0  0  # atno 6909 bound_to 6896
  144.8592  140.6193  143.5339 H   0  0  0  0  0  0  0  0  0  0  0  0  # atno 7974 bound_to 7965
  154.6872  140.2645  155.6848 H   0  0  0  0  0  0  0  0  0  0  0  0  # atno 8008 bound_to 7997
  156.2719  140.2798  156.1361 H   0  0  0  0  0  0  0  0  0  0  0  0  # atno 8009 bound_to 7997
  155.0947  140.0374  157.2669 H   0  0  0  0  0  0  0  0  0  0  0  0  # atno 8010 bound_to 7997
  140.4112  144.1590  150.6139 H   0  0  0  0  0  0  0  0  0  0  0  0  # atno 10167 bound_to 10162
  156.7664  130.5286  149.5775 H   0  0  0  0  0  0  0  0  0  0  0  0  # atno 10718 bound_to 10713
  153.0933  135.6653  153.9811 H   0  0  0  0  0  0  0  0  0  0  0  0  # atno 10763 bound_to 10752
  153.9402  135.2994  155.3444 H   0  0  0  0  0  0  0  0  0  0  0  0  # atno 10764 bound_to 10752
  154.7350  135.5106  153.9099 H   0  0  0  0  0  0  0  0  0  0  0  0  # atno 10765 bound_to 10752
  140.0679  134.5511  155.9079 H   0  0  0  0  0  0  0  0  0  0  0  0  # atno 11005 bound_to 11000
  145.4345  139.1544  143.4004 LP  0  0  0  0  0  0  0  0  0  0  0  0  # atno 17320 bound_to 7965
  146.2847  140.4463  142.8762 LP  0  0  0  0  0  0  0  0  0  0  0  0  # atno 17321 bound_to 7965
  140.4636  143.2439  151.9186 LP  0  0  0  0  0  0  0  0  0  0  0  0  # atno 17342 bound_to 10162
  139.4782  144.5442  151.8482 LP  0  0  0  0  0  0  0  0  0  0  0  0  # atno 17343 bound_to 10162
  156.1306  130.6175  151.0328 LP  0  0  0  0  0  0  0  0  0  0  0  0  # atno 17370 bound_to 10713
  157.6711  131.0861  150.7609 LP  0  0  0  0  0  0  0  0  0  0  0  0  # atno 17371 bound_to 10713
  141.2000  133.6610  156.5873 LP  0  0  0  0  0  0  0  0  0  0  0  0  # atno 17394 bound_to 11000
  140.3672  134.7637  157.4574 LP  0  0  0  0  0  0  0  0  0  0  0  0  # atno 17395 bound_to 11000

$$$$
