#       Name:                AV-unprocessed.smi:59
#       Creating user name   scv26
#       Creation time:       Thu Mar 26 16:48:43 2020


#       File generated by GOLD software.
#

@<TRIPOS>MOLECULE
AV-unprocessed.smi:59
    38    39     1
SMALL
NO_CHARGES


@<TRIPOS>ATOM
      1 ****        -0.9313   2.4579  -0.9710 C.3            1 S1                 0.0000
      2 ****        -1.3171   1.3161  -0.1475 N.am           1 S1                 0.0000
      3 ****        -2.2858   1.3301   0.7778 C.2            1 S1                 0.0000
      4 ****        -2.9344   2.3128   1.1380 O.2            1 S1                 0.0000
      5 ****        -2.5341  -0.0748   1.3016 C.3            1 S1                 0.0000
      6 ****        -2.7524  -0.0919   2.6994 O.3            1 S1                 0.0000
      7 ****        -1.2465  -0.8069   0.8885 C.3            1 S1                 0.0000
      8 ****        -1.4665  -2.3003   0.6045 C.2            1 S1                 0.0000
      9 ****        -2.3182  -2.6080  -0.2589 O.co2          1 S1                 0.0000
     10 ****        -0.7613  -3.1107   1.2443 O.co2          1 S1                -1.0000
     11 ****        -0.7138  -0.0062  -0.3209 C.3            1 S1                 0.0000
     12 ****         0.7983  -0.0178  -0.3688 C.2            1 S1                 0.0000
     13 ****         1.7221   0.9139   0.1897 C.2            1 S1                 0.0000
     14 ****         2.9846   0.5892  -0.0353 N.2            1 S1                 0.0000
     15 ****         2.9138  -0.5635  -0.7314 N.pl3          1 S1                 0.0000
     16 ****         4.1325  -1.2228  -1.1492 C.3            1 S1                 0.0000
     17 ****         1.6100  -0.9567  -0.9402 C.2            1 S1                 0.0000
     18 ****        -3.4156  -0.4741   0.7977 H              1 S1                 0.0000
     19 ****        -0.5325  -0.7122   1.7105 H              1 S1                 0.0000
     20 ****        -1.1216  -0.4095  -1.2498 H              1 S1                 0.0000
     21 ****        -1.8112   2.9740  -1.3571 H              1 S1                 0.0000
     22 ****        -0.3306   2.1435  -1.8248 H              1 S1                 0.0000
     23 ****        -0.3481   3.1681  -0.3845 H              1 S1                 0.0000
     24 ****        -3.5529   0.3767   2.8800 H              1 S1                 0.0000
     25 ****         1.5122   1.8135   0.7489 H              1 S1                 0.0000
     26 ****         3.9111  -1.9618  -1.9197 H              1 S1                 0.0000
     27 ****         4.5892  -1.7244  -0.2957 H              1 S1                 0.0000
     28 ****         4.8330  -0.4912  -1.5535 H              1 S1                 0.0000
     29 ****         1.3662  -1.8643  -1.4728 H              1 S1                 0.0000
     30 ****        -2.7557   3.2074   0.7283 LP             1 S1                 0.0000
     31 ****        -3.6398   2.2164   1.8402 LP             1 S1                 0.0000
     32 ****        -1.9878   0.3521   3.1666 LP             1 S1                 0.0000
     33 ****        -2.8342  -1.0364   3.0174 LP             1 S1                 0.0000
     34 ****        -2.4773  -3.5692  -0.4839 LP             1 S1                 0.0000
     35 ****        -2.8397  -1.8926  -0.7239 LP             1 S1                 0.0000
     36 ****        -0.8558  -4.0928   1.0816 LP             1 S1                 0.0000
     37 ****        -0.1027  -2.7766   1.9187 LP             1 S1                 0.0000
     38 ****         3.8054   1.0860   0.2469 LP             1 S1                 0.0000
@<TRIPOS>BOND
    1    1    2 1     
    2    1   21 1     
    3    1   22 1     
    4    1   23 1     
    5    2   11 1     
    6    2    3 am    
    7    3    4 2     
    8    3    5 1     
    9    5   18 1     
   10    5    6 1     
   11    5    7 1     
   12    6   24 1     
   13    7   19 1     
   14    7    8 1     
   15    7   11 1     
   16    8    9 ar    
   17    8   10 ar    
   18   11   20 1     
   19   11   12 1     
   20   12   17 2     
   21   12   13 1     
   22   13   14 2     
   23   13   25 1     
   24   14   15 1     
   25   15   16 1     
   26   15   17 1     
   27   16   26 1     
   28   16   27 1     
   29   16   28 1     
   30   17   29 1     
   31    4   30 1     
   32    4   31 1     
   33    6   32 1     
   34    6   33 1     
   35    9   34 1     
   36    9   35 1     
   37   10   36 1     
   38   10   37 1     
   39   14   38 1     
@<TRIPOS>SUBSTRUCTURE
      1 S1             1
@<TRIPOS>SET
LONE_PAIRS      STATIC     ATOMS    <user>   **** ""
9 30 31 32 33 34 35 36 37 38
DONOR_HYDROGENS      STATIC     ATOMS    <user>   **** ""
1 24
ATOM$BLUE        STATIC     ATOMS    COLORGROUP SYSTEM
9 30 31 32 33 34 35 36 37 38
ATOM$RED        STATIC     ATOMS    COLORGROUP SYSTEM
1 24
