#       Name:                AV-unprocessed.smi:2829
#       Creating user name   scv26
#       Creation time:       Fri Mar 27 15:34:40 2020


#       File generated by GOLD software.
#

@<TRIPOS>MOLECULE
AV-unprocessed.smi:2829
    56    59     1
SMALL
NO_CHARGES


@<TRIPOS>ATOM
      1 ****        -6.2243  -0.7237  -0.5086 C.3            1 S1                 0.0000
      2 ****        -5.5441   0.5618   0.0144 C.3            1 S1                 0.0000
      3 ****        -6.0723   1.7413  -0.8287 C.3            1 S1                 0.0000
      4 ****        -5.9628   0.7409   1.4886 C.3            1 S1                 0.0000
      5 ****        -4.0094   0.4968  -0.0861 C.ar           1 S1                 0.0000
      6 ****        -3.3145  -0.6224  -0.5980 C.ar           1 S1                 0.0000
      7 ****        -1.9115  -0.5598  -0.6368 C.ar           1 S1                 0.0000
      8 ****        -1.2778   0.6077  -0.1666 C.ar           1 S1                 0.0000
      9 ****         0.1394   0.5990  -0.2347 N.am           1 S1                 0.0000
     10 ****         0.9992   1.5614   0.1535 C.2            1 S1                 0.0000
     11 ****         0.6706   2.6487   0.6243 O.2            1 S1                 0.0000
     12 ****         2.2929   1.2355  -0.0118 N.am           1 S1                 0.0000
     13 ****         3.4668   2.0584   0.3108 C.3            1 S1                 0.0000
     14 ****         3.8103   3.1056  -0.7575 C.3            1 S1                 0.0000
     15 ****         3.0572   3.8215  -1.8194 C.3            1 S1                 0.0000
     16 ****         4.1650   3.7745  -2.9027 C.3            1 S1                 0.0000
     17 ****         5.1966   2.9012  -2.3765 O.3            1 S1                 0.0000
     18 ****         4.5036   1.9980  -1.5343 C.3            1 S1                 0.0000
     19 ****         4.8258   1.4275  -0.1426 C.3            1 S1                 0.0000
     20 ****         6.1460   1.7568   0.5735 C.3            1 S1                 0.0000
     21 ****         6.0989   0.3571   1.1939 C.3            1 S1                 0.0000
     22 ****         5.1407  -0.0593   0.0732 C.3            1 S1                 0.0000
     23 ****        -2.0080   1.6458   0.3127 N.ar           1 S1                 0.0000
     24 ****        -3.3426   1.5925   0.3525 N.ar           1 S1                 0.0000
     25 ****        -7.3100  -0.6563  -0.4299 H              1 S1                 0.0000
     26 ****        -5.9183  -1.6023   0.0608 H              1 S1                 0.0000
     27 ****        -5.9921  -0.9036  -1.5590 H              1 S1                 0.0000
     28 ****        -5.7846   1.6388  -1.8758 H              1 S1                 0.0000
     29 ****        -5.6867   2.6979  -0.4748 H              1 S1                 0.0000
     30 ****        -7.1606   1.8014  -0.7916 H              1 S1                 0.0000
     31 ****        -7.0479   0.7702   1.5935 H              1 S1                 0.0000
     32 ****        -5.5751   1.6688   1.9108 H              1 S1                 0.0000
     33 ****        -5.5950  -0.0794   2.1061 H              1 S1                 0.0000
     34 ****        -3.8147  -1.5095  -0.9542 H              1 S1                 0.0000
     35 ****        -1.3382  -1.3918  -1.0195 H              1 S1                 0.0000
     36 ****         0.5522  -0.2428  -0.6084 H              1 S1                 0.0000
     37 ****         2.4853   0.3209  -0.3943 H              1 S1                 0.0000
     38 ****         3.4861   2.4371   1.3340 H              1 S1                 0.0000
     39 ****         4.5314   3.8003  -0.3109 H              1 S1                 0.0000
     40 ****         2.1614   3.2819  -2.1290 H              1 S1                 0.0000
     41 ****         2.7862   4.8387  -1.5359 H              1 S1                 0.0000
     42 ****         3.7736   3.3769  -3.8400 H              1 S1                 0.0000
     43 ****         4.5846   4.7610  -3.1013 H              1 S1                 0.0000
     44 ****         3.8240   1.3593  -2.1063 H              1 S1                 0.0000
     45 ****         6.9798   1.8837  -0.1187 H              1 S1                 0.0000
     46 ****         6.0895   2.5741   1.2930 H              1 S1                 0.0000
     47 ****         7.0522  -0.1721   1.1994 H              1 S1                 0.0000
     48 ****         5.6251   0.3486   2.1766 H              1 S1                 0.0000
     49 ****         4.3002  -0.6709   0.4020 H              1 S1                 0.0000
     50 ****         5.6575  -0.5072  -0.7769 H              1 S1                 0.0000
     51 ****        -0.2973   2.8704   0.7427 LP             1 S1                 0.0000
     52 ****         1.3713   3.3113   0.8889 LP             1 S1                 0.0000
     53 ****         5.8701   3.4248  -1.8546 LP             1 S1                 0.0000
     54 ****         5.6565   2.4115  -3.1172 LP             1 S1                 0.0000
     55 ****        -1.5392   2.4654   0.6421 LP             1 S1                 0.0000
     56 ****        -3.8566   2.3718   0.7109 LP             1 S1                 0.0000
@<TRIPOS>BOND
    1    1    2 1     
    2    1   25 1     
    3    1   26 1     
    4    1   27 1     
    5    2    3 1     
    6    2    4 1     
    7    2    5 1     
    8    3   28 1     
    9    3   29 1     
   10    3   30 1     
   11    4   31 1     
   12    4   32 1     
   13    4   33 1     
   14    5   24 ar    
   15    5    6 ar    
   16    6    7 ar    
   17    6   34 1     
   18    7    8 ar    
   19    7   35 1     
   20    8    9 1     
   21    8   23 ar    
   22    9   10 am    
   23    9   36 1     
   24   10   11 2     
   25   10   12 am    
   26   12   13 1     
   27   12   37 1     
   28   13   19 1     
   29   13   14 1     
   30   13   38 1     
   31   14   18 1     
   32   14   15 1     
   33   14   39 1     
   34   15   16 1     
   35   15   40 1     
   36   15   41 1     
   37   16   17 1     
   38   16   42 1     
   39   16   43 1     
   40   17   18 1     
   41   18   19 1     
   42   18   44 1     
   43   19   22 1     
   44   19   20 1     
   45   20   21 1     
   46   20   45 1     
   47   20   46 1     
   48   21   22 1     
   49   21   47 1     
   50   21   48 1     
   51   22   49 1     
   52   22   50 1     
   53   23   24 ar    
   54   11   51 1     
   55   11   52 1     
   56   17   53 1     
   57   17   54 1     
   58   23   55 1     
   59   24   56 1     
@<TRIPOS>SUBSTRUCTURE
      1 S1             1
@<TRIPOS>SET
LONE_PAIRS      STATIC     ATOMS    <user>   **** ""
6 51 52 53 54 55 56
DONOR_HYDROGENS      STATIC     ATOMS    <user>   **** ""
2 36 37
ATOM$BLUE        STATIC     ATOMS    COLORGROUP SYSTEM
6 51 52 53 54 55 56
ATOM$RED        STATIC     ATOMS    COLORGROUP SYSTEM
2 36 37
