AV-unprocessed.smi:3161|AV-procd|sdf|12055|dock2
  -GOLD-   2272017483D 1   1.00000     0.00000
 Structure written by MMmdl.
 41 42  0  0  0  0  0  0  0  0  2 V2000
  145.0475  144.6113  152.7385 C   0  0  0  0  0  0  0  0  0  0  0  0
  145.6786  143.6226  153.6759 C   0  0  0  0  0  0  0  0  0  0  0  0
  145.3240  143.3542  155.0285 C   0  0  0  0  0  0  0  0  0  0  0  0
  146.0808  142.4208  155.5825 N   0  0  0  0  0  0  0  0  0  0  0  0
  146.9401  142.0591  154.6058 N   0  0  0  0  0  0  0  0  0  0  0  0
  147.9396  141.0367  154.8629 C   0  0  0  0  0  0  0  0  0  0  0  0
  149.3520  141.4716  154.4254 C   0  0  2  0  0  0  0  0  0  0  0  0
  150.2411  140.2452  154.1604 C   0  0  0  0  0  0  0  0  0  0  0  0
  149.9576  142.3504  155.4521 N   0  3  0  0  0  0  0  0  0  0  0  0
  150.1382  141.7383  156.7847 C   0  0  0  0  0  0  0  0  0  0  0  0
  151.2762  142.4252  157.5521 C   0  0  2  0  0  0  0  0  0  0  0  0
  151.5595  141.7331  158.8998 C   0  0  0  0  0  0  0  0  0  0  0  0
  152.6334  142.4961  159.6836 C   0  0  0  0  0  0  0  0  0  0  0  0
  152.2333  143.9700  159.8078 C   0  0  0  0  0  0  0  0  0  0  0  0
  151.9064  144.5527  158.4237 C   0  0  0  0  0  0  0  0  0  0  0  0
  150.8891  143.7759  157.7979 O   0  0  0  0  0  0  0  0  0  0  0  0
  146.7206  142.7697  153.4448 C   0  0  0  0  0  0  0  0  0  0  0  0
  143.9874  144.7499  152.9523 H   0  0  0  0  0  0  0  0  0  0  0  0
  145.1243  144.2904  151.6993 H   0  0  0  0  0  0  0  0  0  0  0  0
  145.5212  145.5903  152.8092 H   0  0  0  0  0  0  0  0  0  0  0  0
  144.5438  143.8091  155.6209 H   0  0  0  0  0  0  0  0  0  0  0  0
  147.9229  140.7810  155.9239 H   0  0  0  0  0  0  0  0  0  0  0  0
  147.6411  140.1369  154.3231 H   0  0  0  0  0  0  0  0  0  0  0  0
  149.2556  142.0369  153.4970 H   0  0  0  0  0  0  0  0  0  0  0  0
  149.7879  139.5883  153.4177 H   0  0  0  0  0  0  0  0  0  0  0  0
  150.3922  139.6612  155.0689 H   0  0  0  0  0  0  0  0  0  0  0  0
  151.2218  140.5297  153.7795 H   0  0  0  0  0  0  0  0  0  0  0  0
  150.8731  142.6171  155.1168 H   0  0  0  0  0  0  0  0  0  0  0  0
  149.2126  141.7961  157.3574 H   0  0  0  0  0  0  0  0  0  0  0  0
  150.3720  140.6809  156.6544 H   0  0  0  0  0  0  0  0  0  0  0  0
  152.1801  142.4100  156.9399 H   0  0  0  0  0  0  0  0  0  0  0  0
  150.6430  141.6867  159.4898 H   0  0  0  0  0  0  0  0  0  0  0  0
  151.8796  140.7033  158.7380 H   0  0  0  0  0  0  0  0  0  0  0  0
  152.7707  142.0545  160.6710 H   0  0  0  0  0  0  0  0  0  0  0  0
  153.5912  142.4170  159.1677 H   0  0  0  0  0  0  0  0  0  0  0  0
  151.3613  144.0608  160.4566 H   0  0  0  0  0  0  0  0  0  0  0  0
  153.0346  144.5404  160.2785 H   0  0  0  0  0  0  0  0  0  0  0  0
  151.5541  145.5794  158.5238 H   0  0  0  0  0  0  0  0  0  0  0  0
  152.7965  144.5819  157.7933 H   0  0  0  0  0  0  0  0  0  0  0  0
  147.3177  142.6118  152.5584 H   0  0  0  0  0  0  0  0  0  0  0  0
  149.3983  143.1869  155.5425 H   0  0  0  0  0  0  0  0  0  0  0  0
  1  2  1  0  0  0  0
  1 18  1  0  0  0  0
  1 19  1  0  0  0  0
  1 20  1  0  0  0  0
  2 17  2  0  0  0  0
  2  3  1  0  0  0  0
  3  4  2  0  0  0  0
  3 21  1  0  0  0  0
  4  5  1  0  0  0  0
  5  6  1  0  0  0  0
  5 17  1  0  0  0  0
  6  7  1  0  0  0  0
  6 22  1  0  0  0  0
  6 23  1  0  0  0  0
  7  8  1  0  0  0  0
  7  9  1  0  0  0  0
  7 24  1  0  0  0  0
  8 25  1  0  0  0  0
  8 26  1  0  0  0  0
  8 27  1  0  0  0  0
  9 10  1  0  0  0  0
  9 28  1  0  0  0  0
  9 41  1  0  0  0  0
 10 11  1  0  0  0  0
 10 29  1  0  0  0  0
 10 30  1  0  0  0  0
 11 16  1  0  0  0  0
 11 12  1  0  0  0  0
 11 31  1  0  0  0  0
 12 13  1  0  0  0  0
 12 32  1  0  0  0  0
 12 33  1  0  0  0  0
 13 14  1  0  0  0  0
 13 34  1  0  0  0  0
 13 35  1  0  0  0  0
 14 15  1  0  0  0  0
 14 36  1  0  0  0  0
 14 37  1  0  0  0  0
 15 16  1  0  0  0  0
 15 38  1  0  0  0  0
 15 39  1  0  0  0  0
 17 40  1  0  0  0  0
M  CHG  1   9   1
M  END
> <s_m_source_file>
AV-unprocessed.smi

> <i_m_source_file_index>
3161

> <i_lp_mmshare_version>
43012

> <i_f3d_flags>
0

> <s_epik_input>
W0NIM11jMVtjSF1ubihbY0hdMSlbQ0gyXVtDQEhdKFtDSDNdKVtOSF1bQ0gyXVtDQEBIXTJbQ0gyXVtDSDJdW0NIMl1bQ0gyXU8y

> <s_epik_cmdline>
J2VwaWtfcHl0aG9uJywgJy1waCcsICc3LjAnLCAnLXRuJywgJzgnLCAnLW1hJywgJzIwMCcsICctbWV0YWxfYmluZGluZycsICctaW1hZScsICc8aW5maWxlLm1hZT4nLCAnLW9tYWUnLCAnPG91dGZpbGUubWFlPic=

> <r_lp_tautomer_probability>
1

> <r_epik_Ionization_Penalty>
0.00849661

> <r_epik_Ionization_Penalty_Charging>
0.00848754

> <r_epik_Ionization_Penalty_Neutral>
9.06711e-06

> <r_epik_State_Penalty>
0.00639836

> <r_epik_Charging_Adjusted_Penalty>
0.0148859

> <i_epik_Tot_Q>
1

> <i_epik_Tot_abs_Q>
1

> <r_epik_Metal_State_Penalty>
0.00639921

> <b_epik_Metal_Only>
0

> <s_lp_Force_Field>
OPLS_2005

> <r_lp_Energy>
12.4461

> <b_lp_Chiralities_Consistent>
1

> <s_lp_Variant>
AV-unprocessed.smi:3161-1

> <Gold.Version>
5.8.1

> <Gold.Id.Protein>
6NUR|6NUR_protein|mol2

> <Gold.PLP.Fitness>
47.8986

> <Gold.PLP.PLP>
-42.7930

> <Gold.PLP.part.hbond>
-1.0000

> <Gold.PLP.part.metal>
0.0000

> <Gold.PLP.part.buried>
-6.0046

> <Gold.PLP.part.nonpolar>
-36.1505

> <Gold.PLP.part.repulsive>
0.7099

> <Gold.PLP.ligand.clash>
0.0000

> <Gold.PLP.ligand.torsion>
0.4850

> <Gold.PLP.Chemscore.Hbond>
2.0000

> <Gold.PLP.Chemscore.CHOScore>
0.0000

> <Gold.PLP.Chemscore.Metal>
0.0000

> <Gold.Chemscore.Hbonds>
donor molecule, donor type, donor heavy atom, donor atom, acceptor molecule, acceptor atom, score
      L1  H     9    41       P1  8028  2.00

> <Gold.PLP.Chemscore.Internal.Correction>
0.0755

> <Gold.Rescore>
     Score         DG    S(hbond)    S(metal)    S(lipo)     H(rot)  DE(clash)    DE(int)     intcor
     16.60     -17.04       1.00        0.00     104.65       1.57       0.08       0.36       ----

> <Gold.Chemscore.Fitness>
16.6006

> <Gold.Chemscore.DG>
-17.0409

> <Gold.Chemscore.ZeroCoef>
-5.4800

> <Gold.Chemscore.Hbond>
0.9998

> <Gold.Chemscore.Metal>
0.0000

> <Gold.Chemscore.Lipo>
104.6532

> <Gold.Chemscore.Internal_Hbond>
0.0000

> <Gold.Chemscore.DEClash>
0.0841

> <Gold.Chemscore.DEInternal>
0.3562

> <Gold.Chemscore.Rot>
1.5714

> <Gold.Chemscore.Internal.Correction>
   9.000000E+99

> <Gold.Chemscore.Hbonds>
donor molecule, donor type, donor heavy atom, donor atom, acceptor molecule, acceptor atom, score
      L1  H     9    41       P1  8028  0.99

> <Gold.Chemscore.Hbond.Weighted>
-3.3393

> <Gold.Chemscore.Metal.Weighted>
-0.0000

> <Gold.Chemscore.Lipo.Weighted>
-12.2444

> <Gold.Chemscore.Internal_Hbond.Weighted>
0.0000

> <Gold.Chemscore.DEClash.Weighted>
0.0841

> <Gold.Chemscore.DEInternal.Weighted>
0.3562

> <Gold.Chemscore.Rot.Weighted>
4.0228

> <Gold.Chemscore.Internal.Correction.Weighted>
   9.000000E+99

> <Gold.Protein.RotatedTorsions>
[ 6907 6896 6895 6894 ] final   58.50 input  -60.11 | X-H torsion
[ 7974 7965 7964 7962 ] final    3.43 input  175.53 | X-H torsion
[ 8008 7997 7996 7995 ] final   70.25 input   59.86 | X-H torsion
[ 10167 10162 10161 10158 ] final  154.90 input  -65.29 | X-H torsion
[ 10718 10713 10712 10709 ] final -117.67 input   66.30 | X-H torsion
[ 10763 10752 10751 10750 ] final  -37.95 input  -60.55 | X-H torsion
[ 11005 11000 10999 10996 ] final  145.16 input  -57.11 | X-H torsion

> <Gold.Protein.ActiveResidues>
 VAL166  LYS551  ARG553  GLY616  TRP617  ASP618  TYR619  PRO620  LYS621  CYS622 
 ASP623  PHE694  ASN695  SER759  ASP760  ASP761  ALA762  ILE779  LEU786  VAL792 
 PHE793  MET794  SER795  GLU796  ALA797  LYS798  CYS799  TRP800  GLU811  SER814 

> <Gold.Protein.RotatedAtoms>
  152.3830  134.6561  160.0135 H   0  0  0  0  0  0  0  0  0  0  0  0  # atno 6907 bound_to 6896
  151.6819  133.3306  159.3229 H   0  0  0  0  0  0  0  0  0  0  0  0  # atno 6908 bound_to 6896
  150.7762  134.6710  159.6436 H   0  0  0  0  0  0  0  0  0  0  0  0  # atno 6909 bound_to 6896
  146.2445  140.0686  142.8364 H   0  0  0  0  0  0  0  0  0  0  0  0  # atno 7974 bound_to 7965
  155.7359  140.3491  155.5081 H   0  0  0  0  0  0  0  0  0  0  0  0  # atno 8008 bound_to 7997
  155.9139  140.1055  157.1280 H   0  0  0  0  0  0  0  0  0  0  0  0  # atno 8009 bound_to 7997
  154.4060  140.1262  156.4580 H   0  0  0  0  0  0  0  0  0  0  0  0  # atno 8010 bound_to 7997
  139.4822  144.5146  151.7972 H   0  0  0  0  0  0  0  0  0  0  0  0  # atno 10167 bound_to 10162
  156.1050  130.6203  150.9193 H   0  0  0  0  0  0  0  0  0  0  0  0  # atno 10718 bound_to 10713
  153.9047  135.6798  153.4753 H   0  0  0  0  0  0  0  0  0  0  0  0  # atno 10763 bound_to 10752
  153.1110  135.4783  154.9033 H   0  0  0  0  0  0  0  0  0  0  0  0  # atno 10764 bound_to 10752
  154.7557  135.3197  154.8429 H   0  0  0  0  0  0  0  0  0  0  0  0  # atno 10765 bound_to 10752
  140.0690  134.9162  157.1313 H   0  0  0  0  0  0  0  0  0  0  0  0  # atno 11005 bound_to 11000
  145.0836  140.9238  143.4810 LP  0  0  0  0  0  0  0  0  0  0  0  0  # atno 17320 bound_to 7965
  145.0844  139.2936  143.5767 LP  0  0  0  0  0  0  0  0  0  0  0  0  # atno 17321 bound_to 7965
  140.4653  144.1664  150.5911 LP  0  0  0  0  0  0  0  0  0  0  0  0  # atno 17342 bound_to 10162
  140.4441  143.2514  151.9434 LP  0  0  0  0  0  0  0  0  0  0  0  0  # atno 17343 bound_to 10162
  157.6226  131.0928  150.8594 LP  0  0  0  0  0  0  0  0  0  0  0  0  # atno 17370 bound_to 10713
  156.8715  130.5147  149.5296 LP  0  0  0  0  0  0  0  0  0  0  0  0  # atno 17371 bound_to 10713
  140.3656  134.2447  155.7182 LP  0  0  0  0  0  0  0  0  0  0  0  0  # atno 17394 bound_to 11000
  141.2004  133.7988  157.0490 LP  0  0  0  0  0  0  0  0  0  0  0  0  # atno 17395 bound_to 11000

$$$$
