#       Name:                AV-unprocessed.smi:1413
#       Creating user name   scv26
#       Creation time:       Fri Mar 27 05:38:47 2020


#       File generated by GOLD software.
#

@<TRIPOS>MOLECULE
AV-unprocessed.smi:1413
    61    63     1
SMALL
NO_CHARGES


@<TRIPOS>ATOM
      1 ****        -6.6590   0.5311  -2.2732 C.3            1 S1                 0.0000
      2 ****        -5.9649   0.6888  -0.9164 C.3            1 S1                 0.0000
      3 ****        -4.4312   0.7424  -1.0549 C.3            1 S1                 0.0000
      4 ****        -3.8110   1.0189   0.2377 N.3            1 S1                 0.0000
      5 ****        -2.4147   0.8193   0.3003 C.ar           1 S1                 0.0000
      6 ****        -1.8533  -0.4186  -0.0936 C.ar           1 S1                 0.0000
      7 ****        -0.4587  -0.6000  -0.0155 C.ar           1 S1                 0.0000
      8 ****         0.3434   0.4617   0.4622 C.ar           1 S1                 0.0000
      9 ****         1.7586   0.4067   0.5706 N.am           1 S1                 0.0000
     10 ****         2.5378  -0.6744   0.7430 C.2            1 S1                 0.0000
     11 ****         2.1351  -1.8350   0.8194 O.2            1 S1                 0.0000
     12 ****         3.8287  -0.3251   0.8428 N.am           1 S1                 0.0000
     13 ****         4.9487  -1.2312   1.0938 C.3            1 S1                 0.0000
     14 ****         5.8476  -0.6119   2.1745 C.3            1 S1                 0.0000
     15 ****         5.7276  -1.5085  -0.2089 C.3            1 S1                 0.0000
     16 ****         4.9075  -2.1476  -1.3321 C.3            1 S1                 0.0000
     17 ****         5.9843  -2.8164  -2.1545 C.3            1 S1                 0.0000
     18 ****         6.9294  -3.3273  -1.0717 C.3            1 S1                 0.0000
     19 ****         6.7867  -2.4336   0.0295 O.3            1 S1                 0.0000
     20 ****        -0.3037   1.6617   0.8162 C.ar           1 S1                 0.0000
     21 ****        -1.6395   1.8377   0.7473 N.ar           1 S1                 0.0000
     22 ****        -4.3642   2.1969   0.9024 C.3            1 S1                 0.0000
     23 ****        -5.8985   2.0965   0.9888 C.3            1 S1                 0.0000
     24 ****        -6.5258   3.3670   1.5724 C.3            1 S1                 0.0000
     25 ****        -6.4271   1.8974  -0.3193 O.3            1 S1                 0.0000
     26 ****        -6.3477  -0.3883  -2.7693 H              1 S1                 0.0000
     27 ****        -6.4239   1.3655  -2.9347 H              1 S1                 0.0000
     28 ****        -7.7423   0.4945  -2.1547 H              1 S1                 0.0000
     29 ****        -6.2462  -0.1540  -0.2823 H              1 S1                 0.0000
     30 ****        -4.0785  -0.1985  -1.4752 H              1 S1                 0.0000
     31 ****        -4.1448   1.5290  -1.7545 H              1 S1                 0.0000
     32 ****        -2.4731  -1.2317  -0.4406 H              1 S1                 0.0000
     33 ****        -0.0332  -1.5401  -0.3310 H              1 S1                 0.0000
     34 ****         2.2253   1.3009   0.6097 H              1 S1                 0.0000
     35 ****         4.0567   0.6550   0.7618 H              1 S1                 0.0000
     36 ****         4.5769  -2.1810   1.4822 H              1 S1                 0.0000
     37 ****         6.6802  -1.2710   2.4217 H              1 S1                 0.0000
     38 ****         5.2894  -0.4340   3.0944 H              1 S1                 0.0000
     39 ****         6.2646   0.3412   1.8476 H              1 S1                 0.0000
     40 ****         6.1758  -0.5854  -0.5811 H              1 S1                 0.0000
     41 ****         4.2251  -2.8991  -0.9325 H              1 S1                 0.0000
     42 ****         4.3240  -1.4232  -1.9011 H              1 S1                 0.0000
     43 ****         5.6045  -3.6094  -2.7992 H              1 S1                 0.0000
     44 ****         6.4899  -2.0789  -2.7792 H              1 S1                 0.0000
     45 ****         6.6332  -4.3251  -0.7458 H              1 S1                 0.0000
     46 ****         7.9635  -3.3757  -1.4134 H              1 S1                 0.0000
     47 ****         0.2655   2.5071   1.1747 H              1 S1                 0.0000
     48 ****        -3.9509   2.2880   1.9078 H              1 S1                 0.0000
     49 ****        -4.0759   3.0911   0.3479 H              1 S1                 0.0000
     50 ****        -6.1764   1.2507   1.6204 H              1 S1                 0.0000
     51 ****        -6.1597   3.5584   2.5813 H              1 S1                 0.0000
     52 ****        -7.6112   3.2776   1.6239 H              1 S1                 0.0000
     53 ****        -6.2925   4.2391   0.9608 H              1 S1                 0.0000
     54 ****        -4.1011   0.2761   0.8410 LP             1 S1                 0.0000
     55 ****         1.1566  -2.0302   0.7524 LP             1 S1                 0.0000
     56 ****         2.7864  -2.5827   0.9485 LP             1 S1                 0.0000
     57 ****         6.5839  -2.9595   0.8555 LP             1 S1                 0.0000
     58 ****         7.6409  -1.9295   0.1566 LP             1 S1                 0.0000
     59 ****        -2.0517   2.7065   1.0219 LP             1 S1                 0.0000
     60 ****        -7.4249   1.8650  -0.2605 LP             1 S1                 0.0000
     61 ****        -6.1521   2.6661  -0.8968 LP             1 S1                 0.0000
@<TRIPOS>BOND
    1    1    2 1     
    2    1   26 1     
    3    1   27 1     
    4    1   28 1     
    5    2   25 1     
    6    2    3 1     
    7    2   29 1     
    8    3    4 1     
    9    3   30 1     
   10    3   31 1     
   11    4    5 1     
   12    4   22 1     
   13    5   21 ar    
   14    5    6 ar    
   15    6    7 ar    
   16    6   32 1     
   17    7    8 ar    
   18    7   33 1     
   19    8    9 1     
   20    8   20 ar    
   21    9   10 am    
   22    9   34 1     
   23   10   11 2     
   24   10   12 am    
   25   12   13 1     
   26   12   35 1     
   27   13   14 1     
   28   13   15 1     
   29   13   36 1     
   30   14   37 1     
   31   14   38 1     
   32   14   39 1     
   33   15   19 1     
   34   15   16 1     
   35   15   40 1     
   36   16   17 1     
   37   16   41 1     
   38   16   42 1     
   39   17   18 1     
   40   17   43 1     
   41   17   44 1     
   42   18   19 1     
   43   18   45 1     
   44   18   46 1     
   45   20   21 ar    
   46   20   47 1     
   47   22   23 1     
   48   22   48 1     
   49   22   49 1     
   50   23   24 1     
   51   23   25 1     
   52   23   50 1     
   53   24   51 1     
   54   24   52 1     
   55   24   53 1     
   56    4   54 1     
   57   11   55 1     
   58   11   56 1     
   59   19   57 1     
   60   19   58 1     
   61   21   59 1     
   62   25   60 1     
   63   25   61 1     
@<TRIPOS>SUBSTRUCTURE
      1 S1             1
@<TRIPOS>SET
LONE_PAIRS      STATIC     ATOMS    <user>   **** ""
8 54 55 56 57 58 59 60 61
DONOR_HYDROGENS      STATIC     ATOMS    <user>   **** ""
2 34 35
ATOM$BLUE        STATIC     ATOMS    COLORGROUP SYSTEM
8 54 55 56 57 58 59 60 61
ATOM$RED        STATIC     ATOMS    COLORGROUP SYSTEM
2 34 35
