AV-unprocessed.smi:3068|AV-procd|sdf|11704|dock10
  -GOLD-   2272017103D 1   1.00000     0.00000
 Structure written by MMmdl.
 40 42  0  0  0  0  0  0  0  0  2 V2000
  150.9865  139.6957  154.3260 N   0  0  0  0  0  0  0  0  0  0  0  0
  149.9910  140.1932  154.6432 C   0  0  0  0  0  0  0  0  0  0  0  0
  148.7378  140.8196  155.0445 C   0  0  0  0  0  0  0  0  0  0  0  0
  147.6994  140.7086  154.1842 N   0  0  0  0  0  0  0  0  0  0  0  0
  146.5342  141.2885  154.5430 C   0  0  0  0  0  0  0  0  0  0  0  0
  146.3999  141.9818  155.7616 C   0  0  0  0  0  0  0  0  0  0  0  0
  147.4303  142.0975  156.6266 N   0  0  0  0  0  0  0  0  0  0  0  0
  148.6068  141.5196  156.2774 C   0  0  0  0  0  0  0  0  0  0  0  0
  149.6886  141.6348  157.1684 N   0  0  0  0  0  0  0  0  0  0  0  0
  149.7540  142.7220  158.1346 C   0  0  0  0  0  0  0  0  0  0  0  0
  151.0590  143.5296  157.9894 C   0  0  2  0  0  0  0  0  0  0  0  0
  152.3171  142.7121  158.3380 C   0  0  0  0  0  0  0  0  0  0  0  0
  152.4118  142.4612  159.7956 N   0  3  1  0  0  0  0  0  0  0  0  0
  153.5999  141.6418  160.1466 C   0  0  0  0  0  0  0  0  0  0  0  0
  153.6303  141.3214  161.6494 C   0  0  0  0  0  0  0  0  0  0  0  0
  153.5867  142.6089  162.4815 C   0  0  0  0  0  0  0  0  0  0  0  0
  152.3646  143.4471  162.0842 C   0  0  0  0  0  0  0  0  0  0  0  0
  152.3450  143.7311  160.5686 C   0  0  2  0  0  0  0  0  0  0  0  0
  151.0863  144.5259  160.1718 C   0  0  0  0  0  0  0  0  0  0  0  0
  151.0490  144.7295  158.7635 O   0  0  0  0  0  0  0  0  0  0  0  0
  145.7067  141.1996  153.8548 H   0  0  0  0  0  0  0  0  0  0  0  0
  145.4655  142.4446  156.0425 H   0  0  0  0  0  0  0  0  0  0  0  0
  150.4877  141.0246  157.0669 H   0  0  0  0  0  0  0  0  0  0  0  0
  148.8811  143.3665  158.0311 H   0  0  0  0  0  0  0  0  0  0  0  0
  149.7049  142.2912  159.1355 H   0  0  0  0  0  0  0  0  0  0  0  0
  151.1424  143.8328  156.9450 H   0  0  0  0  0  0  0  0  0  0  0  0
  152.3111  141.7653  157.7964 H   0  0  0  0  0  0  0  0  0  0  0  0
  153.2057  143.2552  158.0126 H   0  0  0  0  0  0  0  0  0  0  0  0
  153.5832  140.7120  159.5767 H   0  0  0  0  0  0  0  0  0  0  0  0
  154.5087  142.1735  159.8593 H   0  0  0  0  0  0  0  0  0  0  0  0
  152.7815  140.6866  161.9077 H   0  0  0  0  0  0  0  0  0  0  0  0
  154.5284  140.7522  161.8910 H   0  0  0  0  0  0  0  0  0  0  0  0
  153.5507  142.3699  163.5449 H   0  0  0  0  0  0  0  0  0  0  0  0
  154.4989  143.1851  162.3209 H   0  0  0  0  0  0  0  0  0  0  0  0
  151.4547  142.9189  162.3732 H   0  0  0  0  0  0  0  0  0  0  0  0
  152.3665  144.3849  162.6406 H   0  0  0  0  0  0  0  0  0  0  0  0
  153.2226  144.3280  160.3132 H   0  0  0  0  0  0  0  0  0  0  0  0
  150.1787  144.0257  160.5105 H   0  0  0  0  0  0  0  0  0  0  0  0
  151.0945  145.5023  160.6571 H   0  0  0  0  0  0  0  0  0  0  0  0
  151.5984  141.9203  160.0530 H   0  0  0  0  0  0  0  0  0  0  0  0
  1  2  3  0  0  0  0
  2  3  1  0  0  0  0
  3  8  1  0  0  0  0
  3  4  2  0  0  0  0
  4  5  1  0  0  0  0
  5  6  2  0  0  0  0
  5 21  1  0  0  0  0
  6  7  1  0  0  0  0
  6 22  1  0  0  0  0
  7  8  2  0  0  0  0
  8  9  1  0  0  0  0
  9 10  1  0  0  0  0
  9 23  1  0  0  0  0
 10 11  1  0  0  0  0
 10 24  1  0  0  0  0
 10 25  1  0  0  0  0
 11 20  1  0  0  0  0
 11 12  1  0  0  0  0
 11 26  1  0  0  0  0
 12 13  1  0  0  0  0
 12 27  1  0  0  0  0
 12 28  1  0  0  0  0
 13 18  1  0  0  0  0
 13 14  1  0  0  0  0
 13 40  1  0  0  0  0
 14 15  1  0  0  0  0
 14 29  1  0  0  0  0
 14 30  1  0  0  0  0
 15 16  1  0  0  0  0
 15 31  1  0  0  0  0
 15 32  1  0  0  0  0
 16 17  1  0  0  0  0
 16 33  1  0  0  0  0
 16 34  1  0  0  0  0
 17 18  1  0  0  0  0
 17 35  1  0  0  0  0
 17 36  1  0  0  0  0
 18 19  1  0  0  0  0
 18 37  1  0  0  0  0
 19 20  1  0  0  0  0
 19 38  1  0  0  0  0
 19 39  1  0  0  0  0
M  CHG  1  13   1
M  END
> <s_m_source_file>
AV-unprocessed.smi

> <i_m_source_file_index>
3068

> <i_lp_mmshare_version>
43012

> <i_f3d_flags>
0

> <s_epik_input>
TiNDYzFuW2NIXVtjSF1uYzFbTkhdW0NIMl1bQ0BIXShbQ0gyXTIpT1tDSDJdW0NAQEhdKE4yMylbQ0gyXVtDSDJdW0NIMl1bQ0gyXTM=

> <s_epik_cmdline>
J2VwaWtfcHl0aG9uJywgJy1waCcsICc3LjAnLCAnLXRuJywgJzgnLCAnLW1hJywgJzIwMCcsICctbWV0YWxfYmluZGluZycsICctaW1hZScsICc8aW5maWxlLm1hZT4nLCAnLW9tYWUnLCAnPG91dGZpbGUubWFlPic=

> <r_epik_Ionization_Penalty>
0.0804321

> <r_epik_Ionization_Penalty_Charging>
0.0803403

> <r_epik_Ionization_Penalty_Neutral>
9.17277e-05

> <r_epik_State_Penalty>
0.0711481

> <r_epik_Charging_Adjusted_Penalty>
0.151488

> <i_epik_Tot_Q>
1

> <i_epik_Tot_abs_Q>
1

> <r_epik_Metal_State_Penalty>
0.0711481

> <b_epik_Metal_Only>
0

> <s_lp_Force_Field>
OPLS_2005

> <r_lp_Energy>
40.024

> <b_lp_Chiralities_Consistent>
1

> <s_lp_Variant>
AV-unprocessed.smi:3068-7

> <Gold.Version>
5.8.1

> <Gold.Id.Protein>
6NUR|6NUR_protein|mol2

> <Gold.PLP.Fitness>
42.2433

> <Gold.PLP.PLP>
-36.6293

> <Gold.PLP.part.hbond>
-1.0000

> <Gold.PLP.part.metal>
0.0000

> <Gold.PLP.part.buried>
-5.2715

> <Gold.PLP.part.nonpolar>
-31.0174

> <Gold.PLP.part.repulsive>
1.5680

> <Gold.PLP.ligand.clash>
0.0000

> <Gold.PLP.ligand.torsion>
0.1617

> <Gold.PLP.Chemscore.Hbond>
1.0000

> <Gold.PLP.Chemscore.CHOScore>
0.9771

> <Gold.PLP.Chemscore.Metal>
0.0000

> <Gold.Chemscore.Hbonds>
donor molecule, donor type, donor heavy atom, donor atom, acceptor molecule, acceptor atom, score
      P1  H  7989  7998       L1     1  1.00
      L1  C     5    21       P1 10175  0.97

> <Gold.PLP.Chemscore.Internal.Correction>
0.0062

> <Gold.Rescore>
     Score         DG    S(hbond)    S(metal)    S(lipo)     H(rot)  DE(clash)    DE(int)     intcor
     17.50     -17.78       0.99        0.00     105.60       1.32       0.03       0.25       ----

> <Gold.Chemscore.Fitness>
17.5025

> <Gold.Chemscore.DG>
-17.7784

> <Gold.Chemscore.ZeroCoef>
-5.4800

> <Gold.Chemscore.Hbond>
0.9941

> <Gold.Chemscore.Metal>
0.0000

> <Gold.Chemscore.Lipo>
105.6034

> <Gold.Chemscore.Internal_Hbond>
0.0000

> <Gold.Chemscore.DEClash>
0.0274

> <Gold.Chemscore.DEInternal>
0.2485

> <Gold.Chemscore.Rot>
1.3193

> <Gold.Chemscore.Internal.Correction>
   9.000000E+99

> <Gold.Chemscore.Hbonds>
donor molecule, donor type, donor heavy atom, donor atom, acceptor molecule, acceptor atom, score
      P1  H  7989  7998       L1     1  0.29

> <Gold.Chemscore.Hbond.Weighted>
-3.3202

> <Gold.Chemscore.Metal.Weighted>
-0.0000

> <Gold.Chemscore.Lipo.Weighted>
-12.3556

> <Gold.Chemscore.Internal_Hbond.Weighted>
0.0000

> <Gold.Chemscore.DEClash.Weighted>
0.0274

> <Gold.Chemscore.DEInternal.Weighted>
0.2485

> <Gold.Chemscore.Rot.Weighted>
3.3774

> <Gold.Chemscore.Internal.Correction.Weighted>
   9.000000E+99

> <Gold.Protein.RotatedTorsions>
[ 6907 6896 6895 6894 ] final  159.32 input  -60.11 | X-H torsion
[ 7974 7965 7964 7962 ] final  171.08 input  175.53 | X-H torsion
[ 8008 7997 7996 7995 ] final   66.87 input   59.86 | X-H torsion
[ 10167 10162 10161 10158 ] final  -38.73 input  -65.29 | X-H torsion
[ 10718 10713 10712 10709 ] final   47.45 input   66.30 | X-H torsion
[ 10763 10752 10751 10750 ] final   20.85 input  -60.55 | X-H torsion
[ 11005 11000 10999 10996 ] final   23.39 input  -57.11 | X-H torsion

> <Gold.Protein.ActiveResidues>
 VAL166  LYS551  ARG553  GLY616  TRP617  ASP618  TYR619  PRO620  LYS621  CYS622 
 ASP623  PHE694  ASN695  SER759  ASP760  ASP761  ALA762  ILE779  LEU786  VAL792 
 PHE793  MET794  SER795  GLU796  ALA797  LYS798  CYS799  TRP800  GLU811  SER814 

> <Gold.Protein.RotatedAtoms>
  151.9873  133.3778  159.4130 H   0  0  0  0  0  0  0  0  0  0  0  0  # atno 6907 bound_to 6896
  150.6926  134.3974  159.5113 H   0  0  0  0  0  0  0  0  0  0  0  0  # atno 6908 bound_to 6896
  152.1702  134.8840  160.0585 H   0  0  0  0  0  0  0  0  0  0  0  0  # atno 6909 bound_to 6896
  144.7305  139.9297  143.6424 H   0  0  0  0  0  0  0  0  0  0  0  0  # atno 7974 bound_to 7965
  155.6842  140.3496  155.4867 H   0  0  0  0  0  0  0  0  0  0  0  0  # atno 8008 bound_to 7997
  155.9581  140.1132  157.0942 H   0  0  0  0  0  0  0  0  0  0  0  0  # atno 8009 bound_to 7997
  154.4137  140.1181  156.5128 H   0  0  0  0  0  0  0  0  0  0  0  0  # atno 8010 bound_to 7997
  140.7084  143.3258  151.2683 H   0  0  0  0  0  0  0  0  0  0  0  0  # atno 10167 bound_to 10162
  157.4586  130.8182  149.7862 H   0  0  0  0  0  0  0  0  0  0  0  0  # atno 10718 bound_to 10713
  153.1043  135.6681  153.9615 H   0  0  0  0  0  0  0  0  0  0  0  0  # atno 10763 bound_to 10752
  153.9176  135.3018  155.3449 H   0  0  0  0  0  0  0  0  0  0  0  0  # atno 10764 bound_to 10752
  154.7464  135.5055  153.9288 H   0  0  0  0  0  0  0  0  0  0  0  0  # atno 10765 bound_to 10752
  140.3702  134.2031  155.7667 H   0  0  0  0  0  0  0  0  0  0  0  0  # atno 11005 bound_to 11000
  146.0867  139.3855  143.0431 LP  0  0  0  0  0  0  0  0  0  0  0  0  # atno 17320 bound_to 7965
  145.7767  140.9873  143.1120 LP  0  0  0  0  0  0  0  0  0  0  0  0  # atno 17321 bound_to 7965
  139.6726  143.9993  152.2762 LP  0  0  0  0  0  0  0  0  0  0  0  0  # atno 17342 bound_to 10162
  139.9597  144.6566  150.8092 LP  0  0  0  0  0  0  0  0  0  0  0  0  # atno 17343 bound_to 10162
  156.0018  130.3876  150.2576 LP  0  0  0  0  0  0  0  0  0  0  0  0  # atno 17370 bound_to 10713
  157.0752  131.0128  151.3176 LP  0  0  0  0  0  0  0  0  0  0  0  0  # atno 17371 bound_to 10713
  141.1957  133.8099  157.0704 LP  0  0  0  0  0  0  0  0  0  0  0  0  # atno 17394 bound_to 11000
  140.0558  134.9781  157.1218 LP  0  0  0  0  0  0  0  0  0  0  0  0  # atno 17395 bound_to 11000

$$$$
