AV-unprocessed.smi:72|AV-procd|sdf|739|dock1
  -GOLD-   2262017 73D 1   1.00000     0.00000
 Structure written by MMmdl.
 28 29  0  0  0  0  0  0  0  0  2 V2000
  147.8820  134.0348  158.4928 N   0  0  0  0  0  0  0  0  0  0  0  0
  148.5458  134.9573  157.9464 C   0  0  0  0  0  0  0  0  0  0  0  0
  147.8810  136.1674  157.5143 N   0  0  0  0  0  0  0  0  0  0  0  0
  148.6062  137.0909  156.9621 C   0  0  0  0  0  0  0  0  0  0  0  0
  150.0424  136.9347  156.7786 N   0  0  0  0  0  0  0  0  0  0  0  0
  150.8691  138.0245  156.1218 C   0  0  2  0  0  0  0  0  0  0  0  0
  150.1267  139.2085  156.0993 O   0  0  0  0  0  0  0  0  0  0  0  0
  150.3040  139.8627  154.8472 C   0  0  2  0  0  0  0  0  0  0  0  0
  149.1463  140.8344  154.5577 C   0  0  0  0  0  0  0  0  0  0  0  0
  149.2445  141.3296  153.2392 O   0  0  0  0  0  0  0  0  0  0  0  0
  150.4541  138.6993  153.8576 C   0  0  2  0  0  0  0  0  0  0  0  0
  149.1868  138.1928  153.4712 O   0  0  0  0  0  0  0  0  0  0  0  0
  151.2649  137.6922  154.6665 C   0  0  2  0  0  0  0  0  0  0  0  0
  151.0584  136.3512  154.2555 O   0  0  0  0  0  0  0  0  0  0  0  0
  150.6667  135.7294  157.1977 C   0  0  0  0  0  0  0  0  0  0  0  0
  151.8761  135.6014  157.0057 O   0  0  0  0  0  0  0  0  0  0  0  0
  149.8999  134.7656  157.7811 N   0  5  0  0  0  0  0  0  0  0  0  0
  151.7338  138.1891  156.7660 H   0  0  0  0  0  0  0  0  0  0  0  0
  151.2512  140.4051  154.8748 H   0  0  0  0  0  0  0  0  0  0  0  0
  150.9831  139.0060  152.9547 H   0  0  0  0  0  0  0  0  0  0  0  0
  152.3253  137.9254  154.5616 H   0  0  0  0  0  0  0  0  0  0  0  0
  146.9005  134.2563  158.5748 H   0  0  0  0  0  0  0  0  0  0  0  0
  148.1898  138.0318  156.6010 H   0  0  0  0  0  0  0  0  0  0  0  0
  148.1909  140.3151  154.6385 H   0  0  0  0  0  0  0  0  0  0  0  0
  149.1314  141.6584  155.2720 H   0  0  0  0  0  0  0  0  0  0  0  0
  149.2444  140.5971  152.6424 H   0  0  0  0  0  0  0  0  0  0  0  0
  149.3180  137.3572  153.0492 H   0  0  0  0  0  0  0  0  0  0  0  0
  151.0966  136.3214  153.3114 H   0  0  0  0  0  0  0  0  0  0  0  0
  1  2  2  0  0  0  0
  1 22  1  0  0  0  0
  2 17  1  0  0  0  0
  2  3  1  0  0  0  0
  3  4  2  0  0  0  0
  4  5  1  0  0  0  0
  4 23  1  0  0  0  0
  5  6  1  0  0  0  0
  5 15  1  0  0  0  0
  6 18  1  0  0  0  0
  6 13  1  0  0  0  0
  6  7  1  0  0  0  0
  7  8  1  0  0  0  0
  8 19  1  0  0  0  0
  8  9  1  0  0  0  0
  8 11  1  0  0  0  0
  9 10  1  0  0  0  0
  9 24  1  0  0  0  0
  9 25  1  0  0  0  0
 10 26  1  0  0  0  0
 11 20  1  0  0  0  0
 11 12  1  0  0  0  0
 11 13  1  0  0  0  0
 12 27  1  0  0  0  0
 13 21  1  0  0  0  0
 13 14  1  0  0  0  0
 14 28  1  0  0  0  0
 15 16  2  0  0  0  0
 15 17  1  0  0  0  0
M  CHG  1  17  -1
M  END
> <s_m_source_file>
AV-unprocessed.smi

> <i_m_source_file_index>
72

> <i_lp_mmshare_version>
43012

> <i_f3d_flags>
0

> <s_epik_input>
W05IMl1jMW5bY0hdbihjKD1PKW4xKVtDQEBIXTJPW0NASF0oW0NIMl1bT0hdKVtDQEBIXShbT0hdKVtDQEhdMltPSF0=

> <s_epik_cmdline>
J2VwaWtfcHl0aG9uJywgJy1waCcsICc3LjAnLCAnLXRuJywgJzgnLCAnLW1hJywgJzIwMCcsICctbWV0YWxfYmluZGluZycsICctaW1hZScsICc8aW5maWxlLm1hZT4nLCAnLW9tYWUnLCAnPG91dGZpbGUubWFlPic=

> <r_lp_tautomer_probability>
7.17554e-07

> <r_epik_Ionization_Penalty>
12.8705

> <r_epik_Ionization_Penalty_Charging>
5.64144

> <r_epik_Ionization_Penalty_Neutral>
7.22905

> <r_epik_State_Penalty>
3.30104

> <r_epik_Charging_Adjusted_Penalty>
8.94249

> <i_epik_Tot_Q>
-1

> <i_epik_Tot_abs_Q>
1

> <r_epik_Metal_State_Penalty>
0.529074

> <b_epik_Metal_Only>
1

> <s_epik_Chemistry_Notes>
This compound contains an acetal/aminal-like group ( X-CH(R)-Y where X, Y are N, S, or O) that may be acid/base labile, releasing an aldehyde.

> <s_lp_Force_Field>
OPLS_2005

> <r_lp_Energy>
43.5674

> <b_lp_Chiralities_Consistent>
1

> <s_lp_Variant>
AV-unprocessed.smi:72-77

> <Gold.Version>
5.8.1

> <Gold.Id.Protein>
6NUR|6NUR_protein|mol2

> <Gold.PLP.Fitness>
40.0874

> <Gold.PLP.PLP>
-21.1616

> <Gold.PLP.part.hbond>
-8.7056

> <Gold.PLP.part.metal>
0.0000

> <Gold.PLP.part.buried>
-0.6907

> <Gold.PLP.part.nonpolar>
-11.4817

> <Gold.PLP.part.repulsive>
0.0000

> <Gold.PLP.ligand.clash>
0.0000

> <Gold.PLP.ligand.torsion>
0.4056

> <Gold.PLP.Chemscore.Hbond>
6.5772

> <Gold.PLP.Chemscore.CHOScore>
0.0000

> <Gold.PLP.Chemscore.Metal>
0.0000

> <Gold.Chemscore.Hbonds>
donor molecule, donor type, donor heavy atom, donor atom, acceptor molecule, acceptor atom, score
      L1  H    10    26       P1  7957  0.93
      L1  H    12    27       P1  7948  1.00
      L1  H    14    28       P1  7949  1.00
      P1  H  6896  6907       L1    17  1.86
      P1  H  8011  8017       L1    10  0.96
      P1  H 10752 10764       L1    14  0.75

> <Gold.PLP.Chemscore.Internal.Correction>
0.0054

> <Gold.Rescore>
     Score         DG    S(hbond)    S(metal)    S(lipo)     H(rot)  DE(clash)    DE(int)     intcor
     10.62     -11.52       3.80        0.00      31.46       4.04       0.20       0.70       ----

> <Gold.Chemscore.Fitness>
10.6173

> <Gold.Chemscore.DG>
-11.5188

> <Gold.Chemscore.ZeroCoef>
-5.4800

> <Gold.Chemscore.Hbond>
3.8026

> <Gold.Chemscore.Metal>
0.0000

> <Gold.Chemscore.Lipo>
31.4643

> <Gold.Chemscore.Internal_Hbond>
0.0000

> <Gold.Chemscore.DEClash>
0.2034

> <Gold.Chemscore.DEInternal>
0.6981

> <Gold.Chemscore.Rot>
4.0403

> <Gold.Chemscore.Internal.Correction>
   9.000000E+99

> <Gold.Chemscore.Hbonds>
donor molecule, donor type, donor heavy atom, donor atom, acceptor molecule, acceptor atom, score
      L1  H    10    26       P1  7957  0.90
      L1  H    12    27       P1  7948  0.92
      L1  H    14    28       P1  7949  0.35
      P1  H  6896  6907       L1    17  0.47
      P1  H  8011  8017       L1    10  0.23
      P1  H 10752 10764       L1    14  0.02

> <Gold.Chemscore.Hbond.Weighted>
-12.7006

> <Gold.Chemscore.Metal.Weighted>
-0.0000

> <Gold.Chemscore.Lipo.Weighted>
-3.6813

> <Gold.Chemscore.Internal_Hbond.Weighted>
0.0000

> <Gold.Chemscore.DEClash.Weighted>
0.2034

> <Gold.Chemscore.DEInternal.Weighted>
0.6981

> <Gold.Chemscore.Rot.Weighted>
10.3431

> <Gold.Chemscore.Internal.Correction.Weighted>
   9.000000E+99

> <Gold.Protein.RotatedTorsions>
[ 6907 6896 6895 6894 ] final  -89.84 input  -60.11 | X-H torsion
[ 7974 7965 7964 7962 ] final    3.23 input  175.53 | X-H torsion
[ 8008 7997 7996 7995 ] final  169.56 input   59.86 | X-H torsion
[ 10167 10162 10161 10158 ] final  161.49 input  -65.29 | X-H torsion
[ 10718 10713 10712 10709 ] final   90.04 input   66.30 | X-H torsion
[ 10763 10752 10751 10750 ] final  -62.03 input  -60.55 | X-H torsion
[ 11005 11000 10999 10996 ] final  176.23 input  -57.11 | X-H torsion

> <Gold.Protein.ActiveResidues>
 VAL166  LYS551  ARG553  GLY616  TRP617  ASP618  TYR619  PRO620  LYS621  CYS622 
 ASP623  PHE694  ASN695  SER759  ASP760  ASP761  ALA762  ILE779  LEU786  VAL792 
 PHE793  MET794  SER795  GLU796  ALA797  LYS798  CYS799  TRP800  GLU811  SER814 

> <Gold.Protein.RotatedAtoms>
  150.6877  134.2524  159.4515 H   0  0  0  0  0  0  0  0  0  0  0  0  # atno 6907 bound_to 6896
  152.0460  134.9680  160.0583 H   0  0  0  0  0  0  0  0  0  0  0  0  # atno 6908 bound_to 6896
  152.1163  133.4293  159.4691 H   0  0  0  0  0  0  0  0  0  0  0  0  # atno 6909 bound_to 6896
  146.2445  140.0716  142.8362 H   0  0  0  0  0  0  0  0  0  0  0  0  # atno 7974 bound_to 7965
  156.1446  140.1561  156.8866 H   0  0  0  0  0  0  0  0  0  0  0  0  # atno 8008 bound_to 7997
  154.5017  140.0823  156.7850 H   0  0  0  0  0  0  0  0  0  0  0  0  # atno 8009 bound_to 7997
  155.4013  140.3414  155.4259 H   0  0  0  0  0  0  0  0  0  0  0  0  # atno 8010 bound_to 7997
  139.4850  144.4531  151.8804 H   0  0  0  0  0  0  0  0  0  0  0  0  # atno 10167 bound_to 10162
  157.6958  131.0356  150.3517 H   0  0  0  0  0  0  0  0  0  0  0  0  # atno 10718 bound_to 10713
  154.2936  135.6248  153.5395 H   0  0  0  0  0  0  0  0  0  0  0  0  # atno 10763 bound_to 10752
  152.9849  135.5661  154.5362 H   0  0  0  0  0  0  0  0  0  0  0  0  # atno 10764 bound_to 10752
  154.4978  135.2870  155.1421 H   0  0  0  0  0  0  0  0  0  0  0  0  # atno 10765 bound_to 10752
  140.3709  134.7031  157.4391 H   0  0  0  0  0  0  0  0  0  0  0  0  # atno 11005 bound_to 11000
  145.0811  140.9222  143.4825 LP  0  0  0  0  0  0  0  0  0  0  0  0  # atno 17320 bound_to 7965
  145.0869  139.2918  143.5755 LP  0  0  0  0  0  0  0  0  0  0  0  0  # atno 17321 bound_to 7965
  140.3989  144.2519  150.5894 LP  0  0  0  0  0  0  0  0  0  0  0  0  # atno 17342 bound_to 10162
  140.5076  143.2299  151.8584 LP  0  0  0  0  0  0  0  0  0  0  0  0  # atno 17343 bound_to 10162
  156.3964  130.3907  149.6991 LP  0  0  0  0  0  0  0  0  0  0  0  0  # atno 17370 bound_to 10713
  156.4323  130.7821  151.2841 LP  0  0  0  0  0  0  0  0  0  0  0  0  # atno 17371 bound_to 10713
  140.0553  134.6073  155.8813 LP  0  0  0  0  0  0  0  0  0  0  0  0  # atno 17394 bound_to 11000
  141.1955  133.6587  156.5645 LP  0  0  0  0  0  0  0  0  0  0  0  0  # atno 17395 bound_to 11000

$$$$
