AV-unprocessed.smi:2775|AV-procd|sdf|10697|dock10
  -GOLD-   2272015133D 1   1.00000     0.00000
 Structure written by MMmdl.
 43 46  0  0  0  0  0  0  0  0  2 V2000
  150.5105  141.1180  155.7036 C   0  0  0  0  0  0  0  0  0  0  0  0
  149.2948  140.9378  154.8149 C   0  0  0  0  0  0  0  0  0  0  0  0
  148.4954  142.0091  154.6178 N   0  3  0  0  0  0  0  0  0  0  0  0
  147.3922  141.9702  153.8426 C   0  0  0  0  0  0  0  0  0  0  0  0
  147.0261  140.7718  153.1995 C   0  0  0  0  0  0  0  0  0  0  0  0
  147.8210  139.6117  153.3834 C   0  0  0  0  0  0  0  0  0  0  0  0
  147.5423  138.3608  152.7659 N   0  0  0  0  0  0  0  0  0  0  0  0
  146.3628  137.8315  152.3880 C   0  0  0  0  0  0  0  0  0  0  0  0
  145.2684  138.3677  152.5438 O   0  0  0  0  0  0  0  0  0  0  0  0
  146.4712  136.6178  151.8207 N   0  0  0  0  0  0  0  0  0  0  0  0
  145.3886  135.7793  151.3056 C   0  0  1  0  0  0  0  0  0  0  0  0
  145.7192  134.2873  151.3748 C   0  0  2  0  0  0  0  0  0  0  0  0
  146.0240  133.2478  150.3574 C   0  0  0  0  0  0  0  0  0  0  0  0
  145.1344  132.1197  150.9392 C   0  0  0  0  0  0  0  0  0  0  0  0
  144.3425  132.7397  151.9816 O   0  0  0  0  0  0  0  0  0  0  0  0
  144.2246  134.0898  151.5759 C   0  0  1  0  0  0  0  0  0  0  0  0
  144.3002  135.4018  152.3676 C   0  0  0  0  0  0  0  0  0  0  0  0
  143.0580  136.2722  152.5916 C   0  0  0  0  0  0  0  0  0  0  0  0
  143.6251  136.6574  153.9625 C   0  0  0  0  0  0  0  0  0  0  0  0
  144.5374  135.4285  153.8891 C   0  0  0  0  0  0  0  0  0  0  0  0
  148.9788  139.7057  154.1952 C   0  0  0  0  0  0  0  0  0  0  0  0
  150.0001  138.3269  154.4335 Cl  0  0  0  0  0  0  0  0  0  0  0  0
  150.4657  140.4340  156.5515 H   0  0  0  0  0  0  0  0  0  0  0  0
  150.5736  142.1350  156.0925 H   0  0  0  0  0  0  0  0  0  0  0  0
  151.4230  140.9131  155.1436 H   0  0  0  0  0  0  0  0  0  0  0  0
  146.8407  142.8950  153.7560 H   0  0  0  0  0  0  0  0  0  0  0  0
  146.1501  140.7745  152.5702 H   0  0  0  0  0  0  0  0  0  0  0  0
  148.3458  137.7641  152.6317 H   0  0  0  0  0  0  0  0  0  0  0  0
  147.4020  136.2336  151.7425 H   0  0  0  0  0  0  0  0  0  0  0  0
  144.9881  136.0848  150.3348 H   0  0  0  0  0  0  0  0  0  0  0  0
  146.2862  134.0782  152.2897 H   0  0  0  0  0  0  0  0  0  0  0  0
  145.7031  133.5476  149.3589 H   0  0  0  0  0  0  0  0  0  0  0  0
  147.0800  132.9780  150.3292 H   0  0  0  0  0  0  0  0  0  0  0  0
  144.4869  131.7003  150.1683 H   0  0  0  0  0  0  0  0  0  0  0  0
  145.7270  131.3085  151.3628 H   0  0  0  0  0  0  0  0  0  0  0  0
  143.6353  134.1877  150.6579 H   0  0  0  0  0  0  0  0  0  0  0  0
  142.9467  137.1033  151.8953 H   0  0  0  0  0  0  0  0  0  0  0  0
  142.1420  135.6843  152.6664 H   0  0  0  0  0  0  0  0  0  0  0  0
  144.1796  137.5964  153.9425 H   0  0  0  0  0  0  0  0  0  0  0  0
  142.8992  136.6359  154.7759 H   0  0  0  0  0  0  0  0  0  0  0  0
  144.1109  134.5598  154.3928 H   0  0  0  0  0  0  0  0  0  0  0  0
  145.5658  135.6074  154.2035 H   0  0  0  0  0  0  0  0  0  0  0  0
  148.7402  142.8894  155.0722 H   0  0  0  0  0  0  0  0  0  0  0  0
  1  2  1  0  0  0  0
  1 23  1  0  0  0  0
  1 24  1  0  0  0  0
  1 25  1  0  0  0  0
  2 21  1  0  0  0  0
  2  3  2  0  0  0  0
  3  4  1  0  0  0  0
  3 43  1  0  0  0  0
  4  5  2  0  0  0  0
  4 26  1  0  0  0  0
  5  6  1  0  0  0  0
  5 27  1  0  0  0  0
  6  7  1  0  0  0  0
  6 21  2  0  0  0  0
  7  8  1  0  0  0  0
  7 28  1  0  0  0  0
  8  9  2  0  0  0  0
  8 10  1  0  0  0  0
 10 11  1  0  0  0  0
 10 29  1  0  0  0  0
 11 17  1  0  0  0  0
 11 12  1  0  0  0  0
 11 30  1  0  0  0  0
 12 16  1  0  0  0  0
 12 13  1  0  0  0  0
 12 31  1  0  0  0  0
 13 14  1  0  0  0  0
 13 32  1  0  0  0  0
 13 33  1  0  0  0  0
 14 15  1  0  0  0  0
 14 34  1  0  0  0  0
 14 35  1  0  0  0  0
 15 16  1  0  0  0  0
 16 17  1  0  0  0  0
 16 36  1  0  0  0  0
 17 20  1  0  0  0  0
 17 18  1  0  0  0  0
 18 19  1  0  0  0  0
 18 37  1  0  0  0  0
 18 38  1  0  0  0  0
 19 20  1  0  0  0  0
 19 39  1  0  0  0  0
 19 40  1  0  0  0  0
 20 41  1  0  0  0  0
 20 42  1  0  0  0  0
 21 22  1  0  0  0  0
M  CHG  1   3   1
M  END
> <s_m_source_file>
AV-unprocessed.smi

> <i_m_source_file_index>
2775

> <i_lp_mmshare_version>
43012

> <i_f3d_flags>
0

> <s_epik_input>
W0NIM11jMW5bY0hdW2NIXWMoYzFDbClbTkhdQyg9TylbTkhdW0NAQEhdMltDQEhdKFtDSDJdW0NIMl1PMylbQ0BASF0zQzI0W0NIMl1bQ0gyXVtDSDJdNA==

> <s_epik_cmdline>
J2VwaWtfcHl0aG9uJywgJy1waCcsICc3LjAnLCAnLXRuJywgJzgnLCAnLW1hJywgJzIwMCcsICctbWV0YWxfYmluZGluZycsICctaW1hZScsICc8aW5maWxlLm1hZT4nLCAnLW9tYWUnLCAnPG91dGZpbGUubWFlPic=

> <r_epik_Ionization_Penalty>
2.4104

> <r_epik_Ionization_Penalty_Charging>
2.41038

> <r_epik_Ionization_Penalty_Neutral>
1.9872e-05

> <r_epik_State_Penalty>
2.56896

> <r_epik_Charging_Adjusted_Penalty>
4.97934

> <i_epik_Tot_Q>
1

> <i_epik_Tot_abs_Q>
1

> <r_epik_Metal_State_Penalty>
2.57906

> <b_epik_Metal_Only>
0

> <s_lp_Force_Field>
OPLS_2005

> <r_lp_Energy>
84.4101

> <b_lp_Chiralities_Consistent>
1

> <s_lp_Variant>
AV-unprocessed.smi:2775-10

> <Gold.Version>
5.8.1

> <Gold.Id.Protein>
6NUR|6NUR_protein|mol2

> <Gold.PLP.Fitness>
47.2471

> <Gold.PLP.PLP>
-35.8555

> <Gold.PLP.part.hbond>
-3.6629

> <Gold.PLP.part.metal>
0.0000

> <Gold.PLP.part.buried>
-3.0821

> <Gold.PLP.part.nonpolar>
-33.0744

> <Gold.PLP.part.repulsive>
3.8572

> <Gold.PLP.ligand.clash>
0.0000

> <Gold.PLP.ligand.torsion>
0.3553

> <Gold.PLP.Chemscore.Hbond>
3.9280

> <Gold.PLP.Chemscore.CHOScore>
0.0000

> <Gold.PLP.Chemscore.Metal>
0.0000

> <Gold.Chemscore.Hbonds>
donor molecule, donor type, donor heavy atom, donor atom, acceptor molecule, acceptor atom, score
      L1  H     3    43       P1  8028  2.00
      L1  H     7    28       P1  7948  0.91
      L1  H    10    29       P1  7948  0.99

> <Gold.PLP.Chemscore.Internal.Correction>
0.3183

> <Gold.Rescore>
     Score         DG    S(hbond)    S(metal)    S(lipo)     H(rot)  DE(clash)    DE(int)     intcor
     19.09     -23.57       2.90        0.00      93.75       1.00       2.10       2.38       ----

> <Gold.Chemscore.Fitness>
19.0920

> <Gold.Chemscore.DG>
-23.5729

> <Gold.Chemscore.ZeroCoef>
-5.4800

> <Gold.Chemscore.Hbond>
2.8995

> <Gold.Chemscore.Metal>
0.0000

> <Gold.Chemscore.Lipo>
93.7488

> <Gold.Chemscore.Internal_Hbond>
0.0000

> <Gold.Chemscore.DEClash>
2.0978

> <Gold.Chemscore.DEInternal>
2.3830

> <Gold.Chemscore.Rot>
1.0000

> <Gold.Chemscore.Internal.Correction>
   9.000000E+99

> <Gold.Chemscore.Hbonds>
donor molecule, donor type, donor heavy atom, donor atom, acceptor molecule, acceptor atom, score
      L1  H     3    43       P1  8028  1.00
      L1  H     7    28       P1  7948  0.90
      L1  H    10    29       P1  7948  0.91

> <Gold.Chemscore.Hbond.Weighted>
-9.6842

> <Gold.Chemscore.Metal.Weighted>
-0.0000

> <Gold.Chemscore.Lipo.Weighted>
-10.9686

> <Gold.Chemscore.Internal_Hbond.Weighted>
0.0000

> <Gold.Chemscore.DEClash.Weighted>
2.0978

> <Gold.Chemscore.DEInternal.Weighted>
2.3830

> <Gold.Chemscore.Rot.Weighted>
2.5600

> <Gold.Chemscore.Internal.Correction.Weighted>
   9.000000E+99

> <Gold.Protein.RotatedTorsions>
[ 6907 6896 6895 6894 ] final -137.50 input  -60.11 | X-H torsion
[ 7974 7965 7964 7962 ] final   12.00 input  175.53 | X-H torsion
[ 8008 7997 7996 7995 ] final  159.36 input   59.86 | X-H torsion
[ 10167 10162 10161 10158 ] final   88.55 input  -65.29 | X-H torsion
[ 10718 10713 10712 10709 ] final  109.08 input   66.30 | X-H torsion
[ 10763 10752 10751 10750 ] final   70.74 input  -60.55 | X-H torsion
[ 11005 11000 10999 10996 ] final  -95.34 input  -57.11 | X-H torsion

> <Gold.Protein.ActiveResidues>
 VAL166  LYS551  ARG553  GLY616  TRP617  ASP618  TYR619  PRO620  LYS621  CYS622 
 ASP623  PHE694  ASN695  SER759  ASP760  ASP761  ALA762  ILE779  LEU786  VAL792 
 PHE793  MET794  SER795  GLU796  ALA797  LYS798  CYS799  TRP800  GLU811  SER814 

> <Gold.Protein.RotatedAtoms>
  151.0233  133.5857  159.2668 H   0  0  0  0  0  0  0  0  0  0  0  0  # atno 6907 bound_to 6896
  151.2966  135.0756  159.9233 H   0  0  0  0  0  0  0  0  0  0  0  0  # atno 6908 bound_to 6896
  152.5328  133.9922  159.7910 H   0  0  0  0  0  0  0  0  0  0  0  0  # atno 6909 bound_to 6896
  146.2360  139.9402  142.8484 H   0  0  0  0  0  0  0  0  0  0  0  0  # atno 7974 bound_to 7965
  156.2244  140.1833  156.7399 H   0  0  0  0  0  0  0  0  0  0  0  0  # atno 8008 bound_to 7997
  154.5917  140.0650  156.9276 H   0  0  0  0  0  0  0  0  0  0  0  0  # atno 8009 bound_to 7997
  155.2325  140.3316  155.4304 H   0  0  0  0  0  0  0  0  0  0  0  0  # atno 8010 bound_to 7997
  139.8661  144.6518  150.9002 H   0  0  0  0  0  0  0  0  0  0  0  0  # atno 10167 bound_to 10162
  157.6558  131.0906  150.6400 H   0  0  0  0  0  0  0  0  0  0  0  0  # atno 10718 bound_to 10713
  153.0358  135.5163  154.7486 H   0  0  0  0  0  0  0  0  0  0  0  0  # atno 10763 bound_to 10752
  154.6464  135.2919  155.0043 H   0  0  0  0  0  0  0  0  0  0  0  0  # atno 10764 bound_to 10752
  154.0943  135.6645  153.4910 H   0  0  0  0  0  0  0  0  0  0  0  0  # atno 10765 bound_to 10752
  141.1444  133.8019  157.0422 H   0  0  0  0  0  0  0  0  0  0  0  0  # atno 11005 bound_to 11000
  145.1960  140.9833  143.4183 LP  0  0  0  0  0  0  0  0  0  0  0  0  # atno 17320 bound_to 7965
  144.9815  139.3778  143.6259 LP  0  0  0  0  0  0  0  0  0  0  0  0  # atno 17321 bound_to 7965
  140.7768  143.3703  151.1662 LP  0  0  0  0  0  0  0  0  0  0  0  0  # atno 17342 bound_to 10162
  139.7327  143.9047  152.3025 LP  0  0  0  0  0  0  0  0  0  0  0  0  # atno 17343 bound_to 10162
  156.6707  130.4538  149.5658 LP  0  0  0  0  0  0  0  0  0  0  0  0  # atno 17370 bound_to 10713
  156.2000  130.6614  151.1156 LP  0  0  0  0  0  0  0  0  0  0  0  0  # atno 17371 bound_to 10713
  140.0685  134.9715  157.1427 LP  0  0  0  0  0  0  0  0  0  0  0  0  # atno 17394 bound_to 11000
  140.3745  134.2354  155.7175 LP  0  0  0  0  0  0  0  0  0  0  0  0  # atno 17395 bound_to 11000

$$$$
