AV-unprocessed.smi:2784|AV-procd|sdf|10731|dock4
  -GOLD-   2272015173D 1   1.00000     0.00000
 Structure written by MMmdl.
 32 33  0  0  0  0  0  0  0  0  2 V2000
  145.2909  142.4001  155.8171 C   0  0  0  0  0  0  0  0  0  0  0  0
  145.7536  141.3691  154.9596 O   0  0  0  0  0  0  0  0  0  0  0  0
  146.5444  141.8353  153.8688 C   0  0  1  0  0  0  0  0  0  0  0  0
  147.7969  142.5325  154.4126 C   0  0  0  0  0  0  0  0  0  0  0  0
  148.7593  141.3881  154.7162 C   0  0  0  0  0  0  0  0  0  0  0  0
  148.5209  140.3741  153.5952 C   0  0  0  0  0  0  0  0  0  0  0  0
  147.0967  140.6341  153.0656 C   0  0  1  0  0  0  0  0  0  0  0  0
  146.2649  139.4378  153.1815 N   0  0  0  0  0  0  0  0  0  0  0  0
  146.2158  138.4504  152.2757 C   0  0  0  0  0  0  0  0  0  0  0  0
  146.8907  138.4341  151.2458 O   0  0  0  0  0  0  0  0  0  0  0  0
  145.3397  137.4986  152.6300 N   0  0  0  0  0  0  0  0  0  0  0  0
  145.0654  136.3179  151.9024 C   0  0  0  0  0  0  0  0  0  0  0  0
  146.0036  135.5251  151.3865 N   0  3  0  0  0  0  0  0  0  0  0  0
  145.3908  134.4774  150.7449 C   0  0  0  0  0  0  0  0  0  0  0  0
  144.0408  134.6821  150.9006 C   0  0  0  0  0  0  0  0  0  0  0  0
  143.8204  135.8353  151.6269 O   0  0  0  0  0  0  0  0  0  0  0  0
  144.6966  141.9646  156.6201 H   0  0  0  0  0  0  0  0  0  0  0  0
  144.6568  143.1043  155.2772 H   0  0  0  0  0  0  0  0  0  0  0  0
  146.1142  142.9502  156.2723 H   0  0  0  0  0  0  0  0  0  0  0  0
  145.9571  142.4894  153.2214 H   0  0  0  0  0  0  0  0  0  0  0  0
  148.2248  143.1678  153.6360 H   0  0  0  0  0  0  0  0  0  0  0  0
  147.6091  143.1627  155.2818 H   0  0  0  0  0  0  0  0  0  0  0  0
  149.7977  141.7161  154.7701 H   0  0  0  0  0  0  0  0  0  0  0  0
  148.5023  140.9410  155.6775 H   0  0  0  0  0  0  0  0  0  0  0  0
  149.2419  140.5367  152.7929 H   0  0  0  0  0  0  0  0  0  0  0  0
  148.6666  139.3534  153.9517 H   0  0  0  0  0  0  0  0  0  0  0  0
  147.1778  140.9151  152.0136 H   0  0  0  0  0  0  0  0  0  0  0  0
  145.6717  139.3766  153.9959 H   0  0  0  0  0  0  0  0  0  0  0  0
  147.0083  135.6394  151.4361 H   0  0  0  0  0  0  0  0  0  0  0  0
  145.9644  133.7064  150.2503 H   0  0  0  0  0  0  0  0  0  0  0  0
  143.1618  134.1420  150.5799 H   0  0  0  0  0  0  0  0  0  0  0  0
  144.8320  137.6267  153.4927 H   0  0  0  0  0  0  0  0  0  0  0  0
  1  2  1  0  0  0  0
  1 17  1  0  0  0  0
  1 18  1  0  0  0  0
  1 19  1  0  0  0  0
  2  3  1  0  0  0  0
  3  7  1  0  0  0  0
  3  4  1  0  0  0  0
  3 20  1  0  0  0  0
  4  5  1  0  0  0  0
  4 21  1  0  0  0  0
  4 22  1  0  0  0  0
  5  6  1  0  0  0  0
  5 23  1  0  0  0  0
  5 24  1  0  0  0  0
  6  7  1  0  0  0  0
  6 25  1  0  0  0  0
  6 26  1  0  0  0  0
  7  8  1  0  0  0  0
  7 27  1  0  0  0  0
  8 28  1  0  0  0  0
  8  9  1  0  0  0  0
  9 11  1  0  0  0  0
  9 10  2  0  0  0  0
 11 12  1  0  0  0  0
 11 32  1  0  0  0  0
 12 16  1  0  0  0  0
 12 13  2  0  0  0  0
 13 29  1  0  0  0  0
 13 14  1  0  0  0  0
 14 30  1  0  0  0  0
 14 15  2  0  0  0  0
 15 31  1  0  0  0  0
 15 16  1  0  0  0  0
M  CHG  1  13   1
M  END
> <s_m_source_file>
AV-unprocessed.smi

> <i_m_source_file_index>
2784

> <i_lp_mmshare_version>
43012

> <i_f3d_flags>
0

> <s_epik_input>
W0NIM11PW0NAQEhdMVtDSDJdW0NIMl1bQ0gyXVtDQEhdMVtOSF1DKD1PKVtOSF1jMm5bY0hdW2NIXW8y

> <s_epik_cmdline>
J2VwaWtfcHl0aG9uJywgJy1waCcsICc3LjAnLCAnLXRuJywgJzgnLCAnLW1hJywgJzIwMCcsICctbWV0YWxfYmluZGluZycsICctaW1hZScsICc8aW5maWxlLm1hZT4nLCAnLW9tYWUnLCAnPG91dGZpbGUubWFlPic=

> <r_epik_Ionization_Penalty>
6.73843

> <r_epik_Ionization_Penalty_Charging>
6.66704

> <r_epik_Ionization_Penalty_Neutral>
0.0713889

> <r_epik_State_Penalty>
1.94951

> <r_epik_Charging_Adjusted_Penalty>
8.61656

> <i_epik_Tot_Q>
1

> <i_epik_Tot_abs_Q>
1

> <r_epik_Metal_State_Penalty>
1.97013

> <b_epik_Metal_Only>
0

> <s_lp_Force_Field>
OPLS_2005

> <r_lp_Energy>
28.3285

> <b_lp_Chiralities_Consistent>
1

> <s_lp_Variant>
AV-unprocessed.smi:2784-6

> <Gold.Version>
5.8.1

> <Gold.Id.Protein>
6NUR|6NUR_protein|mol2

> <Gold.PLP.Fitness>
34.3630

> <Gold.PLP.PLP>
-23.8438

> <Gold.PLP.part.hbond>
-3.0000

> <Gold.PLP.part.metal>
0.0000

> <Gold.PLP.part.buried>
1.4090

> <Gold.PLP.part.nonpolar>
-25.0556

> <Gold.PLP.part.repulsive>
1.8115

> <Gold.PLP.ligand.clash>
0.0000

> <Gold.PLP.ligand.torsion>
0.7464

> <Gold.PLP.Chemscore.Hbond>
3.0000

> <Gold.PLP.Chemscore.CHOScore>
1.0000

> <Gold.PLP.Chemscore.Metal>
0.0000

> <Gold.Chemscore.Hbonds>
donor molecule, donor type, donor heavy atom, donor atom, acceptor molecule, acceptor atom, score
      L1  H    13    29       P1  7948  1.98
      P1  H  7954  7966       L1    10  1.00
      L1  C    15    31       P1 10186  1.00

> <Gold.PLP.Chemscore.Internal.Correction>
0.0120

> <Gold.Rescore>
     Score         DG    S(hbond)    S(metal)    S(lipo)     H(rot)  DE(clash)    DE(int)     intcor
     10.96     -14.73       1.97        0.00      52.19       1.34       2.96       0.81       ----

> <Gold.Chemscore.Fitness>
10.9637

> <Gold.Chemscore.DG>
-14.7329

> <Gold.Chemscore.ZeroCoef>
-5.4800

> <Gold.Chemscore.Hbond>
1.9655

> <Gold.Chemscore.Metal>
0.0000

> <Gold.Chemscore.Lipo>
52.1882

> <Gold.Chemscore.Internal_Hbond>
0.0000

> <Gold.Chemscore.DEClash>
2.9636

> <Gold.Chemscore.DEInternal>
0.8056

> <Gold.Chemscore.Rot>
1.3351

> <Gold.Chemscore.Internal.Correction>
   9.000000E+99

> <Gold.Chemscore.Hbonds>
donor molecule, donor type, donor heavy atom, donor atom, acceptor molecule, acceptor atom, score
      L1  H    13    29       P1  7948  0.92
      P1  H  7954  7966       L1    10  0.98

> <Gold.Chemscore.Hbond.Weighted>
-6.5646

> <Gold.Chemscore.Metal.Weighted>
-0.0000

> <Gold.Chemscore.Lipo.Weighted>
-6.1060

> <Gold.Chemscore.Internal_Hbond.Weighted>
0.0000

> <Gold.Chemscore.DEClash.Weighted>
2.9636

> <Gold.Chemscore.DEInternal.Weighted>
0.8056

> <Gold.Chemscore.Rot.Weighted>
3.4177

> <Gold.Chemscore.Internal.Correction.Weighted>
   9.000000E+99

> <Gold.Protein.RotatedTorsions>
[ 6907 6896 6895 6894 ] final  149.05 input  -60.11 | X-H torsion
[ 7974 7965 7964 7962 ] final  137.29 input  175.53 | X-H torsion
[ 8008 7997 7996 7995 ] final  -55.50 input   59.86 | X-H torsion
[ 10167 10162 10161 10158 ] final  -56.94 input  -65.29 | X-H torsion
[ 10718 10713 10712 10709 ] final   53.40 input   66.30 | X-H torsion
[ 10763 10752 10751 10750 ] final  137.54 input  -60.55 | X-H torsion
[ 11005 11000 10999 10996 ] final  152.90 input  -57.11 | X-H torsion

> <Gold.Protein.ActiveResidues>
 VAL166  LYS551  ARG553  GLY616  TRP617  ASP618  TYR619  PRO620  LYS621  CYS622 
 ASP623  PHE694  ASN695  SER759  ASP760  ASP761  ALA762  ILE779  LEU786  VAL792 
 PHE793  MET794  SER795  GLU796  ALA797  LYS798  CYS799  TRP800  GLU811  SER814 

> <Gold.Protein.RotatedAtoms>
  152.1332  133.4420  159.4730 H   0  0  0  0  0  0  0  0  0  0  0  0  # atno 6907 bound_to 6896
  150.6880  134.2395  159.4476 H   0  0  0  0  0  0  0  0  0  0  0  0  # atno 6908 bound_to 6896
  152.0280  134.9784  160.0622 H   0  0  0  0  0  0  0  0  0  0  0  0  # atno 6909 bound_to 6896
  144.9482  139.4850  143.5539 H   0  0  0  0  0  0  0  0  0  0  0  0  # atno 7974 bound_to 7965
  154.4197  140.1151  156.5487 H   0  0  0  0  0  0  0  0  0  0  0  0  # atno 8008 bound_to 7997
  155.6432  140.3496  155.4703 H   0  0  0  0  0  0  0  0  0  0  0  0  # atno 8009 bound_to 7997
  155.9853  140.1168  157.0678 H   0  0  0  0  0  0  0  0  0  0  0  0  # atno 8010 bound_to 7997
  140.6287  143.2450  151.5296 H   0  0  0  0  0  0  0  0  0  0  0  0  # atno 10167 bound_to 10162
  157.5163  130.8535  149.8500 H   0  0  0  0  0  0  0  0  0  0  0  0  # atno 10718 bound_to 10713
  153.8747  135.3051  155.3443 H   0  0  0  0  0  0  0  0  0  0  0  0  # atno 10763 bound_to 10752
  154.7789  135.4846  153.9806 H   0  0  0  0  0  0  0  0  0  0  0  0  # atno 10764 bound_to 10752
  153.1386  135.6819  153.9159 H   0  0  0  0  0  0  0  0  0  0  0  0  # atno 10765 bound_to 10752
  140.1349  134.8777  157.2254 H   0  0  0  0  0  0  0  0  0  0  0  0  # atno 11005 bound_to 11000
  146.3311  139.8548  142.8866 LP  0  0  0  0  0  0  0  0  0  0  0  0  # atno 17320 bound_to 7965
  145.2885  141.0160  143.3676 LP  0  0  0  0  0  0  0  0  0  0  0  0  # atno 17321 bound_to 7965
  139.5504  144.2410  152.1520 LP  0  0  0  0  0  0  0  0  0  0  0  0  # atno 17342 bound_to 10162
  140.1649  144.4991  150.6612 LP  0  0  0  0  0  0  0  0  0  0  0  0  # atno 17343 bound_to 10162
  156.0323  130.3761  150.1655 LP  0  0  0  0  0  0  0  0  0  0  0  0  # atno 17370 bound_to 10713
  156.9844  130.9874  151.3430 LP  0  0  0  0  0  0  0  0  0  0  0  0  # atno 17371 bound_to 10713
  140.2795  134.3367  155.7348 LP  0  0  0  0  0  0  0  0  0  0  0  0  # atno 17394 bound_to 11000
  141.2176  133.7470  156.9342 LP  0  0  0  0  0  0  0  0  0  0  0  0  # atno 17395 bound_to 11000

$$$$
