AV-unprocessed.smi:1793|AV-procd|sdf|7225|dock7
  -GOLD-   22720 8473D 1   1.00000     0.00000
 Structure written by MMmdl.
 46 48  0  0  0  0  0  0  0  0  1 V2000
  152.6219  138.3987  154.5486 C   0  0  0  0  0  0  0  0  0  0  0  0
  151.1650  138.5813  154.0996 C   0  0  1  0  0  0  0  0  0  0  0  0
  150.5379  137.2666  153.9745 N   0  0  0  0  0  0  0  0  0  0  0  0
  150.7079  136.2299  154.8074 C   0  0  0  0  0  0  0  0  0  0  0  0
  151.4303  136.2617  155.8035 O   0  0  0  0  0  0  0  0  0  0  0  0
  149.9786  135.1730  154.4136 N   0  0  0  0  0  0  0  0  0  0  0  0
  149.8209  133.9194  155.0696 C   0  0  0  0  0  0  0  0  0  0  0  0
  150.6557  133.5393  156.1491 C   0  0  0  0  0  0  0  0  0  0  0  0
  150.5082  132.2637  156.7203 C   0  0  0  0  0  0  0  0  0  0  0  0
  149.5393  131.4023  156.1800 C   0  0  0  0  0  0  0  0  0  0  0  0
  148.7471  131.7430  155.1443 N   0  0  0  0  0  0  0  0  0  0  0  0
  148.8660  132.9757  154.5915 C   0  0  0  0  0  0  0  0  0  0  0  0
  147.9966  133.2775  153.5172 N   0  0  0  0  0  0  0  0  0  0  0  0
  147.3288  132.2087  152.7819 C   0  0  0  0  0  0  0  0  0  0  0  0
  146.2217  132.9022  151.9932 C   0  0  0  0  0  0  0  0  0  0  0  0
  145.7843  134.0074  152.9496 C   0  0  0  0  0  0  0  0  0  0  0  0
  147.0820  134.4070  153.6597 C   0  0  0  0  0  0  0  0  0  0  0  0
  150.3641  139.4566  155.0831 C   0  0  2  0  0  0  0  0  0  0  0  0
  149.0013  139.9217  154.5674 C   0  0  0  0  0  0  0  0  0  0  0  0
  148.7253  141.1753  155.3816 C   0  0  0  0  0  0  0  0  0  0  0  0
  150.0974  141.5689  155.9374 C   0  0  0  0  0  0  0  0  0  0  0  0
  151.0248  140.6910  155.3133 O   0  0  0  0  0  0  0  0  0  0  0  0
  153.1323  139.3591  154.6275 H   0  0  0  0  0  0  0  0  0  0  0  0
  153.1789  137.7902  153.8353 H   0  0  0  0  0  0  0  0  0  0  0  0
  152.6809  137.9103  155.5219 H   0  0  0  0  0  0  0  0  0  0  0  0
  151.1787  139.0849  153.1314 H   0  0  0  0  0  0  0  0  0  0  0  0
  149.9222  137.1382  153.1849 H   0  0  0  0  0  0  0  0  0  0  0  0
  149.3707  135.3238  153.6220 H   0  0  0  0  0  0  0  0  0  0  0  0
  151.4224  134.1949  156.5326 H   0  0  0  0  0  0  0  0  0  0  0  0
  151.1320  131.9489  157.5435 H   0  0  0  0  0  0  0  0  0  0  0  0
  149.4004  130.4110  156.5851 H   0  0  0  0  0  0  0  0  0  0  0  0
  148.0233  131.6811  152.1279 H   0  0  0  0  0  0  0  0  0  0  0  0
  146.8856  131.4857  153.4680 H   0  0  0  0  0  0  0  0  0  0  0  0
  146.6291  133.3388  151.0803 H   0  0  0  0  0  0  0  0  0  0  0  0
  145.4105  132.2283  151.7163 H   0  0  0  0  0  0  0  0  0  0  0  0
  145.3040  134.8446  152.4427 H   0  0  0  0  0  0  0  0  0  0  0  0
  145.0778  133.6036  153.6759 H   0  0  0  0  0  0  0  0  0  0  0  0
  146.9021  134.6626  154.7049 H   0  0  0  0  0  0  0  0  0  0  0  0
  147.5191  135.2763  153.1681 H   0  0  0  0  0  0  0  0  0  0  0  0
  150.2397  138.9406  156.0375 H   0  0  0  0  0  0  0  0  0  0  0  0
  149.0691  140.1806  153.5097 H   0  0  0  0  0  0  0  0  0  0  0  0
  148.2251  139.1642  154.6787 H   0  0  0  0  0  0  0  0  0  0  0  0
  148.2954  141.9616  154.7604 H   0  0  0  0  0  0  0  0  0  0  0  0
  148.0292  140.9721  156.1960 H   0  0  0  0  0  0  0  0  0  0  0  0
  150.3489  142.6095  155.7311 H   0  0  0  0  0  0  0  0  0  0  0  0
  150.1308  141.4188  157.0172 H   0  0  0  0  0  0  0  0  0  0  0  0
  1  2  1  0  0  0  0
  1 23  1  0  0  0  0
  1 24  1  0  0  0  0
  1 25  1  0  0  0  0
  2  3  1  0  0  0  0
  2 18  1  0  0  0  0
  2 26  1  0  0  0  0
  3  4  1  0  0  0  0
  3 27  1  0  0  0  0
  4  5  2  0  0  0  0
  4  6  1  0  0  0  0
  6  7  1  0  0  0  0
  6 28  1  0  0  0  0
  7 12  1  0  0  0  0
  7  8  2  0  0  0  0
  8  9  1  0  0  0  0
  8 29  1  0  0  0  0
  9 10  2  0  0  0  0
  9 30  1  0  0  0  0
 10 11  1  0  0  0  0
 10 31  1  0  0  0  0
 11 12  2  0  0  0  0
 12 13  1  0  0  0  0
 13 17  1  0  0  0  0
 13 14  1  0  0  0  0
 14 15  1  0  0  0  0
 14 32  1  0  0  0  0
 14 33  1  0  0  0  0
 15 16  1  0  0  0  0
 15 34  1  0  0  0  0
 15 35  1  0  0  0  0
 16 17  1  0  0  0  0
 16 36  1  0  0  0  0
 16 37  1  0  0  0  0
 17 38  1  0  0  0  0
 17 39  1  0  0  0  0
 18 22  1  0  0  0  0
 18 19  1  0  0  0  0
 18 40  1  0  0  0  0
 19 20  1  0  0  0  0
 19 41  1  0  0  0  0
 19 42  1  0  0  0  0
 20 21  1  0  0  0  0
 20 43  1  0  0  0  0
 20 44  1  0  0  0  0
 21 22  1  0  0  0  0
 21 45  1  0  0  0  0
 21 46  1  0  0  0  0
M  END
> <s_m_source_file>
AV-unprocessed.smi

> <i_m_source_file_index>
1793

> <i_lp_mmshare_version>
43012

> <i_f3d_flags>
0

> <s_epik_input>
TzFbQ0gyXVtDSDJdW0NIMl1bQ0BIXTFbQ0BIXShbQ0gzXSlbTkhdQyg9TylbTkhdYzJbY0hdW2NIXVtjSF1uYzJOM1tDSDJdW0NIMl1bQ0gyXVtDSDJdMw==

> <s_epik_cmdline>
J2VwaWtfcHl0aG9uJywgJy1waCcsICc3LjAnLCAnLXRuJywgJzgnLCAnLW1hJywgJzIwMCcsICctbWV0YWxfYmluZGluZycsICctaW1hZScsICc8aW5maWxlLm1hZT4nLCAnLW9tYWUnLCAnPG91dGZpbGUubWFlPic=

> <r_lp_tautomer_probability>
1

> <r_epik_Ionization_Penalty>
0.0992086

> <r_epik_Ionization_Penalty_Charging>
0

> <r_epik_Ionization_Penalty_Neutral>
0.0992086

> <r_epik_State_Penalty>
0.0887141

> <r_epik_Charging_Adjusted_Penalty>
0.0887141

> <i_epik_Tot_Q>
0

> <i_epik_Tot_abs_Q>
0

> <r_epik_Metal_State_Penalty>
0.075945

> <b_epik_Metal_Only>
0

> <s_lp_Force_Field>
OPLS_2005

> <r_lp_Energy>
46.0011

> <b_lp_Chiralities_Consistent>
1

> <s_lp_Variant>
AV-unprocessed.smi:1793-2

> <Gold.Version>
5.8.1

> <Gold.Id.Protein>
6NUR|6NUR_protein|mol2

> <Gold.PLP.Fitness>
45.1085

> <Gold.PLP.PLP>
-35.2948

> <Gold.PLP.part.hbond>
-5.3838

> <Gold.PLP.part.metal>
0.0000

> <Gold.PLP.part.buried>
-3.2052

> <Gold.PLP.part.nonpolar>
-27.6101

> <Gold.PLP.part.repulsive>
0.3844

> <Gold.PLP.ligand.clash>
0.0069

> <Gold.PLP.ligand.torsion>
0.6722

> <Gold.PLP.Chemscore.Hbond>
3.5980

> <Gold.PLP.Chemscore.CHOScore>
0.0000

> <Gold.PLP.Chemscore.Metal>
0.0000

> <Gold.Chemscore.Hbonds>
donor molecule, donor type, donor heavy atom, donor atom, acceptor molecule, acceptor atom, score
      L1  H     3    27       P1  7948  1.00
      L1  H     6    28       P1  7948  0.95
      P1  H  7989  7998       L1    22  0.65
      P1  H 10752 10764       L1     5  0.96

> <Gold.PLP.Chemscore.Internal.Correction>
0.3710

> <Gold.Rescore>
     Score         DG    S(hbond)    S(metal)    S(lipo)     H(rot)  DE(clash)    DE(int)     intcor
     14.09     -18.16       2.23        0.00      74.34       1.36       0.07       4.00       ----

> <Gold.Chemscore.Fitness>
14.0906

> <Gold.Chemscore.DG>
-18.1629

> <Gold.Chemscore.ZeroCoef>
-5.4800

> <Gold.Chemscore.Hbond>
2.2341

> <Gold.Chemscore.Metal>
0.0000

> <Gold.Chemscore.Lipo>
74.3428

> <Gold.Chemscore.Internal_Hbond>
0.0000

> <Gold.Chemscore.DEClash>
0.0730

> <Gold.Chemscore.DEInternal>
3.9993

> <Gold.Chemscore.Rot>
1.3582

> <Gold.Chemscore.Internal.Correction>
   9.000000E+99

> <Gold.Chemscore.Hbonds>
donor molecule, donor type, donor heavy atom, donor atom, acceptor molecule, acceptor atom, score
      L1  H     3    27       P1  7948  0.25
      L1  H     6    28       P1  7948  0.20
      P1  H  7989  7998       L1    22  0.08
      P1  H 10752 10764       L1     5  0.31

> <Gold.Chemscore.Hbond.Weighted>
-7.4618

> <Gold.Chemscore.Metal.Weighted>
-0.0000

> <Gold.Chemscore.Lipo.Weighted>
-8.6981

> <Gold.Chemscore.Internal_Hbond.Weighted>
0.0000

> <Gold.Chemscore.DEClash.Weighted>
0.0730

> <Gold.Chemscore.DEInternal.Weighted>
3.9993

> <Gold.Chemscore.Rot.Weighted>
3.4771

> <Gold.Chemscore.Internal.Correction.Weighted>
   9.000000E+99

> <Gold.Protein.RotatedTorsions>
[ 6907 6896 6895 6894 ] final   96.99 input  -60.11 | X-H torsion
[ 7974 7965 7964 7962 ] final   54.17 input  175.53 | X-H torsion
[ 8008 7997 7996 7995 ] final -163.09 input   59.86 | X-H torsion
[ 10167 10162 10161 10158 ] final  -98.16 input  -65.29 | X-H torsion
[ 10718 10713 10712 10709 ] final -146.80 input   66.30 | X-H torsion
[ 10763 10752 10751 10750 ] final  -25.96 input  -60.55 | X-H torsion
[ 11005 11000 10999 10996 ] final  -76.93 input  -57.11 | X-H torsion

> <Gold.Protein.ActiveResidues>
 VAL166  LYS551  ARG553  GLY616  TRP617  ASP618  TYR619  PRO620  LYS621  CYS622 
 ASP623  PHE694  ASN695  SER759  ASP760  ASP761  ALA762  ILE779  LEU786  VAL792 
 PHE793  MET794  SER795  GLU796  ALA797  LYS798  CYS799  TRP800  GLU811  SER814 

> <Gold.Protein.RotatedAtoms>
  152.5429  134.0801  159.8231 H   0  0  0  0  0  0  0  0  0  0  0  0  # atno 6907 bound_to 6896
  151.0904  133.5313  159.2622 H   0  0  0  0  0  0  0  0  0  0  0  0  # atno 6908 bound_to 6896
  151.2106  135.0488  159.8964 H   0  0  0  0  0  0  0  0  0  0  0  0  # atno 6909 bound_to 6896
  145.9637  139.4083  143.0233 H   0  0  0  0  0  0  0  0  0  0  0  0  # atno 7974 bound_to 7965
  155.8163  140.0913  157.1875 H   0  0  0  0  0  0  0  0  0  0  0  0  # atno 8008 bound_to 7997
  154.3979  140.1445  156.3506 H   0  0  0  0  0  0  0  0  0  0  0  0  # atno 8009 bound_to 7997
  155.8313  140.3442  155.5576 H   0  0  0  0  0  0  0  0  0  0  0  0  # atno 8010 bound_to 7997
  140.2759  143.3313  152.0489 H   0  0  0  0  0  0  0  0  0  0  0  0  # atno 10167 bound_to 10162
  156.3995  130.7926  151.2136 H   0  0  0  0  0  0  0  0  0  0  0  0  # atno 10718 bound_to 10713
  153.7082  135.6952  153.5044 H   0  0  0  0  0  0  0  0  0  0  0  0  # atno 10763 bound_to 10752
  153.2292  135.4343  155.0575 H   0  0  0  0  0  0  0  0  0  0  0  0  # atno 10764 bound_to 10752
  154.8323  135.3480  154.6620 H   0  0  0  0  0  0  0  0  0  0  0  0  # atno 10765 bound_to 10752
  141.1657  133.7002  156.7744 H   0  0  0  0  0  0  0  0  0  0  0  0  # atno 11005 bound_to 11000
  145.8004  140.9773  143.1001 LP  0  0  0  0  0  0  0  0  0  0  0  0  # atno 17320 bound_to 7965
  144.6820  139.9795  143.7483 LP  0  0  0  0  0  0  0  0  0  0  0  0  # atno 17321 bound_to 7965
  139.4976  144.6625  151.6432 LP  0  0  0  0  0  0  0  0  0  0  0  0  # atno 17342 bound_to 10162
  140.5852  143.9877  150.6291 LP  0  0  0  0  0  0  0  0  0  0  0  0  # atno 17343 bound_to 10162
  157.7503  131.0291  150.4078 LP  0  0  0  0  0  0  0  0  0  0  0  0  # atno 17370 bound_to 10713
  156.4355  130.3981  149.6732 LP  0  0  0  0  0  0  0  0  0  0  0  0  # atno 17371 bound_to 10713
  140.2441  134.8591  157.3602 LP  0  0  0  0  0  0  0  0  0  0  0  0  # atno 17394 bound_to 11000
  140.1767  134.4541  155.7797 LP  0  0  0  0  0  0  0  0  0  0  0  0  # atno 17395 bound_to 11000

$$$$
