#       Name:                AV-unprocessed.smi:2499
#       Creating user name   scv26
#       Creation time:       Fri Mar 27 13:46:37 2020


#       File generated by GOLD software.
#

@<TRIPOS>MOLECULE
AV-unprocessed.smi:2499
    32    33     1
SMALL
NO_CHARGES


@<TRIPOS>ATOM
      1 ****        -1.9673  -1.8099  -1.6117 C.3            1 S1                 0.0000
      2 ****        -1.4872  -0.9376  -0.4439 C.3            1 S1                 0.0000
      3 ****        -0.0389  -0.7845  -0.5418 N.am           1 S1                 0.0000
      4 ****         0.6772   0.2466  -0.0687 C.2            1 S1                 0.0000
      5 ****         0.1423   1.2018   0.5033 O.2            1 S1                 0.0000
      6 ****         2.0224   0.0637  -0.3530 N.2            1 S1                 0.0000
      7 ****         2.8181   1.0888  -0.3757 C.2            1 S1                 0.0000
      8 ****         2.6129   2.4529  -0.1849 N.pl3          1 S1                 0.0000
      9 ****         3.8131   3.0893  -0.3352 C.2            1 S1                 0.0000
     10 ****         4.7350   2.1709  -0.6079 C.2            1 S1                 0.0000
     11 ****         4.1560   0.9378  -0.6395 O.3            1 S1                 0.0000
     12 ****        -1.9447  -1.5130   0.8860 C.3            1 S1                 0.0000
     13 ****        -3.3758  -1.3628   1.3452 C.3            1 S1                 0.0000
     14 ****        -2.2705  -0.6206   2.0605 C.3            1 S1                 0.0000
     15 ****        -3.0534  -1.9063  -1.6096 H              1 S1                 0.0000
     16 ****        -1.5443  -2.8138  -1.5584 H              1 S1                 0.0000
     17 ****        -1.6797  -1.3774  -2.5706 H              1 S1                 0.0000
     18 ****        -1.9502   0.0437  -0.5651 H              1 S1                 0.0000
     19 ****         0.4635  -1.5275  -1.0063 H              1 S1                 0.0000
     20 ****         1.7493   2.9316   0.0276 H              1 S1                 0.0000
     21 ****         3.8805   4.1619  -0.2282 H              1 S1                 0.0000
     22 ****         5.7965   2.2305  -0.7975 H              1 S1                 0.0000
     23 ****        -1.4752  -2.4641   1.1306 H              1 S1                 0.0000
     24 ****        -4.0501  -0.7782   0.7224 H              1 S1                 0.0000
     25 ****        -3.8298  -2.2080   1.8585 H              1 S1                 0.0000
     26 ****        -1.9855  -0.9714   3.0504 H              1 S1                 0.0000
     27 ****        -2.2149   0.4561   1.9135 H              1 S1                 0.0000
     28 ****        -0.8502   1.2203   0.6240 LP             1 S1                 0.0000
     29 ****         0.7018   1.9566   0.8457 LP             1 S1                 0.0000
     30 ****         2.3771  -0.8526  -0.5394 LP             1 S1                 0.0000
     31 ****         4.2793   0.5284  -1.5435 LP             1 S1                 0.0000
     32 ****         4.5738   0.3492   0.0527 LP             1 S1                 0.0000
@<TRIPOS>BOND
    1    1    2 1     
    2    1   15 1     
    3    1   16 1     
    4    1   17 1     
    5    2    3 1     
    6    2   12 1     
    7    2   18 1     
    8    3   19 1     
    9    3    4 am    
   10    4    6 1     
   11    4    5 2     
   12    6    7 2     
   13    7   11 1     
   14    7    8 1     
   15    8   20 1     
   16    8    9 1     
   17    9   21 1     
   18    9   10 2     
   19   10   22 1     
   20   10   11 1     
   21   12   14 1     
   22   12   13 1     
   23   12   23 1     
   24   13   14 1     
   25   13   24 1     
   26   13   25 1     
   27   14   26 1     
   28   14   27 1     
   29    5   28 1     
   30    5   29 1     
   31    6   30 1     
   32   11   31 1     
   33   11   32 1     
@<TRIPOS>SUBSTRUCTURE
      1 S1             1
@<TRIPOS>SET
LONE_PAIRS      STATIC     ATOMS    <user>   **** ""
5 28 29 30 31 32
DONOR_HYDROGENS      STATIC     ATOMS    <user>   **** ""
2 19 20
ATOM$BLUE        STATIC     ATOMS    COLORGROUP SYSTEM
5 28 29 30 31 32
ATOM$RED        STATIC     ATOMS    COLORGROUP SYSTEM
2 19 20
