#       Name:                AV-unprocessed.smi:2758
#       Creating user name   scv26
#       Creation time:       Fri Mar 27 15:06:57 2020


#       File generated by GOLD software.
#

@<TRIPOS>MOLECULE
AV-unprocessed.smi:2758
    37    38     1
SMALL
NO_CHARGES


@<TRIPOS>ATOM
      1 ****        -4.6008   2.0120   0.0999 C.3            1 S1                 0.0000
      2 ****        -3.1903   1.8981   0.1719 O.3            1 S1                 0.0000
      3 ****        -2.7618   0.5559   0.3342 C.3            1 S1                 0.0000
      4 ****        -1.2287   0.5229   0.4319 C.3            1 S1                 0.0000
      5 ****        -0.8593   0.8822   1.7487 O.3            1 S1                 0.0000
      6 ****        -0.6639  -0.8759   0.1124 C.3            1 S1                 0.0000
      7 ****         0.7899  -0.9280   0.1970 N.pl3          1 S1                 0.0000
      8 ****         1.5584  -1.4611   1.1794 C.2            1 S1                 0.0000
      9 ****         0.9628  -2.1117   2.3873 C.3            1 S1                 0.0000
     10 ****         2.8765  -1.3727   0.9994 N.2            1 S1                 0.0000
     11 ****         2.9732  -0.7238  -0.2163 C.ar           1 S1                 0.0000
     12 ****         4.1091  -0.3352  -0.9622 C.ar           1 S1                 0.0000
     13 ****         3.9588   0.3226  -2.2007 C.ar           1 S1                 0.0000
     14 ****         2.6737   0.6018  -2.7096 C.ar           1 S1                 0.0000
     15 ****         1.5287   0.2242  -1.9820 C.ar           1 S1                 0.0000
     16 ****         1.6843  -0.4328  -0.7467 C.ar           1 S1                 0.0000
     17 ****        -0.8026   1.2469  -0.2640 H              1 S1                 0.0000
     18 ****        -4.8777   3.0571  -0.0367 H              1 S1                 0.0000
     19 ****        -5.0713   1.6568   1.0176 H              1 S1                 0.0000
     20 ****        -5.0016   1.4452  -0.7413 H              1 S1                 0.0000
     21 ****        -3.2214   0.0925   1.2093 H              1 S1                 0.0000
     22 ****        -3.0864  -0.0122  -0.5393 H              1 S1                 0.0000
     23 ****        -1.1858   1.7522   1.9221 H              1 S1                 0.0000
     24 ****        -1.0981  -1.6236   0.7763 H              1 S1                 0.0000
     25 ****        -0.9491  -1.1690  -0.8988 H              1 S1                 0.0000
     26 ****         1.7450  -2.4108   3.0858 H              1 S1                 0.0000
     27 ****         0.4037  -3.0016   2.0976 H              1 S1                 0.0000
     28 ****         0.2921  -1.4222   2.8996 H              1 S1                 0.0000
     29 ****         5.0974  -0.5456  -0.5812 H              1 S1                 0.0000
     30 ****         4.8340   0.6139  -2.7631 H              1 S1                 0.0000
     31 ****         2.5677   1.1056  -3.6593 H              1 S1                 0.0000
     32 ****         0.5429   0.4361  -2.3685 H              1 S1                 0.0000
     33 ****        -2.8644   2.4352   0.9499 LP             1 S1                 0.0000
     34 ****        -2.7957   2.2610  -0.6723 LP             1 S1                 0.0000
     35 ****         0.1369   0.8716   1.8351 LP             1 S1                 0.0000
     36 ****        -1.2573   0.2358   2.3997 LP             1 S1                 0.0000
     37 ****         3.6116  -1.6955   1.5956 LP             1 S1                 0.0000
@<TRIPOS>BOND
    1    1    2 1     
    2    1   18 1     
    3    1   19 1     
    4    1   20 1     
    5    2    3 1     
    6    3    4 1     
    7    3   21 1     
    8    3   22 1     
    9    4   17 1     
   10    4    5 1     
   11    4    6 1     
   12    5   23 1     
   13    6    7 1     
   14    6   24 1     
   15    6   25 1     
   16    7   16 1     
   17    7    8 1     
   18    8    9 1     
   19    8   10 2     
   20    9   26 1     
   21    9   27 1     
   22    9   28 1     
   23   10   11 1     
   24   11   16 ar    
   25   11   12 ar    
   26   12   13 ar    
   27   12   29 1     
   28   13   14 ar    
   29   13   30 1     
   30   14   15 ar    
   31   14   31 1     
   32   15   16 ar    
   33   15   32 1     
   34    2   33 1     
   35    2   34 1     
   36    5   35 1     
   37    5   36 1     
   38   10   37 1     
@<TRIPOS>SUBSTRUCTURE
      1 S1             1
@<TRIPOS>SET
LONE_PAIRS      STATIC     ATOMS    <user>   **** ""
5 33 34 35 36 37
DONOR_HYDROGENS      STATIC     ATOMS    <user>   **** ""
1 23
ATOM$BLUE        STATIC     ATOMS    COLORGROUP SYSTEM
5 33 34 35 36 37
ATOM$RED        STATIC     ATOMS    COLORGROUP SYSTEM
1 23
