#       Name:                AV-unprocessed.smi:1023
#       Creating user name   scv26
#       Creation time:       Fri Mar 27 02:43:54 2020


#       File generated by GOLD software.
#

@<TRIPOS>MOLECULE
AV-unprocessed.smi:1023
    36    37     1
SMALL
NO_CHARGES


@<TRIPOS>ATOM
      1 ****        -1.6851  -1.2858  -3.6420 C.3            1 S1                 0.0000
      2 ****        -0.9116  -0.9998  -2.3467 C.3            1 S1                 0.0000
      3 ****        -1.4389   0.2773  -1.6677 C.3            1 S1                 0.0000
      4 ****         0.6044  -0.9405  -2.6175 C.3            1 S1                 0.0000
      5 ****         1.3528  -0.7373  -1.3843 N.am           1 S1                 0.0000
      6 ****         2.6922  -0.6645  -1.2756 C.2            1 S1                 0.0000
      7 ****         3.3789  -0.8101  -2.2860 O.2            1 S1                 0.0000
      8 ****         3.2146  -0.4293  -0.0427 N.pl3          1 S1                -1.0000
      9 ****         2.4414  -0.2275   1.0408 C.2            1 S1                 0.0000
     10 ****         2.1355  -1.2088   1.9011 N.2            1 S1                 0.0000
     11 ****         1.3057  -0.7906   2.9309 N.2            1 S1                 0.0000
     12 ****         1.0054   0.5071   2.8408 C.2            1 S1                 0.0000
     13 ****         0.1190   1.1924   3.8261 C.3            1 S1                 0.0000
     14 ****        -1.3757   0.9702   3.8031 C.3            1 S1                 0.0000
     15 ****        -0.8110   2.3124   3.4131 C.3            1 S1                 0.0000
     16 ****         1.7369   1.3302   1.4725 S.3            1 S1                 0.0000
     17 ****        -1.5504  -0.4842  -4.3688 H              1 S1                 0.0000
     18 ****        -2.7537  -1.3840  -3.4486 H              1 S1                 0.0000
     19 ****        -1.3485  -2.2141  -4.1041 H              1 S1                 0.0000
     20 ****        -1.0955  -1.8330  -1.6669 H              1 S1                 0.0000
     21 ****        -1.2583   1.1566  -2.2867 H              1 S1                 0.0000
     22 ****        -0.9629   0.4472  -0.7014 H              1 S1                 0.0000
     23 ****        -2.5123   0.2112  -1.4894 H              1 S1                 0.0000
     24 ****         0.9367  -1.8685  -3.0855 H              1 S1                 0.0000
     25 ****         0.8323  -0.1310  -3.3127 H              1 S1                 0.0000
     26 ****         0.8117  -0.6264  -0.5395 H              1 S1                 0.0000
     27 ****         0.6082   1.2672   4.7953 H              1 S1                 0.0000
     28 ****        -1.7823   0.3477   3.0083 H              1 S1                 0.0000
     29 ****        -1.8865   0.8974   4.7611 H              1 S1                 0.0000
     30 ****        -0.9443   3.1359   4.1115 H              1 S1                 0.0000
     31 ****        -0.8579   2.5832   2.3602 H              1 S1                 0.0000
     32 ****         2.9402  -0.9793  -3.1685 LP             1 S1                 0.0000
     33 ****         4.3757  -0.7593  -2.2246 LP             1 S1                 0.0000
     34 ****         4.2087  -0.4054   0.0632 LP             1 S1                 0.0000
     35 ****         2.4711  -2.1464   1.8099 LP             1 S1                 0.0000
     36 ****         0.9711  -1.3916   3.6568 LP             1 S1                 0.0000
@<TRIPOS>BOND
    1    1    2 1     
    2    1   17 1     
    3    1   18 1     
    4    1   19 1     
    5    2    3 1     
    6    2    4 1     
    7    2   20 1     
    8    3   21 1     
    9    3   22 1     
   10    3   23 1     
   11    4    5 1     
   12    4   24 1     
   13    4   25 1     
   14    5    6 am    
   15    5   26 1     
   16    6    7 2     
   17    6    8 1     
   18    8    9 1     
   19    9   16 1     
   20    9   10 2     
   21   10   11 1     
   22   11   12 2     
   23   12   13 1     
   24   12   16 1     
   25   13   15 1     
   26   13   14 1     
   27   13   27 1     
   28   14   15 1     
   29   14   28 1     
   30   14   29 1     
   31   15   30 1     
   32   15   31 1     
   33    7   32 1     
   34    7   33 1     
   35    8   34 1     
   36   10   35 1     
   37   11   36 1     
@<TRIPOS>SUBSTRUCTURE
      1 S1             1
@<TRIPOS>SET
LONE_PAIRS      STATIC     ATOMS    <user>   **** ""
5 32 33 34 35 36
DONOR_HYDROGENS      STATIC     ATOMS    <user>   **** ""
1 26
ATOM$BLUE        STATIC     ATOMS    COLORGROUP SYSTEM
5 32 33 34 35 36
ATOM$RED        STATIC     ATOMS    COLORGROUP SYSTEM
1 26
