AV-unprocessed.smi:2290|AV-procd|sdf|9210|dock8
  -GOLD-   2272012433D 1   1.00000     0.00000
 Structure written by MMmdl.
 38 39  0  0  0  0  0  0  0  0  1 V2000
  155.4077  137.5075  164.9278 C   0  0  0  0  0  0  0  0  0  0  0  0
  154.9600  137.7003  163.4897 C   0  0  0  0  0  0  0  0  0  0  0  0
  154.9900  139.0163  163.0191 N   0  0  0  0  0  0  0  0  0  0  0  0
  154.6268  139.2757  161.8058 C   0  0  0  0  0  0  0  0  0  0  0  0
  154.1974  138.2636  160.9320 N   0  0  0  0  0  0  0  0  0  0  0  0
  153.8198  138.6911  159.5750 C   0  0  0  0  0  0  0  0  0  0  0  0
  152.4262  138.1655  159.1632 C   0  0  2  0  0  0  0  0  0  0  0  0
  152.5472  137.1365  158.2015 O   0  0  0  0  0  0  0  0  0  0  0  0
  151.5243  139.2604  158.5700 C   0  0  0  0  0  0  0  0  0  0  0  0
  151.9920  140.5454  158.9631 O   0  0  0  0  0  0  0  0  0  0  0  0
  151.8583  141.5425  157.9593 C   0  0  0  0  0  0  0  0  0  0  0  0
  151.9674  142.8925  158.5992 C   0  0  0  0  0  0  0  0  0  0  0  0
  151.9274  144.1124  157.9732 C   0  0  0  0  0  0  0  0  0  0  0  0
  152.0746  145.2108  158.8707 C   0  0  0  0  0  0  0  0  0  0  0  0
  152.2342  144.8156  160.1720 C   0  0  0  0  0  0  0  0  0  0  0  0
  152.2111  143.0800  160.3206 S   0  0  0  0  0  0  0  0  0  0  0  0
  154.1427  136.9531  161.3082 C   0  0  0  0  0  0  0  0  0  0  0  0
  153.7754  136.0715  160.5289 O   0  0  0  0  0  0  0  0  0  0  0  0
  154.5551  136.6735  162.6932 C   0  0  0  0  0  0  0  0  0  0  0  0
  154.5020  135.2211  163.1506 C   0  0  0  0  0  0  0  0  0  0  0  0
  154.6050  137.0724  165.5238 H   0  0  0  0  0  0  0  0  0  0  0  0
  155.6877  138.4566  165.3870 H   0  0  0  0  0  0  0  0  0  0  0  0
  156.2739  136.8470  164.9725 H   0  0  0  0  0  0  0  0  0  0  0  0
  154.6354  140.2842  161.3887 H   0  0  0  0  0  0  0  0  0  0  0  0
  153.8140  139.7823  159.5498 H   0  0  0  0  0  0  0  0  0  0  0  0
  154.5691  138.4115  158.8314 H   0  0  0  0  0  0  0  0  0  0  0  0
  151.9095  137.7433  160.0259 H   0  0  0  0  0  0  0  0  0  0  0  0
  152.8335  136.3487  158.6377 H   0  0  0  0  0  0  0  0  0  0  0  0
  151.4795  139.1816  157.4825 H   0  0  0  0  0  0  0  0  0  0  0  0
  150.5090  139.1127  158.9404 H   0  0  0  0  0  0  0  0  0  0  0  0
  152.6675  141.4178  157.2398 H   0  0  0  0  0  0  0  0  0  0  0  0
  150.9217  141.4321  157.4104 H   0  0  0  0  0  0  0  0  0  0  0  0
  151.7957  144.2537  156.9107 H   0  0  0  0  0  0  0  0  0  0  0  0
  152.0605  146.2371  158.5349 H   0  0  0  0  0  0  0  0  0  0  0  0
  152.3674  145.4341  161.0474 H   0  0  0  0  0  0  0  0  0  0  0  0
  155.1529  134.6070  162.5272 H   0  0  0  0  0  0  0  0  0  0  0  0
  153.4857  134.8360  163.0609 H   0  0  0  0  0  0  0  0  0  0  0  0
  154.8141  135.0839  164.1846 H   0  0  0  0  0  0  0  0  0  0  0  0
  1  2  1  0  0  0  0
  1 21  1  0  0  0  0
  1 22  1  0  0  0  0
  1 23  1  0  0  0  0
  2 19  2  0  0  0  0
  2  3  1  0  0  0  0
  3  4  2  0  0  0  0
  4  5  1  0  0  0  0
  4 24  1  0  0  0  0
  5  6  1  0  0  0  0
  5 17  1  0  0  0  0
  6  7  1  0  0  0  0
  6 25  1  0  0  0  0
  6 26  1  0  0  0  0
  7  8  1  0  0  0  0
  7  9  1  0  0  0  0
  7 27  1  0  0  0  0
  8 28  1  0  0  0  0
  9 10  1  0  0  0  0
  9 29  1  0  0  0  0
  9 30  1  0  0  0  0
 10 11  1  0  0  0  0
 11 12  1  0  0  0  0
 11 31  1  0  0  0  0
 11 32  1  0  0  0  0
 12 16  1  0  0  0  0
 12 13  2  0  0  0  0
 13 14  1  0  0  0  0
 13 33  1  0  0  0  0
 14 15  2  0  0  0  0
 14 34  1  0  0  0  0
 15 16  1  0  0  0  0
 15 35  1  0  0  0  0
 17 18  2  0  0  0  0
 17 19  1  0  0  0  0
 19 20  1  0  0  0  0
 20 36  1  0  0  0  0
 20 37  1  0  0  0  0
 20 38  1  0  0  0  0
M  END
> <s_m_source_file>
AV-unprocessed.smi

> <i_m_source_file_index>
2290

> <i_lp_mmshare_version>
43012

> <i_f3d_flags>
0

> <s_epik_input>
W0NIM11jMW5bY0hdbihjKD1PKWMxW0NIM10pW0NIMl1bQ0BIXShbT0hdKVtDSDJdT1tDSDJdYzJbY0hdW2NIXVtjSF1zMg==

> <s_epik_cmdline>
J2VwaWtfcHl0aG9uJywgJy1waCcsICc3LjAnLCAnLXRuJywgJzgnLCAnLW1hJywgJzIwMCcsICctbWV0YWxfYmluZGluZycsICctaW1hZScsICc8aW5maWxlLm1hZT4nLCAnLW9tYWUnLCAnPG91dGZpbGUubWFlPic=

> <r_lp_tautomer_probability>
1

> <r_epik_Ionization_Penalty>
4.77825e-05

> <r_epik_Ionization_Penalty_Charging>
1.20754e-07

> <r_epik_Ionization_Penalty_Neutral>
4.76618e-05

> <r_epik_State_Penalty>
-0

> <r_epik_Charging_Adjusted_Penalty>
1.20754e-07

> <i_epik_Tot_Q>
0

> <i_epik_Tot_abs_Q>
0

> <r_epik_Metal_State_Penalty>
-0

> <b_epik_Metal_Only>
0

> <s_lp_Force_Field>
OPLS_2005

> <r_lp_Energy>
18.6865

> <b_lp_Chiralities_Consistent>
1

> <s_lp_Variant>
AV-unprocessed.smi:2290-1

> <Gold.Version>
5.8.1

> <Gold.Id.Protein>
6NUR|6NUR_protein|mol2

> <Gold.PLP.Fitness>
39.9731

> <Gold.PLP.PLP>
-40.1542

> <Gold.PLP.part.hbond>
-1.0000

> <Gold.PLP.part.metal>
0.0000

> <Gold.PLP.part.buried>
-5.6048

> <Gold.PLP.part.nonpolar>
-33.6832

> <Gold.PLP.part.repulsive>
0.0000

> <Gold.PLP.ligand.clash>
0.0000

> <Gold.PLP.ligand.torsion>
1.6073

> <Gold.PLP.Chemscore.Hbond>
1.0000

> <Gold.PLP.Chemscore.CHOScore>
0.0000

> <Gold.PLP.Chemscore.Metal>
0.0000

> <Gold.Chemscore.Hbonds>
donor molecule, donor type, donor heavy atom, donor atom, acceptor molecule, acceptor atom, score
      P1  H  6896  6908       L1    18  1.00

> <Gold.PLP.Chemscore.Internal.Correction>
0.0335

> <Gold.Rescore>
     Score         DG    S(hbond)    S(metal)    S(lipo)     H(rot)  DE(clash)    DE(int)     intcor
     11.43     -15.46       1.00        0.00     112.62       2.55       0.02       4.01       ----

> <Gold.Chemscore.Fitness>
11.4277

> <Gold.Chemscore.DG>
-15.4579

> <Gold.Chemscore.ZeroCoef>
-5.4800

> <Gold.Chemscore.Hbond>
0.9974

> <Gold.Chemscore.Metal>
0.0000

> <Gold.Chemscore.Lipo>
112.6191

> <Gold.Chemscore.Internal_Hbond>
0.0000

> <Gold.Chemscore.DEClash>
0.0215

> <Gold.Chemscore.DEInternal>
4.0086

> <Gold.Chemscore.Rot>
2.5507

> <Gold.Chemscore.Internal.Correction>
   9.000000E+99

> <Gold.Chemscore.Hbonds>
donor molecule, donor type, donor heavy atom, donor atom, acceptor molecule, acceptor atom, score
      P1  H  6896  6908       L1    18  0.98

> <Gold.Chemscore.Hbond.Weighted>
-3.3313

> <Gold.Chemscore.Metal.Weighted>
-0.0000

> <Gold.Chemscore.Lipo.Weighted>
-13.1764

> <Gold.Chemscore.Internal_Hbond.Weighted>
0.0000

> <Gold.Chemscore.DEClash.Weighted>
0.0215

> <Gold.Chemscore.DEInternal.Weighted>
4.0086

> <Gold.Chemscore.Rot.Weighted>
6.5298

> <Gold.Chemscore.Internal.Correction.Weighted>
   9.000000E+99

> <Gold.Protein.RotatedTorsions>
[ 6907 6896 6895 6894 ] final  -73.05 input  -60.11 | X-H torsion
[ 7974 7965 7964 7962 ] final   87.99 input  175.53 | X-H torsion
[ 8008 7997 7996 7995 ] final  -63.21 input   59.86 | X-H torsion
[ 10167 10162 10161 10158 ] final  113.97 input  -65.29 | X-H torsion
[ 10718 10713 10712 10709 ] final -119.83 input   66.30 | X-H torsion
[ 10763 10752 10751 10750 ] final -160.27 input  -60.55 | X-H torsion
[ 11005 11000 10999 10996 ] final  -92.44 input  -57.11 | X-H torsion

> <Gold.Protein.ActiveResidues>
 VAL166  LYS551  ARG553  GLY616  TRP617  ASP618  TYR619  PRO620  LYS621  CYS622 
 ASP623  PHE694  ASN695  SER759  ASP760  ASP761  ALA762  ILE779  LEU786  VAL792 
 PHE793  MET794  SER795  GLU796  ALA797  LYS798  CYS799  TRP800  GLU811  SER814 

> <Gold.Protein.RotatedAtoms>
  150.7145  134.5072  159.5589 H   0  0  0  0  0  0  0  0  0  0  0  0  # atno 6907 bound_to 6896
  152.2657  134.7984  160.0432 H   0  0  0  0  0  0  0  0  0  0  0  0  # atno 6908 bound_to 6896
  151.8682  133.3435  159.3763 H   0  0  0  0  0  0  0  0  0  0  0  0  # atno 6909 bound_to 6896
  145.5517  139.2296  143.2509 H   0  0  0  0  0  0  0  0  0  0  0  0  # atno 7974 bound_to 7965
  154.4541  140.0980  156.6707 H   0  0  0  0  0  0  0  0  0  0  0  0  # atno 8008 bound_to 7997
  155.5192  140.3478  155.4385 H   0  0  0  0  0  0  0  0  0  0  0  0  # atno 8009 bound_to 7997
  156.0743  140.1357  156.9780 H   0  0  0  0  0  0  0  0  0  0  0  0  # atno 8010 bound_to 7997
  139.6422  144.7124  151.2214 H   0  0  0  0  0  0  0  0  0  0  0  0  # atno 10167 bound_to 10162
  156.1211  130.6324  150.9465 H   0  0  0  0  0  0  0  0  0  0  0  0  # atno 10718 bound_to 10713
  154.7404  135.3067  154.8737 H   0  0  0  0  0  0  0  0  0  0  0  0  # atno 10763 bound_to 10752
  153.9554  135.6759  153.4748 H   0  0  0  0  0  0  0  0  0  0  0  0  # atno 10764 bound_to 10752
  153.1004  135.4915  154.8780 H   0  0  0  0  0  0  0  0  0  0  0  0  # atno 10765 bound_to 10752
  141.1522  133.7821  157.0020 H   0  0  0  0  0  0  0  0  0  0  0  0  # atno 11005 bound_to 11000
  146.1912  140.6340  142.9145 LP  0  0  0  0  0  0  0  0  0  0  0  0  # atno 17320 bound_to 7965
  144.7526  140.5229  143.6791 LP  0  0  0  0  0  0  0  0  0  0  0  0  # atno 17321 bound_to 7965
  140.7496  143.6292  150.8439 LP  0  0  0  0  0  0  0  0  0  0  0  0  # atno 17342 bound_to 10162
  139.9931  143.5826  152.2903 LP  0  0  0  0  0  0  0  0  0  0  0  0  # atno 17343 bound_to 10162
  157.6394  131.0912  150.8282 LP  0  0  0  0  0  0  0  0  0  0  0  0  # atno 17370 bound_to 10713
  156.8378  130.5038  149.5324 LP  0  0  0  0  0  0  0  0  0  0  0  0  # atno 17371 bound_to 10713
  140.0934  134.9579  157.1811 LP  0  0  0  0  0  0  0  0  0  0  0  0  # atno 17394 bound_to 11000
  140.3415  134.2698  155.7211 LP  0  0  0  0  0  0  0  0  0  0  0  0  # atno 17395 bound_to 11000

$$$$
