#       Name:                AV-unprocessed.smi:3132
#       Creating user name   scv26
#       Creation time:       Fri Mar 27 17:32:19 2020


#       File generated by GOLD software.
#

@<TRIPOS>MOLECULE
AV-unprocessed.smi:3132
    38    39     1
SMALL
NO_CHARGES


@<TRIPOS>ATOM
      1 ****        -0.6326  -2.9521  -2.0084 C.3            1 S1                 0.0000
      2 ****        -0.0763  -2.0975  -0.8617 C.3            1 S1                 0.0000
      3 ****         1.4589  -2.2240  -0.7611 C.3            1 S1                 0.0000
      4 ****         2.0021  -1.5537   0.4064 N.pl3          1 S1                 0.0000
      5 ****         2.6903  -0.3477   0.4365 C.2            1 S1                 0.0000
      6 ****         3.0008  -0.1054   1.7554 C.2            1 S1                 0.0000
      7 ****         2.5222  -1.1453   2.5486 N.2            1 S1                 0.0000
      8 ****         1.9445  -1.9654   1.6803 C.2            1 S1                 0.0000
      9 ****        -0.4713  -0.7052  -1.0731 N.am           1 S1                 0.0000
     10 ****        -0.8752   0.1493  -0.1195 C.2            1 S1                 0.0000
     11 ****        -0.9883  -0.1654   1.0659 O.2            1 S1                 0.0000
     12 ****        -1.1918   1.5799  -0.5805 C.3            1 S1                 0.0000
     13 ****        -0.4681   2.6629   0.2444 C.3            1 S1                 0.0000
     14 ****        -1.5900   3.5027   0.8310 C.3            1 S1                 0.0000
     15 ****        -2.7754   2.5488   0.8126 C.3            1 S1                 0.0000
     16 ****        -2.5846   1.8302  -0.3974 O.3            1 S1                 0.0000
     17 ****        -0.3840  -4.0044  -1.8694 H              1 S1                 0.0000
     18 ****        -0.2275  -2.6389  -2.9713 H              1 S1                 0.0000
     19 ****        -1.7192  -2.8767  -2.0629 H              1 S1                 0.0000
     20 ****        -0.5203  -2.4731   0.0621 H              1 S1                 0.0000
     21 ****         1.7457  -3.2750  -0.7044 H              1 S1                 0.0000
     22 ****         1.9375  -1.8184  -1.6538 H              1 S1                 0.0000
     23 ****         2.8901   0.2255  -0.4567 H              1 S1                 0.0000
     24 ****         3.5280   0.7303   2.1910 H              1 S1                 0.0000
     25 ****         1.4617  -2.8845   1.9787 H              1 S1                 0.0000
     26 ****        -0.4167  -0.3584  -2.0198 H              1 S1                 0.0000
     27 ****        -0.9609   1.6899  -1.6410 H              1 S1                 0.0000
     28 ****         0.1391   2.2352   1.0441 H              1 S1                 0.0000
     29 ****         0.1959   3.2670  -0.3743 H              1 S1                 0.0000
     30 ****        -1.3651   3.8818   1.8283 H              1 S1                 0.0000
     31 ****        -1.7934   4.3548   0.1812 H              1 S1                 0.0000
     32 ****        -2.7413   1.8657   1.6623 H              1 S1                 0.0000
     33 ****        -3.7344   3.0667   0.8262 H              1 S1                 0.0000
     34 ****         2.5966  -1.2494   3.5404 LP             1 S1                 0.0000
     35 ****        -0.7748  -1.0975   1.3583 LP             1 S1                 0.0000
     36 ****        -1.2936   0.5113   1.7359 LP             1 S1                 0.0000
     37 ****        -3.0773   0.9612  -0.3514 LP             1 S1                 0.0000
     38 ****        -2.9311   2.3696  -1.1648 LP             1 S1                 0.0000
@<TRIPOS>BOND
    1    1    2 1     
    2    1   17 1     
    3    1   18 1     
    4    1   19 1     
    5    2    3 1     
    6    2    9 1     
    7    2   20 1     
    8    3    4 1     
    9    3   21 1     
   10    3   22 1     
   11    4    8 1     
   12    4    5 1     
   13    5    6 2     
   14    5   23 1     
   15    6    7 1     
   16    6   24 1     
   17    7    8 2     
   18    8   25 1     
   19    9   10 am    
   20    9   26 1     
   21   10   11 2     
   22   10   12 1     
   23   12   16 1     
   24   12   13 1     
   25   12   27 1     
   26   13   14 1     
   27   13   28 1     
   28   13   29 1     
   29   14   15 1     
   30   14   30 1     
   31   14   31 1     
   32   15   16 1     
   33   15   32 1     
   34   15   33 1     
   35    7   34 1     
   36   11   35 1     
   37   11   36 1     
   38   16   37 1     
   39   16   38 1     
@<TRIPOS>SUBSTRUCTURE
      1 S1             1
@<TRIPOS>SET
LONE_PAIRS      STATIC     ATOMS    <user>   **** ""
5 34 35 36 37 38
DONOR_HYDROGENS      STATIC     ATOMS    <user>   **** ""
1 26
ATOM$BLUE        STATIC     ATOMS    COLORGROUP SYSTEM
5 34 35 36 37 38
ATOM$RED        STATIC     ATOMS    COLORGROUP SYSTEM
1 26
