#       Name:                AV-unprocessed.smi:2966
#       Creating user name   scv26
#       Creation time:       Fri Mar 27 16:23:06 2020


#       File generated by GOLD software.
#

@<TRIPOS>MOLECULE
AV-unprocessed.smi:2966
    45    47     1
SMALL
NO_CHARGES


@<TRIPOS>ATOM
      1 ****        -1.7205   4.5781   0.3349 C.3            1 S1                 0.0000
      2 ****        -1.2700   3.2354   0.3354 O.3            1 S1                 0.0000
      3 ****        -1.7016   2.5156   1.4784 C.3            1 S1                 0.0000
      4 ****        -1.1763   1.0745   1.4166 C.3            1 S1                 0.0000
      5 ****         0.2772   1.0238   1.3534 N.pl3          1 S1                 0.0000
      6 ****         1.0687   0.9398   0.2554 C.2            1 S1                 0.0000
      7 ****         0.4129   0.8784  -1.3768 S.3            1 S1                 0.0000
      8 ****         0.3000  -0.9295  -1.5182 C.3            1 S1                 0.0000
      9 ****        -0.3857  -1.4196  -2.7954 C.2            1 S1                 0.0000
     10 ****        -0.8266  -0.6231  -3.6250 O.2            1 S1                 0.0000
     11 ****        -0.4711  -2.7506  -2.9360 N.am           1 S1                 0.0000
     12 ****        -1.0714  -3.4304  -4.0385 C.3            1 S1                 0.0000
     13 ****        -1.7994  -4.7264  -3.7540 C.3            1 S1                 0.0000
     14 ****        -0.4721  -4.7547  -4.4601 C.3            1 S1                 0.0000
     15 ****         2.3805   0.9086   0.4882 N.2            1 S1                 0.0000
     16 ****         2.4475   0.9887   1.8654 C.ar           1 S1                 0.0000
     17 ****         3.5641   1.0071   2.7319 C.ar           1 S1                 0.0000
     18 ****         3.3831   1.0988   4.1276 C.ar           1 S1                 0.0000
     19 ****         2.0861   1.1719   4.6760 C.ar           1 S1                 0.0000
     20 ****         0.9600   1.1535   3.8308 C.ar           1 S1                 0.0000
     21 ****         1.1465   1.0625   2.4384 C.ar           1 S1                 0.0000
     22 ****        -1.3581   5.0847  -0.5595 H              1 S1                 0.0000
     23 ****        -1.3460   5.1200   1.2042 H              1 S1                 0.0000
     24 ****        -2.8101   4.6285   0.3324 H              1 S1                 0.0000
     25 ****        -1.3402   3.0047   2.3845 H              1 S1                 0.0000
     26 ****        -2.7914   2.5077   1.5250 H              1 S1                 0.0000
     27 ****        -1.5030   0.5228   2.2986 H              1 S1                 0.0000
     28 ****        -1.5991   0.5516   0.5590 H              1 S1                 0.0000
     29 ****         1.3065  -1.3463  -1.4694 H              1 S1                 0.0000
     30 ****        -0.2496  -1.3136  -0.6581 H              1 S1                 0.0000
     31 ****        -0.0815  -3.3276  -2.2047 H              1 S1                 0.0000
     32 ****        -1.4831  -2.8180  -4.8397 H              1 S1                 0.0000
     33 ****        -1.8280  -5.0797  -2.7249 H              1 S1                 0.0000
     34 ****        -2.6878  -4.9415  -4.3443 H              1 S1                 0.0000
     35 ****        -0.4730  -4.9892  -5.5228 H              1 S1                 0.0000
     36 ****         0.3853  -5.1270  -3.9027 H              1 S1                 0.0000
     37 ****         4.5617   0.9525   2.3218 H              1 S1                 0.0000
     38 ****         4.2436   1.1145   4.7803 H              1 S1                 0.0000
     39 ****         1.9563   1.2432   5.7460 H              1 S1                 0.0000
     40 ****        -0.0346   1.2106   4.2476 H              1 S1                 0.0000
     41 ****        -0.2702   3.2330   0.3141 LP             1 S1                 0.0000
     42 ****        -1.6218   2.7793  -0.4820 LP             1 S1                 0.0000
     43 ****        -0.7392   0.3608  -3.4692 LP             1 S1                 0.0000
     44 ****        -1.2720  -0.9603  -4.4545 LP             1 S1                 0.0000
     45 ****         3.1301   0.8434  -0.1706 LP             1 S1                 0.0000
@<TRIPOS>BOND
    1    1    2 1     
    2    1   22 1     
    3    1   23 1     
    4    1   24 1     
    5    2    3 1     
    6    3    4 1     
    7    3   25 1     
    8    3   26 1     
    9    4    5 1     
   10    4   27 1     
   11    4   28 1     
   12    5   21 1     
   13    5    6 1     
   14    6    7 1     
   15    6   15 2     
   16    7    8 1     
   17    8    9 1     
   18    8   29 1     
   19    8   30 1     
   20    9   10 2     
   21    9   11 am    
   22   11   12 1     
   23   11   31 1     
   24   12   14 1     
   25   12   13 1     
   26   12   32 1     
   27   13   14 1     
   28   13   33 1     
   29   13   34 1     
   30   14   35 1     
   31   14   36 1     
   32   15   16 1     
   33   16   21 ar    
   34   16   17 ar    
   35   17   18 ar    
   36   17   37 1     
   37   18   19 ar    
   38   18   38 1     
   39   19   20 ar    
   40   19   39 1     
   41   20   21 ar    
   42   20   40 1     
   43    2   41 1     
   44    2   42 1     
   45   10   43 1     
   46   10   44 1     
   47   15   45 1     
@<TRIPOS>SUBSTRUCTURE
      1 S1             1
@<TRIPOS>SET
LONE_PAIRS      STATIC     ATOMS    <user>   **** ""
5 41 42 43 44 45
DONOR_HYDROGENS      STATIC     ATOMS    <user>   **** ""
1 31
ATOM$BLUE        STATIC     ATOMS    COLORGROUP SYSTEM
5 41 42 43 44 45
ATOM$RED        STATIC     ATOMS    COLORGROUP SYSTEM
1 31
