AV-unprocessed.smi:1146|AV-procd|sdf|4886|dock9
  -GOLD-   22720 3463D 1   1.00000     0.00000
 Structure written by MMmdl.
 46 47  0  0  0  0  0  0  0  0  1 V2000
  151.0341  144.7291  160.0851 C   0  0  0  0  0  0  0  0  0  0  0  0
  152.4901  144.2471  160.0700 C   0  0  0  0  0  0  0  0  0  0  0  0
  152.5730  142.8196  159.7712 N   0  0  0  0  0  0  0  0  0  0  0  0
  153.1886  141.8748  160.5196 C   0  0  0  0  0  0  0  0  0  0  0  0
  153.7841  142.0686  161.5792 O   0  0  0  0  0  0  0  0  0  0  0  0
  153.0376  140.6804  159.8997 N   0  0  0  0  0  0  0  0  0  0  0  0
  153.5585  139.3910  160.3625 C   0  0  0  0  0  0  0  0  0  0  0  0
  155.0841  139.2083  160.1452 C   0  0  0  0  0  0  0  0  0  0  0  0
  155.9523  140.3042  160.7935 C   0  0  0  0  0  0  0  0  0  0  0  0
  155.5197  137.8205  160.6455 C   0  0  0  0  0  0  0  0  0  0  0  0
  155.3368  139.2028  158.7540 O   0  0  0  0  0  0  0  0  0  0  0  0
  152.3150  140.8703  158.7108 C   0  0  0  0  0  0  0  0  0  0  0  0
  151.8997  139.9594  157.7232 C   0  0  0  0  0  0  0  0  0  0  0  0
  151.1699  140.4889  156.6327 C   0  0  0  0  0  0  0  0  0  0  0  0
  150.6114  139.4020  155.3281 S   0  0  0  0  0  0  0  0  0  0  0  0
  150.2519  140.1978  154.1436 O   0  0  0  0  0  0  0  0  0  0  0  0
  151.5900  138.3087  155.2208 O   0  0  0  0  0  0  0  0  0  0  0  0
  149.1503  138.7486  155.9920 N   0  0  0  0  0  0  0  0  0  0  0  0
  149.1651  138.3108  157.3916 C   0  0  0  0  0  0  0  0  0  0  0  0
  148.3204  137.9192  155.1131 C   0  0  0  0  0  0  0  0  0  0  0  0
  150.8806  141.8751  156.5397 C   0  0  0  0  0  0  0  0  0  0  0  0
  151.3099  142.7658  157.5506 C   0  0  0  0  0  0  0  0  0  0  0  0
  152.0259  142.2175  158.6296 C   0  0  0  0  0  0  0  0  0  0  0  0
  150.9816  145.7956  160.3048 H   0  0  0  0  0  0  0  0  0  0  0  0
  150.4523  144.2045  160.8436 H   0  0  0  0  0  0  0  0  0  0  0  0
  150.5540  144.5652  159.1199 H   0  0  0  0  0  0  0  0  0  0  0  0
  153.0590  144.8129  159.3307 H   0  0  0  0  0  0  0  0  0  0  0  0
  152.9617  144.4504  161.0317 H   0  0  0  0  0  0  0  0  0  0  0  0
  153.3341  139.3020  161.4253 H   0  0  0  0  0  0  0  0  0  0  0  0
  153.0042  138.5780  159.8899 H   0  0  0  0  0  0  0  0  0  0  0  0
  155.7842  140.3531  161.8696 H   0  0  0  0  0  0  0  0  0  0  0  0
  155.7443  141.2909  160.3788 H   0  0  0  0  0  0  0  0  0  0  0  0
  157.0139  140.1095  160.6372 H   0  0  0  0  0  0  0  0  0  0  0  0
  155.3675  137.7239  161.7210 H   0  0  0  0  0  0  0  0  0  0  0  0
  156.5766  137.6377  160.4470 H   0  0  0  0  0  0  0  0  0  0  0  0
  154.9521  137.0248  160.1606 H   0  0  0  0  0  0  0  0  0  0  0  0
  155.6143  138.3354  158.5006 H   0  0  0  0  0  0  0  0  0  0  0  0
  152.1236  138.9058  157.7954 H   0  0  0  0  0  0  0  0  0  0  0  0
  148.1564  138.0790  157.7346 H   0  0  0  0  0  0  0  0  0  0  0  0
  149.5642  139.0958  158.0338 H   0  0  0  0  0  0  0  0  0  0  0  0
  149.7857  137.4209  157.5010 H   0  0  0  0  0  0  0  0  0  0  0  0
  147.3202  137.7975  155.5302 H   0  0  0  0  0  0  0  0  0  0  0  0
  148.7711  136.9342  154.9877 H   0  0  0  0  0  0  0  0  0  0  0  0
  148.2238  138.3833  154.1315 H   0  0  0  0  0  0  0  0  0  0  0  0
  150.3278  142.2536  155.6924 H   0  0  0  0  0  0  0  0  0  0  0  0
  151.0947  143.8224  157.4911 H   0  0  0  0  0  0  0  0  0  0  0  0
  1  2  1  0  0  0  0
  1 24  1  0  0  0  0
  1 25  1  0  0  0  0
  1 26  1  0  0  0  0
  2  3  1  0  0  0  0
  2 27  1  0  0  0  0
  2 28  1  0  0  0  0
  3 23  1  0  0  0  0
  3  4  1  0  0  0  0
  4  5  2  0  0  0  0
  4  6  1  0  0  0  0
  6  7  1  0  0  0  0
  6 12  1  0  0  0  0
  7  8  1  0  0  0  0
  7 29  1  0  0  0  0
  7 30  1  0  0  0  0
  8  9  1  0  0  0  0
  8 10  1  0  0  0  0
  8 11  1  0  0  0  0
  9 31  1  0  0  0  0
  9 32  1  0  0  0  0
  9 33  1  0  0  0  0
 10 34  1  0  0  0  0
 10 35  1  0  0  0  0
 10 36  1  0  0  0  0
 11 37  1  0  0  0  0
 12 23  2  0  0  0  0
 12 13  1  0  0  0  0
 13 14  2  0  0  0  0
 13 38  1  0  0  0  0
 14 15  1  0  0  0  0
 14 21  1  0  0  0  0
 15 16  2  0  0  0  0
 15 17  2  0  0  0  0
 15 18  1  0  0  0  0
 18 19  1  0  0  0  0
 18 20  1  0  0  0  0
 19 39  1  0  0  0  0
 19 40  1  0  0  0  0
 19 41  1  0  0  0  0
 20 42  1  0  0  0  0
 20 43  1  0  0  0  0
 20 44  1  0  0  0  0
 21 22  2  0  0  0  0
 21 45  1  0  0  0  0
 22 23  1  0  0  0  0
 22 46  1  0  0  0  0
M  END
> <s_m_source_file>
AV-unprocessed.smi

> <i_m_source_file_index>
1146

> <i_lp_mmshare_version>
43012

> <i_f3d_flags>
0

> <s_epik_input>
W0NIM11DKFtDSDNdKShbT0hdKVtDSDJdbjFjKD1PKW4oW0NIMl1bQ0gzXSljKGMxMilbY0hdW2NIXWMoW2NIXTIpUyg9TykoPU8pTihbQ0gzXSlbQ0gzXQ==

> <s_epik_cmdline>
J2VwaWtfcHl0aG9uJywgJy1waCcsICc3LjAnLCAnLXRuJywgJzgnLCAnLW1hJywgJzIwMCcsICctbWV0YWxfYmluZGluZycsICctaW1hZScsICc8aW5maWxlLm1hZT4nLCAnLW9tYWUnLCAnPG91dGZpbGUubWFlPic=

> <r_lp_tautomer_probability>
1

> <r_epik_Ionization_Penalty>
3.29736e-08

> <r_epik_Ionization_Penalty_Charging>
1.95861e-09

> <r_epik_Ionization_Penalty_Neutral>
3.1015e-08

> <r_epik_State_Penalty>
-0

> <r_epik_Charging_Adjusted_Penalty>
1.95861e-09

> <i_epik_Tot_Q>
0

> <i_epik_Tot_abs_Q>
0

> <r_epik_Metal_State_Penalty>
-0

> <b_epik_Metal_Only>
0

> <s_lp_Force_Field>
OPLS_2005

> <r_lp_Energy>
36.7985

> <b_lp_Chiralities_Consistent>
1

> <s_lp_Variant>
AV-unprocessed.smi:1146-1

> <Gold.Version>
5.8.1

> <Gold.Id.Protein>
6NUR|6NUR_protein|mol2

> <Gold.PLP.Fitness>
45.7232

> <Gold.PLP.PLP>
-40.3016

> <Gold.PLP.part.hbond>
-2.2870

> <Gold.PLP.part.metal>
0.0000

> <Gold.PLP.part.buried>
-6.2841

> <Gold.PLP.part.nonpolar>
-33.0587

> <Gold.PLP.part.repulsive>
0.9892

> <Gold.PLP.ligand.clash>
0.0000

> <Gold.PLP.ligand.torsion>
1.6359

> <Gold.PLP.Chemscore.Hbond>
1.9600

> <Gold.PLP.Chemscore.CHOScore>
0.0000

> <Gold.PLP.Chemscore.Metal>
0.0000

> <Gold.Chemscore.Hbonds>
donor molecule, donor type, donor heavy atom, donor atom, acceptor molecule, acceptor atom, score
      P1  H  7989  7998       L1    16  0.98
      P1  H  7997  8008       L1    11  1.00

> <Gold.PLP.Chemscore.Internal.Correction>
2.8134

> <Gold.Rescore>
     Score         DG    S(hbond)    S(metal)    S(lipo)     H(rot)  DE(clash)    DE(int)     intcor
     16.15     -18.08       1.98        0.00      95.88       2.04       0.02       1.90       ----

> <Gold.Chemscore.Fitness>
16.1539

> <Gold.Chemscore.DG>
-18.0771

> <Gold.Chemscore.ZeroCoef>
-5.4800

> <Gold.Chemscore.Hbond>
1.9752

> <Gold.Chemscore.Metal>
0.0000

> <Gold.Chemscore.Lipo>
95.8810

> <Gold.Chemscore.Internal_Hbond>
0.0000

> <Gold.Chemscore.DEClash>
0.0231

> <Gold.Chemscore.DEInternal>
1.9001

> <Gold.Chemscore.Rot>
2.0383

> <Gold.Chemscore.Internal.Correction>
   9.000000E+99

> <Gold.Chemscore.Hbonds>
donor molecule, donor type, donor heavy atom, donor atom, acceptor molecule, acceptor atom, score
      P1  H  7989  7998       L1    16  0.69
      P1  H  7997  8008       L1    11  0.34

> <Gold.Chemscore.Hbond.Weighted>
-6.5971

> <Gold.Chemscore.Metal.Weighted>
-0.0000

> <Gold.Chemscore.Lipo.Weighted>
-11.2181

> <Gold.Chemscore.Internal_Hbond.Weighted>
0.0000

> <Gold.Chemscore.DEClash.Weighted>
0.0231

> <Gold.Chemscore.DEInternal.Weighted>
1.9001

> <Gold.Chemscore.Rot.Weighted>
5.2181

> <Gold.Chemscore.Internal.Correction.Weighted>
   9.000000E+99

> <Gold.Protein.RotatedTorsions>
[ 6907 6896 6895 6894 ] final   42.87 input  -60.11 | X-H torsion
[ 7974 7965 7964 7962 ] final  -64.50 input  175.53 | X-H torsion
[ 8008 7997 7996 7995 ] final -142.80 input   59.86 | X-H torsion
[ 10167 10162 10161 10158 ] final  -51.75 input  -65.29 | X-H torsion
[ 10718 10713 10712 10709 ] final  111.13 input   66.30 | X-H torsion
[ 10763 10752 10751 10750 ] final  130.28 input  -60.55 | X-H torsion
[ 11005 11000 10999 10996 ] final  -61.30 input  -57.11 | X-H torsion

> <Gold.Protein.ActiveResidues>
 VAL166  LYS551  ARG553  GLY616  TRP617  ASP618  TYR619  PRO620  LYS621  CYS622 
 ASP623  PHE694  ASN695  SER759  ASP760  ASP761  ALA762  ILE779  LEU786  VAL792 
 PHE793  MET794  SER795  GLU796  ALA797  LYS798  CYS799  TRP800  GLU811  SER814 

> <Gold.Protein.RotatedAtoms>
  152.2133  134.8481  160.0494 H   0  0  0  0  0  0  0  0  0  0  0  0  # atno 6907 bound_to 6896
  151.9292  133.3601  159.3933 H   0  0  0  0  0  0  0  0  0  0  0  0  # atno 6908 bound_to 6896
  150.6981  134.4480  159.5367 H   0  0  0  0  0  0  0  0  0  0  0  0  # atno 6909 bound_to 6896
  145.7660  140.8837  143.0405 H   0  0  0  0  0  0  0  0  0  0  0  0  # atno 7974 bound_to 7965
  155.5001  140.0575  157.2940 H   0  0  0  0  0  0  0  0  0  0  0  0  # atno 8008 bound_to 7997
  154.4590  140.1987  156.0247 H   0  0  0  0  0  0  0  0  0  0  0  0  # atno 8009 bound_to 7997
  156.0854  140.3241  155.7751 H   0  0  0  0  0  0  0  0  0  0  0  0  # atno 8010 bound_to 7997
  140.6572  143.2608  151.4548 H   0  0  0  0  0  0  0  0  0  0  0  0  # atno 10167 bound_to 10162
  157.6460  131.0945  150.6704 H   0  0  0  0  0  0  0  0  0  0  0  0  # atno 10718 bound_to 10713
  153.7554  135.3203  155.3328 H   0  0  0  0  0  0  0  0  0  0  0  0  # atno 10763 bound_to 10752
  154.8248  135.4577  154.0890 H   0  0  0  0  0  0  0  0  0  0  0  0  # atno 10764 bound_to 10752
  153.2105  135.6935  153.8202 H   0  0  0  0  0  0  0  0  0  0  0  0  # atno 10765 bound_to 10752
  141.1319  133.6629  156.5355 H   0  0  0  0  0  0  0  0  0  0  0  0  # atno 11005 bound_to 11000
  144.6821  139.9788  143.7483 LP  0  0  0  0  0  0  0  0  0  0  0  0  # atno 17320 bound_to 7965
  146.0217  139.3257  143.0808 LP  0  0  0  0  0  0  0  0  0  0  0  0  # atno 17321 bound_to 7965
  139.5798  144.1736  152.1952 LP  0  0  0  0  0  0  0  0  0  0  0  0  # atno 17342 bound_to 10162
  140.1058  144.5500  150.6958 LP  0  0  0  0  0  0  0  0  0  0  0  0  # atno 17343 bound_to 10162
  156.7021  130.4626  149.5570 LP  0  0  0  0  0  0  0  0  0  0  0  0  # atno 17370 bound_to 10713
  156.1788  130.6485  151.0926 LP  0  0  0  0  0  0  0  0  0  0  0  0  # atno 17371 bound_to 10713
  140.4182  134.7211  157.4875 LP  0  0  0  0  0  0  0  0  0  0  0  0  # atno 17394 bound_to 11000
  140.0379  134.6310  155.9019 LP  0  0  0  0  0  0  0  0  0  0  0  0  # atno 17395 bound_to 11000

$$$$
