AV-unprocessed.smi:541|AV-procd|sdf|2871|dock1
  -GOLD-   2262023363D 1   1.00000     0.00000
 Structure written by MMmdl.
 43 45  0  0  0  0  0  0  0  0  1 V2000
  153.8408  141.1599  160.1166 C   0  0  0  0  0  0  0  0  0  0  0  0
  153.4049  139.7369  159.7600 C   0  0  0  0  0  0  0  0  0  0  0  0
  153.4413  139.5841  158.3512 O   0  0  0  0  0  0  0  0  0  0  0  0
  152.1495  139.4620  157.7812 C   0  0  0  0  0  0  0  0  0  0  0  0
  152.2078  139.9268  156.3193 C   0  0  0  0  0  0  0  0  0  0  0  0
  150.9951  140.6385  155.9270 N   0  0  0  0  0  0  0  0  0  0  0  0
  150.5197  141.8609  156.3168 C   0  0  0  0  0  0  0  0  0  0  0  0
  151.1423  142.7047  157.2515 N   0  0  0  0  0  0  0  0  0  0  0  0
  151.6151  144.0860  157.1450 C   0  0  0  0  0  0  0  0  0  0  0  0
  152.5553  144.3624  158.3137 C   0  0  0  0  0  0  0  0  0  0  0  0
  151.9612  143.4931  159.3988 C   0  0  0  0  0  0  0  0  0  0  0  0
  151.5017  142.2748  158.6040 C   0  0  0  0  0  0  0  0  0  0  0  0
  149.3720  142.2074  155.7226 N   0  0  0  0  0  0  0  0  0  0  0  0
  149.0802  141.1269  154.9096 C   0  0  0  0  0  0  0  0  0  0  0  0
  150.0345  140.1713  155.0244 C   0  0  0  0  0  0  0  0  0  0  0  0
  149.9646  138.9022  154.2832 C   0  0  0  0  0  0  0  0  0  0  0  0
  150.8082  138.0132  154.3743 O   0  0  0  0  0  0  0  0  0  0  0  0
  148.8677  138.8056  153.4933 N   0  0  0  0  0  0  0  0  0  0  0  0
  147.8736  139.7309  153.3340 C   0  0  0  0  0  0  0  0  0  0  0  0
  146.9280  139.4946  152.5821 O   0  0  0  0  0  0  0  0  0  0  0  0
  147.9770  140.9035  154.0372 N   0  0  0  0  0  0  0  0  0  0  0  0
  146.9414  141.9307  153.9100 C   0  0  0  0  0  0  0  0  0  0  0  0
  148.7708  137.9505  152.9655 H   0  0  0  0  0  0  0  0  0  0  0  0
  153.8276  141.3122  161.1959 H   0  0  0  0  0  0  0  0  0  0  0  0
  153.1764  141.8975  159.6661 H   0  0  0  0  0  0  0  0  0  0  0  0
  154.8528  141.3592  159.7632 H   0  0  0  0  0  0  0  0  0  0  0  0
  154.0711  139.0147  160.2339 H   0  0  0  0  0  0  0  0  0  0  0  0
  152.3966  139.5522  160.1336 H   0  0  0  0  0  0  0  0  0  0  0  0
  151.8158  138.4247  157.8322 H   0  0  0  0  0  0  0  0  0  0  0  0
  151.4334  140.0584  158.3475 H   0  0  0  0  0  0  0  0  0  0  0  0
  153.0841  140.5381  156.1297 H   0  0  0  0  0  0  0  0  0  0  0  0
  152.3419  139.0691  155.6618 H   0  0  0  0  0  0  0  0  0  0  0  0
  152.1259  144.2700  156.2020 H   0  0  0  0  0  0  0  0  0  0  0  0
  150.7556  144.7539  157.2070 H   0  0  0  0  0  0  0  0  0  0  0  0
  153.5644  144.0251  158.0733 H   0  0  0  0  0  0  0  0  0  0  0  0
  152.6011  145.4175  158.5843 H   0  0  0  0  0  0  0  0  0  0  0  0
  152.6709  143.2446  160.1885 H   0  0  0  0  0  0  0  0  0  0  0  0
  151.1036  143.9928  159.8517 H   0  0  0  0  0  0  0  0  0  0  0  0
  150.6626  141.7814  159.0952 H   0  0  0  0  0  0  0  0  0  0  0  0
  152.3120  141.5487  158.5283 H   0  0  0  0  0  0  0  0  0  0  0  0
  146.7330  142.1488  152.8615 H   0  0  0  0  0  0  0  0  0  0  0  0
  147.2276  142.8713  154.3802 H   0  0  0  0  0  0  0  0  0  0  0  0
  146.0161  141.5944  154.3789 H   0  0  0  0  0  0  0  0  0  0  0  0
  1  2  1  0  0  0  0
  1 24  1  0  0  0  0
  1 25  1  0  0  0  0
  1 26  1  0  0  0  0
  2  3  1  0  0  0  0
  2 27  1  0  0  0  0
  2 28  1  0  0  0  0
  3  4  1  0  0  0  0
  4  5  1  0  0  0  0
  4 29  1  0  0  0  0
  4 30  1  0  0  0  0
  5  6  1  0  0  0  0
  5 31  1  0  0  0  0
  5 32  1  0  0  0  0
  6 15  1  0  0  0  0
  6  7  1  0  0  0  0
  7  8  1  0  0  0  0
  7 13  2  0  0  0  0
  8 12  1  0  0  0  0
  8  9  1  0  0  0  0
  9 10  1  0  0  0  0
  9 33  1  0  0  0  0
  9 34  1  0  0  0  0
 10 11  1  0  0  0  0
 10 35  1  0  0  0  0
 10 36  1  0  0  0  0
 11 12  1  0  0  0  0
 11 37  1  0  0  0  0
 11 38  1  0  0  0  0
 12 39  1  0  0  0  0
 12 40  1  0  0  0  0
 13 14  1  0  0  0  0
 14 21  1  0  0  0  0
 14 15  2  0  0  0  0
 15 16  1  0  0  0  0
 16 17  2  0  0  0  0
 16 18  1  0  0  0  0
 18 23  1  0  0  0  0
 18 19  1  0  0  0  0
 19 20  2  0  0  0  0
 19 21  1  0  0  0  0
 21 22  1  0  0  0  0
 22 41  1  0  0  0  0
 22 42  1  0  0  0  0
 22 43  1  0  0  0  0
M  END
> <s_m_source_file>
AV-unprocessed.smi

> <i_m_source_file_index>
541

> <i_lp_mmshare_version>
43012

> <i_f3d_flags>
0

> <s_epik_input>
W0NIM11uMWMoPU8pW25IXWMoPU8pYyhjMTIpbihbQ0gyXVtDSDJdT1tDSDJdW0NIM10pYyhuMilOM1tDSDJdW0NIMl1bQ0gyXVtDSDJdMw==

> <s_epik_cmdline>
J2VwaWtfcHl0aG9uJywgJy1waCcsICc3LjAnLCAnLXRuJywgJzgnLCAnLW1hJywgJzIwMCcsICctbWV0YWxfYmluZGluZycsICctaW1hZScsICc8aW5maWxlLm1hZT4nLCAnLW9tYWUnLCAnPG91dGZpbGUubWFlPic=

> <r_lp_tautomer_probability>
1

> <r_epik_Ionization_Penalty>
0.00016913

> <r_epik_Ionization_Penalty_Charging>
2.12732e-05

> <r_epik_Ionization_Penalty_Neutral>
0.000147857

> <r_epik_State_Penalty>
-0

> <r_epik_Charging_Adjusted_Penalty>
2.12732e-05

> <i_epik_Tot_Q>
0

> <i_epik_Tot_abs_Q>
0

> <r_epik_Metal_State_Penalty>
0.0201837

> <b_epik_Metal_Only>
0

> <s_lp_Force_Field>
OPLS_2005

> <r_lp_Energy>
45.5158

> <b_lp_Chiralities_Consistent>
1

> <s_lp_Variant>
AV-unprocessed.smi:541-1

> <Gold.Version>
5.8.1

> <Gold.Id.Protein>
6NUR|6NUR_protein|mol2

> <Gold.PLP.Fitness>
47.8619

> <Gold.PLP.PLP>
-45.3341

> <Gold.PLP.part.hbond>
-3.0000

> <Gold.PLP.part.metal>
0.0000

> <Gold.PLP.part.buried>
-2.7693

> <Gold.PLP.part.nonpolar>
-44.3322

> <Gold.PLP.part.repulsive>
4.7052

> <Gold.PLP.ligand.clash>
0.0000

> <Gold.PLP.ligand.torsion>
1.8563

> <Gold.PLP.Chemscore.Hbond>
2.0000

> <Gold.PLP.Chemscore.CHOScore>
0.0000

> <Gold.PLP.Chemscore.Metal>
0.0000

> <Gold.Chemscore.Hbonds>
donor molecule, donor type, donor heavy atom, donor atom, acceptor molecule, acceptor atom, score
      L1  H    18    23       P1  7948  1.00
      P1  H  7997  8009       L1     3  1.00

> <Gold.PLP.Chemscore.Internal.Correction>
0.2403

> <Gold.Rescore>
     Score         DG    S(hbond)    S(metal)    S(lipo)     H(rot)  DE(clash)    DE(int)     intcor
     13.81     -18.19       1.95        0.00      89.46       1.67       1.75       2.63       ----

> <Gold.Chemscore.Fitness>
13.8139

> <Gold.Chemscore.DG>
-18.1909

> <Gold.Chemscore.ZeroCoef>
-5.4800

> <Gold.Chemscore.Hbond>
1.9501

> <Gold.Chemscore.Metal>
0.0000

> <Gold.Chemscore.Lipo>
89.4586

> <Gold.Chemscore.Internal_Hbond>
0.0000

> <Gold.Chemscore.DEClash>
1.7512

> <Gold.Chemscore.DEInternal>
2.6258

> <Gold.Chemscore.Rot>
1.6675

> <Gold.Chemscore.Internal.Correction>
   9.000000E+99

> <Gold.Chemscore.Hbonds>
donor molecule, donor type, donor heavy atom, donor atom, acceptor molecule, acceptor atom, score
      L1  H    18    23       P1  7948  0.93
      P1  H  7997  8009       L1     3  0.88

> <Gold.Chemscore.Hbond.Weighted>
-6.5132

> <Gold.Chemscore.Metal.Weighted>
-0.0000

> <Gold.Chemscore.Lipo.Weighted>
-10.4667

> <Gold.Chemscore.Internal_Hbond.Weighted>
0.0000

> <Gold.Chemscore.DEClash.Weighted>
1.7512

> <Gold.Chemscore.DEInternal.Weighted>
2.6258

> <Gold.Chemscore.Rot.Weighted>
4.2689

> <Gold.Chemscore.Internal.Correction.Weighted>
   9.000000E+99

> <Gold.Protein.RotatedTorsions>
[ 6907 6896 6895 6894 ] final   -7.19 input  -60.11 | X-H torsion
[ 7974 7965 7964 7962 ] final  159.16 input  175.53 | X-H torsion
[ 8008 7997 7996 7995 ] final  143.93 input   59.86 | X-H torsion
[ 10167 10162 10161 10158 ] final -159.62 input  -65.29 | X-H torsion
[ 10718 10713 10712 10709 ] final  144.35 input   66.30 | X-H torsion
[ 10763 10752 10751 10750 ] final  110.50 input  -60.55 | X-H torsion
[ 11005 11000 10999 10996 ] final  -33.96 input  -57.11 | X-H torsion

> <Gold.Protein.ActiveResidues>
 VAL166  LYS551  ARG553  GLY616  TRP617  ASP618  TYR619  PRO620  LYS621  CYS622 
 ASP623  PHE694  ASN695  SER759  ASP760  ASP761  ALA762  ILE779  LEU786  VAL792 
 PHE793  MET794  SER795  GLU796  ALA797  LYS798  CYS799  TRP800  GLU811  SER814 

> <Gold.Protein.RotatedAtoms>
  151.4536  135.1032  159.9704 H   0  0  0  0  0  0  0  0  0  0  0  0  # atno 6907 bound_to 6896
  152.4879  133.8418  159.7167 H   0  0  0  0  0  0  0  0  0  0  0  0  # atno 6908 bound_to 6896
  150.9005  133.7065  159.2907 H   0  0  0  0  0  0  0  0  0  0  0  0  # atno 6909 bound_to 6896
  144.7805  139.7579  143.6261 H   0  0  0  0  0  0  0  0  0  0  0  0  # atno 7974 bound_to 7965
  156.2919  140.2249  156.4971 H   0  0  0  0  0  0  0  0  0  0  0  0  # atno 8008 bound_to 7997
  154.7721  140.0466  157.1081 H   0  0  0  0  0  0  0  0  0  0  0  0  # atno 8009 bound_to 7997
  154.9861  140.3084  155.4929 H   0  0  0  0  0  0  0  0  0  0  0  0  # atno 8010 bound_to 7997
  139.6601  143.9928  152.2220 H   0  0  0  0  0  0  0  0  0  0  0  0  # atno 10167 bound_to 10162
  157.3583  131.0961  151.0939 H   0  0  0  0  0  0  0  0  0  0  0  0  # atno 10718 bound_to 10713
  153.4498  135.3746  155.2277 H   0  0  0  0  0  0  0  0  0  0  0  0  # atno 10763 bound_to 10752
  154.8756  135.3883  154.4052 H   0  0  0  0  0  0  0  0  0  0  0  0  # atno 10764 bound_to 10752
  153.4609  135.7086  153.6114 H   0  0  0  0  0  0  0  0  0  0  0  0  # atno 10765 bound_to 10752
  140.9677  133.7127  156.1473 H   0  0  0  0  0  0  0  0  0  0  0  0  # atno 11005 bound_to 11000
  146.2010  139.5305  142.9743 LP  0  0  0  0  0  0  0  0  0  0  0  0  # atno 17320 bound_to 7965
  145.6063  141.0347  143.1991 LP  0  0  0  0  0  0  0  0  0  0  0  0  # atno 17321 bound_to 7965
  139.9665  144.6523  150.8030 LP  0  0  0  0  0  0  0  0  0  0  0  0  # atno 17342 bound_to 10162
  140.7576  143.3090  151.2891 LP  0  0  0  0  0  0  0  0  0  0  0  0  # atno 17343 bound_to 10162
  157.2088  130.6428  149.5766 LP  0  0  0  0  0  0  0  0  0  0  0  0  # atno 17370 bound_to 10713
  155.9733  130.4666  150.6297 LP  0  0  0  0  0  0  0  0  0  0  0  0  # atno 17371 bound_to 10713
  140.7374  134.4187  157.5559 LP  0  0  0  0  0  0  0  0  0  0  0  0  # atno 17394 bound_to 11000
  139.8901  134.8814  156.2389 LP  0  0  0  0  0  0  0  0  0  0  0  0  # atno 17395 bound_to 11000

$$$$
