AV-unprocessed.smi:1528|AV-procd|sdf|6151|dock3
  -GOLD-   22720 6303D 1   1.00000     0.00000
 Structure written by MMmdl.
 34 35  0  0  0  0  0  0  0  0  1 V2000
  146.7456  142.6667  154.0930 C   0  0  0  0  0  0  0  0  0  0  0  0
  148.0059  141.8092  153.9162 C   0  0  0  0  0  0  0  0  0  0  0  0
  148.8345  141.8201  155.1161 N   0  0  0  0  0  0  0  0  0  0  0  0
  149.9387  141.0777  155.2989 C   0  0  0  0  0  0  0  0  0  0  0  0
  150.3649  140.2769  154.4667 O   0  0  0  0  0  0  0  0  0  0  0  0
  150.6100  141.2298  156.6333 C   0  0  0  0  0  0  0  0  0  0  0  0
  150.7352  142.4867  157.2645 C   0  0  0  0  0  0  0  0  0  0  0  0
  151.3954  142.5686  158.5055 C   0  0  0  0  0  0  0  0  0  0  0  0
  151.9263  141.3921  159.0854 C   0  0  0  0  0  0  0  0  0  0  0  0
  152.5921  141.4507  160.3292 N   0  0  0  0  0  0  0  0  0  0  0  0
  152.5238  142.7332  161.0256 C   0  0  0  0  0  0  0  0  0  0  0  0
  153.0065  142.5800  162.4784 C   0  0  0  0  0  0  0  0  0  0  0  0
  154.3106  142.0089  162.4965 O   0  0  0  0  0  0  0  0  0  0  0  0
  154.3279  140.7107  161.9129 C   0  0  0  0  0  0  0  0  0  0  0  0
  153.8968  140.8005  160.4396 C   0  0  0  0  0  0  0  0  0  0  0  0
  151.8096  140.1874  158.4748 N   0  0  0  0  0  0  0  0  0  0  0  0
  151.1776  140.1137  157.2843 C   0  0  0  0  0  0  0  0  0  0  0  0
  146.1208  142.6249  153.2008 H   0  0  0  0  0  0  0  0  0  0  0  0
  146.9982  143.7126  154.2703 H   0  0  0  0  0  0  0  0  0  0  0  0
  146.1464  142.3185  154.9349 H   0  0  0  0  0  0  0  0  0  0  0  0
  147.7225  140.7770  153.7087 H   0  0  0  0  0  0  0  0  0  0  0  0
  148.5813  142.1523  153.0547 H   0  0  0  0  0  0  0  0  0  0  0  0
  148.5456  142.4333  155.8643 H   0  0  0  0  0  0  0  0  0  0  0  0
  150.3342  143.3830  156.8141 H   0  0  0  0  0  0  0  0  0  0  0  0
  151.4751  143.5249  159.0000 H   0  0  0  0  0  0  0  0  0  0  0  0
  153.1516  143.4527  160.4983 H   0  0  0  0  0  0  0  0  0  0  0  0
  151.5132  143.1383  161.0298 H   0  0  0  0  0  0  0  0  0  0  0  0
  153.0390  143.5535  162.9680 H   0  0  0  0  0  0  0  0  0  0  0  0
  152.3179  141.9581  163.0528 H   0  0  0  0  0  0  0  0  0  0  0  0
  155.3357  140.3022  161.9846 H   0  0  0  0  0  0  0  0  0  0  0  0
  153.6718  140.0400  162.4702 H   0  0  0  0  0  0  0  0  0  0  0  0
  153.8569  139.7973  160.0137 H   0  0  0  0  0  0  0  0  0  0  0  0
  154.6331  141.3688  159.8696 H   0  0  0  0  0  0  0  0  0  0  0  0
  151.1219  139.1277  156.8462 H   0  0  0  0  0  0  0  0  0  0  0  0
  1  2  1  0  0  0  0
  1 18  1  0  0  0  0
  1 19  1  0  0  0  0
  1 20  1  0  0  0  0
  2  3  1  0  0  0  0
  2 21  1  0  0  0  0
  2 22  1  0  0  0  0
  3  4  1  0  0  0  0
  3 23  1  0  0  0  0
  4  5  2  0  0  0  0
  4  6  1  0  0  0  0
  6 17  1  0  0  0  0
  6  7  2  0  0  0  0
  7  8  1  0  0  0  0
  7 24  1  0  0  0  0
  8  9  2  0  0  0  0
  8 25  1  0  0  0  0
  9 10  1  0  0  0  0
  9 16  1  0  0  0  0
 10 15  1  0  0  0  0
 10 11  1  0  0  0  0
 11 12  1  0  0  0  0
 11 26  1  0  0  0  0
 11 27  1  0  0  0  0
 12 13  1  0  0  0  0
 12 28  1  0  0  0  0
 12 29  1  0  0  0  0
 13 14  1  0  0  0  0
 14 15  1  0  0  0  0
 14 30  1  0  0  0  0
 14 31  1  0  0  0  0
 15 32  1  0  0  0  0
 15 33  1  0  0  0  0
 16 17  2  0  0  0  0
 17 34  1  0  0  0  0
M  END
> <s_m_source_file>
AV-unprocessed.smi

> <i_m_source_file_index>
1528

> <i_lp_mmshare_version>
43012

> <i_f3d_flags>
0

> <s_epik_input>
W0NIM11bQ0gyXVtOSF1DKD1PKWMxW2NIXVtjSF1jKG5bY0hdMSlOMltDSDJdW0NIMl1PW0NIMl1bQ0gyXTI=

> <s_epik_cmdline>
J2VwaWtfcHl0aG9uJywgJy1waCcsICc3LjAnLCAnLXRuJywgJzgnLCAnLW1hJywgJzIwMCcsICctbWV0YWxfYmluZGluZycsICctaW1hZScsICc8aW5maWxlLm1hZT4nLCAnLW9tYWUnLCAnPG91dGZpbGUubWFlPic=

> <r_lp_tautomer_probability>
1

> <r_epik_Ionization_Penalty>
1.55122e-05

> <r_epik_Ionization_Penalty_Charging>
0

> <r_epik_Ionization_Penalty_Neutral>
1.55122e-05

> <r_epik_State_Penalty>
-0

> <r_epik_Charging_Adjusted_Penalty>
0

> <i_epik_Tot_Q>
0

> <i_epik_Tot_abs_Q>
0

> <r_epik_Metal_State_Penalty>
-0

> <b_epik_Metal_Only>
0

> <s_lp_Force_Field>
OPLS_2005

> <r_lp_Energy>
18.5854

> <b_lp_Chiralities_Consistent>
1

> <s_lp_Variant>
AV-unprocessed.smi:1528-1

> <Gold.Version>
5.8.1

> <Gold.Id.Protein>
6NUR|6NUR_protein|mol2

> <Gold.PLP.Fitness>
40.7439

> <Gold.PLP.PLP>
-38.5818

> <Gold.PLP.part.hbond>
-3.0000

> <Gold.PLP.part.metal>
0.0000

> <Gold.PLP.part.buried>
-3.6534

> <Gold.PLP.part.nonpolar>
-30.9583

> <Gold.PLP.part.repulsive>
0.2756

> <Gold.PLP.ligand.clash>
0.0000

> <Gold.PLP.ligand.torsion>
0.7492

> <Gold.PLP.Chemscore.Hbond>
1.1061

> <Gold.PLP.Chemscore.CHOScore>
0.0000

> <Gold.PLP.Chemscore.Metal>
0.0000

> <Gold.Chemscore.Hbonds>
donor molecule, donor type, donor heavy atom, donor atom, acceptor molecule, acceptor atom, score
      L1  H     3    23       P1  8028  0.11
      P1  H  7989  7998       L1     5  1.00

> <Gold.PLP.Chemscore.Internal.Correction>
0.3424

> <Gold.Rescore>
     Score         DG    S(hbond)    S(metal)    S(lipo)     H(rot)  DE(clash)    DE(int)     intcor
     12.68     -15.02       0.97        0.00      79.62       1.18       1.56       0.78       ----

> <Gold.Chemscore.Fitness>
12.6765

> <Gold.Chemscore.DG>
-15.0186

> <Gold.Chemscore.ZeroCoef>
-5.4800

> <Gold.Chemscore.Hbond>
0.9750

> <Gold.Chemscore.Metal>
0.0000

> <Gold.Chemscore.Lipo>
79.6175

> <Gold.Chemscore.Internal_Hbond>
0.0000

> <Gold.Chemscore.DEClash>
1.5638

> <Gold.Chemscore.DEInternal>
0.7783

> <Gold.Chemscore.Rot>
1.1848

> <Gold.Chemscore.Internal.Correction>
   9.000000E+99

> <Gold.Chemscore.Hbonds>
donor molecule, donor type, donor heavy atom, donor atom, acceptor molecule, acceptor atom, score
      L1  H     3    23       P1  8028  0.11
      P1  H  7989  7998       L1     5  0.86

> <Gold.Chemscore.Hbond.Weighted>
-3.2564

> <Gold.Chemscore.Metal.Weighted>
-0.0000

> <Gold.Chemscore.Lipo.Weighted>
-9.3152

> <Gold.Chemscore.Internal_Hbond.Weighted>
0.0000

> <Gold.Chemscore.DEClash.Weighted>
1.5638

> <Gold.Chemscore.DEInternal.Weighted>
0.7783

> <Gold.Chemscore.Rot.Weighted>
3.0331

> <Gold.Chemscore.Internal.Correction.Weighted>
   9.000000E+99

> <Gold.Protein.RotatedTorsions>
[ 6907 6896 6895 6894 ] final -154.20 input  -60.11 | X-H torsion
[ 7974 7965 7964 7962 ] final  122.14 input  175.53 | X-H torsion
[ 8008 7997 7996 7995 ] final  -38.02 input   59.86 | X-H torsion
[ 10167 10162 10161 10158 ] final  -11.51 input  -65.29 | X-H torsion
[ 10718 10713 10712 10709 ] final   49.35 input   66.30 | X-H torsion
[ 10763 10752 10751 10750 ] final  -58.37 input  -60.55 | X-H torsion
[ 11005 11000 10999 10996 ] final  147.12 input  -57.11 | X-H torsion

> <Gold.Protein.ActiveResidues>
 VAL166  LYS551  ARG553  GLY616  TRP617  ASP618  TYR619  PRO620  LYS621  CYS622 
 ASP623  PHE694  ASN695  SER759  ASP760  ASP761  ALA762  ILE779  LEU786  VAL792 
 PHE793  MET794  SER795  GLU796  ALA797  LYS798  CYS799  TRP800  GLU811  SER814 

> <Gold.Protein.RotatedAtoms>
  151.2540  133.4335  159.2612 H   0  0  0  0  0  0  0  0  0  0  0  0  # atno 6907 bound_to 6896
  151.0591  134.9725  159.8261 H   0  0  0  0  0  0  0  0  0  0  0  0  # atno 6908 bound_to 6896
  152.5395  134.2491  159.8944 H   0  0  0  0  0  0  0  0  0  0  0  0  # atno 6909 bound_to 6896
  145.1110  139.3453  143.4763 H   0  0  0  0  0  0  0  0  0  0  0  0  # atno 7974 bound_to 7965
  154.4043  140.1589  156.2631 H   0  0  0  0  0  0  0  0  0  0  0  0  # atno 8008 bound_to 7997
  155.9019  140.3432  155.6010 H   0  0  0  0  0  0  0  0  0  0  0  0  # atno 8009 bound_to 7997
  155.7438  140.0796  157.2224 H   0  0  0  0  0  0  0  0  0  0  0  0  # atno 8010 bound_to 7997
  140.7140  143.5631  150.9173 H   0  0  0  0  0  0  0  0  0  0  0  0  # atno 10167 bound_to 10162
  157.4777  130.8295  149.8058 H   0  0  0  0  0  0  0  0  0  0  0  0  # atno 10718 bound_to 10713
  154.2371  135.6350  153.5194 H   0  0  0  0  0  0  0  0  0  0  0  0  # atno 10763 bound_to 10752
  152.9937  135.5533  154.5951 H   0  0  0  0  0  0  0  0  0  0  0  0  # atno 10764 bound_to 10752
  154.5447  135.2897  155.1038 H   0  0  0  0  0  0  0  0  0  0  0  0  # atno 10765 bound_to 10752
  140.0849  134.9075  157.1560 H   0  0  0  0  0  0  0  0  0  0  0  0  # atno 11005 bound_to 11000
  146.3526  140.1029  142.8607 LP  0  0  0  0  0  0  0  0  0  0  0  0  # atno 17320 bound_to 7965
  145.0847  140.9244  143.4805 LP  0  0  0  0  0  0  0  0  0  0  0  0  # atno 17321 bound_to 7965
  139.9357  143.6441  152.3066 LP  0  0  0  0  0  0  0  0  0  0  0  0  # atno 17342 bound_to 10162
  139.6907  144.7647  151.1443 LP  0  0  0  0  0  0  0  0  0  0  0  0  # atno 17343 bound_to 10162
  156.0105  130.3835  150.2280 LP  0  0  0  0  0  0  0  0  0  0  0  0  # atno 17370 bound_to 10713
  157.0465  131.0050  151.3267 LP  0  0  0  0  0  0  0  0  0  0  0  0  # atno 17371 bound_to 10713
  140.3434  134.2678  155.7208 LP  0  0  0  0  0  0  0  0  0  0  0  0  # atno 17394 bound_to 11000
  141.2059  133.7847  157.0206 LP  0  0  0  0  0  0  0  0  0  0  0  0  # atno 17395 bound_to 11000

$$$$
