AV-unprocessed.smi:65|AV-procd|sdf|616|dock2
  -GOLD-   2262016513D 1   1.00000     0.00000
 Structure written by MMmdl.
 26 27  0  0  0  0  0  0  0  0  2 V2000
  148.9511  142.0954  154.4695 N   0  0  0  0  0  0  0  0  0  0  0  0
  149.9437  141.6996  155.3325 C   0  0  0  0  0  0  0  0  0  0  0  0
  150.4700  140.4812  155.1794 N   0  0  0  0  0  0  0  0  0  0  0  0
  151.4449  140.0871  156.0206 C   0  0  0  0  0  0  0  0  0  0  0  0
  151.9125  140.9239  157.0475 C   0  0  0  0  0  0  0  0  0  0  0  0
  151.3153  142.1994  157.1642 C   0  0  0  0  0  0  0  0  0  0  0  0
  151.7029  143.1284  158.1481 N   0  0  0  0  0  0  0  0  0  0  0  0
  152.7772  142.8332  159.0876 C   0  0  0  0  0  0  0  0  0  0  0  0
  152.4530  143.6383  160.3524 C   0  0  0  0  0  0  0  0  0  0  0  0
  151.5287  144.7480  159.8485 C   0  0  2  0  0  0  0  0  0  0  0  0
  150.6790  145.2482  160.8583 O   0  0  0  0  0  0  0  0  0  0  0  0
  150.7486  144.0592  158.7299 C   0  0  0  0  0  0  0  0  0  0  0  0
  150.3379  142.5541  156.2869 N   0  3  0  0  0  0  0  0  0  0  0  0
  148.5326  143.0104  154.5579 H   0  0  0  0  0  0  0  0  0  0  0  0
  148.6359  141.4841  153.7301 H   0  0  0  0  0  0  0  0  0  0  0  0
  151.8553  139.0993  155.8718 H   0  0  0  0  0  0  0  0  0  0  0  0
  152.7011  140.5915  157.7063 H   0  0  0  0  0  0  0  0  0  0  0  0
  152.8511  141.7689  159.3133 H   0  0  0  0  0  0  0  0  0  0  0  0
  153.7231  143.1586  158.6536 H   0  0  0  0  0  0  0  0  0  0  0  0
  151.9187  142.9987  161.0570 H   0  0  0  0  0  0  0  0  0  0  0  0
  153.3433  144.0183  160.8545 H   0  0  0  0  0  0  0  0  0  0  0  0
  152.1242  145.5633  159.4352 H   0  0  0  0  0  0  0  0  0  0  0  0
  149.8237  144.8589  160.7549 H   0  0  0  0  0  0  0  0  0  0  0  0
  150.3774  144.7748  157.9955 H   0  0  0  0  0  0  0  0  0  0  0  0
  149.9008  143.5009  159.1303 H   0  0  0  0  0  0  0  0  0  0  0  0
  149.9063  143.4749  156.3639 H   0  0  0  0  0  0  0  0  0  0  0  0
  1  2  1  0  0  0  0
  1 14  1  0  0  0  0
  1 15  1  0  0  0  0
  2 13  1  0  0  0  0
  2  3  2  0  0  0  0
  3  4  1  0  0  0  0
  4  5  2  0  0  0  0
  4 16  1  0  0  0  0
  5  6  1  0  0  0  0
  5 17  1  0  0  0  0
  6  7  1  0  0  0  0
  6 13  2  0  0  0  0
  7 12  1  0  0  0  0
  7  8  1  0  0  0  0
  8  9  1  0  0  0  0
  8 18  1  0  0  0  0
  8 19  1  0  0  0  0
  9 10  1  0  0  0  0
  9 20  1  0  0  0  0
  9 21  1  0  0  0  0
 10 11  1  0  0  0  0
 10 12  1  0  0  0  0
 10 22  1  0  0  0  0
 11 23  1  0  0  0  0
 12 24  1  0  0  0  0
 12 25  1  0  0  0  0
 13 26  1  0  0  0  0
M  CHG  1  13   1
M  END
> <s_m_source_file>
AV-unprocessed.smi

> <i_m_source_file_index>
65

> <i_lp_mmshare_version>
43012

> <i_f3d_flags>
0

> <s_epik_input>
W05IMl1jMW5bY0hdW2NIXWMobjEpTjJbQ0gyXVtDSDJdW0NAQEhdKFtPSF0pW0NIMl0y

> <s_epik_cmdline>
J2VwaWtfcHl0aG9uJywgJy1waCcsICc3LjAnLCAnLXRuJywgJzgnLCAnLW1hJywgJzIwMCcsICctbWV0YWxfYmluZGluZycsICctaW1hZScsICc8aW5maWxlLm1hZT4nLCAnLW9tYWUnLCAnPG91dGZpbGUubWFlPic=

> <r_lp_tautomer_probability>
0.424989

> <r_epik_Ionization_Penalty>
0.57487

> <r_epik_Ionization_Penalty_Charging>
0.574865

> <r_epik_Ionization_Penalty_Neutral>
4.40886e-06

> <r_epik_State_Penalty>
0.845539

> <r_epik_Charging_Adjusted_Penalty>
1.4204

> <i_epik_Tot_Q>
1

> <i_epik_Tot_abs_Q>
1

> <r_epik_Metal_State_Penalty>
1.14248

> <b_epik_Metal_Only>
0

> <s_lp_Force_Field>
OPLS_2005

> <r_lp_Energy>
20.8145

> <b_lp_Chiralities_Consistent>
1

> <s_lp_Variant>
AV-unprocessed.smi:65-6

> <Gold.Version>
5.8.1

> <Gold.Id.Protein>
6NUR|6NUR_protein|mol2

> <Gold.PLP.Fitness>
42.2660

> <Gold.PLP.PLP>
-29.6839

> <Gold.PLP.part.hbond>
-4.0000

> <Gold.PLP.part.metal>
0.0000

> <Gold.PLP.part.buried>
-5.0435

> <Gold.PLP.part.nonpolar>
-20.6213

> <Gold.PLP.part.repulsive>
1.8853

> <Gold.PLP.ligand.clash>
0.0000

> <Gold.PLP.ligand.torsion>
0.2206

> <Gold.PLP.Chemscore.Hbond>
4.2707

> <Gold.PLP.Chemscore.CHOScore>
0.0000

> <Gold.PLP.Chemscore.Metal>
0.0000

> <Gold.Chemscore.Hbonds>
donor molecule, donor type, donor heavy atom, donor atom, acceptor molecule, acceptor atom, score
      L1  H     1    14       P1  8028  1.52
      L1  H    13    26       P1  8028  1.98
      P1  H  7989  7998       L1     3  0.75

> <Gold.PLP.Chemscore.Internal.Correction>
0.2111

> <Gold.Rescore>
     Score         DG    S(hbond)    S(metal)    S(lipo)     H(rot)  DE(clash)    DE(int)     intcor
     14.50     -15.53       1.67        0.00      60.11       1.00       0.85       0.19       ----

> <Gold.Chemscore.Fitness>
14.4997

> <Gold.Chemscore.DG>
-15.5345

> <Gold.Chemscore.ZeroCoef>
-5.4800

> <Gold.Chemscore.Hbond>
1.6711

> <Gold.Chemscore.Metal>
0.0000

> <Gold.Chemscore.Lipo>
60.1098

> <Gold.Chemscore.Internal_Hbond>
0.0000

> <Gold.Chemscore.DEClash>
0.8453

> <Gold.Chemscore.DEInternal>
0.1894

> <Gold.Chemscore.Rot>
1.0000

> <Gold.Chemscore.Internal.Correction>
   9.000000E+99

> <Gold.Chemscore.Hbonds>
donor molecule, donor type, donor heavy atom, donor atom, acceptor molecule, acceptor atom, score
      L1  H     1    14       P1  8028  0.70
      L1  H    13    26       P1  8028  0.93
      P1  H  7989  7998       L1     3  0.03

> <Gold.Chemscore.Hbond.Weighted>
-5.5816

> <Gold.Chemscore.Metal.Weighted>
-0.0000

> <Gold.Chemscore.Lipo.Weighted>
-7.0328

> <Gold.Chemscore.Internal_Hbond.Weighted>
0.0000

> <Gold.Chemscore.DEClash.Weighted>
0.8453

> <Gold.Chemscore.DEInternal.Weighted>
0.1894

> <Gold.Chemscore.Rot.Weighted>
2.5600

> <Gold.Chemscore.Internal.Correction.Weighted>
   9.000000E+99

> <Gold.Protein.RotatedTorsions>
[ 6907 6896 6895 6894 ] final  -90.21 input  -60.11 | X-H torsion
[ 7974 7965 7964 7962 ] final   86.40 input  175.53 | X-H torsion
[ 8008 7997 7996 7995 ] final   42.78 input   59.86 | X-H torsion
[ 10167 10162 10161 10158 ] final  -37.46 input  -65.29 | X-H torsion
[ 10718 10713 10712 10709 ] final  -46.20 input   66.30 | X-H torsion
[ 10763 10752 10751 10750 ] final  170.19 input  -60.55 | X-H torsion
[ 11005 11000 10999 10996 ] final -107.12 input  -57.11 | X-H torsion

> <Gold.Protein.ActiveResidues>
 VAL166  LYS551  ARG553  GLY616  TRP617  ASP618  TYR619  PRO620  LYS621  CYS622 
 ASP623  PHE694  ASN695  SER759  ASP760  ASP761  ALA762  ILE779  LEU786  VAL792 
 PHE793  MET794  SER795  GLU796  ALA797  LYS798  CYS799  TRP800  GLU811  SER814 

> <Gold.Protein.RotatedAtoms>
  150.6880  134.2466  159.4493 H   0  0  0  0  0  0  0  0  0  0  0  0  # atno 6907 bound_to 6896
  152.0407  134.9710  160.0583 H   0  0  0  0  0  0  0  0  0  0  0  0  # atno 6908 bound_to 6896
  152.1213  133.4320  159.4714 H   0  0  0  0  0  0  0  0  0  0  0  0  # atno 6909 bound_to 6896
  145.5728  139.2316  143.2396 H   0  0  0  0  0  0  0  0  0  0  0  0  # atno 7974 bound_to 7965
  155.2918  140.3379  155.4252 H   0  0  0  0  0  0  0  0  0  0  0  0  # atno 8008 bound_to 7997
  156.2042  140.1744  156.7874 H   0  0  0  0  0  0  0  0  0  0  0  0  # atno 8009 bound_to 7997
  154.5599  140.0689  156.8787 H   0  0  0  0  0  0  0  0  0  0  0  0  # atno 8010 bound_to 7997
  140.7117  143.3340  151.2504 H   0  0  0  0  0  0  0  0  0  0  0  0  # atno 10167 bound_to 10162
  156.2206  130.4166  149.8997 H   0  0  0  0  0  0  0  0  0  0  0  0  # atno 10718 bound_to 10713
  154.3940  135.2754  155.2137 H   0  0  0  0  0  0  0  0  0  0  0  0  # atno 10763 bound_to 10752
  154.4191  135.6004  153.6002 H   0  0  0  0  0  0  0  0  0  0  0  0  # atno 10764 bound_to 10752
  152.9831  135.5968  154.4199 H   0  0  0  0  0  0  0  0  0  0  0  0  # atno 10765 bound_to 10752
  141.0970  133.8953  157.1938 H   0  0  0  0  0  0  0  0  0  0  0  0  # atno 11005 bound_to 11000
  146.1772  140.6554  142.9206 LP  0  0  0  0  0  0  0  0  0  0  0  0  # atno 17320 bound_to 7965
  144.7430  140.4992  143.6856 LP  0  0  0  0  0  0  0  0  0  0  0  0  # atno 17321 bound_to 7965
  139.6830  143.9822  152.2819 LP  0  0  0  0  0  0  0  0  0  0  0  0  # atno 17342 bound_to 10162
  139.9458  144.6652  150.8221 LP  0  0  0  0  0  0  0  0  0  0  0  0  # atno 17343 bound_to 10162
  156.6645  130.8795  151.3552 LP  0  0  0  0  0  0  0  0  0  0  0  0  # atno 17370 bound_to 10713
  157.7086  130.9413  150.1012 LP  0  0  0  0  0  0  0  0  0  0  0  0  # atno 17371 bound_to 10713
  139.9810  135.0098  156.9748 LP  0  0  0  0  0  0  0  0  0  0  0  0  # atno 17394 bound_to 11000
  140.5116  134.0997  155.7271 LP  0  0  0  0  0  0  0  0  0  0  0  0  # atno 17395 bound_to 11000

$$$$
