AV-unprocessed.smi:2797|AV-procd|sdf|10784|dock6
  -GOLD-   2272015223D 1   1.00000     0.00000
 Structure written by MMmdl.
 38 39  0  0  0  0  0  0  0  0  2 V2000
  151.2847  135.3020  156.4981 C   0  0  0  0  0  0  0  0  0  0  0  0
  151.2809  136.0760  155.3043 O   0  0  0  0  0  0  0  0  0  0  0  0
  150.5632  137.3151  155.3289 C   0  0  0  0  0  0  0  0  0  0  0  0
  149.0640  137.0917  155.5687 C   0  0  0  0  0  0  0  0  0  0  0  0
  148.4274  136.4947  154.3986 N   0  0  0  0  0  0  0  0  0  0  0  0
  147.1303  136.1746  154.2943 C   0  0  0  0  0  0  0  0  0  0  0  0
  146.3206  136.2980  155.2124 O   0  0  0  0  0  0  0  0  0  0  0  0
  146.8473  135.6929  153.0723 N   0  0  0  0  0  0  0  0  0  0  0  0
  145.5928  135.2617  152.5559 C   0  0  0  0  0  0  0  0  0  0  0  0
  144.3716  135.9270  152.8333 C   0  0  0  0  0  0  0  0  0  0  0  0
  143.1759  135.4453  152.2666 C   0  0  0  0  0  0  0  0  0  0  0  0
  143.2015  134.3660  151.4576 N   0  3  0  0  0  0  0  0  0  0  0  0
  144.3387  133.7050  151.1478 C   0  0  0  0  0  0  0  0  0  0  0  0
  144.2291  132.5116  150.2187 C   0  0  0  0  0  0  0  0  0  0  0  0
  145.5716  134.1412  151.6882 C   0  0  0  0  0  0  0  0  0  0  0  0
  147.0361  133.3055  151.2931 Cl  0  0  0  0  0  0  0  0  0  0  0  0
  151.3179  138.2389  156.3047 C   0  0  0  0  0  0  0  0  0  0  0  0
  152.1480  138.7566  155.1287 C   0  0  0  0  0  0  0  0  0  0  0  0
  151.0187  138.2820  154.2131 C   0  0  0  0  0  0  0  0  0  0  0  0
  151.9183  134.4283  156.3470 H   0  0  0  0  0  0  0  0  0  0  0  0
  150.2923  134.9364  156.7564 H   0  0  0  0  0  0  0  0  0  0  0  0
  151.6863  135.8465  157.3508 H   0  0  0  0  0  0  0  0  0  0  0  0
  148.9235  136.3959  156.3962 H   0  0  0  0  0  0  0  0  0  0  0  0
  148.5602  138.0070  155.8793 H   0  0  0  0  0  0  0  0  0  0  0  0
  149.0184  136.3482  153.5934 H   0  0  0  0  0  0  0  0  0  0  0  0
  147.6355  135.5639  152.4548 H   0  0  0  0  0  0  0  0  0  0  0  0
  144.3291  136.8054  153.4587 H   0  0  0  0  0  0  0  0  0  0  0  0
  142.2064  135.8933  152.4299 H   0  0  0  0  0  0  0  0  0  0  0  0
  144.5927  131.6107  150.7137 H   0  0  0  0  0  0  0  0  0  0  0  0
  144.8238  132.6752  149.3196 H   0  0  0  0  0  0  0  0  0  0  0  0
  143.1967  132.3362  149.9137 H   0  0  0  0  0  0  0  0  0  0  0  0
  150.6793  139.0127  156.7343 H   0  0  0  0  0  0  0  0  0  0  0  0
  151.8914  137.7252  157.0773 H   0  0  0  0  0  0  0  0  0  0  0  0
  152.3176  139.8336  155.1259 H   0  0  0  0  0  0  0  0  0  0  0  0
  153.0736  138.1972  154.9849 H   0  0  0  0  0  0  0  0  0  0  0  0
  151.3562  137.8344  153.2800 H   0  0  0  0  0  0  0  0  0  0  0  0
  150.2885  139.0698  154.0205 H   0  0  0  0  0  0  0  0  0  0  0  0
  142.3227  134.0372  151.0568 H   0  0  0  0  0  0  0  0  0  0  0  0
  1  2  1  0  0  0  0
  1 20  1  0  0  0  0
  1 21  1  0  0  0  0
  1 22  1  0  0  0  0
  2  3  1  0  0  0  0
  3 19  1  0  0  0  0
  3  4  1  0  0  0  0
  3 17  1  0  0  0  0
  4  5  1  0  0  0  0
  4 23  1  0  0  0  0
  4 24  1  0  0  0  0
  5  6  1  0  0  0  0
  5 25  1  0  0  0  0
  6  7  2  0  0  0  0
  6  8  1  0  0  0  0
  8  9  1  0  0  0  0
  8 26  1  0  0  0  0
  9 15  1  0  0  0  0
  9 10  2  0  0  0  0
 10 11  1  0  0  0  0
 10 27  1  0  0  0  0
 11 12  2  0  0  0  0
 11 28  1  0  0  0  0
 12 13  1  0  0  0  0
 12 38  1  0  0  0  0
 13 14  1  0  0  0  0
 13 15  2  0  0  0  0
 14 29  1  0  0  0  0
 14 30  1  0  0  0  0
 14 31  1  0  0  0  0
 15 16  1  0  0  0  0
 17 18  1  0  0  0  0
 17 32  1  0  0  0  0
 17 33  1  0  0  0  0
 18 19  1  0  0  0  0
 18 34  1  0  0  0  0
 18 35  1  0  0  0  0
 19 36  1  0  0  0  0
 19 37  1  0  0  0  0
M  CHG  1  12   1
M  END
> <s_m_source_file>
AV-unprocessed.smi

> <i_m_source_file_index>
2797

> <i_lp_mmshare_version>
43012

> <i_f3d_flags>
0

> <s_epik_input>
W0NIMl0xW0NIMl1bQ0gyXUMxKE9bQ0gzXSlbQ0gyXVtOSF1DKD1PKVtOSF1jMltjSF1bY0hdbmMoW0NIM10pYzJDbA==

> <s_epik_cmdline>
J2VwaWtfcHl0aG9uJywgJy1waCcsICc3LjAnLCAnLXRuJywgJzgnLCAnLW1hJywgJzIwMCcsICctbWV0YWxfYmluZGluZycsICctaW1hZScsICc8aW5maWxlLm1hZT4nLCAnLW9tYWUnLCAnPG91dGZpbGUubWFlPic=

> <r_epik_Ionization_Penalty>
2.42651

> <r_epik_Ionization_Penalty_Charging>
2.42649

> <r_epik_Ionization_Penalty_Neutral>
1.93283e-05

> <r_epik_State_Penalty>
2.58622

> <r_epik_Charging_Adjusted_Penalty>
5.01271

> <i_epik_Tot_Q>
1

> <i_epik_Tot_abs_Q>
1

> <r_epik_Metal_State_Penalty>
2.59605

> <b_epik_Metal_Only>
0

> <s_lp_Force_Field>
OPLS_2005

> <r_lp_Energy>
25.6694

> <b_lp_Chiralities_Consistent>
1

> <s_lp_Variant>
AV-unprocessed.smi:2797-2

> <Gold.Version>
5.8.1

> <Gold.Id.Protein>
6NUR|6NUR_protein|mol2

> <Gold.PLP.Fitness>
40.7545

> <Gold.PLP.PLP>
-27.9271

> <Gold.PLP.part.hbond>
-3.8217

> <Gold.PLP.part.metal>
0.0000

> <Gold.PLP.part.buried>
-3.9971

> <Gold.PLP.part.nonpolar>
-19.6808

> <Gold.PLP.part.repulsive>
0.1453

> <Gold.PLP.ligand.clash>
0.0000

> <Gold.PLP.ligand.torsion>
0.4832

> <Gold.PLP.Chemscore.Hbond>
4.5040

> <Gold.PLP.Chemscore.CHOScore>
0.0000

> <Gold.PLP.Chemscore.Metal>
0.0000

> <Gold.Chemscore.Hbonds>
donor molecule, donor type, donor heavy atom, donor atom, acceptor molecule, acceptor atom, score
      L1  H     5    25       P1  7948  0.86
      L1  H     8    26       P1  7948  0.94
      L1  H    12    38       P1 10186  1.70
      P1  H 10752 10763       L1     2  1.00

> <Gold.PLP.Chemscore.Internal.Correction>
0.2818

> <Gold.Rescore>
     Score         DG    S(hbond)    S(metal)    S(lipo)     H(rot)  DE(clash)    DE(int)     intcor
     18.81     -20.26       3.05        0.00      70.70       1.44       0.41       1.04       ----

> <Gold.Chemscore.Fitness>
18.8115

> <Gold.Chemscore.DG>
-20.2610

> <Gold.Chemscore.ZeroCoef>
-5.4800

> <Gold.Chemscore.Hbond>
3.0505

> <Gold.Chemscore.Metal>
0.0000

> <Gold.Chemscore.Lipo>
70.7038

> <Gold.Chemscore.Internal_Hbond>
0.0000

> <Gold.Chemscore.DEClash>
0.4074

> <Gold.Chemscore.DEInternal>
1.0420

> <Gold.Chemscore.Rot>
1.4375

> <Gold.Chemscore.Internal.Correction>
   9.000000E+99

> <Gold.Chemscore.Hbonds>
donor molecule, donor type, donor heavy atom, donor atom, acceptor molecule, acceptor atom, score
      L1  H     5    25       P1  7948  0.84
      L1  H     8    26       P1  7948  0.88
      L1  H    12    38       P1 10186  0.20
      P1  H 10752 10763       L1     2  0.26

> <Gold.Chemscore.Hbond.Weighted>
-10.1886

> <Gold.Chemscore.Metal.Weighted>
-0.0000

> <Gold.Chemscore.Lipo.Weighted>
-8.2723

> <Gold.Chemscore.Internal_Hbond.Weighted>
0.0000

> <Gold.Chemscore.DEClash.Weighted>
0.4074

> <Gold.Chemscore.DEInternal.Weighted>
1.0420

> <Gold.Chemscore.Rot.Weighted>
3.6800

> <Gold.Chemscore.Internal.Correction.Weighted>
   9.000000E+99

> <Gold.Protein.RotatedTorsions>
[ 6907 6896 6895 6894 ] final    3.09 input  -60.11 | X-H torsion
[ 7974 7965 7964 7962 ] final  -34.54 input  175.53 | X-H torsion
[ 8008 7997 7996 7995 ] final -101.41 input   59.86 | X-H torsion
[ 10167 10162 10161 10158 ] final   45.72 input  -65.29 | X-H torsion
[ 10718 10713 10712 10709 ] final -171.90 input   66.30 | X-H torsion
[ 10763 10752 10751 10750 ] final   58.84 input  -60.55 | X-H torsion
[ 11005 11000 10999 10996 ] final  164.09 input  -57.11 | X-H torsion

> <Gold.Protein.ActiveResidues>
 VAL166  LYS551  ARG553  GLY616  TRP617  ASP618  TYR619  PRO620  LYS621  CYS622 
 ASP623  PHE694  ASN695  SER759  ASP760  ASP761  ALA762  ILE779  LEU786  VAL792 
 PHE793  MET794  SER795  GLU796  ALA797  LYS798  CYS799  TRP800  GLU811  SER814 

> <Gold.Protein.RotatedAtoms>
  151.6195  135.1033  160.0098 H   0  0  0  0  0  0  0  0  0  0  0  0  # atno 6907 bound_to 6896
  152.4165  133.7043  159.6452 H   0  0  0  0  0  0  0  0  0  0  0  0  # atno 6908 bound_to 6896
  150.8053  133.8447  159.3230 H   0  0  0  0  0  0  0  0  0  0  0  0  # atno 6909 bound_to 6896
  146.0821  140.6051  142.8903 H   0  0  0  0  0  0  0  0  0  0  0  0  # atno 7974 bound_to 7965
  154.8422  140.0434  157.1549 H   0  0  0  0  0  0  0  0  0  0  0  0  # atno 8008 bound_to 7997
  154.9034  140.3003  155.5285 H   0  0  0  0  0  0  0  0  0  0  0  0  # atno 8009 bound_to 7997
  156.2993  140.2371  156.4064 H   0  0  0  0  0  0  0  0  0  0  0  0  # atno 8010 bound_to 7997
  140.3212  144.2703  150.6182 H   0  0  0  0  0  0  0  0  0  0  0  0  # atno 10167 bound_to 10162
  156.7476  130.9366  151.3113 H   0  0  0  0  0  0  0  0  0  0  0  0  # atno 10718 bound_to 10713
  152.9880  135.5593  154.5616 H   0  0  0  0  0  0  0  0  0  0  0  0  # atno 10763 bound_to 10752
  154.5034  135.2798  155.1404 H   0  0  0  0  0  0  0  0  0  0  0  0  # atno 10764 bound_to 10752
  154.2825  135.6342  153.5406 H   0  0  0  0  0  0  0  0  0  0  0  0  # atno 10765 bound_to 10752
  140.2424  134.8040  157.3423 H   0  0  0  0  0  0  0  0  0  0  0  0  # atno 11005 bound_to 11000
  144.7300  140.4642  143.6945 LP  0  0  0  0  0  0  0  0  0  0  0  0  # atno 17320 bound_to 7965
  145.6199  139.1523  143.3028 LP  0  0  0  0  0  0  0  0  0  0  0  0  # atno 17321 bound_to 7965
  140.5482  143.2211  151.7972 LP  0  0  0  0  0  0  0  0  0  0  0  0  # atno 17342 bound_to 10162
  139.4874  144.4512  151.9652 LP  0  0  0  0  0  0  0  0  0  0  0  0  # atno 17343 bound_to 10162
  157.6791  130.9123  150.0223 LP  0  0  0  0  0  0  0  0  0  0  0  0  # atno 17370 bound_to 10713
  156.1423  130.3642  149.9564 LP  0  0  0  0  0  0  0  0  0  0  0  0  # atno 17371 bound_to 10713
  140.1640  134.4693  155.7875 LP  0  0  0  0  0  0  0  0  0  0  0  0  # atno 17394 bound_to 11000
  141.2209  133.6913  156.7593 LP  0  0  0  0  0  0  0  0  0  0  0  0  # atno 17395 bound_to 11000

$$$$
