AV-unprocessed.smi:551|AV-procd|sdf|2901|dock2
  -GOLD-   2262023393D 1   1.00000     0.00000
 Structure written by MMmdl.
 38 39  0  0  0  0  0  0  0  0  1 V2000
  147.6765  141.5733  155.4999 C   0  0  0  0  0  0  0  0  0  0  0  0
  149.0021  140.9047  155.8880 C   0  0  1  0  0  0  0  0  0  0  0  0
  149.7431  140.3628  154.6476 C   0  0  0  0  0  0  0  0  0  0  0  0
  150.7519  139.3747  154.9843 N   0  0  0  0  0  0  0  0  0  0  0  0
  150.8414  138.0726  154.5090 C   0  0  0  0  0  0  0  0  0  0  0  0
  151.9573  137.5172  155.0928 C   0  0  0  0  0  0  0  0  0  0  0  0
  152.5623  138.4513  155.9304 N   0  0  0  0  0  0  0  0  0  0  0  0
  151.7923  139.5256  155.8153 C   0  0  0  0  0  0  0  0  0  0  0  0
  149.8315  141.8732  156.6039 N   0  0  0  0  0  0  0  0  0  0  0  0
  150.4637  141.6549  157.7683 C   0  0  0  0  0  0  0  0  0  0  0  0
  150.3860  140.5967  158.3933 O   0  0  0  0  0  0  0  0  0  0  0  0
  151.3323  142.8030  158.2980 C   0  0  0  0  0  0  0  0  0  0  0  0
  152.0955  142.3677  159.5671 C   0  0  0  0  0  0  0  0  0  0  0  0
  152.9606  143.5120  160.1199 C   0  0  0  0  0  0  0  0  0  0  0  0
  152.1155  144.7657  160.3955 C   0  0  0  0  0  0  0  0  0  0  0  0
  151.3462  145.2044  159.1392 C   0  0  0  0  0  0  0  0  0  0  0  0
  150.4818  144.0587  158.5874 C   0  0  0  0  0  0  0  0  0  0  0  0
  147.0184  140.8702  154.9886 H   0  0  0  0  0  0  0  0  0  0  0  0
  147.8386  142.4215  154.8339 H   0  0  0  0  0  0  0  0  0  0  0  0
  147.1470  141.9372  156.3811 H   0  0  0  0  0  0  0  0  0  0  0  0
  148.7587  140.0659  156.5428 H   0  0  0  0  0  0  0  0  0  0  0  0
  149.0352  139.8966  153.9611 H   0  0  0  0  0  0  0  0  0  0  0  0
  150.2191  141.1766  154.0988 H   0  0  0  0  0  0  0  0  0  0  0  0
  150.1281  137.6627  153.8093 H   0  0  0  0  0  0  0  0  0  0  0  0
  152.3674  136.5249  154.9756 H   0  0  0  0  0  0  0  0  0  0  0  0
  151.9923  140.4462  156.3438 H   0  0  0  0  0  0  0  0  0  0  0  0
  149.9567  142.7737  156.1647 H   0  0  0  0  0  0  0  0  0  0  0  0
  152.0660  143.0603  157.5316 H   0  0  0  0  0  0  0  0  0  0  0  0
  151.3932  142.0445  160.3374 H   0  0  0  0  0  0  0  0  0  0  0  0
  152.7283  141.5064  159.3483 H   0  0  0  0  0  0  0  0  0  0  0  0
  153.4603  143.1920  161.0345 H   0  0  0  0  0  0  0  0  0  0  0  0
  153.7485  143.7523  159.4051 H   0  0  0  0  0  0  0  0  0  0  0  0
  151.4107  144.5605  161.2024 H   0  0  0  0  0  0  0  0  0  0  0  0
  152.7559  145.5771  160.7426 H   0  0  0  0  0  0  0  0  0  0  0  0
  150.7185  146.0656  159.3698 H   0  0  0  0  0  0  0  0  0  0  0  0
  152.0512  145.5318  158.3741 H   0  0  0  0  0  0  0  0  0  0  0  0
  149.9776  144.3886  157.6784 H   0  0  0  0  0  0  0  0  0  0  0  0
  149.6965  143.8248  159.3083 H   0  0  0  0  0  0  0  0  0  0  0  0
  1  2  1  0  0  0  0
  1 18  1  0  0  0  0
  1 19  1  0  0  0  0
  1 20  1  0  0  0  0
  2  3  1  0  0  0  0
  2  9  1  0  0  0  0
  2 21  1  0  0  0  0
  3  4  1  0  0  0  0
  3 22  1  0  0  0  0
  3 23  1  0  0  0  0
  4  8  1  0  0  0  0
  4  5  1  0  0  0  0
  5  6  2  0  0  0  0
  5 24  1  0  0  0  0
  6  7  1  0  0  0  0
  6 25  1  0  0  0  0
  7  8  2  0  0  0  0
  8 26  1  0  0  0  0
  9 10  1  0  0  0  0
  9 27  1  0  0  0  0
 10 11  2  0  0  0  0
 10 12  1  0  0  0  0
 12 17  1  0  0  0  0
 12 13  1  0  0  0  0
 12 28  1  0  0  0  0
 13 14  1  0  0  0  0
 13 29  1  0  0  0  0
 13 30  1  0  0  0  0
 14 15  1  0  0  0  0
 14 31  1  0  0  0  0
 14 32  1  0  0  0  0
 15 16  1  0  0  0  0
 15 33  1  0  0  0  0
 15 34  1  0  0  0  0
 16 17  1  0  0  0  0
 16 35  1  0  0  0  0
 16 36  1  0  0  0  0
 17 37  1  0  0  0  0
 17 38  1  0  0  0  0
M  END
> <s_m_source_file>
AV-unprocessed.smi

> <i_m_source_file_index>
551

> <i_lp_mmshare_version>
43012

> <i_f3d_flags>
0

> <s_epik_input>
W2NIXTFuW2NIXVtjSF1uMVtDSDJdW0NAQEhdKFtDSDNdKVtOSF1DKD1PKVtDSF0yW0NIMl1bQ0gyXVtDSDJdW0NIMl1bQ0gyXTI=

> <s_epik_cmdline>
J2VwaWtfcHl0aG9uJywgJy1waCcsICc3LjAnLCAnLXRuJywgJzgnLCAnLW1hJywgJzIwMCcsICctbWV0YWxfYmluZGluZycsICctaW1hZScsICc8aW5maWxlLm1hZT4nLCAnLW9tYWUnLCAnPG91dGZpbGUubWFlPic=

> <r_lp_tautomer_probability>
1

> <r_epik_Ionization_Penalty>
0.642614

> <r_epik_Ionization_Penalty_Charging>
0.642614

> <r_epik_Ionization_Penalty_Neutral>
3.29891e-08

> <r_epik_State_Penalty>
0.660429

> <r_epik_Charging_Adjusted_Penalty>
1.30304

> <i_epik_Tot_Q>
0

> <i_epik_Tot_abs_Q>
0

> <r_epik_Metal_State_Penalty>
0.31224

> <b_epik_Metal_Only>
0

> <s_lp_Force_Field>
OPLS_2005

> <r_lp_Energy>
12.4308

> <b_lp_Chiralities_Consistent>
1

> <s_lp_Variant>
AV-unprocessed.smi:551-4

> <Gold.Version>
5.8.1

> <Gold.Id.Protein>
6NUR|6NUR_protein|mol2

> <Gold.PLP.Fitness>
44.3890

> <Gold.PLP.PLP>
-38.9734

> <Gold.PLP.part.hbond>
-1.0000

> <Gold.PLP.part.metal>
0.0000

> <Gold.PLP.part.buried>
-3.5161

> <Gold.PLP.part.nonpolar>
-34.5640

> <Gold.PLP.part.repulsive>
0.0480

> <Gold.PLP.ligand.clash>
0.0000

> <Gold.PLP.ligand.torsion>
0.3301

> <Gold.PLP.Chemscore.Hbond>
1.0000

> <Gold.PLP.Chemscore.CHOScore>
1.0000

> <Gold.PLP.Chemscore.Metal>
0.0000

> <Gold.Chemscore.Hbonds>
donor molecule, donor type, donor heavy atom, donor atom, acceptor molecule, acceptor atom, score
      L1  H     9    27       P1  8028  0.32
      L1  C     5    24       P1  7948  0.71

> <Gold.PLP.Chemscore.Internal.Correction>
0.0757

> <Gold.Rescore>
     Score         DG    S(hbond)    S(metal)    S(lipo)     H(rot)  DE(clash)    DE(int)     intcor
     15.25     -15.69       0.94        0.00      98.27       1.73       0.07       0.37       ----

> <Gold.Chemscore.Fitness>
15.2519

> <Gold.Chemscore.DG>
-15.6924

> <Gold.Chemscore.ZeroCoef>
-5.4800

> <Gold.Chemscore.Hbond>
0.9427

> <Gold.Chemscore.Metal>
0.0000

> <Gold.Chemscore.Lipo>
98.2705

> <Gold.Chemscore.Internal_Hbond>
0.0000

> <Gold.Chemscore.DEClash>
0.0659

> <Gold.Chemscore.DEInternal>
0.3746

> <Gold.Chemscore.Rot>
1.7319

> <Gold.Chemscore.Internal.Correction>
   9.000000E+99

> <Gold.Chemscore.Hbonds>
donor molecule, donor type, donor heavy atom, donor atom, acceptor molecule, acceptor atom, score
      L1  H     9    27       P1  8028  0.32

> <Gold.Chemscore.Hbond.Weighted>
-3.1486

> <Gold.Chemscore.Metal.Weighted>
-0.0000

> <Gold.Chemscore.Lipo.Weighted>
-11.4977

> <Gold.Chemscore.Internal_Hbond.Weighted>
0.0000

> <Gold.Chemscore.DEClash.Weighted>
0.0659

> <Gold.Chemscore.DEInternal.Weighted>
0.3746

> <Gold.Chemscore.Rot.Weighted>
4.4338

> <Gold.Chemscore.Internal.Correction.Weighted>
   9.000000E+99

> <Gold.Protein.RotatedTorsions>
[ 6907 6896 6895 6894 ] final -102.78 input  -60.11 | X-H torsion
[ 7974 7965 7964 7962 ] final  -88.10 input  175.53 | X-H torsion
[ 8008 7997 7996 7995 ] final -158.78 input   59.86 | X-H torsion
[ 10167 10162 10161 10158 ] final  135.37 input  -65.29 | X-H torsion
[ 10718 10713 10712 10709 ] final   87.95 input   66.30 | X-H torsion
[ 10763 10752 10751 10750 ] final  -39.63 input  -60.55 | X-H torsion
[ 11005 11000 10999 10996 ] final   92.03 input  -57.11 | X-H torsion

> <Gold.Protein.ActiveResidues>
 VAL166  LYS551  ARG553  GLY616  TRP617  ASP618  TYR619  PRO620  LYS621  CYS622 
 ASP623  PHE694  ASN695  SER759  ASP760  ASP761  ALA762  ILE779  LEU786  VAL792 
 PHE793  MET794  SER795  GLU796  ALA797  LYS798  CYS799  TRP800  GLU811  SER814 

> <Gold.Protein.RotatedAtoms>
  150.7211  134.0529  159.3804 H   0  0  0  0  0  0  0  0  0  0  0  0  # atno 6907 bound_to 6896
  151.8507  135.0556  160.0468 H   0  0  0  0  0  0  0  0  0  0  0  0  # atno 6908 bound_to 6896
  152.2793  133.5419  159.5524 H   0  0  0  0  0  0  0  0  0  0  0  0  # atno 6909 bound_to 6896
  145.4576  140.9561  143.1987 H   0  0  0  0  0  0  0  0  0  0  0  0  # atno 7974 bound_to 7965
  155.7526  140.0828  157.2194 H   0  0  0  0  0  0  0  0  0  0  0  0  # atno 8008 bound_to 7997
  154.4010  140.1557  156.2798 H   0  0  0  0  0  0  0  0  0  0  0  0  # atno 8009 bound_to 7997
  155.8915  140.3415  155.5963 H   0  0  0  0  0  0  0  0  0  0  0  0  # atno 8010 bound_to 7997
  139.5219  144.6520  151.5274 H   0  0  0  0  0  0  0  0  0  0  0  0  # atno 10167 bound_to 10162
  157.6945  131.0276  150.3201 H   0  0  0  0  0  0  0  0  0  0  0  0  # atno 10718 bound_to 10713
  153.9326  135.6770  153.4745 H   0  0  0  0  0  0  0  0  0  0  0  0  # atno 10763 bound_to 10752
  153.0972  135.4846  154.8797 H   0  0  0  0  0  0  0  0  0  0  0  0  # atno 10764 bound_to 10752
  154.7420  135.3163  154.8669 H   0  0  0  0  0  0  0  0  0  0  0  0  # atno 10765 bound_to 10752
  139.8829  134.8709  156.3513 H   0  0  0  0  0  0  0  0  0  0  0  0  # atno 11005 bound_to 11000
  144.8022  139.6118  143.7066 LP  0  0  0  0  0  0  0  0  0  0  0  0  # atno 17320 bound_to 7965
  146.2469  139.6117  142.9453 LP  0  0  0  0  0  0  0  0  0  0  0  0  # atno 17321 bound_to 7965
  140.6329  143.9041  150.6621 LP  0  0  0  0  0  0  0  0  0  0  0  0  # atno 17342 bound_to 10162
  140.2351  143.3706  152.1533 LP  0  0  0  0  0  0  0  0  0  0  0  0  # atno 17343 bound_to 10162
  156.3689  130.3860  149.7191 LP  0  0  0  0  0  0  0  0  0  0  0  0  # atno 17370 bound_to 10713
  156.4612  130.7952  151.2973 LP  0  0  0  0  0  0  0  0  0  0  0  0  # atno 17371 bound_to 10713
  140.9592  133.7400  156.0378 LP  0  0  0  0  0  0  0  0  0  0  0  0  # atno 17394 bound_to 11000
  140.8011  134.3508  157.5439 LP  0  0  0  0  0  0  0  0  0  0  0  0  # atno 17395 bound_to 11000

$$$$
