AV-unprocessed.smi:2124|AV-procd|sdf|8667|dock9
  -GOLD-   2272011413D 1   1.00000     0.00000
 Structure written by MMmdl.
 46 48  0  0  0  0  0  0  0  0  2 V2000
  149.8329  134.4815  154.5687 C   0  0  0  0  0  0  0  0  0  0  0  0
  150.1140  135.9373  154.8742 C   0  0  0  0  0  0  0  0  0  0  0  0
  149.1702  136.6776  155.3173 N   0  0  0  0  0  0  0  0  0  0  0  0
  149.4265  138.0304  155.5992 C   0  0  0  0  0  0  0  0  0  0  0  0
  148.2468  138.8356  156.1156 C   0  0  0  0  0  0  0  0  0  0  0  0
  150.6656  138.5678  155.4093 C   0  0  0  0  0  0  0  0  0  0  0  0
  150.9981  140.0334  155.6894 C   0  0  0  0  0  0  0  0  0  0  0  0
  150.8960  140.4907  157.1468 C   0  0  0  0  0  0  0  0  0  0  0  0
  149.8314  140.4115  157.7609 O   0  0  0  0  0  0  0  0  0  0  0  0
  152.0247  140.9774  157.6842 N   0  0  0  0  0  0  0  0  0  0  0  0
  152.1681  141.4978  159.0418 C   0  0  1  0  0  0  0  0  0  0  0  0
  153.1682  140.6238  159.8159 C   0  0  0  0  0  0  0  0  0  0  0  0
  152.6051  142.9806  158.9888 C   0  0  2  0  0  0  0  0  0  0  0  0
  152.6754  143.6869  160.3615 C   0  0  0  0  0  0  0  0  0  0  0  0
  151.8742  144.9817  160.1275 C   0  0  2  0  0  0  0  0  0  0  0  0
  150.3741  144.6403  160.0601 C   0  0  0  0  0  0  0  0  0  0  0  0
  150.2488  143.9391  158.6955 C   0  0  0  0  0  0  0  0  0  0  0  0
  151.7014  143.9417  158.1750 C   0  0  1  0  0  0  0  0  0  0  0  0
  152.1911  145.2986  158.6705 C   0  0  0  0  0  0  0  0  0  0  0  0
  151.7284  137.6781  154.9092 C   0  0  0  0  0  0  0  0  0  0  0  0
  152.8690  138.1079  154.7406 O   0  0  0  0  0  0  0  0  0  0  0  0
  151.3984  136.3804  154.6511 N   0  5  0  0  0  0  0  0  0  0  0  0
  148.7752  134.2492  154.6996 H   0  0  0  0  0  0  0  0  0  0  0  0
  150.4096  133.8385  155.2340 H   0  0  0  0  0  0  0  0  0  0  0  0
  150.1078  134.2501  153.5391 H   0  0  0  0  0  0  0  0  0  0  0  0
  148.4946  139.3215  157.0593 H   0  0  0  0  0  0  0  0  0  0  0  0
  147.3789  138.1981  156.2873 H   0  0  0  0  0  0  0  0  0  0  0  0
  147.9630  139.6013  155.3941 H   0  0  0  0  0  0  0  0  0  0  0  0
  151.9949  140.2692  155.3142 H   0  0  0  0  0  0  0  0  0  0  0  0
  150.3285  140.6620  155.1026 H   0  0  0  0  0  0  0  0  0  0  0  0
  152.8497  140.9982  157.1025 H   0  0  0  0  0  0  0  0  0  0  0  0
  151.2105  141.4379  159.5605 H   0  0  0  0  0  0  0  0  0  0  0  0
  153.2819  140.9650  160.8447 H   0  0  0  0  0  0  0  0  0  0  0  0
  154.1538  140.6385  159.3496 H   0  0  0  0  0  0  0  0  0  0  0  0
  152.8342  139.5862  159.8529 H   0  0  0  0  0  0  0  0  0  0  0  0
  153.5993  143.0165  158.5389 H   0  0  0  0  0  0  0  0  0  0  0  0
  152.2512  143.0925  161.1716 H   0  0  0  0  0  0  0  0  0  0  0  0
  153.7106  143.9089  160.6238 H   0  0  0  0  0  0  0  0  0  0  0  0
  152.1094  145.7765  160.8359 H   0  0  0  0  0  0  0  0  0  0  0  0
  150.0561  144.0032  160.8863 H   0  0  0  0  0  0  0  0  0  0  0  0
  149.7664  145.5458  160.0825 H   0  0  0  0  0  0  0  0  0  0  0  0
  149.8158  142.9421  158.7701 H   0  0  0  0  0  0  0  0  0  0  0  0
  149.6073  144.5193  158.0312 H   0  0  0  0  0  0  0  0  0  0  0  0
  151.7761  143.8032  157.0960 H   0  0  0  0  0  0  0  0  0  0  0  0
  151.6172  146.1386  158.2749 H   0  0  0  0  0  0  0  0  0  0  0  0
  153.2528  145.4730  158.4865 H   0  0  0  0  0  0  0  0  0  0  0  0
  1  2  1  0  0  0  0
  1 23  1  0  0  0  0
  1 24  1  0  0  0  0
  1 25  1  0  0  0  0
  2 22  1  0  0  0  0
  2  3  2  0  0  0  0
  3  4  1  0  0  0  0
  4  5  1  0  0  0  0
  4  6  2  0  0  0  0
  5 26  1  0  0  0  0
  5 27  1  0  0  0  0
  5 28  1  0  0  0  0
  6  7  1  0  0  0  0
  6 20  1  0  0  0  0
  7  8  1  0  0  0  0
  7 29  1  0  0  0  0
  7 30  1  0  0  0  0
  8  9  2  0  0  0  0
  8 10  1  0  0  0  0
 10 11  1  0  0  0  0
 10 31  1  0  0  0  0
 11 12  1  0  0  0  0
 11 13  1  0  0  0  0
 11 32  1  0  0  0  0
 12 33  1  0  0  0  0
 12 34  1  0  0  0  0
 12 35  1  0  0  0  0
 13 18  1  0  0  0  0
 13 14  1  0  0  0  0
 13 36  1  0  0  0  0
 14 15  1  0  0  0  0
 14 37  1  0  0  0  0
 14 38  1  0  0  0  0
 15 19  1  0  0  0  0
 15 16  1  0  0  0  0
 15 39  1  0  0  0  0
 16 17  1  0  0  0  0
 16 40  1  0  0  0  0
 16 41  1  0  0  0  0
 17 18  1  0  0  0  0
 17 42  1  0  0  0  0
 17 43  1  0  0  0  0
 18 19  1  0  0  0  0
 18 44  1  0  0  0  0
 19 45  1  0  0  0  0
 19 46  1  0  0  0  0
 20 21  2  0  0  0  0
 20 22  1  0  0  0  0
M  CHG  1  22  -1
M  END
> <s_m_source_file>
AV-unprocessed.smi

> <i_m_source_file_index>
2124

> <i_lp_mmshare_version>
43012

> <i_f3d_flags>
0

> <s_epik_input>
W0NIM11jMW5jKFtDSDNdKWMoYyg9TylbbkhdMSlbQ0gyXUMoPU8pW05IXVtDQEhdKFtDSDNdKVtDQEhdKFtDSDJdW0NASF0yMylbQ0BIXShbQ0gyXTMpW0NIMl1bQ0gyXTI=

> <s_epik_cmdline>
J2VwaWtfcHl0aG9uJywgJy1waCcsICc3LjAnLCAnLXRuJywgJzgnLCAnLW1hJywgJzIwMCcsICctbWV0YWxfYmluZGluZycsICctaW1hZScsICc8aW5maWxlLm1hZT4nLCAnLW9tYWUnLCAnPG91dGZpbGUubWFlPic=

> <r_lp_tautomer_probability>
0.839158

> <r_epik_Ionization_Penalty>
6.63797

> <r_epik_Ionization_Penalty_Charging>
7.48558e-08

> <r_epik_Ionization_Penalty_Neutral>
6.63797

> <r_epik_State_Penalty>
4.49496

> <r_epik_Charging_Adjusted_Penalty>
4.49496

> <i_epik_Tot_Q>
-1

> <i_epik_Tot_abs_Q>
1

> <r_epik_Metal_State_Penalty>
0.841241

> <b_epik_Metal_Only>
1

> <s_lp_Force_Field>
OPLS_2005

> <r_lp_Energy>
55.4984

> <b_lp_Chiralities_Consistent>
1

> <s_lp_Variant>
AV-unprocessed.smi:2124-18

> <Gold.Version>
5.8.1

> <Gold.Id.Protein>
6NUR|6NUR_protein|mol2

> <Gold.PLP.Fitness>
49.4760

> <Gold.PLP.PLP>
-43.5502

> <Gold.PLP.part.hbond>
-1.9810

> <Gold.PLP.part.metal>
0.0000

> <Gold.PLP.part.buried>
-6.8201

> <Gold.PLP.part.nonpolar>
-36.4529

> <Gold.PLP.part.repulsive>
0.3968

> <Gold.PLP.ligand.clash>
0.0000

> <Gold.PLP.ligand.torsion>
0.0431

> <Gold.PLP.Chemscore.Hbond>
2.0000

> <Gold.PLP.Chemscore.CHOScore>
0.0000

> <Gold.PLP.Chemscore.Metal>
0.0000

> <Gold.Chemscore.Hbonds>
donor molecule, donor type, donor heavy atom, donor atom, acceptor molecule, acceptor atom, score
      P1  H 10752 10765       L1    22  2.00

> <Gold.PLP.Chemscore.Internal.Correction>
0.0119

> <Gold.Rescore>
     Score         DG    S(hbond)    S(metal)    S(lipo)     H(rot)  DE(clash)    DE(int)     intcor
     17.10     -18.58       0.93        0.00     120.62       1.61       0.03       1.44       ----

> <Gold.Chemscore.Fitness>
17.0964

> <Gold.Chemscore.DG>
-18.5750

> <Gold.Chemscore.ZeroCoef>
-5.4800

> <Gold.Chemscore.Hbond>
0.9255

> <Gold.Chemscore.Metal>
0.0000

> <Gold.Chemscore.Lipo>
120.6230

> <Gold.Chemscore.Internal_Hbond>
0.0000

> <Gold.Chemscore.DEClash>
0.0342

> <Gold.Chemscore.DEInternal>
1.4445

> <Gold.Chemscore.Rot>
1.6051

> <Gold.Chemscore.Internal.Correction>
   9.000000E+99

> <Gold.Chemscore.Hbonds>
donor molecule, donor type, donor heavy atom, donor atom, acceptor molecule, acceptor atom, score
      P1  H 10752 10765       L1    22  0.40

> <Gold.Chemscore.Hbond.Weighted>
-3.0911

> <Gold.Chemscore.Metal.Weighted>
-0.0000

> <Gold.Chemscore.Lipo.Weighted>
-14.1129

> <Gold.Chemscore.Internal_Hbond.Weighted>
0.0000

> <Gold.Chemscore.DEClash.Weighted>
0.0342

> <Gold.Chemscore.DEInternal.Weighted>
1.4445

> <Gold.Chemscore.Rot.Weighted>
4.1090

> <Gold.Chemscore.Internal.Correction.Weighted>
   9.000000E+99

> <Gold.Protein.RotatedTorsions>
[ 6907 6896 6895 6894 ] final   93.18 input  -60.11 | X-H torsion
[ 7974 7965 7964 7962 ] final   58.93 input  175.53 | X-H torsion
[ 8008 7997 7996 7995 ] final -158.20 input   59.86 | X-H torsion
[ 10167 10162 10161 10158 ] final  179.61 input  -65.29 | X-H torsion
[ 10718 10713 10712 10709 ] final  128.16 input   66.30 | X-H torsion
[ 10763 10752 10751 10750 ] final  167.30 input  -60.55 | X-H torsion
[ 11005 11000 10999 10996 ] final   -3.60 input  -57.11 | X-H torsion

> <Gold.Protein.ActiveResidues>
 VAL166  LYS551  ARG553  GLY616  TRP617  ASP618  TYR619  PRO620  LYS621  CYS622 
 ASP623  PHE694  ASN695  SER759  ASP760  ASP761  ALA762  ILE779  LEU786  VAL792 
 PHE793  MET794  SER795  GLU796  ALA797  LYS798  CYS799  TRP800  GLU811  SER814 

> <Gold.Protein.RotatedAtoms>
  152.5452  134.1387  159.8469 H   0  0  0  0  0  0  0  0  0  0  0  0  # atno 6907 bound_to 6896
  151.1425  133.4954  159.2604 H   0  0  0  0  0  0  0  0  0  0  0  0  # atno 6908 bound_to 6896
  151.1558  135.0260  159.8743 H   0  0  0  0  0  0  0  0  0  0  0  0  # atno 6909 bound_to 6896
  145.9127  139.3667  143.0526 H   0  0  0  0  0  0  0  0  0  0  0  0  # atno 7974 bound_to 7965
  155.7439  140.0818  157.2233 H   0  0  0  0  0  0  0  0  0  0  0  0  # atno 8008 bound_to 7997
  154.4019  140.1573  156.2703 H   0  0  0  0  0  0  0  0  0  0  0  0  # atno 8009 bound_to 7997
  155.8994  140.3410  155.6018 H   0  0  0  0  0  0  0  0  0  0  0  0  # atno 8010 bound_to 7997
  139.5344  144.2540  152.0761 H   0  0  0  0  0  0  0  0  0  0  0  0  # atno 10167 bound_to 10162
  157.5269  131.1098  150.9069 H   0  0  0  0  0  0  0  0  0  0  0  0  # atno 10718 bound_to 10713
  154.3518  135.2753  155.2367 H   0  0  0  0  0  0  0  0  0  0  0  0  # atno 10763 bound_to 10752
  154.4593  135.5911  153.6248 H   0  0  0  0  0  0  0  0  0  0  0  0  # atno 10764 bound_to 10752
  152.9849  135.6061  154.3730 H   0  0  0  0  0  0  0  0  0  0  0  0  # atno 10765 bound_to 10752
  140.6711  133.9236  155.8495 H   0  0  0  0  0  0  0  0  0  0  0  0  # atno 11005 bound_to 11000
  145.8651  140.9453  143.0680 LP  0  0  0  0  0  0  0  0  0  0  0  0  # atno 17320 bound_to 7965
  144.6745  140.0581  143.7477 LP  0  0  0  0  0  0  0  0  0  0  0  0  # atno 17321 bound_to 7965
  140.2008  144.4659  150.6432 LP  0  0  0  0  0  0  0  0  0  0  0  0  # atno 17342 bound_to 10162
  140.6542  143.2233  151.6008 LP  0  0  0  0  0  0  0  0  0  0  0  0  # atno 17343 bound_to 10162
  156.9662  130.5474  149.5288 LP  0  0  0  0  0  0  0  0  0  0  0  0  # atno 17370 bound_to 10713
  156.0393  130.5478  150.8732 LP  0  0  0  0  0  0  0  0  0  0  0  0  # atno 17371 bound_to 10713
  141.0391  134.0646  157.3923 LP  0  0  0  0  0  0  0  0  0  0  0  0  # atno 17394 bound_to 11000
  139.8981  135.0153  156.7134 LP  0  0  0  0  0  0  0  0  0  0  0  0  # atno 17395 bound_to 11000

$$$$
