AV-unprocessed.smi:1593|AV-procd|sdf|6411|dock3
  -GOLD-   22720 7 43D 1   1.00000     0.00000
 Structure written by MMmdl.
 35 36  0  0  0  0  0  0  0  0  2 V2000
  146.5195  134.1292  162.3818 C   0  0  0  0  0  0  0  0  0  0  0  0
  147.1667  135.1217  161.4775 C   0  0  0  0  0  0  0  0  0  0  0  0
  147.9609  134.9911  160.3738 C   0  0  0  0  0  0  0  0  0  0  0  0
  148.2314  136.3378  160.0068 C   0  0  0  0  0  0  0  0  0  0  0  0
  148.9694  136.7398  158.9606 N   0  5  0  0  0  0  0  0  0  0  0  0
  148.9094  138.0233  158.5361 C   0  0  0  0  0  0  0  0  0  0  0  0
  147.8861  138.6636  158.2828 O   0  0  0  0  0  0  0  0  0  0  0  0
  150.1090  138.6020  158.3946 N   0  0  0  0  0  0  0  0  0  0  0  0
  150.3369  139.9655  157.9321 C   0  0  0  0  0  0  0  0  0  0  0  0
  151.5772  140.5772  158.6076 C   0  0  0  0  0  0  0  0  0  0  0  0
  151.4950  142.0100  158.8955 N   0  0  0  0  0  0  0  0  0  0  0  0
  152.6141  142.4893  159.7035 C   0  0  0  0  0  0  0  0  0  0  0  0
  152.5182  144.0008  159.9758 C   0  0  0  0  0  0  0  0  0  0  0  0
  152.4385  144.7073  158.7418 O   0  0  0  0  0  0  0  0  0  0  0  0
  151.3286  144.2995  157.9485 C   0  0  0  0  0  0  0  0  0  0  0  0
  151.4266  142.7906  157.6654 C   0  0  0  0  0  0  0  0  0  0  0  0
  147.6388  137.2084  160.8069 N   0  0  0  0  0  0  0  0  0  0  0  0
  146.9592  136.4366  161.7569 O   0  0  0  0  0  0  0  0  0  0  0  0
  145.9076  133.4301  161.8117 H   0  0  0  0  0  0  0  0  0  0  0  0
  145.8771  134.6221  163.1120 H   0  0  0  0  0  0  0  0  0  0  0  0
  147.2714  133.5568  162.9250 H   0  0  0  0  0  0  0  0  0  0  0  0
  148.2991  134.0790  159.9055 H   0  0  0  0  0  0  0  0  0  0  0  0
  150.9255  138.0460  158.6032 H   0  0  0  0  0  0  0  0  0  0  0  0
  150.4366  139.9821  156.8463 H   0  0  0  0  0  0  0  0  0  0  0  0
  149.4596  140.5678  158.1711 H   0  0  0  0  0  0  0  0  0  0  0  0
  151.7890  140.0311  159.5279 H   0  0  0  0  0  0  0  0  0  0  0  0
  152.4310  140.3978  157.9530 H   0  0  0  0  0  0  0  0  0  0  0  0
  152.6422  141.9666  160.6593 H   0  0  0  0  0  0  0  0  0  0  0  0
  153.5561  142.2715  159.1980 H   0  0  0  0  0  0  0  0  0  0  0  0
  151.6449  144.2269  160.5894 H   0  0  0  0  0  0  0  0  0  0  0  0
  153.3940  144.3430  160.5272 H   0  0  0  0  0  0  0  0  0  0  0  0
  150.3965  144.5361  158.4640 H   0  0  0  0  0  0  0  0  0  0  0  0
  151.3311  144.8622  157.0150 H   0  0  0  0  0  0  0  0  0  0  0  0
  152.3091  142.5952  157.0542 H   0  0  0  0  0  0  0  0  0  0  0  0
  150.5633  142.4786  157.0767 H   0  0  0  0  0  0  0  0  0  0  0  0
  1  2  1  0  0  0  0
  1 19  1  0  0  0  0
  1 20  1  0  0  0  0
  1 21  1  0  0  0  0
  2 18  1  0  0  0  0
  2  3  2  0  0  0  0
  3  4  1  0  0  0  0
  3 22  1  0  0  0  0
  4  5  1  0  0  0  0
  4 17  2  0  0  0  0
  5  6  1  0  0  0  0
  6  7  2  0  0  0  0
  6  8  1  0  0  0  0
  8  9  1  0  0  0  0
  8 23  1  0  0  0  0
  9 10  1  0  0  0  0
  9 24  1  0  0  0  0
  9 25  1  0  0  0  0
 10 11  1  0  0  0  0
 10 26  1  0  0  0  0
 10 27  1  0  0  0  0
 11 16  1  0  0  0  0
 11 12  1  0  0  0  0
 12 13  1  0  0  0  0
 12 28  1  0  0  0  0
 12 29  1  0  0  0  0
 13 14  1  0  0  0  0
 13 30  1  0  0  0  0
 13 31  1  0  0  0  0
 14 15  1  0  0  0  0
 15 16  1  0  0  0  0
 15 32  1  0  0  0  0
 15 33  1  0  0  0  0
 16 34  1  0  0  0  0
 16 35  1  0  0  0  0
 17 18  1  0  0  0  0
M  CHG  1   5  -1
M  END
> <s_m_source_file>
AV-unprocessed.smi

> <i_m_source_file_index>
1593

> <i_lp_mmshare_version>
43012

> <i_f3d_flags>
0

> <s_epik_input>
W0NIM11jMVtjSF1jKG5vMSlbTkhdQyg9TylbTkhdW0NIMl1bQ0gyXU4yW0NIMl1bQ0gyXU9bQ0gyXVtDSDJdMg==

> <s_epik_cmdline>
J2VwaWtfcHl0aG9uJywgJy1waCcsICc3LjAnLCAnLXRuJywgJzgnLCAnLW1hJywgJzIwMCcsICctbWV0YWxfYmluZGluZycsICctaW1hZScsICc8aW5maWxlLm1hZT4nLCAnLW9tYWUnLCAnPG91dGZpbGUubWFlPic=

> <r_epik_Ionization_Penalty>
6.88366

> <r_epik_Ionization_Penalty_Charging>
6.57198

> <r_epik_Ionization_Penalty_Neutral>
0.311678

> <r_epik_State_Penalty>
6.77619

> <r_epik_Charging_Adjusted_Penalty>
13.3482

> <i_epik_Tot_Q>
-1

> <i_epik_Tot_abs_Q>
1

> <r_epik_Metal_State_Penalty>
2.70533

> <b_epik_Metal_Only>
1

> <s_lp_Force_Field>
OPLS_2005

> <r_lp_Energy>
18.6523

> <b_lp_Chiralities_Consistent>
1

> <s_lp_Variant>
AV-unprocessed.smi:1593-3

> <Gold.Version>
5.8.1

> <Gold.Id.Protein>
6NUR|6NUR_protein|mol2

> <Gold.PLP.Fitness>
37.5325

> <Gold.PLP.PLP>
-34.0153

> <Gold.PLP.part.hbond>
-3.0000

> <Gold.PLP.part.metal>
0.0000

> <Gold.PLP.part.buried>
-6.2150

> <Gold.PLP.part.nonpolar>
-25.2412

> <Gold.PLP.part.repulsive>
0.1711

> <Gold.PLP.ligand.clash>
0.0000

> <Gold.PLP.ligand.torsion>
0.9367

> <Gold.PLP.Chemscore.Hbond>
1.7760

> <Gold.PLP.Chemscore.CHOScore>
0.0000

> <Gold.PLP.Chemscore.Metal>
0.0000

> <Gold.Chemscore.Hbonds>
donor molecule, donor type, donor heavy atom, donor atom, acceptor molecule, acceptor atom, score
      P1  H  6931  6943       L1    17  0.77
      P1  H  6934  6947       L1    17  0.94

> <Gold.PLP.Chemscore.Internal.Correction>
0.0626

> <Gold.Rescore>
     Score         DG    S(hbond)    S(metal)    S(lipo)     H(rot)  DE(clash)    DE(int)     intcor
     13.59     -15.73       1.58        0.00      76.95       1.57       0.03       2.11       ----

> <Gold.Chemscore.Fitness>
13.5863

> <Gold.Chemscore.DG>
-15.7289

> <Gold.Chemscore.ZeroCoef>
-5.4800

> <Gold.Chemscore.Hbond>
1.5788

> <Gold.Chemscore.Metal>
0.0000

> <Gold.Chemscore.Lipo>
76.9483

> <Gold.Chemscore.Internal_Hbond>
0.0000

> <Gold.Chemscore.DEClash>
0.0310

> <Gold.Chemscore.DEInternal>
2.1116

> <Gold.Chemscore.Rot>
1.5731

> <Gold.Chemscore.Internal.Correction>
   9.000000E+99

> <Gold.Chemscore.Hbonds>
donor molecule, donor type, donor heavy atom, donor atom, acceptor molecule, acceptor atom, score
      P1  H  6931  6943       L1    17  0.29
      P1  H  6934  6947       L1    17  0.75

> <Gold.Chemscore.Hbond.Weighted>
-5.2730

> <Gold.Chemscore.Metal.Weighted>
-0.0000

> <Gold.Chemscore.Lipo.Weighted>
-9.0030

> <Gold.Chemscore.Internal_Hbond.Weighted>
0.0000

> <Gold.Chemscore.DEClash.Weighted>
0.0310

> <Gold.Chemscore.DEInternal.Weighted>
2.1116

> <Gold.Chemscore.Rot.Weighted>
4.0271

> <Gold.Chemscore.Internal.Correction.Weighted>
   9.000000E+99

> <Gold.Protein.RotatedTorsions>
[ 6907 6896 6895 6894 ] final -178.96 input  -60.11 | X-H torsion
[ 7974 7965 7964 7962 ] final -164.52 input  175.53 | X-H torsion
[ 8008 7997 7996 7995 ] final  129.07 input   59.86 | X-H torsion
[ 10167 10162 10161 10158 ] final   32.59 input  -65.29 | X-H torsion
[ 10718 10713 10712 10709 ] final  -40.81 input   66.30 | X-H torsion
[ 10763 10752 10751 10750 ] final  -74.24 input  -60.55 | X-H torsion
[ 11005 11000 10999 10996 ] final  -91.95 input  -57.11 | X-H torsion

> <Gold.Protein.ActiveResidues>
 VAL166  LYS551  ARG553  GLY616  TRP617  ASP618  TYR619  PRO620  LYS621  CYS622 
 ASP623  PHE694  ASN695  SER759  ASP760  ASP761  ALA762  ILE779  LEU786  VAL792 
 PHE793  MET794  SER795  GLU796  ALA797  LYS798  CYS799  TRP800  GLU811  SER814 

> <Gold.Protein.RotatedAtoms>
  151.6457  133.3323  159.3140 H   0  0  0  0  0  0  0  0  0  0  0  0  # atno 6907 bound_to 6896
  150.7985  134.7066  159.6590 H   0  0  0  0  0  0  0  0  0  0  0  0  # atno 6908 bound_to 6896
  152.4075  134.6185  160.0096 H   0  0  0  0  0  0  0  0  0  0  0  0  # atno 6909 bound_to 6896
  144.7294  140.2948  143.6214 H   0  0  0  0  0  0  0  0  0  0  0  0  # atno 7974 bound_to 7965
  156.2928  140.2629  156.2539 H   0  0  0  0  0  0  0  0  0  0  0  0  # atno 8008 bound_to 7997
  154.9855  140.0389  157.2315 H   0  0  0  0  0  0  0  0  0  0  0  0  # atno 8009 bound_to 7997
  154.7733  140.2782  155.6125 H   0  0  0  0  0  0  0  0  0  0  0  0  # atno 8010 bound_to 7997
  140.4484  144.1084  150.6187 H   0  0  0  0  0  0  0  0  0  0  0  0  # atno 10167 bound_to 10162
  156.2772  130.4213  149.8375 H   0  0  0  0  0  0  0  0  0  0  0  0  # atno 10718 bound_to 10713
  154.4704  135.5871  153.6318 H   0  0  0  0  0  0  0  0  0  0  0  0  # atno 10763 bound_to 10752
  152.9834  135.6065  154.3373 H   0  0  0  0  0  0  0  0  0  0  0  0  # atno 10764 bound_to 10752
  154.3255  135.2843  155.2477 H   0  0  0  0  0  0  0  0  0  0  0  0  # atno 10765 bound_to 10752
  141.1533  133.7789  156.9952 H   0  0  0  0  0  0  0  0  0  0  0  0  # atno 11005 bound_to 11000
  145.7819  139.1894  143.2153 LP  0  0  0  0  0  0  0  0  0  0  0  0  # atno 17320 bound_to 7965
  146.0827  140.7746  142.9634 LP  0  0  0  0  0  0  0  0  0  0  0  0  # atno 17321 bound_to 7965
  140.4236  143.2600  151.9685 LP  0  0  0  0  0  0  0  0  0  0  0  0  # atno 17342 bound_to 10162
  139.4794  144.5808  151.7935 LP  0  0  0  0  0  0  0  0  0  0  0  0  # atno 17343 bound_to 10162
  156.5835  130.8476  151.3389 LP  0  0  0  0  0  0  0  0  0  0  0  0  # atno 17370 bound_to 10713
  157.7303  130.9683  150.1827 LP  0  0  0  0  0  0  0  0  0  0  0  0  # atno 17371 bound_to 10713
  140.0976  134.9555  157.1874 LP  0  0  0  0  0  0  0  0  0  0  0  0  # atno 17394 bound_to 11000
  140.3361  134.2756  155.7219 LP  0  0  0  0  0  0  0  0  0  0  0  0  # atno 17395 bound_to 11000

$$$$
