AV-unprocessed.smi:434|AV-procd|sdf|2553|dock1
  -GOLD-   2262022523D 1   1.00000     0.00000
 Structure written by MMmdl.
 39 41  0  0  0  0  0  0  0  0  1 V2000
  153.2346  138.8292  160.0343 C   0  0  0  0  0  0  0  0  0  0  0  0
  152.8834  140.2377  159.6735 C   0  0  0  0  0  0  0  0  0  0  0  0
  153.2823  141.2793  160.4035 N   0  0  0  0  0  0  0  0  0  0  0  0
  152.7520  142.3529  159.7142 C   0  0  0  0  0  0  0  0  0  0  0  0
  152.8210  143.7393  159.9799 C   0  0  0  0  0  0  0  0  0  0  0  0
  152.1909  144.6630  159.1203 C   0  0  0  0  0  0  0  0  0  0  0  0
  151.4831  144.2149  157.9862 C   0  0  0  0  0  0  0  0  0  0  0  0
  151.4017  142.8379  157.7031 C   0  0  0  0  0  0  0  0  0  0  0  0
  152.0330  141.9198  158.5638 C   0  0  0  0  0  0  0  0  0  0  0  0
  152.1411  140.5322  158.5778 N   0  0  0  0  0  0  0  0  0  0  0  0
  151.5721  139.6058  157.6076 C   0  0  0  0  0  0  0  0  0  0  0  0
  152.3512  139.5822  156.2769 C   0  0  1  0  0  0  0  0  0  0  0  0
  153.5279  138.8157  156.4447 O   0  0  0  0  0  0  0  0  0  0  0  0
  151.5244  138.9640  155.1385 C   0  0  0  0  0  0  0  0  0  0  0  0
  150.5863  139.9214  154.6757 O   0  0  0  0  0  0  0  0  0  0  0  0
  149.3440  139.3419  154.3179 C   0  0  0  0  0  0  0  0  0  0  0  0
  148.3701  140.4650  154.2012 C   0  0  0  0  0  0  0  0  0  0  0  0
  148.4761  141.8214  154.3408 C   0  0  0  0  0  0  0  0  0  0  0  0
  147.1791  142.3522  154.0968 C   0  0  0  0  0  0  0  0  0  0  0  0
  146.3786  141.2793  153.8250 C   0  0  0  0  0  0  0  0  0  0  0  0
  147.0900  140.1206  153.8841 O   0  0  0  0  0  0  0  0  0  0  0  0
  153.7756  138.8007  160.9806 H   0  0  0  0  0  0  0  0  0  0  0  0
  153.8687  138.3901  159.2639 H   0  0  0  0  0  0  0  0  0  0  0  0
  152.3332  138.2257  160.1381 H   0  0  0  0  0  0  0  0  0  0  0  0
  153.3594  144.0927  160.8468 H   0  0  0  0  0  0  0  0  0  0  0  0
  152.2504  145.7204  159.3330 H   0  0  0  0  0  0  0  0  0  0  0  0
  151.0019  144.9291  157.3340 H   0  0  0  0  0  0  0  0  0  0  0  0
  150.8578  142.4918  156.8367 H   0  0  0  0  0  0  0  0  0  0  0  0
  151.5479  138.6090  158.0501 H   0  0  0  0  0  0  0  0  0  0  0  0
  150.5318  139.8809  157.4324 H   0  0  0  0  0  0  0  0  0  0  0  0
  152.6319  140.6010  156.0082 H   0  0  0  0  0  0  0  0  0  0  0  0
  153.4960  138.4001  157.2929 H   0  0  0  0  0  0  0  0  0  0  0  0
  152.1667  138.6098  154.3299 H   0  0  0  0  0  0  0  0  0  0  0  0
  150.9715  138.1007  155.5127 H   0  0  0  0  0  0  0  0  0  0  0  0
  149.4261  138.8066  153.3706 H   0  0  0  0  0  0  0  0  0  0  0  0
  149.0161  138.6330  155.0795 H   0  0  0  0  0  0  0  0  0  0  0  0
  149.3765  142.3647  154.5868 H   0  0  0  0  0  0  0  0  0  0  0  0
  146.8709  143.3871  154.1164 H   0  0  0  0  0  0  0  0  0  0  0  0
  145.3327  141.1662  153.5809 H   0  0  0  0  0  0  0  0  0  0  0  0
  1  2  1  0  0  0  0
  1 22  1  0  0  0  0
  1 23  1  0  0  0  0
  1 24  1  0  0  0  0
  2 10  1  0  0  0  0
  2  3  2  0  0  0  0
  3  4  1  0  0  0  0
  4  9  2  0  0  0  0
  4  5  1  0  0  0  0
  5  6  2  0  0  0  0
  5 25  1  0  0  0  0
  6  7  1  0  0  0  0
  6 26  1  0  0  0  0
  7  8  2  0  0  0  0
  7 27  1  0  0  0  0
  8  9  1  0  0  0  0
  8 28  1  0  0  0  0
  9 10  1  0  0  0  0
 10 11  1  0  0  0  0
 11 12  1  0  0  0  0
 11 29  1  0  0  0  0
 11 30  1  0  0  0  0
 12 13  1  0  0  0  0
 12 14  1  0  0  0  0
 12 31  1  0  0  0  0
 13 32  1  0  0  0  0
 14 15  1  0  0  0  0
 14 33  1  0  0  0  0
 14 34  1  0  0  0  0
 15 16  1  0  0  0  0
 16 17  1  0  0  0  0
 16 35  1  0  0  0  0
 16 36  1  0  0  0  0
 17 21  1  0  0  0  0
 17 18  2  0  0  0  0
 18 19  1  0  0  0  0
 18 37  1  0  0  0  0
 19 20  2  0  0  0  0
 19 38  1  0  0  0  0
 20 21  1  0  0  0  0
 20 39  1  0  0  0  0
M  END
> <s_m_source_file>
AV-unprocessed.smi

> <i_m_source_file_index>
434

> <i_lp_mmshare_version>
43012

> <i_f3d_flags>
0

> <s_epik_input>
W2NIXTFbY0hdW2NIXVtjSF1jKGMxMiluKGMobjIpW0NIM10pW0NIMl1bQ0BIXShbT0hdKVtDSDJdT1tDSDJdYzNbY0hdW2NIXVtjSF1vMw==

> <s_epik_cmdline>
J2VwaWtfcHl0aG9uJywgJy1waCcsICc3LjAnLCAnLXRuJywgJzgnLCAnLW1hJywgJzIwMCcsICctbWV0YWxfYmluZGluZycsICctaW1hZScsICc8aW5maWxlLm1hZT4nLCAnLW9tYWUnLCAnPG91dGZpbGUubWFlPic=

> <r_epik_Ionization_Penalty>
0.126634

> <r_epik_Ionization_Penalty_Charging>
0

> <r_epik_Ionization_Penalty_Neutral>
0.126634

> <r_epik_State_Penalty>
0.116082

> <r_epik_Charging_Adjusted_Penalty>
0.116082

> <i_epik_Tot_Q>
0

> <i_epik_Tot_abs_Q>
0

> <r_epik_Metal_State_Penalty>
0.00012822

> <b_epik_Metal_Only>
0

> <s_lp_Force_Field>
OPLS_2005

> <r_lp_Energy>
9.69126

> <b_lp_Chiralities_Consistent>
1

> <s_lp_Variant>
AV-unprocessed.smi:434-2

> <Gold.Version>
5.8.1

> <Gold.Id.Protein>
6NUR|6NUR_protein|mol2

> <Gold.PLP.Fitness>
52.8582

> <Gold.PLP.PLP>
-46.3496

> <Gold.PLP.part.hbond>
-1.5677

> <Gold.PLP.part.metal>
0.0000

> <Gold.PLP.part.buried>
-2.9617

> <Gold.PLP.part.nonpolar>
-43.1610

> <Gold.PLP.part.repulsive>
0.2220

> <Gold.PLP.ligand.clash>
0.0000

> <Gold.PLP.ligand.torsion>
0.8136

> <Gold.PLP.Chemscore.Hbond>
1.6656

> <Gold.PLP.Chemscore.CHOScore>
1.0000

> <Gold.PLP.Chemscore.Metal>
0.0000

> <Gold.Chemscore.Hbonds>
donor molecule, donor type, donor heavy atom, donor atom, acceptor molecule, acceptor atom, score
      P1  H  7989  7998       L1    15  1.00
      P1  H  7997  8010       L1    13  0.62
      L1  C    20    39       P1 10175  1.00

> <Gold.PLP.Chemscore.Internal.Correction>
0.1391

> <Gold.Rescore>
     Score         DG    S(hbond)    S(metal)    S(lipo)     H(rot)  DE(clash)    DE(int)     intcor
     15.69     -17.20       0.81        0.00     128.57       2.36       0.68       0.83       ----

> <Gold.Chemscore.Fitness>
15.6895

> <Gold.Chemscore.DG>
-17.2010

> <Gold.Chemscore.ZeroCoef>
-5.4800

> <Gold.Chemscore.Hbond>
0.8137

> <Gold.Chemscore.Metal>
0.0000

> <Gold.Chemscore.Lipo>
128.5669

> <Gold.Chemscore.Internal_Hbond>
0.0000

> <Gold.Chemscore.DEClash>
0.6846

> <Gold.Chemscore.DEInternal>
0.8269

> <Gold.Chemscore.Rot>
2.3591

> <Gold.Chemscore.Internal.Correction>
   9.000000E+99

> <Gold.Chemscore.Hbonds>
donor molecule, donor type, donor heavy atom, donor atom, acceptor molecule, acceptor atom, score
      P1  H  7989  7998       L1    15  0.30
      P1  H  7997  8010       L1    13  0.03

> <Gold.Chemscore.Hbond.Weighted>
-2.7179

> <Gold.Chemscore.Metal.Weighted>
-0.0000

> <Gold.Chemscore.Lipo.Weighted>
-15.0423

> <Gold.Chemscore.Internal_Hbond.Weighted>
0.0000

> <Gold.Chemscore.DEClash.Weighted>
0.6846

> <Gold.Chemscore.DEInternal.Weighted>
0.8269

> <Gold.Chemscore.Rot.Weighted>
6.0393

> <Gold.Chemscore.Internal.Correction.Weighted>
   9.000000E+99

> <Gold.Protein.RotatedTorsions>
[ 6907 6896 6895 6894 ] final  -94.69 input  -60.11 | X-H torsion
[ 7974 7965 7964 7962 ] final  121.55 input  175.53 | X-H torsion
[ 8008 7997 7996 7995 ] final   52.60 input   59.86 | X-H torsion
[ 10167 10162 10161 10158 ] final -136.39 input  -65.29 | X-H torsion
[ 10718 10713 10712 10709 ] final  -37.97 input   66.30 | X-H torsion
[ 10763 10752 10751 10750 ] final -108.11 input  -60.55 | X-H torsion
[ 11005 11000 10999 10996 ] final  121.84 input  -57.11 | X-H torsion

> <Gold.Protein.ActiveResidues>
 VAL166  LYS551  ARG553  GLY616  TRP617  ASP618  TYR619  PRO620  LYS621  CYS622 
 ASP623  PHE694  ASN695  SER759  ASP760  ASP761  ALA762  ILE779  LEU786  VAL792 
 PHE793  MET794  SER795  GLU796  ALA797  LYS798  CYS799  TRP800  GLU811  SER814 

> <Gold.Protein.RotatedAtoms>
  150.6947  134.1774  159.4235 H   0  0  0  0  0  0  0  0  0  0  0  0  # atno 6907 bound_to 6896
  151.9749  135.0055  160.0564 H   0  0  0  0  0  0  0  0  0  0  0  0  # atno 6908 bound_to 6896
  152.1807  133.4671  159.4994 H   0  0  0  0  0  0  0  0  0  0  0  0  # atno 6909 bound_to 6896
  145.1180  139.3408  143.4729 H   0  0  0  0  0  0  0  0  0  0  0  0  # atno 7974 bound_to 7965
  155.4545  140.3459  155.4305 H   0  0  0  0  0  0  0  0  0  0  0  0  # atno 8008 bound_to 7997
  156.1199  140.1484  156.9248 H   0  0  0  0  0  0  0  0  0  0  0  0  # atno 8009 bound_to 7997
  154.4816  140.0868  156.7370 H   0  0  0  0  0  0  0  0  0  0  0  0  # atno 8010 bound_to 7997
  139.8683  143.6989  152.2643 H   0  0  0  0  0  0  0  0  0  0  0  0  # atno 10167 bound_to 10162
  156.3091  130.4250  149.8068 H   0  0  0  0  0  0  0  0  0  0  0  0  # atno 10718 bound_to 10713
  154.8116  135.4650  154.0532 H   0  0  0  0  0  0  0  0  0  0  0  0  # atno 10763 bound_to 10752
  153.1958  135.6862  153.8301 H   0  0  0  0  0  0  0  0  0  0  0  0  # atno 10764 bound_to 10752
  153.7803  135.3257  155.3342 H   0  0  0  0  0  0  0  0  0  0  0  0  # atno 10765 bound_to 10752
  139.9243  134.9640  156.8019 H   0  0  0  0  0  0  0  0  0  0  0  0  # atno 11005 bound_to 11000
  146.3522  140.1127  142.8603 LP  0  0  0  0  0  0  0  0  0  0  0  0  # atno 17320 bound_to 7965
  145.0772  140.9196  143.4847 LP  0  0  0  0  0  0  0  0  0  0  0  0  # atno 17321 bound_to 7965
  139.7308  144.7583  151.0805 LP  0  0  0  0  0  0  0  0  0  0  0  0  # atno 17342 bound_to 10162
  140.7764  143.5091  150.9675 LP  0  0  0  0  0  0  0  0  0  0  0  0  # atno 17343 bound_to 10162
  156.5417  130.8303  151.3271 LP  0  0  0  0  0  0  0  0  0  0  0  0  # atno 17370 bound_to 10713
  157.7387  130.9817  150.2266 LP  0  0  0  0  0  0  0  0  0  0  0  0  # atno 17371 bound_to 10713
  140.6383  133.9842  155.7695 LP  0  0  0  0  0  0  0  0  0  0  0  0  # atno 17394 bound_to 11000
  141.0788  134.0094  157.3417 LP  0  0  0  0  0  0  0  0  0  0  0  0  # atno 17395 bound_to 11000

$$$$
