AV-unprocessed.smi:2785|AV-procd|sdf|10746|dock1
  -GOLD-   2272015183D 1   1.00000     0.00000
 Structure written by MMmdl.
 37 38  0  0  0  0  0  0  0  0  1 V2000
  143.4544  132.6737  150.9541 C   0  0  0  0  0  0  0  0  0  0  0  0
  144.8755  133.2586  150.9480 C   0  0  0  0  0  0  0  0  0  0  0  0
  145.9193  132.2293  151.4181 C   0  0  0  0  0  0  0  0  0  0  0  0
  144.9157  134.5047  151.7262 N   0  0  0  0  0  0  0  0  0  0  0  0
  144.5795  134.5534  153.1399 C   0  0  0  0  0  0  0  0  0  0  0  0
  144.5071  136.0457  153.4781 C   0  0  0  0  0  0  0  0  0  0  0  0
  145.1788  136.7970  152.3169 C   0  0  1  0  0  0  0  0  0  0  0  0
  146.5165  137.2323  152.7126 N   0  0  0  0  0  0  0  0  0  0  0  0
  146.7840  138.2525  153.5412 C   0  0  0  0  0  0  0  0  0  0  0  0
  145.9129  138.9308  154.0862 O   0  0  0  0  0  0  0  0  0  0  0  0
  148.1096  138.4250  153.6870 N   0  0  0  0  0  0  0  0  0  0  0  0
  148.7877  139.4047  154.4604 C   0  0  0  0  0  0  0  0  0  0  0  0
  150.1571  139.1417  154.6919 C   0  0  0  0  0  0  0  0  0  0  0  0
  150.9202  140.0534  155.4471 C   0  0  0  0  0  0  0  0  0  0  0  0
  150.2917  141.2058  155.9511 C   0  0  0  0  0  0  0  0  0  0  0  0
  150.9842  142.1110  156.6822 F   0  0  0  0  0  0  0  0  0  0  0  0
  148.9246  141.3936  155.6760 C   0  0  0  0  0  0  0  0  0  0  0  0
  148.1921  140.5202  154.9524 N   0  0  0  0  0  0  0  0  0  0  0  0
  145.2767  135.7054  151.2526 C   0  0  0  0  0  0  0  0  0  0  0  0
  145.6296  135.9428  150.0976 O   0  0  0  0  0  0  0  0  0  0  0  0
  143.3989  131.7741  150.3409 H   0  0  0  0  0  0  0  0  0  0  0  0
  142.7305  133.3861  150.5566 H   0  0  0  0  0  0  0  0  0  0  0  0
  143.1399  132.4081  151.9641 H   0  0  0  0  0  0  0  0  0  0  0  0
  145.1269  133.5024  149.9143 H   0  0  0  0  0  0  0  0  0  0  0  0
  145.9234  131.3573  150.7636 H   0  0  0  0  0  0  0  0  0  0  0  0
  145.7152  131.8750  152.4289 H   0  0  0  0  0  0  0  0  0  0  0  0
  146.9245  132.6511  151.4034 H   0  0  0  0  0  0  0  0  0  0  0  0
  143.6348  134.0487  153.3468 H   0  0  0  0  0  0  0  0  0  0  0  0
  145.3654  134.0681  153.7202 H   0  0  0  0  0  0  0  0  0  0  0  0
  143.4606  136.3480  153.5388 H   0  0  0  0  0  0  0  0  0  0  0  0
  144.9539  136.2653  154.4490 H   0  0  0  0  0  0  0  0  0  0  0  0
  144.5637  137.6310  151.9743 H   0  0  0  0  0  0  0  0  0  0  0  0
  147.2936  136.7305  152.3090 H   0  0  0  0  0  0  0  0  0  0  0  0
  148.7034  137.7864  153.1792 H   0  0  0  0  0  0  0  0  0  0  0  0
  150.6233  138.2510  154.2959 H   0  0  0  0  0  0  0  0  0  0  0  0
  151.9680  139.8709  155.6355 H   0  0  0  0  0  0  0  0  0  0  0  0
  148.4053  142.2656  156.0451 H   0  0  0  0  0  0  0  0  0  0  0  0
  1  2  1  0  0  0  0
  1 21  1  0  0  0  0
  1 22  1  0  0  0  0
  1 23  1  0  0  0  0
  2  3  1  0  0  0  0
  2  4  1  0  0  0  0
  2 24  1  0  0  0  0
  3 25  1  0  0  0  0
  3 26  1  0  0  0  0
  3 27  1  0  0  0  0
  4 19  1  0  0  0  0
  4  5  1  0  0  0  0
  5  6  1  0  0  0  0
  5 28  1  0  0  0  0
  5 29  1  0  0  0  0
  6  7  1  0  0  0  0
  6 30  1  0  0  0  0
  6 31  1  0  0  0  0
  7  8  1  0  0  0  0
  7 19  1  0  0  0  0
  7 32  1  0  0  0  0
  8  9  1  0  0  0  0
  8 33  1  0  0  0  0
  9 10  2  0  0  0  0
  9 11  1  0  0  0  0
 11 12  1  0  0  0  0
 11 34  1  0  0  0  0
 12 18  1  0  0  0  0
 12 13  2  0  0  0  0
 13 14  1  0  0  0  0
 13 35  1  0  0  0  0
 14 15  2  0  0  0  0
 14 36  1  0  0  0  0
 15 16  1  0  0  0  0
 15 17  1  0  0  0  0
 17 18  2  0  0  0  0
 17 37  1  0  0  0  0
 19 20  2  0  0  0  0
M  END
> <s_m_source_file>
AV-unprocessed.smi

> <i_m_source_file_index>
2785

> <i_lp_mmshare_version>
43012

> <i_f3d_flags>
0

> <s_epik_input>
W0NIM11bQ0hdKFtDSDNdKU4xW0NIMl1bQ0gyXVtDQEhdKEMxPU8pW05IXUMoPU8pW05IXWMyW2NIXVtjSF1jKEYpW2NIXW4y

> <s_epik_cmdline>
J2VwaWtfcHl0aG9uJywgJy1waCcsICc3LjAnLCAnLXRuJywgJzgnLCAnLW1hJywgJzIwMCcsICctbWV0YWxfYmluZGluZycsICctaW1hZScsICc8aW5maWxlLm1hZT4nLCAnLW9tYWUnLCAnPG91dGZpbGUubWFlPic=

> <r_lp_tautomer_probability>
1

> <r_epik_Ionization_Penalty>
3.20266e-05

> <r_epik_Ionization_Penalty_Charging>
0

> <r_epik_Ionization_Penalty_Neutral>
3.20266e-05

> <r_epik_State_Penalty>
-0

> <r_epik_Charging_Adjusted_Penalty>
0

> <i_epik_Tot_Q>
0

> <i_epik_Tot_abs_Q>
0

> <r_epik_Metal_State_Penalty>
-0

> <b_epik_Metal_Only>
0

> <s_lp_Force_Field>
OPLS_2005

> <r_lp_Energy>
23.6271

> <b_lp_Chiralities_Consistent>
1

> <s_lp_Variant>
AV-unprocessed.smi:2785-1

> <Gold.Version>
5.8.1

> <Gold.Id.Protein>
6NUR|6NUR_protein|mol2

> <Gold.PLP.Fitness>
40.0707

> <Gold.PLP.PLP>
-31.3841

> <Gold.PLP.part.hbond>
-2.1358

> <Gold.PLP.part.metal>
0.0000

> <Gold.PLP.part.buried>
-5.2782

> <Gold.PLP.part.nonpolar>
-27.2151

> <Gold.PLP.part.repulsive>
2.9291

> <Gold.PLP.ligand.clash>
0.0000

> <Gold.PLP.ligand.torsion>
0.1956

> <Gold.PLP.Chemscore.Hbond>
2.0000

> <Gold.PLP.Chemscore.CHOScore>
1.0000

> <Gold.PLP.Chemscore.Metal>
0.0000

> <Gold.Chemscore.Hbonds>
donor molecule, donor type, donor heavy atom, donor atom, acceptor molecule, acceptor atom, score
      L1  H     8    33       P1  7948  1.00
      L1  H    11    34       P1  7948  0.99
      L1  C    17    37       P1  8028  1.00

> <Gold.PLP.Chemscore.Internal.Correction>
0.0779

> <Gold.Rescore>
     Score         DG    S(hbond)    S(metal)    S(lipo)     H(rot)  DE(clash)    DE(int)     intcor
     12.90     -15.84       1.96        0.00      60.79       1.29       1.43       1.50       ----

> <Gold.Chemscore.Fitness>
12.9046

> <Gold.Chemscore.DG>
-15.8384

> <Gold.Chemscore.ZeroCoef>
-5.4800

> <Gold.Chemscore.Hbond>
1.9585

> <Gold.Chemscore.Metal>
0.0000

> <Gold.Chemscore.Lipo>
60.7950

> <Gold.Chemscore.Internal_Hbond>
0.0000

> <Gold.Chemscore.DEClash>
1.4331

> <Gold.Chemscore.DEInternal>
1.5007

> <Gold.Chemscore.Rot>
1.2875

> <Gold.Chemscore.Internal.Correction>
   9.000000E+99

> <Gold.Chemscore.Hbonds>
donor molecule, donor type, donor heavy atom, donor atom, acceptor molecule, acceptor atom, score
      L1  H     8    33       P1  7948  1.00
      L1  H    11    34       P1  7948  0.89

> <Gold.Chemscore.Hbond.Weighted>
-6.5412

> <Gold.Chemscore.Metal.Weighted>
-0.0000

> <Gold.Chemscore.Lipo.Weighted>
-7.1130

> <Gold.Chemscore.Internal_Hbond.Weighted>
0.0000

> <Gold.Chemscore.DEClash.Weighted>
1.4331

> <Gold.Chemscore.DEInternal.Weighted>
1.5007

> <Gold.Chemscore.Rot.Weighted>
3.2959

> <Gold.Chemscore.Internal.Correction.Weighted>
   9.000000E+99

> <Gold.Protein.RotatedTorsions>
[ 6907 6896 6895 6894 ] final  -20.78 input  -60.11 | X-H torsion
[ 7974 7965 7964 7962 ] final -103.31 input  175.53 | X-H torsion
[ 8008 7997 7996 7995 ] final -144.17 input   59.86 | X-H torsion
[ 10167 10162 10161 10158 ] final   52.56 input  -65.29 | X-H torsion
[ 10718 10713 10712 10709 ] final -174.58 input   66.30 | X-H torsion
[ 10763 10752 10751 10750 ] final  -72.10 input  -60.55 | X-H torsion
[ 11005 11000 10999 10996 ] final  -85.42 input  -57.11 | X-H torsion

> <Gold.Protein.ActiveResidues>
 VAL166  LYS551  ARG553  GLY616  TRP617  ASP618  TYR619  PRO620  LYS621  CYS622 
 ASP623  PHE694  ASN695  SER759  ASP760  ASP761  ALA762  ILE779  LEU786  VAL792 
 PHE793  MET794  SER795  GLU796  ALA797  LYS798  CYS799  TRP800  GLU811  SER814 

> <Gold.Protein.RotatedAtoms>
  151.2431  135.0596  159.9032 H   0  0  0  0  0  0  0  0  0  0  0  0  # atno 6907 bound_to 6896
  152.5390  134.0413  159.8079 H   0  0  0  0  0  0  0  0  0  0  0  0  # atno 6908 bound_to 6896
  151.0610  133.5495  159.2666 H   0  0  0  0  0  0  0  0  0  0  0  0  # atno 6909 bound_to 6896
  145.2576  140.9258  143.3059 H   0  0  0  0  0  0  0  0  0  0  0  0  # atno 7974 bound_to 7965
  155.5225  140.0592  157.2904 H   0  0  0  0  0  0  0  0  0  0  0  0  # atno 8008 bound_to 7997
  154.4512  140.1950  156.0458 H   0  0  0  0  0  0  0  0  0  0  0  0  # atno 8009 bound_to 7997
  156.0709  140.3260  155.7578 H   0  0  0  0  0  0  0  0  0  0  0  0  # atno 8010 bound_to 7997
  140.2500  144.3489  150.6351 H   0  0  0  0  0  0  0  0  0  0  0  0  # atno 10167 bound_to 10162
  156.7871  130.9504  151.3120 H   0  0  0  0  0  0  0  0  0  0  0  0  # atno 10718 bound_to 10713
  154.4410  135.5941  153.6129 H   0  0  0  0  0  0  0  0  0  0  0  0  # atno 10763 bound_to 10752
  152.9805  135.5998  154.3722 H   0  0  0  0  0  0  0  0  0  0  0  0  # atno 10764 bound_to 10752
  154.3572  135.2841  155.2318 H   0  0  0  0  0  0  0  0  0  0  0  0  # atno 10765 bound_to 10752
  141.1641  133.7399  156.9013 H   0  0  0  0  0  0  0  0  0  0  0  0  # atno 11005 bound_to 11000
  144.9447  139.4149  143.6431 LP  0  0  0  0  0  0  0  0  0  0  0  0  # atno 17320 bound_to 7965
  146.3285  139.8425  142.8888 LP  0  0  0  0  0  0  0  0  0  0  0  0  # atno 17321 bound_to 7965
  140.6048  143.2167  151.7003 LP  0  0  0  0  0  0  0  0  0  0  0  0  # atno 17342 bound_to 10162
  139.5049  144.3736  152.0445 LP  0  0  0  0  0  0  0  0  0  0  0  0  # atno 17343 bound_to 10162
  157.6618  130.8973  149.9847 LP  0  0  0  0  0  0  0  0  0  0  0  0  # atno 17370 bound_to 10713
  156.1182  130.3647  149.9933 LP  0  0  0  0  0  0  0  0  0  0  0  0  # atno 17371 bound_to 10713
  140.1580  134.9185  157.2679 LP  0  0  0  0  0  0  0  0  0  0  0  0  # atno 17394 bound_to 11000
  140.2644  134.3533  155.7395 LP  0  0  0  0  0  0  0  0  0  0  0  0  # atno 17395 bound_to 11000

$$$$
