#       Name:                AV-unprocessed.smi:2899
#       Creating user name   scv26
#       Creation time:       Fri Mar 27 16:02:25 2020


#       File generated by GOLD software.
#

@<TRIPOS>MOLECULE
AV-unprocessed.smi:2899
    34    36     1
SMALL
NO_CHARGES


@<TRIPOS>ATOM
      1 ****        -3.8973  -1.2023  -0.0569 C.3            1 S1                 0.0000
      2 ****        -3.1823   0.1250   0.0788 C.ar           1 S1                 0.0000
      3 ****        -3.8846   1.3479   0.0551 C.ar           1 S1                 0.0000
      4 ****        -3.1051   2.5140   0.1922 C.ar           1 S1                 0.0000
      5 ****        -1.7628   2.4601   0.3358 N.ar           1 S1                 0.0000
      6 ****        -1.1999   1.2491   0.3417 C.ar           1 S1                 0.0000
      7 ****         0.1756   1.2346   0.4832 N.pl3          1 S1                 0.0000
      8 ****         1.0080   0.0433   0.3687 C.3            1 S1                 0.0000
      9 ****         1.1591  -0.4465  -1.0771 C.3            1 S1                 0.0000
     10 ****         2.6827  -0.4471  -1.2539 C.3            1 S1                 0.0000
     11 ****         3.3649  -1.5410  -0.4212 C.3            1 S1                 0.0000
     12 ****         3.2388  -0.9797   0.9950 C.3            1 S1                 0.0000
     13 ****         2.4705   0.3263   0.7504 C.3            1 S1                 0.0000
     14 ****         3.0218   0.7039  -0.5011 O.3            1 S1                 0.0000
     15 ****        -1.8395   0.0790   0.2222 N.ar           1 S1                 0.0000
     16 ****        -4.9779  -1.0642  -0.1040 H              1 S1                 0.0000
     17 ****        -3.6731  -1.8438   0.7958 H              1 S1                 0.0000
     18 ****        -3.5785  -1.7131  -0.9659 H              1 S1                 0.0000
     19 ****        -4.9575   1.3937  -0.0608 H              1 S1                 0.0000
     20 ****        -3.5596   3.4936   0.1861 H              1 S1                 0.0000
     21 ****         0.6396   2.1293   0.5434 H              1 S1                 0.0000
     22 ****         0.5985  -0.7364   1.0125 H              1 S1                 0.0000
     23 ****         0.7209  -1.4327  -1.2331 H              1 S1                 0.0000
     24 ****         0.6987   0.2427  -1.7869 H              1 S1                 0.0000
     25 ****         3.0069  -0.4151  -2.2945 H              1 S1                 0.0000
     26 ****         2.8824  -2.5119  -0.5383 H              1 S1                 0.0000
     27 ****         4.4142  -1.6441  -0.6993 H              1 S1                 0.0000
     28 ****         2.7137  -1.6527   1.6738 H              1 S1                 0.0000
     29 ****         4.2250  -0.7748   1.4135 H              1 S1                 0.0000
     30 ****         2.5982   1.0619   1.5456 H              1 S1                 0.0000
     31 ****        -1.2147   3.2908   0.4334 LP             1 S1                 0.0000
     32 ****         2.5916   1.5298  -0.8657 LP             1 S1                 0.0000
     33 ****         4.0112   0.8388  -0.4488 LP             1 S1                 0.0000
     34 ****        -1.3455  -0.7903   0.2383 LP             1 S1                 0.0000
@<TRIPOS>BOND
    1    1    2 1     
    2    1   16 1     
    3    1   17 1     
    4    1   18 1     
    5    2   15 ar    
    6    2    3 ar    
    7    3    4 ar    
    8    3   19 1     
    9    4    5 ar    
   10    4   20 1     
   11    5    6 ar    
   12    6    7 1     
   13    6   15 ar    
   14    7    8 1     
   15    7   21 1     
   16    8   13 1     
   17    8    9 1     
   18    8   22 1     
   19    9   10 1     
   20    9   23 1     
   21    9   24 1     
   22   10   14 1     
   23   10   11 1     
   24   10   25 1     
   25   11   12 1     
   26   11   26 1     
   27   11   27 1     
   28   12   13 1     
   29   12   28 1     
   30   12   29 1     
   31   13   14 1     
   32   13   30 1     
   33    5   31 1     
   34   14   32 1     
   35   14   33 1     
   36   15   34 1     
@<TRIPOS>SUBSTRUCTURE
      1 S1             1
@<TRIPOS>SET
LONE_PAIRS      STATIC     ATOMS    <user>   **** ""
4 31 32 33 34
DONOR_HYDROGENS      STATIC     ATOMS    <user>   **** ""
1 21
ATOM$BLUE        STATIC     ATOMS    COLORGROUP SYSTEM
4 31 32 33 34
ATOM$RED        STATIC     ATOMS    COLORGROUP SYSTEM
1 21
