#       Name:                AV-unprocessed.smi:3181
#       Creating user name   scv26
#       Creation time:       Fri Mar 27 17:57:52 2020


#       File generated by GOLD software.
#

@<TRIPOS>MOLECULE
AV-unprocessed.smi:3181
    44    45     1
SMALL
NO_CHARGES


@<TRIPOS>ATOM
      1 ****        -1.9428  -1.9937  -1.9495 C.3            1 S1                 0.0000
      2 ****        -1.5227  -1.1626  -0.7260 C.3            1 S1                 0.0000
      3 ****        -2.0337  -1.7668   0.6002 C.3            1 S1                 0.0000
      4 ****        -3.4786  -1.8948   0.6440 N.pl3          1 S1                 0.0000
      5 ****        -4.2551  -2.9788   0.6884 C.2            1 S1                 0.0000
      6 ****        -5.5516  -2.7062   0.7279 N.2            1 S1                 0.0000
      7 ****        -5.4992  -1.3410   0.7128 C.2            1 S1                 0.0000
      8 ****        -4.2797  -0.8041   0.6671 N.2            1 S1                 0.0000
      9 ****        -0.0474  -1.0419  -0.6952 N.4            1 S1                 1.0000
     10 ****         0.4944   0.3299  -0.5581 C.3            1 S1                 0.0000
     11 ****         0.2143   0.9245   0.8377 C.3            1 S1                 0.0000
     12 ****         0.8478   2.3175   0.9965 C.3            1 S1                 0.0000
     13 ****         2.3628   2.3136   0.7086 C.3            1 S1                 0.0000
     14 ****         3.1569   1.6359   1.8440 C.3            1 S1                 0.0000
     15 ****         2.6314   1.7203  -0.6977 C.3            1 S1                 0.0000
     16 ****         4.1184   1.7298  -1.0888 C.3            1 S1                 0.0000
     17 ****         2.0068   0.3188  -0.8499 C.3            1 S1                 0.0000
     18 ****        -3.0275  -2.0443  -2.0466 H              1 S1                 0.0000
     19 ****        -1.5664  -3.0152  -1.8844 H              1 S1                 0.0000
     20 ****        -1.5580  -1.5553  -2.8707 H              1 S1                 0.0000
     21 ****        -1.9574  -0.1693  -0.8491 H              1 S1                 0.0000
     22 ****        -1.5980  -2.7550   0.7555 H              1 S1                 0.0000
     23 ****        -1.7249  -1.1572   1.4498 H              1 S1                 0.0000
     24 ****        -3.8664  -3.9866   0.6878 H              1 S1                 0.0000
     25 ****        -6.3861  -0.7249   0.7370 H              1 S1                 0.0000
     26 ****         0.3177  -1.6207   0.0476 H              1 S1                 0.0000
     27 ****         0.0156   0.9571  -1.3121 H              1 S1                 0.0000
     28 ****        -0.8596   1.0102   1.0052 H              1 S1                 0.0000
     29 ****         0.5923   0.2555   1.6116 H              1 S1                 0.0000
     30 ****         0.3562   3.0090   0.3109 H              1 S1                 0.0000
     31 ****         0.6547   2.7028   1.9984 H              1 S1                 0.0000
     32 ****         2.6847   3.3559   0.6906 H              1 S1                 0.0000
     33 ****         2.9477   0.5692   1.9158 H              1 S1                 0.0000
     34 ****         2.9119   2.0823   2.8081 H              1 S1                 0.0000
     35 ****         4.2314   1.7536   1.7063 H              1 S1                 0.0000
     36 ****         2.1271   2.3715  -1.4136 H              1 S1                 0.0000
     37 ****         4.7013   1.0347  -0.4845 H              1 S1                 0.0000
     38 ****         4.5504   2.7238  -0.9686 H              1 S1                 0.0000
     39 ****         4.2480   1.4410  -2.1322 H              1 S1                 0.0000
     40 ****         2.5098  -0.3867  -0.1873 H              1 S1                 0.0000
     41 ****         2.1767  -0.0457  -1.8641 H              1 S1                 0.0000
     42 ****         0.2953  -1.4046  -1.5734 H              1 S1                 0.0000
     43 ****        -6.3394  -3.3213   0.7596 LP             1 S1                 0.0000
     44 ****        -4.0216   0.1619   0.6533 LP             1 S1                 0.0000
@<TRIPOS>BOND
    1    1    2 1     
    2    1   18 1     
    3    1   19 1     
    4    1   20 1     
    5    2    3 1     
    6    2    9 1     
    7    2   21 1     
    8    3    4 1     
    9    3   22 1     
   10    3   23 1     
   11    4    8 1     
   12    4    5 1     
   13    5    6 2     
   14    5   24 1     
   15    6    7 1     
   16    7    8 2     
   17    7   25 1     
   18    9   10 1     
   19    9   26 1     
   20    9   42 1     
   21   10   17 1     
   22   10   11 1     
   23   10   27 1     
   24   11   12 1     
   25   11   28 1     
   26   11   29 1     
   27   12   13 1     
   28   12   30 1     
   29   12   31 1     
   30   13   14 1     
   31   13   15 1     
   32   13   32 1     
   33   14   33 1     
   34   14   34 1     
   35   14   35 1     
   36   15   16 1     
   37   15   17 1     
   38   15   36 1     
   39   16   37 1     
   40   16   38 1     
   41   16   39 1     
   42   17   40 1     
   43   17   41 1     
   44    6   43 1     
   45    8   44 1     
@<TRIPOS>SUBSTRUCTURE
      1 S1             1
@<TRIPOS>SET
LONE_PAIRS      STATIC     ATOMS    <user>   **** ""
2 43 44
DONOR_HYDROGENS      STATIC     ATOMS    <user>   **** ""
2 26 42
ATOM$BLUE        STATIC     ATOMS    COLORGROUP SYSTEM
2 43 44
ATOM$RED        STATIC     ATOMS    COLORGROUP SYSTEM
2 26 42
