AV-unprocessed.smi:1809|AV-procd|sdf|7322|dock8
  -GOLD-   22720 8583D 1   1.00000     0.00000
 Structure written by MMmdl.
 39 41  0  0  0  0  0  0  0  0  3 V2000
  151.8927  142.1987  158.2964 C   0  0  0  0  0  0  0  0  0  0  0  0
  151.6755  141.0827  157.3328 C   0  0  0  0  0  0  0  0  0  0  0  0
  152.4950  140.0320  157.2465 N   0  0  0  0  0  0  0  0  0  0  0  0
  152.0849  139.1274  156.2778 N   0  0  0  0  0  0  0  0  0  0  0  0
  150.9701  139.5106  155.6391 C   0  0  0  0  0  0  0  0  0  0  0  0
  150.4059  138.7725  154.6688 N   0  5  0  0  0  0  0  0  0  0  0  0
  150.7650  137.4795  154.5085 C   0  0  0  0  0  0  0  0  0  0  0  0
  151.9011  137.0562  154.2823 O   0  0  0  0  0  0  0  0  0  0  0  0
  149.7442  136.6205  154.6179 N   0  0  0  0  0  0  0  0  0  0  0  0
  149.8566  135.1734  154.5068 C   0  0  0  0  0  0  0  0  0  0  0  0
  148.5498  134.4877  154.9494 C   0  0  1  0  0  0  0  0  0  0  0  0
  147.2912  135.3094  154.5807 C   0  0  0  0  0  0  0  0  0  0  0  0
  147.0509  135.1911  153.1302 N   0  3  2  0  0  0  0  0  0  0  0  0
  145.9013  135.9097  152.5545 C   0  0  0  0  0  0  0  0  0  0  0  0
  145.5639  135.1441  151.2596 C   0  0  0  0  0  0  0  0  0  0  0  0
  146.4633  133.8947  151.2664 C   0  0  0  0  0  0  0  0  0  0  0  0
  146.9037  133.7920  152.7235 C   0  0  1  0  0  0  0  0  0  0  0  0
  148.2044  133.0410  153.0315 C   0  0  0  0  0  0  0  0  0  0  0  0
  148.4493  133.1494  154.4363 O   0  0  0  0  0  0  0  0  0  0  0  0
  150.3222  141.0461  156.2153 S   0  0  0  0  0  0  0  0  0  0  0  0
  152.6243  142.8998  157.8951 H   0  0  0  0  0  0  0  0  0  0  0  0
  152.2602  141.8118  159.2472 H   0  0  0  0  0  0  0  0  0  0  0  0
  150.9581  142.7305  158.4754 H   0  0  0  0  0  0  0  0  0  0  0  0
  148.8281  137.0020  154.8045 H   0  0  0  0  0  0  0  0  0  0  0  0
  150.0748  134.9175  153.4689 H   0  0  0  0  0  0  0  0  0  0  0  0
  150.7040  134.8254  155.0987 H   0  0  0  0  0  0  0  0  0  0  0  0
  148.5825  134.4008  156.0360 H   0  0  0  0  0  0  0  0  0  0  0  0
  146.4243  134.9330  155.1257 H   0  0  0  0  0  0  0  0  0  0  0  0
  147.4147  136.3572  154.8568 H   0  0  0  0  0  0  0  0  0  0  0  0
  145.0556  135.8725  153.2431 H   0  0  0  0  0  0  0  0  0  0  0  0
  146.1462  136.9563  152.3720 H   0  0  0  0  0  0  0  0  0  0  0  0
  144.5097  134.8645  151.2518 H   0  0  0  0  0  0  0  0  0  0  0  0
  145.7489  135.7509  150.3727 H   0  0  0  0  0  0  0  0  0  0  0  0
  145.9475  132.9992  150.9183 H   0  0  0  0  0  0  0  0  0  0  0  0
  147.3283  134.0574  150.6216 H   0  0  0  0  0  0  0  0  0  0  0  0
  146.0891  133.3451  153.2979 H   0  0  0  0  0  0  0  0  0  0  0  0
  148.1062  131.9875  152.7693 H   0  0  0  0  0  0  0  0  0  0  0  0
  149.0429  133.4353  152.4568 H   0  0  0  0  0  0  0  0  0  0  0  0
  147.8736  135.5401  152.6592 H   0  0  0  0  0  0  0  0  0  0  0  0
  1  2  1  0  0  0  0
  1 21  1  0  0  0  0
  1 22  1  0  0  0  0
  1 23  1  0  0  0  0
  2 20  1  0  0  0  0
  2  3  2  0  0  0  0
  3  4  1  0  0  0  0
  4  5  2  0  0  0  0
  5  6  1  0  0  0  0
  5 20  1  0  0  0  0
  6  7  1  0  0  0  0
  7  8  2  0  0  0  0
  7  9  1  0  0  0  0
  9 10  1  0  0  0  0
  9 24  1  0  0  0  0
 10 11  1  0  0  0  0
 10 25  1  0  0  0  0
 10 26  1  0  0  0  0
 11 19  1  0  0  0  0
 11 12  1  0  0  0  0
 11 27  1  0  0  0  0
 12 13  1  0  0  0  0
 12 28  1  0  0  0  0
 12 29  1  0  0  0  0
 13 17  1  0  0  0  0
 13 14  1  0  0  0  0
 13 39  1  0  0  0  0
 14 15  1  0  0  0  0
 14 30  1  0  0  0  0
 14 31  1  0  0  0  0
 15 16  1  0  0  0  0
 15 32  1  0  0  0  0
 15 33  1  0  0  0  0
 16 17  1  0  0  0  0
 16 34  1  0  0  0  0
 16 35  1  0  0  0  0
 17 18  1  0  0  0  0
 17 36  1  0  0  0  0
 18 19  1  0  0  0  0
 18 37  1  0  0  0  0
 18 38  1  0  0  0  0
M  CHG  1   6  -1
M  CHG  1  13   1
M  END
> <s_m_source_file>
AV-unprocessed.smi

> <i_m_source_file_index>
1809

> <i_lp_mmshare_version>
43012

> <i_f3d_flags>
0

> <s_epik_input>
W0NIM11jMW5uYyhzMSlbTkhdQyg9TylbTkhdW0NIMl1bQ0BIXShbQ0gyXTIpT1tDSDJdW0NAQEhdKE4yMylbQ0gyXVtDSDJdW0NIMl0z

> <s_epik_cmdline>
J2VwaWtfcHl0aG9uJywgJy1waCcsICc3LjAnLCAnLXRuJywgJzgnLCAnLW1hJywgJzIwMCcsICctbWV0YWxfYmluZGluZycsICctaW1hZScsICc8aW5maWxlLm1hZT4nLCAnLW9tYWUnLCAnPG91dGZpbGUubWFlPic=

> <r_lp_tautomer_probability>
1

> <r_epik_Ionization_Penalty>
3.2601

> <r_epik_Ionization_Penalty_Charging>
3.1406

> <r_epik_Ionization_Penalty_Neutral>
0.119497

> <r_epik_State_Penalty>
3.08894

> <r_epik_Charging_Adjusted_Penalty>
6.22954

> <i_epik_Tot_Q>
0

> <i_epik_Tot_abs_Q>
2

> <r_epik_Metal_State_Penalty>
0.510807

> <b_epik_Metal_Only>
1

> <s_lp_Force_Field>
OPLS_2005

> <r_lp_Energy>
31.1034

> <b_lp_Chiralities_Consistent>
1

> <s_lp_Variant>
AV-unprocessed.smi:1809-14

> <Gold.Version>
5.8.1

> <Gold.Id.Protein>
6NUR|6NUR_protein|mol2

> <Gold.PLP.Fitness>
38.3428

> <Gold.PLP.PLP>
-28.1047

> <Gold.PLP.part.hbond>
-4.0000

> <Gold.PLP.part.metal>
0.0000

> <Gold.PLP.part.buried>
-3.4830

> <Gold.PLP.part.nonpolar>
-21.2897

> <Gold.PLP.part.repulsive>
0.3797

> <Gold.PLP.ligand.clash>
0.0000

> <Gold.PLP.ligand.torsion>
0.8869

> <Gold.PLP.Chemscore.Hbond>
4.0000

> <Gold.PLP.Chemscore.CHOScore>
0.0000

> <Gold.PLP.Chemscore.Metal>
0.0000

> <Gold.Chemscore.Hbonds>
donor molecule, donor type, donor heavy atom, donor atom, acceptor molecule, acceptor atom, score
      L1  H    13    39       P1  7948  1.82
      P1  H  7997  8010       L1     3  0.98
      P1  H 10752 10764       L1     8  1.00

> <Gold.PLP.Chemscore.Internal.Correction>
0.0120

> <Gold.Rescore>
     Score         DG    S(hbond)    S(metal)    S(lipo)     H(rot)  DE(clash)    DE(int)     intcor
     14.90     -17.36       2.70        0.00      53.27       1.32       0.22       2.23       ----

> <Gold.Chemscore.Fitness>
14.8987

> <Gold.Chemscore.DG>
-17.3551

> <Gold.Chemscore.ZeroCoef>
-5.4800

> <Gold.Chemscore.Hbond>
2.7048

> <Gold.Chemscore.Metal>
0.0000

> <Gold.Chemscore.Lipo>
53.2655

> <Gold.Chemscore.Internal_Hbond>
0.0000

> <Gold.Chemscore.DEClash>
0.2234

> <Gold.Chemscore.DEInternal>
2.2329

> <Gold.Chemscore.Rot>
1.3246

> <Gold.Chemscore.Internal.Correction>
   9.000000E+99

> <Gold.Chemscore.Hbonds>
donor molecule, donor type, donor heavy atom, donor atom, acceptor molecule, acceptor atom, score
      L1  H    13    39       P1  7948  0.87
      P1  H  7997  8010       L1     3  0.23
      P1  H 10752 10764       L1     8  0.96

> <Gold.Chemscore.Hbond.Weighted>
-9.0340

> <Gold.Chemscore.Metal.Weighted>
-0.0000

> <Gold.Chemscore.Lipo.Weighted>
-6.2321

> <Gold.Chemscore.Internal_Hbond.Weighted>
0.0000

> <Gold.Chemscore.DEClash.Weighted>
0.2234

> <Gold.Chemscore.DEInternal.Weighted>
2.2329

> <Gold.Chemscore.Rot.Weighted>
3.3910

> <Gold.Chemscore.Internal.Correction.Weighted>
   9.000000E+99

> <Gold.Protein.RotatedTorsions>
[ 6907 6896 6895 6894 ] final  101.18 input  -60.11 | X-H torsion
[ 7974 7965 7964 7962 ] final  -92.25 input  175.53 | X-H torsion
[ 8008 7997 7996 7995 ] final   44.57 input   59.86 | X-H torsion
[ 10167 10162 10161 10158 ] final  -14.68 input  -65.29 | X-H torsion
[ 10718 10713 10712 10709 ] final  -25.43 input   66.30 | X-H torsion
[ 10763 10752 10751 10750 ] final  -71.60 input  -60.55 | X-H torsion
[ 11005 11000 10999 10996 ] final  156.45 input  -57.11 | X-H torsion

> <Gold.Protein.ActiveResidues>
 VAL166  LYS551  ARG553  GLY616  TRP617  ASP618  TYR619  PRO620  LYS621  CYS622 
 ASP623  PHE694  ASN695  SER759  ASP760  ASP761  ALA762  ILE779  LEU786  VAL792 
 PHE793  MET794  SER795  GLU796  ALA797  LYS798  CYS799  TRP800  GLU811  SER814 

> <Gold.Protein.RotatedAtoms>
  152.5355  134.0164  159.7961 H   0  0  0  0  0  0  0  0  0  0  0  0  # atno 6907 bound_to 6896
  151.0358  133.5742  159.2663 H   0  0  0  0  0  0  0  0  0  0  0  0  # atno 6908 bound_to 6896
  151.2730  135.0698  159.9195 H   0  0  0  0  0  0  0  0  0  0  0  0  # atno 6909 bound_to 6896
  145.4024  140.9538  143.2280 H   0  0  0  0  0  0  0  0  0  0  0  0  # atno 7974 bound_to 7965
  155.3214  140.3397  155.4241 H   0  0  0  0  0  0  0  0  0  0  0  0  # atno 8008 bound_to 7997
  156.1907  140.1696  156.8135 H   0  0  0  0  0  0  0  0  0  0  0  0  # atno 8009 bound_to 7997
  154.5438  140.0719  156.8539 H   0  0  0  0  0  0  0  0  0  0  0  0  # atno 8010 bound_to 7997
  140.7205  143.5297  150.9535 H   0  0  0  0  0  0  0  0  0  0  0  0  # atno 10167 bound_to 10162
  156.4645  130.4511  149.6908 H   0  0  0  0  0  0  0  0  0  0  0  0  # atno 10718 bound_to 10713
  154.4340  135.5957  153.6087 H   0  0  0  0  0  0  0  0  0  0  0  0  # atno 10763 bound_to 10752
  152.9801  135.5982  154.3804 H   0  0  0  0  0  0  0  0  0  0  0  0  # atno 10764 bound_to 10752
  154.3646  135.2841  155.2279 H   0  0  0  0  0  0  0  0  0  0  0  0  # atno 10765 bound_to 10752
  140.1676  134.8566  157.2651 H   0  0  0  0  0  0  0  0  0  0  0  0  # atno 11005 bound_to 11000
  144.8365  139.5542  143.6920 LP  0  0  0  0  0  0  0  0  0  0  0  0  # atno 17320 bound_to 7965
  146.2745  139.6719  142.9272 LP  0  0  0  0  0  0  0  0  0  0  0  0  # atno 17321 bound_to 7965
  139.9016  143.6828  152.3130 LP  0  0  0  0  0  0  0  0  0  0  0  0  # atno 17342 bound_to 10162
  139.7180  144.7608  151.1002 LP  0  0  0  0  0  0  0  0  0  0  0  0  # atno 17343 bound_to 10162
  156.3682  130.7517  151.2497 LP  0  0  0  0  0  0  0  0  0  0  0  0  # atno 17370 bound_to 10713
  157.7495  131.0330  150.4254 LP  0  0  0  0  0  0  0  0  0  0  0  0  # atno 17371 bound_to 10713
  140.2415  134.3790  155.7478 LP  0  0  0  0  0  0  0  0  0  0  0  0  # atno 17394 bound_to 11000
  141.2215  133.7268  156.8797 LP  0  0  0  0  0  0  0  0  0  0  0  0  # atno 17395 bound_to 11000

$$$$
