AV-unprocessed.smi:3097|AV-procd|sdf|11798|dock10
  -GOLD-   2272017173D 1   1.00000     0.00000
 Structure written by MMmdl.
 35 35  0  0  0  0  0  0  0  0  2 V2000
  146.9531  140.9828  153.1074 C   0  0  0  0  0  0  0  0  0  0  0  0
  147.4452  139.5519  152.8550 C   0  0  0  0  0  0  0  0  0  0  0  0
  146.6834  138.8406  151.7268 C   0  0  0  0  0  0  0  0  0  0  0  0
  145.4005  138.2943  152.1941 N   0  0  0  0  0  0  0  0  0  0  0  0
  145.1651  137.0205  152.5666 C   0  0  0  0  0  0  0  0  0  0  0  0
  143.9268  136.6510  152.9482 N   0  3  0  0  0  0  0  0  0  0  0  0
  142.7521  137.5296  153.0053 C   0  0  0  0  0  0  0  0  0  0  0  0
  146.1635  136.1159  152.5563 N   0  0  0  0  0  0  0  0  0  0  0  0
  146.0416  134.7001  152.9272 C   0  0  0  0  0  0  0  0  0  0  0  0
  146.7949  133.8010  151.9384 C   0  0  0  0  0  0  0  0  0  0  0  0
  145.9069  133.2529  150.9321 N   0  0  0  0  0  0  0  0  0  0  0  0
  146.1557  132.2465  150.0224 C   0  0  0  0  0  0  0  0  0  0  0  0
  145.0204  132.0785  149.2825 C   0  0  0  0  0  0  0  0  0  0  0  0
  144.1211  133.0420  149.8193 C   0  0  0  0  0  0  0  0  0  0  0  0
  144.6543  133.7426  150.8075 N   0  0  0  0  0  0  0  0  0  0  0  0
  147.5051  141.4427  153.9274 H   0  0  0  0  0  0  0  0  0  0  0  0
  145.8951  140.9947  153.3712 H   0  0  0  0  0  0  0  0  0  0  0  0
  147.0867  141.6107  152.2261 H   0  0  0  0  0  0  0  0  0  0  0  0
  148.5118  139.5702  152.6286 H   0  0  0  0  0  0  0  0  0  0  0  0
  147.3422  138.9723  153.7729 H   0  0  0  0  0  0  0  0  0  0  0  0
  146.4969  139.5309  150.9037 H   0  0  0  0  0  0  0  0  0  0  0  0
  147.2869  138.0286  151.3202 H   0  0  0  0  0  0  0  0  0  0  0  0
  144.6190  138.9343  152.1870 H   0  0  0  0  0  0  0  0  0  0  0  0
  141.8780  136.9678  153.3340 H   0  0  0  0  0  0  0  0  0  0  0  0
  142.5426  137.9504  152.0219 H   0  0  0  0  0  0  0  0  0  0  0  0
  142.9213  138.3466  153.7069 H   0  0  0  0  0  0  0  0  0  0  0  0
  147.0772  136.4221  152.2541 H   0  0  0  0  0  0  0  0  0  0  0  0
  146.4362  134.5615  153.9343 H   0  0  0  0  0  0  0  0  0  0  0  0
  144.9843  134.4339  152.9535 H   0  0  0  0  0  0  0  0  0  0  0  0
  147.5862  134.3603  151.4366 H   0  0  0  0  0  0  0  0  0  0  0  0
  147.2749  132.9750  152.4652 H   0  0  0  0  0  0  0  0  0  0  0  0
  147.1080  131.7385  149.9774 H   0  0  0  0  0  0  0  0  0  0  0  0
  144.8572  131.3754  148.4791 H   0  0  0  0  0  0  0  0  0  0  0  0
  143.1034  133.2507  149.5234 H   0  0  0  0  0  0  0  0  0  0  0  0
  143.7796  135.6890  153.2189 H   0  0  0  0  0  0  0  0  0  0  0  0
  1  2  1  0  0  0  0
  1 16  1  0  0  0  0
  1 17  1  0  0  0  0
  1 18  1  0  0  0  0
  2  3  1  0  0  0  0
  2 19  1  0  0  0  0
  2 20  1  0  0  0  0
  3  4  1  0  0  0  0
  3 21  1  0  0  0  0
  3 22  1  0  0  0  0
  4  5  1  0  0  0  0
  4 23  1  0  0  0  0
  5  6  2  0  0  0  0
  5  8  1  0  0  0  0
  6  7  1  0  0  0  0
  6 35  1  0  0  0  0
  7 24  1  0  0  0  0
  7 25  1  0  0  0  0
  7 26  1  0  0  0  0
  8  9  1  0  0  0  0
  8 27  1  0  0  0  0
  9 10  1  0  0  0  0
  9 28  1  0  0  0  0
  9 29  1  0  0  0  0
 10 11  1  0  0  0  0
 10 30  1  0  0  0  0
 10 31  1  0  0  0  0
 11 15  1  0  0  0  0
 11 12  1  0  0  0  0
 12 13  2  0  0  0  0
 12 32  1  0  0  0  0
 13 14  1  0  0  0  0
 13 33  1  0  0  0  0
 14 15  2  0  0  0  0
 14 34  1  0  0  0  0
M  CHG  1   6   1
M  END
> <s_m_source_file>
AV-unprocessed.smi

> <i_m_source_file_index>
3097

> <i_lp_mmshare_version>
43012

> <i_f3d_flags>
0

> <s_epik_input>
W0NIM11bQ0gyXVtDSDJdW05IXS9DKD1OXFtDSDNdKVtOSF1bQ0gyXVtDSDJdbjFbY0hdW2NIXVtjSF1uMQ==

> <s_epik_cmdline>
J2VwaWtfcHl0aG9uJywgJy1waCcsICc3LjAnLCAnLXRuJywgJzgnLCAnLW1hJywgJzIwMCcsICctbWV0YWxfYmluZGluZycsICctaW1hZScsICc8aW5maWxlLm1hZT4nLCAnLW9tYWUnLCAnPG91dGZpbGUubWFlPic=

> <r_lp_tautomer_probability>
1

> <r_epik_Ionization_Penalty>
4.40305e-05

> <r_epik_Ionization_Penalty_Charging>
1.64417e-07

> <r_epik_Ionization_Penalty_Neutral>
4.38661e-05

> <r_epik_State_Penalty>
-0

> <r_epik_Charging_Adjusted_Penalty>
1.64417e-07

> <i_epik_Tot_Q>
1

> <i_epik_Tot_abs_Q>
1

> <r_epik_Metal_State_Penalty>
-0

> <b_epik_Metal_Only>
0

> <s_epik_Chemistry_Notes>
This compound has an imine and may undergo hydrolysis.

> <s_lp_Force_Field>
OPLS_2005

> <r_lp_Energy>
7.72145

> <b_lp_Chiralities_Consistent>
1

> <s_lp_Variant>
AV-unprocessed.smi:3097-1

> <Gold.Version>
5.8.1

> <Gold.Id.Protein>
6NUR|6NUR_protein|mol2

> <Gold.PLP.Fitness>
46.1436

> <Gold.PLP.PLP>
-29.6251

> <Gold.PLP.part.hbond>
-3.0000

> <Gold.PLP.part.metal>
0.0000

> <Gold.PLP.part.buried>
1.2106

> <Gold.PLP.part.nonpolar>
-27.3767

> <Gold.PLP.part.repulsive>
0.1680

> <Gold.PLP.ligand.clash>
0.0000

> <Gold.PLP.ligand.torsion>
0.7512

> <Gold.PLP.Chemscore.Hbond>
4.0000

> <Gold.PLP.Chemscore.CHOScore>
2.0000

> <Gold.PLP.Chemscore.Metal>
0.0000

> <Gold.Chemscore.Hbonds>
donor molecule, donor type, donor heavy atom, donor atom, acceptor molecule, acceptor atom, score
      L1  H     4    23       P1 10175  2.00
      L1  H     8    27       P1  7948  2.00
      L1  C    12    32       P1 10747  1.00
      L1  C    14    34       P1 10186  1.00

> <Gold.PLP.Chemscore.Internal.Correction>
0.0208

> <Gold.Rescore>
     Score         DG    S(hbond)    S(metal)    S(lipo)     H(rot)  DE(clash)    DE(int)     intcor
     13.52     -15.47       1.94        0.00      70.52       1.86       1.44       0.51       ----

> <Gold.Chemscore.Fitness>
13.5193

> <Gold.Chemscore.DG>
-15.4692

> <Gold.Chemscore.ZeroCoef>
-5.4800

> <Gold.Chemscore.Hbond>
1.9433

> <Gold.Chemscore.Metal>
0.0000

> <Gold.Chemscore.Lipo>
70.5158

> <Gold.Chemscore.Internal_Hbond>
0.0000

> <Gold.Chemscore.DEClash>
1.4353

> <Gold.Chemscore.DEInternal>
0.5146

> <Gold.Chemscore.Rot>
1.8561

> <Gold.Chemscore.Internal.Correction>
   9.000000E+99

> <Gold.Chemscore.Hbonds>
donor molecule, donor type, donor heavy atom, donor atom, acceptor molecule, acceptor atom, score
      L1  H     4    23       P1 10175  1.00
      L1  H     8    27       P1  7948  0.98

> <Gold.Chemscore.Hbond.Weighted>
-6.4906

> <Gold.Chemscore.Metal.Weighted>
-0.0000

> <Gold.Chemscore.Lipo.Weighted>
-8.2504

> <Gold.Chemscore.Internal_Hbond.Weighted>
0.0000

> <Gold.Chemscore.DEClash.Weighted>
1.4353

> <Gold.Chemscore.DEInternal.Weighted>
0.5146

> <Gold.Chemscore.Rot.Weighted>
4.7517

> <Gold.Chemscore.Internal.Correction.Weighted>
   9.000000E+99

> <Gold.Protein.RotatedTorsions>
[ 6907 6896 6895 6894 ] final -120.28 input  -60.11 | X-H torsion
[ 7974 7965 7964 7962 ] final  151.32 input  175.53 | X-H torsion
[ 8008 7997 7996 7995 ] final -132.19 input   59.86 | X-H torsion
[ 10167 10162 10161 10158 ] final  175.87 input  -65.29 | X-H torsion
[ 10718 10713 10712 10709 ] final -112.89 input   66.30 | X-H torsion
[ 10763 10752 10751 10750 ] final  -76.17 input  -60.55 | X-H torsion
[ 11005 11000 10999 10996 ] final   72.01 input  -57.11 | X-H torsion

> <Gold.Protein.ActiveResidues>
 VAL166  LYS551  ARG553  GLY616  TRP617  ASP618  TYR619  PRO620  LYS621  CYS622 
 ASP623  PHE694  ASN695  SER759  ASP760  ASP761  ALA762  ILE779  LEU786  VAL792 
 PHE793  MET794  SER795  GLU796  ALA797  LYS798  CYS799  TRP800  GLU811  SER814 

> <Gold.Protein.RotatedAtoms>
  150.8379  133.7983  159.3072 H   0  0  0  0  0  0  0  0  0  0  0  0  # atno 6907 bound_to 6896
  151.5694  135.1061  160.0001 H   0  0  0  0  0  0  0  0  0  0  0  0  # atno 6908 bound_to 6896
  152.4448  133.7474  159.6731 H   0  0  0  0  0  0  0  0  0  0  0  0  # atno 6909 bound_to 6896
  144.8300  139.6523  143.6063 H   0  0  0  0  0  0  0  0  0  0  0  0  # atno 7974 bound_to 7965
  155.3247  140.0464  157.3040 H   0  0  0  0  0  0  0  0  0  0  0  0  # atno 8008 bound_to 7997
  154.5361  140.2272  155.8687 H   0  0  0  0  0  0  0  0  0  0  0  0  # atno 8009 bound_to 7997
  156.1836  140.3068  155.9201 H   0  0  0  0  0  0  0  0  0  0  0  0  # atno 8010 bound_to 7997
  139.5193  144.2981  152.0403 H   0  0  0  0  0  0  0  0  0  0  0  0  # atno 10167 bound_to 10162
  156.0733  130.5944  150.8570 H   0  0  0  0  0  0  0  0  0  0  0  0  # atno 10718 bound_to 10713
  154.4963  135.5806  153.6497 H   0  0  0  0  0  0  0  0  0  0  0  0  # atno 10763 bound_to 10752
  152.9871  135.6125  154.3060 H   0  0  0  0  0  0  0  0  0  0  0  0  # atno 10764 bound_to 10752
  154.2963  135.2847  155.2611 H   0  0  0  0  0  0  0  0  0  0  0  0  # atno 10765 bound_to 10752
  139.9513  134.7222  156.0856 H   0  0  0  0  0  0  0  0  0  0  0  0  # atno 11005 bound_to 11000
  146.2604  139.6397  142.9366 LP  0  0  0  0  0  0  0  0  0  0  0  0  # atno 17320 bound_to 7965
  145.4915  141.0438  143.2590 LP  0  0  0  0  0  0  0  0  0  0  0  0  # atno 17321 bound_to 7965
  140.2429  144.4250  150.6252 LP  0  0  0  0  0  0  0  0  0  0  0  0  # atno 17342 bound_to 10162
  140.6278  143.2183  151.6560 LP  0  0  0  0  0  0  0  0  0  0  0  0  # atno 17343 bound_to 10162
  157.5816  131.0946  150.9262 LP  0  0  0  0  0  0  0  0  0  0  0  0  # atno 17370 bound_to 10713
  156.9457  130.5401  149.5281 LP  0  0  0  0  0  0  0  0  0  0  0  0  # atno 17371 bound_to 10713
  141.1176  133.6622  156.3134 LP  0  0  0  0  0  0  0  0  0  0  0  0  # atno 17394 bound_to 11000
  140.5712  134.5838  157.5458 LP  0  0  0  0  0  0  0  0  0  0  0  0  # atno 17395 bound_to 11000

$$$$
