#       Name:                AV-unprocessed.smi:3280
#       Creating user name   scv26
#       Creation time:       Fri Mar 27 18:47:14 2020


#       File generated by GOLD software.
#

@<TRIPOS>MOLECULE
AV-unprocessed.smi:3280
    43    44     1
SMALL
NO_CHARGES


@<TRIPOS>ATOM
      1 ****        -5.0009  -1.6137  -0.6509 C.3            1 S1                 0.0000
      2 ****        -4.8471  -0.5980  -1.7926 C.3            1 S1                 0.0000
      3 ****        -4.9778  -1.2362  -3.1836 C.3            1 S1                 0.0000
      4 ****        -3.5830   0.1957  -1.6627 C.2            1 S1                 0.0000
      5 ****        -3.6105   1.5069  -1.4515 N.2            1 S1                 0.0000
      6 ****        -2.2541   1.8558  -1.3861 O.3            1 S1                 0.0000
      7 ****        -1.5680   0.7056  -1.5849 C.2            1 S1                 0.0000
      8 ****        -0.0780   0.7347  -1.5227 C.3            1 S1                 0.0000
      9 ****         0.4466   0.6263  -0.0856 C.3            1 S1                 0.0000
     10 ****         1.9227   0.6510  -0.0545 N.4            1 S1                 1.0000
     11 ****         2.5156   0.5493   1.2968 C.3            1 S1                 0.0000
     12 ****         3.3924  -0.7143   1.3868 C.3            1 S1                 0.0000
     13 ****         3.9963  -0.9199   2.7859 C.3            1 S1                 0.0000
     14 ****         4.9041   0.2431   3.2097 C.3            1 S1                 0.0000
     15 ****         3.9756   1.7978   3.3008 S.3            1 S1                 0.0000
     16 ****         3.3214   1.8225   1.6093 C.3            1 S1                 0.0000
     17 ****        -2.3426  -0.3642  -1.7409 N.2            1 S1                 0.0000
     18 ****        -4.9744  -1.1187   0.3203 H              1 S1                 0.0000
     19 ****        -4.2028  -2.3565  -0.6689 H              1 S1                 0.0000
     20 ****        -5.9499  -2.1454  -0.7246 H              1 S1                 0.0000
     21 ****        -5.6801   0.1006  -1.6961 H              1 S1                 0.0000
     22 ****        -4.9389  -0.4792  -3.9676 H              1 S1                 0.0000
     23 ****        -5.9248  -1.7670  -3.2838 H              1 S1                 0.0000
     24 ****        -4.1760  -1.9512  -3.3704 H              1 S1                 0.0000
     25 ****         0.3106  -0.0851  -2.1284 H              1 S1                 0.0000
     26 ****         0.2711   1.6593  -1.9845 H              1 S1                 0.0000
     27 ****         0.0613   1.4509   0.5158 H              1 S1                 0.0000
     28 ****         0.0944  -0.3006   0.3697 H              1 S1                 0.0000
     29 ****         2.2663  -0.1198  -0.6096 H              1 S1                 0.0000
     30 ****         1.7145   0.4630   2.0335 H              1 S1                 0.0000
     31 ****         2.7946  -1.5898   1.1299 H              1 S1                 0.0000
     32 ****         4.1939  -0.6647   0.6483 H              1 S1                 0.0000
     33 ****         3.1983  -1.0495   3.5182 H              1 S1                 0.0000
     34 ****         4.5719  -1.8460   2.7960 H              1 S1                 0.0000
     35 ****         5.3449   0.0417   4.1864 H              1 S1                 0.0000
     36 ****         5.7281   0.3601   2.5052 H              1 S1                 0.0000
     37 ****         4.1525   1.9333   0.9116 H              1 S1                 0.0000
     38 ****         2.6930   2.7072   1.5008 H              1 S1                 0.0000
     39 ****         2.2379   1.5134  -0.4756 H              1 S1                 0.0000
     40 ****        -4.4083   2.1030  -1.3608 LP             1 S1                 0.0000
     41 ****        -2.0363   2.2408  -0.4892 LP             1 S1                 0.0000
     42 ****        -2.0310   2.5220  -2.0978 LP             1 S1                 0.0000
     43 ****        -2.0848  -1.3205  -1.8784 LP             1 S1                 0.0000
@<TRIPOS>BOND
    1    1    2 1     
    2    1   18 1     
    3    1   19 1     
    4    1   20 1     
    5    2    3 1     
    6    2    4 1     
    7    2   21 1     
    8    3   22 1     
    9    3   23 1     
   10    3   24 1     
   11    4   17 1     
   12    4    5 2     
   13    5    6 1     
   14    6    7 1     
   15    7    8 1     
   16    7   17 2     
   17    8    9 1     
   18    8   25 1     
   19    8   26 1     
   20    9   10 1     
   21    9   27 1     
   22    9   28 1     
   23   10   11 1     
   24   10   29 1     
   25   10   39 1     
   26   11   16 1     
   27   11   12 1     
   28   11   30 1     
   29   12   13 1     
   30   12   31 1     
   31   12   32 1     
   32   13   14 1     
   33   13   33 1     
   34   13   34 1     
   35   14   15 1     
   36   14   35 1     
   37   14   36 1     
   38   15   16 1     
   39   16   37 1     
   40   16   38 1     
   41    5   40 1     
   42    6   41 1     
   43    6   42 1     
   44   17   43 1     
@<TRIPOS>SUBSTRUCTURE
      1 S1             1
@<TRIPOS>SET
LONE_PAIRS      STATIC     ATOMS    <user>   **** ""
4 40 41 42 43
DONOR_HYDROGENS      STATIC     ATOMS    <user>   **** ""
2 29 39
ATOM$BLUE        STATIC     ATOMS    COLORGROUP SYSTEM
4 40 41 42 43
ATOM$RED        STATIC     ATOMS    COLORGROUP SYSTEM
2 29 39
