AV-unprocessed.smi:1703|AV-procd|sdf|6870|dock2
  -GOLD-   22720 8 63D 1   1.00000     0.00000
 Structure written by MMmdl.
 49 51  0  0  0  0  0  0  0  0  2 V2000
  147.2242  134.9083  162.1060 C   0  0  0  0  0  0  0  0  0  0  0  0
  147.1279  136.1238  161.1783 C   0  0  1  0  0  0  0  0  0  0  0  0
  148.3397  136.2322  160.2330 C   0  0  0  0  0  0  0  0  0  0  0  0
  148.2054  137.3430  159.2943 N   0  0  0  0  0  0  0  0  0  0  0  0
  149.3364  137.4440  158.3722 C   0  0  0  0  0  0  0  0  0  0  0  0
  149.4370  138.7756  157.5927 C   0  0  1  0  0  0  0  0  0  0  0  0
  148.5412  139.7095  158.1588 O   0  0  0  0  0  0  0  0  0  0  0  0
  150.8375  139.4233  157.6386 C   0  0  0  0  0  0  0  0  0  0  0  0
  150.8072  140.8883  157.5027 N   0  0  0  0  0  0  0  0  0  0  0  0
  150.2179  141.6857  156.5634 C   0  0  0  0  0  0  0  0  0  0  0  0
  149.4151  141.2468  155.3798 C   0  0  0  0  0  0  0  0  0  0  0  0
  149.1390  142.3021  154.4836 O   0  0  0  0  0  0  0  0  0  0  0  0
  150.5007  142.9768  156.8992 N   0  3  0  0  0  0  0  0  0  0  0  0
  151.2807  143.0074  158.0550 C   0  0  0  0  0  0  0  0  0  0  0  0
  151.8123  144.0773  158.7686 C   0  0  0  0  0  0  0  0  0  0  0  0
  152.5730  143.7588  159.9128 C   0  0  0  0  0  0  0  0  0  0  0  0
  152.7808  142.4209  160.3073 C   0  0  0  0  0  0  0  0  0  0  0  0
  152.2368  141.3449  159.5754 C   0  0  0  0  0  0  0  0  0  0  0  0
  151.4844  141.6687  158.4466 C   0  0  0  0  0  0  0  0  0  0  0  0
  146.9515  137.1940  158.5633 C   0  0  0  0  0  0  0  0  0  0  0  0
  145.7376  137.0897  159.5061 C   0  0  1  0  0  0  0  0  0  0  0  0
  144.4305  136.8500  158.7429 C   0  0  0  0  0  0  0  0  0  0  0  0
  145.9394  136.0010  160.4023 O   0  0  0  0  0  0  0  0  0  0  0  0
  148.1141  134.9631  162.7334 H   0  0  0  0  0  0  0  0  0  0  0  0
  147.2720  133.9798  161.5362 H   0  0  0  0  0  0  0  0  0  0  0  0
  146.3568  134.8512  162.7637 H   0  0  0  0  0  0  0  0  0  0  0  0
  147.0593  137.0259  161.7890 H   0  0  0  0  0  0  0  0  0  0  0  0
  149.2394  136.3574  160.8351 H   0  0  0  0  0  0  0  0  0  0  0  0
  148.4575  135.2971  159.6829 H   0  0  0  0  0  0  0  0  0  0  0  0
  150.2737  137.2335  158.8902 H   0  0  0  0  0  0  0  0  0  0  0  0
  149.2261  136.6385  157.6483 H   0  0  0  0  0  0  0  0  0  0  0  0
  149.1527  138.6165  156.5521 H   0  0  0  0  0  0  0  0  0  0  0  0
  147.7592  139.2510  158.4259 H   0  0  0  0  0  0  0  0  0  0  0  0
  151.3443  139.1842  158.5746 H   0  0  0  0  0  0  0  0  0  0  0  0
  151.4681  139.0241  156.8437 H   0  0  0  0  0  0  0  0  0  0  0  0
  149.9593  140.4635  154.8520 H   0  0  0  0  0  0  0  0  0  0  0  0
  148.4690  140.8185  155.7088 H   0  0  0  0  0  0  0  0  0  0  0  0
  149.0699  143.1051  154.9776 H   0  0  0  0  0  0  0  0  0  0  0  0
  151.6560  145.1030  158.4671 H   0  0  0  0  0  0  0  0  0  0  0  0
  153.0066  144.5562  160.4988 H   0  0  0  0  0  0  0  0  0  0  0  0
  153.3700  142.2151  161.1893 H   0  0  0  0  0  0  0  0  0  0  0  0
  152.4026  140.3237  159.8856 H   0  0  0  0  0  0  0  0  0  0  0  0
  146.8131  138.0427  157.8924 H   0  0  0  0  0  0  0  0  0  0  0  0
  146.9975  136.3044  157.9327 H   0  0  0  0  0  0  0  0  0  0  0  0
  145.6421  138.0108  160.0840 H   0  0  0  0  0  0  0  0  0  0  0  0
  144.2267  137.6653  158.0483 H   0  0  0  0  0  0  0  0  0  0  0  0
  143.5858  136.7791  159.4287 H   0  0  0  0  0  0  0  0  0  0  0  0
  144.4724  135.9234  158.1696 H   0  0  0  0  0  0  0  0  0  0  0  0
  150.1771  143.7767  156.3705 H   0  0  0  0  0  0  0  0  0  0  0  0
  1  2  1  0  0  0  0
  1 24  1  0  0  0  0
  1 25  1  0  0  0  0
  1 26  1  0  0  0  0
  2 23  1  0  0  0  0
  2  3  1  0  0  0  0
  2 27  1  0  0  0  0
  3  4  1  0  0  0  0
  3 28  1  0  0  0  0
  3 29  1  0  0  0  0
  4  5  1  0  0  0  0
  4 20  1  0  0  0  0
  5  6  1  0  0  0  0
  5 30  1  0  0  0  0
  5 31  1  0  0  0  0
  6  7  1  0  0  0  0
  6  8  1  0  0  0  0
  6 32  1  0  0  0  0
  7 33  1  0  0  0  0
  8  9  1  0  0  0  0
  8 34  1  0  0  0  0
  8 35  1  0  0  0  0
  9 19  1  0  0  0  0
  9 10  1  0  0  0  0
 10 11  1  0  0  0  0
 10 13  2  0  0  0  0
 11 12  1  0  0  0  0
 11 36  1  0  0  0  0
 11 37  1  0  0  0  0
 12 38  1  0  0  0  0
 13 14  1  0  0  0  0
 13 49  1  0  0  0  0
 14 19  2  0  0  0  0
 14 15  1  0  0  0  0
 15 16  2  0  0  0  0
 15 39  1  0  0  0  0
 16 17  1  0  0  0  0
 16 40  1  0  0  0  0
 17 18  2  0  0  0  0
 17 41  1  0  0  0  0
 18 19  1  0  0  0  0
 18 42  1  0  0  0  0
 20 21  1  0  0  0  0
 20 43  1  0  0  0  0
 20 44  1  0  0  0  0
 21 22  1  0  0  0  0
 21 23  1  0  0  0  0
 21 45  1  0  0  0  0
 22 46  1  0  0  0  0
 22 47  1  0  0  0  0
 22 48  1  0  0  0  0
M  CHG  1  13   1
M  END
> <s_m_source_file>
AV-unprocessed.smi

> <i_m_source_file_index>
1703

> <i_lp_mmshare_version>
43012

> <i_f3d_flags>
0

> <s_epik_input>
W0NIM11bQ0BASF0xW0NIMl1OKFtDSDJdW0NASF0oTzEpW0NIM10pW0NIMl1bQ0BIXShbT0hdKVtDSDJdbihjKG4yKVtDSDJdW09IXSljKGMyMylbY0hdW2NIXVtjSF1bY0hdMw==

> <s_epik_cmdline>
J2VwaWtfcHl0aG9uJywgJy1waCcsICc3LjAnLCAnLXRuJywgJzgnLCAnLW1hJywgJzIwMCcsICctbWV0YWxfYmluZGluZycsICctaW1hZScsICc8aW5maWxlLm1hZT4nLCAnLW9tYWUnLCAnPG91dGZpbGUubWFlPic=

> <r_epik_Ionization_Penalty>
1.7682

> <r_epik_Ionization_Penalty_Charging>
1.55298

> <r_epik_Ionization_Penalty_Neutral>
0.215215

> <r_epik_State_Penalty>
1.83821

> <r_epik_Charging_Adjusted_Penalty>
3.39119

> <i_epik_Tot_Q>
1

> <i_epik_Tot_abs_Q>
1

> <r_epik_Metal_State_Penalty>
5.89206

> <b_epik_Metal_Only>
0

> <s_lp_Force_Field>
OPLS_2005

> <r_lp_Energy>
33.2802

> <b_lp_Chiralities_Consistent>
1

> <s_lp_Variant>
AV-unprocessed.smi:1703-18

> <Gold.Version>
5.8.1

> <Gold.Id.Protein>
6NUR|6NUR_protein|mol2

> <Gold.PLP.Fitness>
53.3951

> <Gold.PLP.PLP>
-46.0469

> <Gold.PLP.part.hbond>
-5.5909

> <Gold.PLP.part.metal>
0.0000

> <Gold.PLP.part.buried>
-6.4883

> <Gold.PLP.part.nonpolar>
-35.8691

> <Gold.PLP.part.repulsive>
0.0569

> <Gold.PLP.ligand.clash>
0.0000

> <Gold.PLP.ligand.torsion>
1.2648

> <Gold.PLP.Chemscore.Hbond>
3.2615

> <Gold.PLP.Chemscore.CHOScore>
0.0000

> <Gold.PLP.Chemscore.Metal>
0.0000

> <Gold.Chemscore.Hbonds>
donor molecule, donor type, donor heavy atom, donor atom, acceptor molecule, acceptor atom, score
      L1  H    12    38       P1  8028  1.00
      L1  H    13    49       P1  8028  2.00
      P1  H  8011  8017       L1    12  0.10

> <Gold.PLP.Chemscore.Internal.Correction>
0.0933

> <Gold.Rescore>
     Score         DG    S(hbond)    S(metal)    S(lipo)     H(rot)  DE(clash)    DE(int)     intcor
     14.69     -16.89       2.05        0.00     103.65       2.96       0.04       2.16       ----

> <Gold.Chemscore.Fitness>
14.6933

> <Gold.Chemscore.DG>
-16.8919

> <Gold.Chemscore.ZeroCoef>
-5.4800

> <Gold.Chemscore.Hbond>
2.0510

> <Gold.Chemscore.Metal>
0.0000

> <Gold.Chemscore.Lipo>
103.6544

> <Gold.Chemscore.Internal_Hbond>
0.0000

> <Gold.Chemscore.DEClash>
0.0389

> <Gold.Chemscore.DEInternal>
2.1597

> <Gold.Chemscore.Rot>
2.9555

> <Gold.Chemscore.Internal.Correction>
   9.000000E+99

> <Gold.Chemscore.Hbonds>
donor molecule, donor type, donor heavy atom, donor atom, acceptor molecule, acceptor atom, score
      L1  H    12    38       P1  8028  1.00
      L1  H    13    49       P1  8028  0.96
      P1  H  8011  8017       L1    12  0.09

> <Gold.Chemscore.Hbond.Weighted>
-6.8503

> <Gold.Chemscore.Metal.Weighted>
-0.0000

> <Gold.Chemscore.Lipo.Weighted>
-12.1276

> <Gold.Chemscore.Internal_Hbond.Weighted>
0.0000

> <Gold.Chemscore.DEClash.Weighted>
0.0389

> <Gold.Chemscore.DEInternal.Weighted>
2.1597

> <Gold.Chemscore.Rot.Weighted>
7.5660

> <Gold.Chemscore.Internal.Correction.Weighted>
   9.000000E+99

> <Gold.Protein.RotatedTorsions>
[ 6907 6896 6895 6894 ] final  168.23 input  -60.11 | X-H torsion
[ 7974 7965 7964 7962 ] final   41.46 input  175.53 | X-H torsion
[ 8008 7997 7996 7995 ] final  -75.73 input   59.86 | X-H torsion
[ 10167 10162 10161 10158 ] final -169.97 input  -65.29 | X-H torsion
[ 10718 10713 10712 10709 ] final -170.57 input   66.30 | X-H torsion
[ 10763 10752 10751 10750 ] final -170.32 input  -60.55 | X-H torsion
[ 11005 11000 10999 10996 ] final  -10.93 input  -57.11 | X-H torsion

> <Gold.Protein.ActiveResidues>
 VAL166  LYS551  ARG553  GLY616  TRP617  ASP618  TYR619  PRO620  LYS621  CYS622 
 ASP623  PHE694  ASN695  SER759  ASP760  ASP761  ALA762  ILE779  LEU786  VAL792 
 PHE793  MET794  SER795  GLU796  ALA797  LYS798  CYS799  TRP800  GLU811  SER814 

> <Gold.Protein.RotatedAtoms>
  151.8509  133.3439  159.3672 H   0  0  0  0  0  0  0  0  0  0  0  0  # atno 6907 bound_to 6896
  150.7207  134.5300  159.5705 H   0  0  0  0  0  0  0  0  0  0  0  0  # atno 6908 bound_to 6896
  152.2793  134.7847  160.0450 H   0  0  0  0  0  0  0  0  0  0  0  0  # atno 6909 bound_to 6896
  146.0821  139.5413  142.9530 H   0  0  0  0  0  0  0  0  0  0  0  0  # atno 7974 bound_to 7965
  154.5443  140.0739  156.8562 H   0  0  0  0  0  0  0  0  0  0  0  0  # atno 8008 bound_to 7997
  155.3119  140.3391  155.4225 H   0  0  0  0  0  0  0  0  0  0  0  0  # atno 8009 bound_to 7997
  156.1903  140.1684  156.8091 H   0  0  0  0  0  0  0  0  0  0  0  0  # atno 8010 bound_to 7997
  139.5890  144.1255  152.1611 H   0  0  0  0  0  0  0  0  0  0  0  0  # atno 10167 bound_to 10162
  156.7281  130.9296  151.3102 H   0  0  0  0  0  0  0  0  0  0  0  0  # atno 10718 bound_to 10713
  154.6427  135.2901  155.0083 H   0  0  0  0  0  0  0  0  0  0  0  0  # atno 10763 bound_to 10752
  154.1204  135.6549  153.4906 H   0  0  0  0  0  0  0  0  0  0  0  0  # atno 10764 bound_to 10752
  153.0335  135.5286  154.7301 H   0  0  0  0  0  0  0  0  0  0  0  0  # atno 10765 bound_to 10752
  140.7499  133.8601  155.9036 H   0  0  0  0  0  0  0  0  0  0  0  0  # atno 11005 bound_to 11000
  145.6198  141.0324  143.1921 LP  0  0  0  0  0  0  0  0  0  0  0  0  # atno 17320 bound_to 7965
  144.7300  139.7754  143.7350 LP  0  0  0  0  0  0  0  0  0  0  0  0  # atno 17321 bound_to 7965
  140.0825  144.5689  150.7112 LP  0  0  0  0  0  0  0  0  0  0  0  0  # atno 17342 bound_to 10162
  140.7157  143.2542  151.4442 LP  0  0  0  0  0  0  0  0  0  0  0  0  # atno 17343 bound_to 10162
  157.6870  130.9195  150.0413 LP  0  0  0  0  0  0  0  0  0  0  0  0  # atno 17370 bound_to 10713
  156.1548  130.3643  149.9385 LP  0  0  0  0  0  0  0  0  0  0  0  0  # atno 17371 bound_to 10713
  140.9760  134.1468  157.4536 LP  0  0  0  0  0  0  0  0  0  0  0  0  # atno 17394 bound_to 11000
  139.8789  134.9995  156.5956 LP  0  0  0  0  0  0  0  0  0  0  0  0  # atno 17395 bound_to 11000

$$$$
