AV-unprocessed.smi:2513|AV-procd|sdf|9892|dock4
  -GOLD-   2272013533D 1   1.00000     0.00000
 Structure written by MMmdl.
 35 36  0  0  0  0  0  0  0  0  1 V2000
  151.1598  138.5199  155.3250 C   0  0  0  0  0  0  0  0  0  0  0  0
  150.5857  139.7974  155.0905 O   0  0  0  0  0  0  0  0  0  0  0  0
  149.3143  139.8542  154.5532 C   0  0  0  0  0  0  0  0  0  0  0  0
  148.7498  138.8198  153.7638 C   0  0  0  0  0  0  0  0  0  0  0  0
  147.4454  138.9683  153.2618 C   0  0  0  0  0  0  0  0  0  0  0  0
  146.7479  140.1487  153.5654 C   0  0  0  0  0  0  0  0  0  0  0  0
  147.2722  141.1395  154.3129 N   0  0  0  0  0  0  0  0  0  0  0  0
  148.5297  141.0099  154.8050 C   0  0  0  0  0  0  0  0  0  0  0  0
  149.1535  142.0092  155.6026 N   0  0  0  0  0  0  0  0  0  0  0  0
  149.6029  141.9116  156.8659 C   0  0  0  0  0  0  0  0  0  0  0  0
  149.5465  140.9012  157.5675 O   0  0  0  0  0  0  0  0  0  0  0  0
  150.1308  143.0718  157.2824 N   0  0  0  0  0  0  0  0  0  0  0  0
  150.7082  143.3075  158.6023 C   0  0  1  0  0  0  0  0  0  0  0  0
  152.2187  143.5536  158.4724 C   0  0  0  0  0  0  0  0  0  0  0  0
  152.8062  143.9382  159.8349 C   0  0  0  0  0  0  0  0  0  0  0  0
  152.0218  145.1096  160.4464 C   0  0  0  0  0  0  0  0  0  0  0  0
  150.6441  144.7669  160.5508 O   0  0  0  0  0  0  0  0  0  0  0  0
  150.0342  144.5142  159.2889 C   0  0  0  0  0  0  0  0  0  0  0  0
  152.1575  138.6462  155.7455 H   0  0  0  0  0  0  0  0  0  0  0  0
  151.2624  137.9526  154.3989 H   0  0  0  0  0  0  0  0  0  0  0  0
  150.5714  137.9430  156.0399 H   0  0  0  0  0  0  0  0  0  0  0  0
  149.2901  137.9145  153.5332 H   0  0  0  0  0  0  0  0  0  0  0  0
  146.9909  138.1958  152.6592 H   0  0  0  0  0  0  0  0  0  0  0  0
  145.7432  140.3021  153.1998 H   0  0  0  0  0  0  0  0  0  0  0  0
  149.2693  142.9053  155.1530 H   0  0  0  0  0  0  0  0  0  0  0  0
  150.1350  143.8503  156.6399 H   0  0  0  0  0  0  0  0  0  0  0  0
  150.5590  142.4214  159.2223 H   0  0  0  0  0  0  0  0  0  0  0  0
  152.7193  142.6661  158.0832 H   0  0  0  0  0  0  0  0  0  0  0  0
  152.4052  144.3580  157.7591 H   0  0  0  0  0  0  0  0  0  0  0  0
  152.7628  143.0809  160.5078 H   0  0  0  0  0  0  0  0  0  0  0  0
  153.8590  144.2018  159.7307 H   0  0  0  0  0  0  0  0  0  0  0  0
  152.4045  145.3382  161.4413 H   0  0  0  0  0  0  0  0  0  0  0  0
  152.1386  146.0127  159.8452 H   0  0  0  0  0  0  0  0  0  0  0  0
  150.0954  145.4061  158.6632 H   0  0  0  0  0  0  0  0  0  0  0  0
  148.9747  144.3157  159.4539 H   0  0  0  0  0  0  0  0  0  0  0  0
  1  2  1  0  0  0  0
  1 19  1  0  0  0  0
  1 20  1  0  0  0  0
  1 21  1  0  0  0  0
  2  3  1  0  0  0  0
  3  8  1  0  0  0  0
  3  4  2  0  0  0  0
  4  5  1  0  0  0  0
  4 22  1  0  0  0  0
  5  6  2  0  0  0  0
  5 23  1  0  0  0  0
  6  7  1  0  0  0  0
  6 24  1  0  0  0  0
  7  8  2  0  0  0  0
  8  9  1  0  0  0  0
  9 10  1  0  0  0  0
  9 25  1  0  0  0  0
 10 11  2  0  0  0  0
 10 12  1  0  0  0  0
 12 13  1  0  0  0  0
 12 26  1  0  0  0  0
 13 18  1  0  0  0  0
 13 14  1  0  0  0  0
 13 27  1  0  0  0  0
 14 15  1  0  0  0  0
 14 28  1  0  0  0  0
 14 29  1  0  0  0  0
 15 16  1  0  0  0  0
 15 30  1  0  0  0  0
 15 31  1  0  0  0  0
 16 17  1  0  0  0  0
 16 32  1  0  0  0  0
 16 33  1  0  0  0  0
 17 18  1  0  0  0  0
 18 34  1  0  0  0  0
 18 35  1  0  0  0  0
M  END
> <s_m_source_file>
AV-unprocessed.smi

> <i_m_source_file_index>
2513

> <i_lp_mmshare_version>
43012

> <i_f3d_flags>
0

> <s_epik_input>
W0NIM11PYzFbY0hdW2NIXVtjSF1uYzFbTkhdQyg9TylbTkhdW0NAQEhdMltDSDJdW0NIMl1bQ0gyXU9bQ0gyXTI=

> <s_epik_cmdline>
J2VwaWtfcHl0aG9uJywgJy1waCcsICc3LjAnLCAnLXRuJywgJzgnLCAnLW1hJywgJzIwMCcsICctbWV0YWxfYmluZGluZycsICctaW1hZScsICc8aW5maWxlLm1hZT4nLCAnLW9tYWUnLCAnPG91dGZpbGUubWFlPic=

> <r_lp_tautomer_probability>
1

> <r_epik_Ionization_Penalty>
3.98976e-05

> <r_epik_Ionization_Penalty_Charging>
0

> <r_epik_Ionization_Penalty_Neutral>
3.98976e-05

> <r_epik_State_Penalty>
-0

> <r_epik_Charging_Adjusted_Penalty>
0

> <i_epik_Tot_Q>
0

> <i_epik_Tot_abs_Q>
0

> <r_epik_Metal_State_Penalty>
-0

> <b_epik_Metal_Only>
0

> <s_lp_Force_Field>
OPLS_2005

> <r_lp_Energy>
12.9865

> <b_lp_Chiralities_Consistent>
1

> <s_lp_Variant>
AV-unprocessed.smi:2513-2

> <Gold.Version>
5.8.1

> <Gold.Id.Protein>
6NUR|6NUR_protein|mol2

> <Gold.PLP.Fitness>
40.3805

> <Gold.PLP.PLP>
-30.3145

> <Gold.PLP.part.hbond>
-3.1618

> <Gold.PLP.part.metal>
0.0000

> <Gold.PLP.part.buried>
-0.7817

> <Gold.PLP.part.nonpolar>
-27.4794

> <Gold.PLP.part.repulsive>
0.5239

> <Gold.PLP.ligand.clash>
0.0000

> <Gold.PLP.ligand.torsion>
0.9567

> <Gold.PLP.Chemscore.Hbond>
2.9920

> <Gold.PLP.Chemscore.CHOScore>
1.0000

> <Gold.PLP.Chemscore.Metal>
0.0000

> <Gold.Chemscore.Hbonds>
donor molecule, donor type, donor heavy atom, donor atom, acceptor molecule, acceptor atom, score
      L1  H     9    25       P1  8028  0.70
      L1  H    12    26       P1  8028  0.72
      P1  H  7989  7998       L1     2  0.56
      L1  C     6    24       P1 10175  1.00

> <Gold.PLP.Chemscore.Internal.Correction>
0.0035

> <Gold.Rescore>
     Score         DG    S(hbond)    S(metal)    S(lipo)     H(rot)  DE(clash)    DE(int)     intcor
     15.95     -19.68       2.25        0.00      84.59       1.25       0.25       3.49       ----

> <Gold.Chemscore.Fitness>
15.9477

> <Gold.Chemscore.DG>
-19.6799

> <Gold.Chemscore.ZeroCoef>
-5.4800

> <Gold.Chemscore.Hbond>
2.2494

> <Gold.Chemscore.Metal>
0.0000

> <Gold.Chemscore.Lipo>
84.5939

> <Gold.Chemscore.Internal_Hbond>
0.0000

> <Gold.Chemscore.DEClash>
0.2451

> <Gold.Chemscore.DEInternal>
3.4871

> <Gold.Chemscore.Rot>
1.2542

> <Gold.Chemscore.Internal.Correction>
   9.000000E+99

> <Gold.Chemscore.Hbonds>
donor molecule, donor type, donor heavy atom, donor atom, acceptor molecule, acceptor atom, score
      L1  H     9    25       P1  8028  0.70
      L1  H    12    26       P1  8028  0.72
      P1  H  7989  7998       L1     2  0.09

> <Gold.Chemscore.Hbond.Weighted>
-7.5131

> <Gold.Chemscore.Metal.Weighted>
-0.0000

> <Gold.Chemscore.Lipo.Weighted>
-9.8975

> <Gold.Chemscore.Internal_Hbond.Weighted>
0.0000

> <Gold.Chemscore.DEClash.Weighted>
0.2451

> <Gold.Chemscore.DEInternal.Weighted>
3.4871

> <Gold.Chemscore.Rot.Weighted>
3.2107

> <Gold.Chemscore.Internal.Correction.Weighted>
   9.000000E+99

> <Gold.Protein.RotatedTorsions>
[ 6907 6896 6895 6894 ] final  -93.86 input  -60.11 | X-H torsion
[ 7974 7965 7964 7962 ] final  -49.40 input  175.53 | X-H torsion
[ 8008 7997 7996 7995 ] final   19.67 input   59.86 | X-H torsion
[ 10167 10162 10161 10158 ] final  -86.33 input  -65.29 | X-H torsion
[ 10718 10713 10712 10709 ] final  -39.10 input   66.30 | X-H torsion
[ 10763 10752 10751 10750 ] final  -59.76 input  -60.55 | X-H torsion
[ 11005 11000 10999 10996 ] final  -88.71 input  -57.11 | X-H torsion

> <Gold.Protein.ActiveResidues>
 VAL166  LYS551  ARG553  GLY616  TRP617  ASP618  TYR619  PRO620  LYS621  CYS622 
 ASP623  PHE694  ASN695  SER759  ASP760  ASP761  ALA762  ILE779  LEU786  VAL792 
 PHE793  MET794  SER795  GLU796  ALA797  LYS798  CYS799  TRP800  GLU811  SER814 

> <Gold.Protein.RotatedAtoms>
  150.6930  134.1901  159.4281 H   0  0  0  0  0  0  0  0  0  0  0  0  # atno 6907 bound_to 6896
  151.9872  134.9995  160.0569 H   0  0  0  0  0  0  0  0  0  0  0  0  # atno 6908 bound_to 6896
  152.1700  133.4602  159.4941 H   0  0  0  0  0  0  0  0  0  0  0  0  # atno 6909 bound_to 6896
  145.9410  140.7662  142.9552 H   0  0  0  0  0  0  0  0  0  0  0  0  # atno 7974 bound_to 7965
  154.9241  140.3031  155.5201 H   0  0  0  0  0  0  0  0  0  0  0  0  # atno 8008 bound_to 7997
  156.3008  140.2366  156.4231 H   0  0  0  0  0  0  0  0  0  0  0  0  # atno 8009 bound_to 7997
  154.8301  140.0419  157.1460 H   0  0  0  0  0  0  0  0  0  0  0  0  # atno 8010 bound_to 7997
  140.3952  143.2687  151.9213 H   0  0  0  0  0  0  0  0  0  0  0  0  # atno 10167 bound_to 10162
  156.2962  130.4234  149.8188 H   0  0  0  0  0  0  0  0  0  0  0  0  # atno 10718 bound_to 10713
  154.2587  135.6312  153.5266 H   0  0  0  0  0  0  0  0  0  0  0  0  # atno 10763 bound_to 10752
  152.9899  135.5582  154.5728 H   0  0  0  0  0  0  0  0  0  0  0  0  # atno 10764 bound_to 10752
  154.5272  135.2886  155.1187 H   0  0  0  0  0  0  0  0  0  0  0  0  # atno 10765 bound_to 10752
  141.1597  133.7586  156.9491 H   0  0  0  0  0  0  0  0  0  0  0  0  # atno 11005 bound_to 11000
  144.6779  140.2280  143.7358 LP  0  0  0  0  0  0  0  0  0  0  0  0  # atno 17320 bound_to 7965
  145.8300  139.2081  143.1888 LP  0  0  0  0  0  0  0  0  0  0  0  0  # atno 17321 bound_to 7965
  139.4787  144.5688  151.8121 LP  0  0  0  0  0  0  0  0  0  0  0  0  # atno 17342 bound_to 10162
  140.4798  144.1466  150.5931 LP  0  0  0  0  0  0  0  0  0  0  0  0  # atno 17343 bound_to 10162
  156.5583  130.8372  151.3321 LP  0  0  0  0  0  0  0  0  0  0  0  0  # atno 17370 bound_to 10713
  157.7356  130.9765  150.2090 LP  0  0  0  0  0  0  0  0  0  0  0  0  # atno 17371 bound_to 10713
  140.1269  134.9381  157.2283 LP  0  0  0  0  0  0  0  0  0  0  0  0  # atno 17394 bound_to 11000
  140.3001  134.3141  155.7292 LP  0  0  0  0  0  0  0  0  0  0  0  0  # atno 17395 bound_to 11000

$$$$
