#       Name:                AV-unprocessed.smi:1809
#       Creating user name   scv26
#       Creation time:       Fri Mar 27 08:58:47 2020


#       File generated by GOLD software.
#

@<TRIPOS>MOLECULE
AV-unprocessed.smi:1809
    46    48     1
SMALL
NO_CHARGES


@<TRIPOS>ATOM
      1 ****        -7.5908   2.7560   1.5582 C.3            1 S1                 0.0000
      2 ****        -6.2079   2.6208   1.0197 C.2            1 S1                 0.0000
      3 ****        -5.9451   2.5477  -0.2873 N.2            1 S1                 0.0000
      4 ****        -4.5867   2.4238  -0.5410 N.2            1 S1                 0.0000
      5 ****        -3.8439   2.3915   0.5746 C.2            1 S1                 0.0000
      6 ****        -2.5056   2.2787   0.5458 N.pl3          1 S1                -1.0000
      7 ****        -1.9244   1.0721   0.7343 C.2            1 S1                 0.0000
      8 ****        -2.5057   0.0055   0.9475 O.2            1 S1                 0.0000
      9 ****        -0.5868   1.1009   0.6741 N.am           1 S1                 0.0000
     10 ****         0.2847  -0.0552   0.8383 C.3            1 S1                 0.0000
     11 ****         1.7661   0.3593   0.7496 C.3            1 S1                 0.0000
     12 ****         2.7347  -0.8208   1.0011 C.3            1 S1                 0.0000
     13 ****         2.7835  -1.7000  -0.1524 N.3            1 S1                 0.0000
     14 ****         3.7212  -2.7968  -0.0957 C.3            1 S1                 0.0000
     15 ****         3.8415  -3.2701  -1.5546 C.3            1 S1                 0.0000
     16 ****         3.3545  -2.0663  -2.3911 C.3            1 S1                 0.0000
     17 ****         3.1590  -0.9758  -1.3360 C.3            1 S1                 0.0000
     18 ****         2.1408   0.1305  -1.6427 C.3            1 S1                 0.0000
     19 ****         2.0621   0.9950  -0.5050 O.3            1 S1                 0.0000
     20 ****        -4.7921   2.5382   2.0543 S.3            1 S1                 0.0000
     21 ****        -8.0652   1.7763   1.6140 H              1 S1                 0.0000
     22 ****        -8.1879   3.4003   0.9123 H              1 S1                 0.0000
     23 ****        -7.5662   3.1914   2.5572 H              1 S1                 0.0000
     24 ****        -0.1431   1.9893   0.4922 H              1 S1                 0.0000
     25 ****         0.0895  -0.5091   1.8110 H              1 S1                 0.0000
     26 ****         0.0399  -0.8067   0.0869 H              1 S1                 0.0000
     27 ****         1.9422   1.1039   1.5269 H              1 S1                 0.0000
     28 ****         3.7322  -0.4276   1.2023 H              1 S1                 0.0000
     29 ****         2.4347  -1.3793   1.8883 H              1 S1                 0.0000
     30 ****         4.6908  -2.4451   0.2605 H              1 S1                 0.0000
     31 ****         3.3790  -3.5847   0.5757 H              1 S1                 0.0000
     32 ****         4.8684  -3.5471  -1.7945 H              1 S1                 0.0000
     33 ****         3.2081  -4.1390  -1.7366 H              1 S1                 0.0000
     34 ****         4.0685  -1.7713  -3.1604 H              1 S1                 0.0000
     35 ****         2.4085  -2.3060  -2.8788 H              1 S1                 0.0000
     36 ****         4.1286  -0.5027  -1.1657 H              1 S1                 0.0000
     37 ****         2.4540   0.7101  -2.5111 H              1 S1                 0.0000
     38 ****         1.1599  -0.2863  -1.8733 H              1 S1                 0.0000
     39 ****        -6.6457   2.5786  -1.0002 LP             1 S1                 0.0000
     40 ****        -4.2012   2.3646  -1.4617 LP             1 S1                 0.0000
     41 ****        -1.9391   3.0869   0.3850 LP             1 S1                 0.0000
     42 ****        -3.5043  -0.0191   0.9943 LP             1 S1                 0.0000
     43 ****        -1.9785  -0.8348   1.0736 LP             1 S1                 0.0000
     44 ****         1.8548  -2.0708  -0.1637 LP             1 S1                 0.0000
     45 ****         2.9426   1.4598  -0.4123 LP             1 S1                 0.0000
     46 ****         1.3459   1.6700  -0.6825 LP             1 S1                 0.0000
@<TRIPOS>BOND
    1    1    2 1     
    2    1   21 1     
    3    1   22 1     
    4    1   23 1     
    5    2   20 1     
    6    2    3 2     
    7    3    4 1     
    8    4    5 2     
    9    5    6 1     
   10    5   20 1     
   11    6    7 1     
   12    7    8 2     
   13    7    9 am    
   14    9   10 1     
   15    9   24 1     
   16   10   11 1     
   17   10   25 1     
   18   10   26 1     
   19   11   19 1     
   20   11   12 1     
   21   11   27 1     
   22   12   13 1     
   23   12   28 1     
   24   12   29 1     
   25   13   17 1     
   26   13   14 1     
   27   14   15 1     
   28   14   30 1     
   29   14   31 1     
   30   15   16 1     
   31   15   32 1     
   32   15   33 1     
   33   16   17 1     
   34   16   34 1     
   35   16   35 1     
   36   17   18 1     
   37   17   36 1     
   38   18   19 1     
   39   18   37 1     
   40   18   38 1     
   41    3   39 1     
   42    4   40 1     
   43    6   41 1     
   44    8   42 1     
   45    8   43 1     
   46   13   44 1     
   47   19   45 1     
   48   19   46 1     
@<TRIPOS>SUBSTRUCTURE
      1 S1             1
@<TRIPOS>SET
LONE_PAIRS      STATIC     ATOMS    <user>   **** ""
8 39 40 41 42 43 44 45 46
DONOR_HYDROGENS      STATIC     ATOMS    <user>   **** ""
1 24
ATOM$BLUE        STATIC     ATOMS    COLORGROUP SYSTEM
8 39 40 41 42 43 44 45 46
ATOM$RED        STATIC     ATOMS    COLORGROUP SYSTEM
1 24
