AV-unprocessed.smi:1164|AV-procd|sdf|4926|dock7
  -GOLD-   22720 3503D 1   1.00000     0.00000
 Structure written by MMmdl.
 30 30  0  0  0  0  0  0  0  0  2 V2000
  149.5527  140.0374  154.6699 C   0  0  0  0  0  0  0  0  0  0  0  0
  148.6641  141.1458  155.2619 C   0  0  0  0  0  0  0  0  0  0  0  0
  148.0222  141.9426  154.1064 C   0  0  0  0  0  0  0  0  0  0  0  0
  147.5773  140.4987  156.1463 C   0  0  0  0  0  0  0  0  0  0  0  0
  149.5380  142.0086  156.0655 N   0  0  0  0  0  0  0  0  0  0  0  0
  150.2550  141.6906  157.1582 C   0  0  0  0  0  0  0  0  0  0  0  0
  150.2682  140.5669  157.6629 O   0  0  0  0  0  0  0  0  0  0  0  0
  151.0728  142.8431  157.7632 C   0  0  0  0  0  0  0  0  0  0  0  0
  151.9639  142.4403  158.8614 N   0  0  0  0  0  0  0  0  0  0  0  0
  152.8378  141.3181  158.5306 N   0  5  0  0  0  0  0  0  0  0  0  0
  153.7216  140.8700  159.4614 C   0  0  0  0  0  0  0  0  0  0  0  0
  154.5011  139.9440  159.2489 O   0  0  0  0  0  0  0  0  0  0  0  0
  153.7336  141.5188  160.7620 C   0  0  0  0  0  0  0  0  0  0  0  0
  152.8994  142.5380  161.0475 C   0  0  0  0  0  0  0  0  0  0  0  0
  151.9415  143.0560  160.0782 C   0  0  0  0  0  0  0  0  0  0  0  0
  151.1712  143.9817  160.3347 O   0  0  0  0  0  0  0  0  0  0  0  0
  148.9714  139.3457  154.0594 H   0  0  0  0  0  0  0  0  0  0  0  0
  150.0374  139.4537  155.4537 H   0  0  0  0  0  0  0  0  0  0  0  0
  150.3377  140.4525  154.0363 H   0  0  0  0  0  0  0  0  0  0  0  0
  148.7789  142.4451  153.5027 H   0  0  0  0  0  0  0  0  0  0  0  0
  147.3299  142.7033  154.4669 H   0  0  0  0  0  0  0  0  0  0  0  0
  147.4573  141.2865  153.4437 H   0  0  0  0  0  0  0  0  0  0  0  0
  146.9810  139.7853  155.5766 H   0  0  0  0  0  0  0  0  0  0  0  0
  146.8871  141.2373  156.5542 H   0  0  0  0  0  0  0  0  0  0  0  0
  148.0178  139.9603  156.9864 H   0  0  0  0  0  0  0  0  0  0  0  0
  149.6072  142.9659  155.7520 H   0  0  0  0  0  0  0  0  0  0  0  0
  151.6593  143.3134  156.9719 H   0  0  0  0  0  0  0  0  0  0  0  0
  150.3758  143.6109  158.1040 H   0  0  0  0  0  0  0  0  0  0  0  0
  154.4252  141.1740  161.5166 H   0  0  0  0  0  0  0  0  0  0  0  0
  152.9416  142.9896  162.0273 H   0  0  0  0  0  0  0  0  0  0  0  0
  1  2  1  0  0  0  0
  1 17  1  0  0  0  0
  1 18  1  0  0  0  0
  1 19  1  0  0  0  0
  2  3  1  0  0  0  0
  2  4  1  0  0  0  0
  2  5  1  0  0  0  0
  3 20  1  0  0  0  0
  3 21  1  0  0  0  0
  3 22  1  0  0  0  0
  4 23  1  0  0  0  0
  4 24  1  0  0  0  0
  4 25  1  0  0  0  0
  5  6  1  0  0  0  0
  5 26  1  0  0  0  0
  6  7  2  0  0  0  0
  6  8  1  0  0  0  0
  8 27  1  0  0  0  0
  8 28  1  0  0  0  0
  8  9  1  0  0  0  0
  9 10  1  0  0  0  0
  9 15  1  0  0  0  0
 10 11  1  0  0  0  0
 11 12  2  0  0  0  0
 11 13  1  0  0  0  0
 13 29  1  0  0  0  0
 13 14  2  0  0  0  0
 14 30  1  0  0  0  0
 14 15  1  0  0  0  0
 15 16  2  0  0  0  0
M  CHG  1  10  -1
M  END
> <s_m_source_file>
AV-unprocessed.smi

> <i_m_source_file_index>
1164

> <i_lp_mmshare_version>
43012

> <i_f3d_flags>
0

> <s_epik_input>
W0NIM11DKFtDSDNdKShbQ0gzXSlbTkhdQyg9TylbQ0gyXW4xW25IXWMoPU8pW2NIXVtjSF1jMT1P

> <s_epik_cmdline>
J2VwaWtfcHl0aG9uJywgJy1waCcsICc3LjAnLCAnLXRuJywgJzgnLCAnLW1hJywgJzIwMCcsICctbWV0YWxfYmluZGluZycsICctaW1hZScsICc8aW5maWxlLm1hZT4nLCAnLW9tYWUnLCAnPG91dGZpbGUubWFlPic=

> <r_lp_tautomer_probability>
1

> <r_epik_Ionization_Penalty>
0.098909

> <r_epik_Ionization_Penalty_Charging>
0.0989089

> <r_epik_Ionization_Penalty_Neutral>
2.46306e-08

> <r_epik_State_Penalty>
0.0348838

> <r_epik_Charging_Adjusted_Penalty>
0.133793

> <i_epik_Tot_Q>
-1

> <i_epik_Tot_abs_Q>
1

> <r_epik_Metal_State_Penalty>
0.0348839

> <b_epik_Metal_Only>
0

> <s_lp_Force_Field>
OPLS_2005

> <r_lp_Energy>
18.541

> <b_lp_Chiralities_Consistent>
1

> <s_lp_Variant>
AV-unprocessed.smi:1164-1

> <Gold.Version>
5.8.1

> <Gold.Id.Protein>
6NUR|6NUR_protein|mol2

> <Gold.PLP.Fitness>
36.3421

> <Gold.PLP.PLP>
-30.5542

> <Gold.PLP.part.hbond>
-2.0446

> <Gold.PLP.part.metal>
0.0000

> <Gold.PLP.part.buried>
-2.1814

> <Gold.PLP.part.nonpolar>
-25.6450

> <Gold.PLP.part.repulsive>
0.2028

> <Gold.PLP.ligand.clash>
0.0000

> <Gold.PLP.ligand.torsion>
0.1092

> <Gold.PLP.Chemscore.Hbond>
2.0000

> <Gold.PLP.Chemscore.CHOScore>
0.0000

> <Gold.PLP.Chemscore.Metal>
0.0000

> <Gold.Chemscore.Hbonds>
donor molecule, donor type, donor heavy atom, donor atom, acceptor molecule, acceptor atom, score
      L1  H     5    26       P1  8028  1.00
      P1  H  7997  8009       L1    12  1.00

> <Gold.PLP.Chemscore.Internal.Correction>
0.0063

> <Gold.Rescore>
     Score         DG    S(hbond)    S(metal)    S(lipo)     H(rot)  DE(clash)    DE(int)     intcor
     11.87     -13.22       1.87        0.00      49.71       1.70       0.03       1.32       ----

> <Gold.Chemscore.Fitness>
11.8716

> <Gold.Chemscore.DG>
-13.2155

> <Gold.Chemscore.ZeroCoef>
-5.4800

> <Gold.Chemscore.Hbond>
1.8737

> <Gold.Chemscore.Metal>
0.0000

> <Gold.Chemscore.Lipo>
49.7130

> <Gold.Chemscore.Internal_Hbond>
0.0000

> <Gold.Chemscore.DEClash>
0.0270

> <Gold.Chemscore.DEInternal>
1.3169

> <Gold.Chemscore.Rot>
1.6950

> <Gold.Chemscore.Internal.Correction>
   9.000000E+99

> <Gold.Chemscore.Hbonds>
donor molecule, donor type, donor heavy atom, donor atom, acceptor molecule, acceptor atom, score
      L1  H     5    26       P1  8028  0.94
      P1  H  7997  8009       L1    12  0.51

> <Gold.Chemscore.Hbond.Weighted>
-6.2583

> <Gold.Chemscore.Metal.Weighted>
-0.0000

> <Gold.Chemscore.Lipo.Weighted>
-5.8164

> <Gold.Chemscore.Internal_Hbond.Weighted>
0.0000

> <Gold.Chemscore.DEClash.Weighted>
0.0270

> <Gold.Chemscore.DEInternal.Weighted>
1.3169

> <Gold.Chemscore.Rot.Weighted>
4.3393

> <Gold.Chemscore.Internal.Correction.Weighted>
   9.000000E+99

> <Gold.Protein.RotatedTorsions>
[ 6907 6896 6895 6894 ] final   15.71 input  -60.11 | X-H torsion
[ 7974 7965 7964 7962 ] final    7.53 input  175.53 | X-H torsion
[ 8008 7997 7996 7995 ] final  129.03 input   59.86 | X-H torsion
[ 10167 10162 10161 10158 ] final -167.69 input  -65.29 | X-H torsion
[ 10718 10713 10712 10709 ] final   -3.06 input   66.30 | X-H torsion
[ 10763 10752 10751 10750 ] final  124.87 input  -60.55 | X-H torsion
[ 11005 11000 10999 10996 ] final -141.96 input  -57.11 | X-H torsion

> <Gold.Protein.ActiveResidues>
 VAL166  LYS551  ARG553  GLY616  TRP617  ASP618  TYR619  PRO620  LYS621  CYS622 
 ASP623  PHE694  ASN695  SER759  ASP760  ASP761  ALA762  ILE779  LEU786  VAL792 
 PHE793  MET794  SER795  GLU796  ALA797  LYS798  CYS799  TRP800  GLU811  SER814 

> <Gold.Protein.RotatedAtoms>
  151.8225  135.0647  160.0426 H   0  0  0  0  0  0  0  0  0  0  0  0  # atno 6907 bound_to 6896
  152.2941  133.5585  159.5584 H   0  0  0  0  0  0  0  0  0  0  0  0  # atno 6908 bound_to 6896
  150.7243  134.0303  159.3773 H   0  0  0  0  0  0  0  0  0  0  0  0  # atno 6909 bound_to 6896
  146.2426  140.0069  142.8410 H   0  0  0  0  0  0  0  0  0  0  0  0  # atno 7974 bound_to 7965
  156.2927  140.2630  156.2532 H   0  0  0  0  0  0  0  0  0  0  0  0  # atno 8008 bound_to 7997
  154.9862  140.0389  157.2318 H   0  0  0  0  0  0  0  0  0  0  0  0  # atno 8009 bound_to 7997
  154.7727  140.2781  155.6130 H   0  0  0  0  0  0  0  0  0  0  0  0  # atno 8010 bound_to 7997
  139.6033  144.0965  152.1766 H   0  0  0  0  0  0  0  0  0  0  0  0  # atno 10167 bound_to 10162
  156.7816  130.5332  149.5750 H   0  0  0  0  0  0  0  0  0  0  0  0  # atno 10718 bound_to 10713
  153.6683  135.3334  155.3146 H   0  0  0  0  0  0  0  0  0  0  0  0  # atno 10763 bound_to 10752
  154.8497  135.4380  154.1731 H   0  0  0  0  0  0  0  0  0  0  0  0  # atno 10764 bound_to 10752
  153.2716  135.7001  153.7551 H   0  0  0  0  0  0  0  0  0  0  0  0  # atno 10765 bound_to 10752
  140.8273  134.2559  157.4873 H   0  0  0  0  0  0  0  0  0  0  0  0  # atno 11005 bound_to 11000
  145.1363  140.9546  143.4515 LP  0  0  0  0  0  0  0  0  0  0  0  0  # atno 17320 bound_to 7965
  145.0339  139.3317  143.6011 LP  0  0  0  0  0  0  0  0  0  0  0  0  # atno 17321 bound_to 7965
  140.0566  144.5890  150.7295 LP  0  0  0  0  0  0  0  0  0  0  0  0  # atno 17342 bound_to 10162
  140.7266  143.2643  151.4099 LP  0  0  0  0  0  0  0  0  0  0  0  0  # atno 17343 bound_to 10162
  156.1214  130.6112  151.0199 LP  0  0  0  0  0  0  0  0  0  0  0  0  # atno 17370 bound_to 10713
  157.6643  131.0875  150.7765 LP  0  0  0  0  0  0  0  0  0  0  0  0  # atno 17371 bound_to 10713
  139.8706  134.9567  156.4247 LP  0  0  0  0  0  0  0  0  0  0  0  0  # atno 17394 bound_to 11000
  140.9035  133.7762  155.9708 LP  0  0  0  0  0  0  0  0  0  0  0  0  # atno 17395 bound_to 11000

$$$$
