AV-unprocessed.smi:278|AV-procd|sdf|2088|dock7
  -GOLD-   2262021363D 1   1.00000     0.00000
 Structure written by MMmdl.
 50 54  0  0  0  0  0  0  0  0  1 V2000
  147.5476  137.1567  161.1608 O   0  0  0  0  0  0  0  0  0  0  0  0
  147.0264  136.5648  162.4028 S   0  0  0  0  0  0  0  0  0  0  0  0
  147.4807  137.0502  163.7147 O   0  0  0  0  0  0  0  0  0  0  0  0
  145.1923  136.5976  162.3572 C   0  0  0  0  0  0  0  0  0  0  0  0
  144.7308  135.1478  162.5581 C   0  0  0  0  0  0  0  0  0  0  0  0
  145.8089  134.1940  162.0113 C   0  0  1  0  0  0  0  0  0  0  0  0
  145.8477  134.1132  160.4815 C   0  0  0  0  0  0  0  0  0  0  0  0
  147.2361  133.8275  160.1441 N   0  0  0  0  0  0  0  0  0  0  0  0
  147.6689  133.8963  158.8574 C   0  0  0  0  0  0  0  0  0  0  0  0
  148.9044  134.4066  158.6063 N   0  0  0  0  0  0  0  0  0  0  0  0
  149.3715  134.4761  157.3566 C   0  0  0  0  0  0  0  0  0  0  0  0
  148.7770  134.1031  156.2227 N   0  0  0  0  0  0  0  0  0  0  0  0
  147.5295  133.6082  156.4612 C   0  0  0  0  0  0  0  0  0  0  0  0
  146.8998  133.4742  157.7323 C   0  0  0  0  0  0  0  0  0  0  0  0
  145.6242  132.9437  157.5656 N   0  0  0  0  0  0  0  0  0  0  0  0
  145.5139  132.7610  156.2784 C   0  0  0  0  0  0  0  0  0  0  0  0
  146.6163  133.1260  155.5413 N   0  0  0  0  0  0  0  0  0  0  0  0
  146.7771  133.0220  154.1020 C   0  0  0  0  0  0  0  0  0  0  0  0
  146.0340  134.1435  153.3489 C   0  0  1  0  0  0  0  0  0  0  0  0
  146.7878  135.3380  153.4375 O   0  0  0  0  0  0  0  0  0  0  0  0
  145.8077  133.8034  151.8644 C   0  0  2  0  0  0  0  0  0  0  0  0
  144.9488  134.8195  151.1076 C   0  0  0  0  0  0  0  0  0  0  0  0
  144.3970  133.9770  149.9814 C   0  0  0  0  0  0  0  0  0  0  0  0
  144.1347  132.6527  150.6906 C   0  0  0  0  0  0  0  0  0  0  0  0
  145.0984  132.5719  151.7377 O   0  0  0  0  0  0  0  0  0  0  0  0
  148.1142  134.2353  161.2340 C   0  0  0  0  0  0  0  0  0  0  0  0
  147.1975  134.7297  162.3611 C   0  0  1  0  0  0  0  0  0  0  0  0
  145.6841  133.1889  162.4170 H   0  0  0  0  0  0  0  0  0  0  0  0
  147.5312  134.3997  163.3451 H   0  0  0  0  0  0  0  0  0  0  0  0
  144.8082  137.2764  163.1190 H   0  0  0  0  0  0  0  0  0  0  0  0
  144.8879  136.9694  161.3786 H   0  0  0  0  0  0  0  0  0  0  0  0
  144.6175  134.9639  163.6271 H   0  0  0  0  0  0  0  0  0  0  0  0
  143.7567  134.9673  162.1025 H   0  0  0  0  0  0  0  0  0  0  0  0
  145.1796  133.3376  160.1055 H   0  0  0  0  0  0  0  0  0  0  0  0
  145.5531  135.0628  160.0324 H   0  0  0  0  0  0  0  0  0  0  0  0
  150.3650  134.8866  157.2509 H   0  0  0  0  0  0  0  0  0  0  0  0
  144.6231  132.3457  155.8296 H   0  0  0  0  0  0  0  0  0  0  0  0
  147.8420  133.0427  153.8661 H   0  0  0  0  0  0  0  0  0  0  0  0
  146.4074  132.0443  153.7902 H   0  0  0  0  0  0  0  0  0  0  0  0
  145.0689  134.3199  153.8259 H   0  0  0  0  0  0  0  0  0  0  0  0
  147.3986  135.3588  152.7167 H   0  0  0  0  0  0  0  0  0  0  0  0
  146.7638  133.6895  151.3505 H   0  0  0  0  0  0  0  0  0  0  0  0
  144.1333  135.1808  151.7363 H   0  0  0  0  0  0  0  0  0  0  0  0
  145.5178  135.6811  150.7574 H   0  0  0  0  0  0  0  0  0  0  0  0
  143.5035  134.4014  149.5230 H   0  0  0  0  0  0  0  0  0  0  0  0
  145.1530  133.8471  149.2059 H   0  0  0  0  0  0  0  0  0  0  0  0
  143.1396  132.6508  151.1371 H   0  0  0  0  0  0  0  0  0  0  0  0
  144.2052  131.7986  150.0167 H   0  0  0  0  0  0  0  0  0  0  0  0
  148.6773  133.3625  161.5652 H   0  0  0  0  0  0  0  0  0  0  0  0
  148.8321  134.9980  160.9323 H   0  0  0  0  0  0  0  0  0  0  0  0
  1  2  2  0  0  0  0
  2 27  1  0  0  0  0
  2  3  2  0  0  0  0
  2  4  1  0  0  0  0
  4  5  1  0  0  0  0
  4 30  1  0  0  0  0
  4 31  1  0  0  0  0
  5  6  1  0  0  0  0
  5 32  1  0  0  0  0
  5 33  1  0  0  0  0
  6 28  1  0  0  0  0
  6 27  1  0  0  0  0
  6  7  1  0  0  0  0
  7  8  1  0  0  0  0
  7 34  1  0  0  0  0
  7 35  1  0  0  0  0
  8  9  1  0  0  0  0
  8 26  1  0  0  0  0
  9 14  1  0  0  0  0
  9 10  2  0  0  0  0
 10 11  1  0  0  0  0
 11 12  2  0  0  0  0
 11 36  1  0  0  0  0
 12 13  1  0  0  0  0
 13 17  1  0  0  0  0
 13 14  2  0  0  0  0
 14 15  1  0  0  0  0
 15 16  2  0  0  0  0
 16 17  1  0  0  0  0
 16 37  1  0  0  0  0
 17 18  1  0  0  0  0
 18 19  1  0  0  0  0
 18 38  1  0  0  0  0
 18 39  1  0  0  0  0
 19 20  1  0  0  0  0
 19 21  1  0  0  0  0
 19 40  1  0  0  0  0
 20 41  1  0  0  0  0
 21 25  1  0  0  0  0
 21 22  1  0  0  0  0
 21 42  1  0  0  0  0
 22 23  1  0  0  0  0
 22 43  1  0  0  0  0
 22 44  1  0  0  0  0
 23 24  1  0  0  0  0
 23 45  1  0  0  0  0
 23 46  1  0  0  0  0
 24 25  1  0  0  0  0
 24 47  1  0  0  0  0
 24 48  1  0  0  0  0
 26 27  1  0  0  0  0
 26 49  1  0  0  0  0
 26 50  1  0  0  0  0
 27 29  1  0  0  0  0
M  END
> <s_m_source_file>
AV-unprocessed.smi

> <i_m_source_file_index>
278

> <i_lp_mmshare_version>
43012

> <i_f3d_flags>
0

> <s_epik_input>
W0NIMl0xW0NIMl1TKD1PKSg9TylbQ0BASF0oW0NAQEhdMTIpW0NIMl1OKFtDSDJdMiljKG5bY0hdbjMpYyhjMzQpbltjSF1uNFtDSDJdW0NASF0oW09IXSlbQ0BASF01W0NIMl1bQ0gyXVtDSDJdTzU=

> <s_epik_cmdline>
J2VwaWtfcHl0aG9uJywgJy1waCcsICc3LjAnLCAnLXRuJywgJzgnLCAnLW1hJywgJzIwMCcsICctbWV0YWxfYmluZGluZycsICctaW1hZScsICc8aW5maWxlLm1hZT4nLCAnLW9tYWUnLCAnPG91dGZpbGUubWFlPic=

> <r_lp_tautomer_probability>
1

> <r_epik_Ionization_Penalty>
0.000636766

> <r_epik_Ionization_Penalty_Charging>
0

> <r_epik_Ionization_Penalty_Neutral>
0.000636766

> <r_epik_State_Penalty>
0.000329976

> <r_epik_Charging_Adjusted_Penalty>
0.000329976

> <i_epik_Tot_Q>
0

> <i_epik_Tot_abs_Q>
0

> <r_epik_Metal_State_Penalty>
-0

> <b_epik_Metal_Only>
0

> <s_lp_Force_Field>
OPLS_2005

> <r_lp_Energy>
48.1975

> <b_lp_Chiralities_Consistent>
1

> <s_lp_Variant>
AV-unprocessed.smi:278-2

> <Gold.Version>
5.8.1

> <Gold.Id.Protein>
6NUR|6NUR_protein|mol2

> <Gold.PLP.Fitness>
43.8328

> <Gold.PLP.PLP>
-30.8503

> <Gold.PLP.part.hbond>
-4.0714

> <Gold.PLP.part.metal>
0.0000

> <Gold.PLP.part.buried>
-3.3117

> <Gold.PLP.part.nonpolar>
-23.6726

> <Gold.PLP.part.repulsive>
0.1943

> <Gold.PLP.ligand.clash>
0.0000

> <Gold.PLP.ligand.torsion>
0.7035

> <Gold.PLP.Chemscore.Hbond>
3.6980

> <Gold.PLP.Chemscore.CHOScore>
1.0000

> <Gold.PLP.Chemscore.Metal>
0.0000

> <Gold.Chemscore.Hbonds>
donor molecule, donor type, donor heavy atom, donor atom, acceptor molecule, acceptor atom, score
      L1  H    20    41       P1  7948  0.99
      P1  H  6896  6908       L1    10  0.85
      P1  H  6931  6943       L1     1  0.91
      P1  H  6934  6947       L1     1  0.94
      L1  C    16    37       P1 10957  1.00

> <Gold.PLP.Chemscore.Internal.Correction>
0.2955

> <Gold.Rescore>
     Score         DG    S(hbond)    S(metal)    S(lipo)     H(rot)  DE(clash)    DE(int)     intcor
     13.45     -15.68       2.16        0.00      72.15       2.13       1.53       0.69       ----

> <Gold.Chemscore.Fitness>
13.4541

> <Gold.Chemscore.DG>
-15.6776

> <Gold.Chemscore.ZeroCoef>
-5.4800

> <Gold.Chemscore.Hbond>
2.1620

> <Gold.Chemscore.Metal>
0.0000

> <Gold.Chemscore.Lipo>
72.1473

> <Gold.Chemscore.Internal_Hbond>
0.0000

> <Gold.Chemscore.DEClash>
1.5310

> <Gold.Chemscore.DEInternal>
0.6925

> <Gold.Chemscore.Rot>
2.1346

> <Gold.Chemscore.Internal.Correction>
   9.000000E+99

> <Gold.Chemscore.Hbonds>
donor molecule, donor type, donor heavy atom, donor atom, acceptor molecule, acceptor atom, score
      L1  H    20    41       P1  7948  0.92
      P1  H  6896  6908       L1    10  0.14
      P1  H  6931  6943       L1     1  0.22
      P1  H  6934  6947       L1     1  0.82

> <Gold.Chemscore.Hbond.Weighted>
-7.2210

> <Gold.Chemscore.Metal.Weighted>
-0.0000

> <Gold.Chemscore.Lipo.Weighted>
-8.4412

> <Gold.Chemscore.Internal_Hbond.Weighted>
0.0000

> <Gold.Chemscore.DEClash.Weighted>
1.5310

> <Gold.Chemscore.DEInternal.Weighted>
0.6925

> <Gold.Chemscore.Rot.Weighted>
5.4646

> <Gold.Chemscore.Internal.Correction.Weighted>
   9.000000E+99

> <Gold.Protein.RotatedTorsions>
[ 6907 6896 6895 6894 ] final  163.23 input  -60.11 | X-H torsion
[ 7974 7965 7964 7962 ] final  -60.14 input  175.53 | X-H torsion
[ 8008 7997 7996 7995 ] final  -90.95 input   59.86 | X-H torsion
[ 10167 10162 10161 10158 ] final   73.62 input  -65.29 | X-H torsion
[ 10718 10713 10712 10709 ] final -170.66 input   66.30 | X-H torsion
[ 10763 10752 10751 10750 ] final  -29.72 input  -60.55 | X-H torsion
[ 11005 11000 10999 10996 ] final  131.97 input  -57.11 | X-H torsion

> <Gold.Protein.ActiveResidues>
 VAL166  LYS551  ARG553  GLY616  TRP617  ASP618  TYR619  PRO620  LYS621  CYS622 
 ASP623  PHE694  ASN695  SER759  ASP760  ASP761  ALA762  ILE779  LEU786  VAL792 
 PHE793  MET794  SER795  GLU796  ALA797  LYS798  CYS799  TRP800  GLU811  SER814 

> <Gold.Protein.RotatedAtoms>
  151.9284  133.3604  159.3921 H   0  0  0  0  0  0  0  0  0  0  0  0  # atno 6907 bound_to 6896
  150.7022  134.4563  159.5369 H   0  0  0  0  0  0  0  0  0  0  0  0  # atno 6908 bound_to 6896
  152.2199  134.8422  160.0538 H   0  0  0  0  0  0  0  0  0  0  0  0  # atno 6909 bound_to 6896
  145.8191  140.8551  143.0142 H   0  0  0  0  0  0  0  0  0  0  0  0  # atno 7974 bound_to 7965
  154.7047  140.0525  157.0493 H   0  0  0  0  0  0  0  0  0  0  0  0  # atno 8008 bound_to 7997
  155.0636  140.3192  155.4634 H   0  0  0  0  0  0  0  0  0  0  0  0  # atno 8009 bound_to 7997
  156.2771  140.2094  156.5763 H   0  0  0  0  0  0  0  0  0  0  0  0  # atno 8010 bound_to 7997
  140.0225  144.5529  150.7570 H   0  0  0  0  0  0  0  0  0  0  0  0  # atno 10167 bound_to 10162
  156.7295  130.9301  151.3103 H   0  0  0  0  0  0  0  0  0  0  0  0  # atno 10718 bound_to 10713
  153.7692  135.6913  153.4910 H   0  0  0  0  0  0  0  0  0  0  0  0  # atno 10763 bound_to 10752
  153.1886  135.4479  155.0119 H   0  0  0  0  0  0  0  0  0  0  0  0  # atno 10764 bound_to 10752
  154.8124  135.3383  154.7202 H   0  0  0  0  0  0  0  0  0  0  0  0  # atno 10765 bound_to 10752
  139.9762  134.9563  156.9515 H   0  0  0  0  0  0  0  0  0  0  0  0  # atno 11005 bound_to 11000
  144.6749  140.0507  143.7479 LP  0  0  0  0  0  0  0  0  0  0  0  0  # atno 17320 bound_to 7965
  145.9695  139.2859  143.1107 LP  0  0  0  0  0  0  0  0  0  0  0  0  # atno 17321 bound_to 7965
  140.7336  143.2719  151.3861 LP  0  0  0  0  0  0  0  0  0  0  0  0  # atno 17342 bound_to 10162
  139.6130  144.1060  152.2318 LP  0  0  0  0  0  0  0  0  0  0  0  0  # atno 17343 bound_to 10162
  157.6865  130.9190  150.0399 LP  0  0  0  0  0  0  0  0  0  0  0  0  # atno 17370 bound_to 10713
  156.1539  130.3643  149.9398 LP  0  0  0  0  0  0  0  0  0  0  0  0  # atno 17371 bound_to 10713
  140.5190  134.0926  155.7287 LP  0  0  0  0  0  0  0  0  0  0  0  0  # atno 17394 bound_to 11000
  141.1439  133.9090  157.2262 LP  0  0  0  0  0  0  0  0  0  0  0  0  # atno 17395 bound_to 11000

$$$$
