AV-unprocessed.smi:429|AV-procd|sdf|2545|dock5
  -GOLD-   2262022513D 1   1.00000     0.00000
 Structure written by MMmdl.
 43 44  0  0  0  0  0  0  0  0  1 V2000
  150.3269  132.0565  153.7527 C   0  0  0  0  0  0  0  0  0  0  0  0
  151.1055  132.4344  155.0174 C   0  0  0  0  0  0  0  0  0  0  0  0
  150.3986  133.5188  155.8433 C   0  0  0  0  0  0  0  0  0  0  0  0
  150.0011  134.7394  154.9932 C   0  0  0  0  0  0  0  0  0  0  0  0
  151.0910  135.8146  154.9386 C   0  0  0  0  0  0  0  0  0  0  0  0
  152.0855  135.7368  155.6604 O   0  0  0  0  0  0  0  0  0  0  0  0
  150.8857  136.8239  154.0783 N   0  0  0  0  0  0  0  0  0  0  0  0
  151.7967  137.9460  153.8736 C   0  0  0  0  0  0  0  0  0  0  0  0
  151.8720  138.9143  155.0456 C   0  0  0  0  0  0  0  0  0  0  0  0
  150.8610  139.8653  155.2964 C   0  0  0  0  0  0  0  0  0  0  0  0
  150.9960  140.7327  156.3969 C   0  0  0  0  0  0  0  0  0  0  0  0
  152.1416  140.6302  157.2219 C   0  0  0  0  0  0  0  0  0  0  0  0
  152.2946  141.4842  158.3363 N   0  0  0  0  0  0  0  0  0  0  0  0
  152.6087  140.8753  159.6278 C   0  0  0  0  0  0  0  0  0  0  0  0
  153.0156  141.9539  160.6456 C   0  0  0  0  0  0  0  0  0  0  0  0
  151.9908  142.9376  160.7372 O   0  0  0  0  0  0  0  0  0  0  0  0
  151.7794  143.5974  159.4937 C   0  0  0  0  0  0  0  0  0  0  0  0
  151.3311  142.5785  158.4317 C   0  0  0  0  0  0  0  0  0  0  0  0
  153.1188  139.7251  156.9667 N   0  0  0  0  0  0  0  0  0  0  0  0
  152.9838  138.8952  155.9111 C   0  0  0  0  0  0  0  0  0  0  0  0
  150.8507  131.2831  153.1906 H   0  0  0  0  0  0  0  0  0  0  0  0
  150.2010  132.9176  153.0957 H   0  0  0  0  0  0  0  0  0  0  0  0
  149.3358  131.6749  153.9994 H   0  0  0  0  0  0  0  0  0  0  0  0
  151.2483  131.5434  155.6297 H   0  0  0  0  0  0  0  0  0  0  0  0
  152.1010  132.7793  154.7362 H   0  0  0  0  0  0  0  0  0  0  0  0
  149.5109  133.0893  156.3102 H   0  0  0  0  0  0  0  0  0  0  0  0
  151.0534  133.8359  156.6564 H   0  0  0  0  0  0  0  0  0  0  0  0
  149.7675  134.4150  153.9777 H   0  0  0  0  0  0  0  0  0  0  0  0
  149.0933  135.1920  155.3937 H   0  0  0  0  0  0  0  0  0  0  0  0
  150.0417  136.8125  153.5241 H   0  0  0  0  0  0  0  0  0  0  0  0
  152.7938  137.5695  153.6384 H   0  0  0  0  0  0  0  0  0  0  0  0
  151.4617  138.4992  152.9961 H   0  0  0  0  0  0  0  0  0  0  0  0
  149.9934  139.9373  154.6574 H   0  0  0  0  0  0  0  0  0  0  0  0
  150.2307  141.4708  156.5847 H   0  0  0  0  0  0  0  0  0  0  0  0
  151.7371  140.3293  159.9916 H   0  0  0  0  0  0  0  0  0  0  0  0
  153.4225  140.1573  159.5194 H   0  0  0  0  0  0  0  0  0  0  0  0
  153.1662  141.5055  161.6276 H   0  0  0  0  0  0  0  0  0  0  0  0
  153.9598  142.4213  160.3610 H   0  0  0  0  0  0  0  0  0  0  0  0
  151.0150  144.3635  159.6244 H   0  0  0  0  0  0  0  0  0  0  0  0
  152.6914  144.1085  159.1812 H   0  0  0  0  0  0  0  0  0  0  0  0
  151.2066  143.0932  157.4803 H   0  0  0  0  0  0  0  0  0  0  0  0
  150.3571  142.1662  158.6985 H   0  0  0  0  0  0  0  0  0  0  0  0
  153.7896  138.1930  155.7556 H   0  0  0  0  0  0  0  0  0  0  0  0
  1  2  1  0  0  0  0
  1 21  1  0  0  0  0
  1 22  1  0  0  0  0
  1 23  1  0  0  0  0
  2  3  1  0  0  0  0
  2 24  1  0  0  0  0
  2 25  1  0  0  0  0
  3  4  1  0  0  0  0
  3 26  1  0  0  0  0
  3 27  1  0  0  0  0
  4  5  1  0  0  0  0
  4 28  1  0  0  0  0
  4 29  1  0  0  0  0
  5  6  2  0  0  0  0
  5  7  1  0  0  0  0
  7  8  1  0  0  0  0
  7 30  1  0  0  0  0
  8  9  1  0  0  0  0
  8 31  1  0  0  0  0
  8 32  1  0  0  0  0
  9 20  1  0  0  0  0
  9 10  2  0  0  0  0
 10 11  1  0  0  0  0
 10 33  1  0  0  0  0
 11 12  2  0  0  0  0
 11 34  1  0  0  0  0
 12 13  1  0  0  0  0
 12 19  1  0  0  0  0
 13 18  1  0  0  0  0
 13 14  1  0  0  0  0
 14 15  1  0  0  0  0
 14 35  1  0  0  0  0
 14 36  1  0  0  0  0
 15 16  1  0  0  0  0
 15 37  1  0  0  0  0
 15 38  1  0  0  0  0
 16 17  1  0  0  0  0
 17 18  1  0  0  0  0
 17 39  1  0  0  0  0
 17 40  1  0  0  0  0
 18 41  1  0  0  0  0
 18 42  1  0  0  0  0
 19 20  2  0  0  0  0
 20 43  1  0  0  0  0
M  END
> <s_m_source_file>
AV-unprocessed.smi

> <i_m_source_file_index>
429

> <i_lp_mmshare_version>
43012

> <i_f3d_flags>
0

> <s_epik_input>
W0NIM11bQ0gyXVtDSDJdW0NIMl1DKD1PKVtOSF1bQ0gyXWMxW2NIXVtjSF1jKG5bY0hdMSlOMltDSDJdW0NIMl1PW0NIMl1bQ0gyXTI=

> <s_epik_cmdline>
J2VwaWtfcHl0aG9uJywgJy1waCcsICc3LjAnLCAnLXRuJywgJzgnLCAnLW1hJywgJzIwMCcsICctbWV0YWxfYmluZGluZycsICctaW1hZScsICc8aW5maWxlLm1hZT4nLCAnLW9tYWUnLCAnPG91dGZpbGUubWFlPic=

> <r_lp_tautomer_probability>
1

> <r_epik_Ionization_Penalty>
0.00508978

> <r_epik_Ionization_Penalty_Charging>
0

> <r_epik_Ionization_Penalty_Neutral>
0.00508978

> <r_epik_State_Penalty>
0.0037045

> <r_epik_Charging_Adjusted_Penalty>
0.0037045

> <i_epik_Tot_Q>
0

> <i_epik_Tot_abs_Q>
0

> <r_epik_Metal_State_Penalty>
-0

> <b_epik_Metal_Only>
0

> <s_lp_Force_Field>
OPLS_2005

> <r_lp_Energy>
15.7693

> <b_lp_Chiralities_Consistent>
1

> <s_lp_Variant>
AV-unprocessed.smi:429-1

> <Gold.Version>
5.8.1

> <Gold.Id.Protein>
6NUR|6NUR_protein|mol2

> <Gold.PLP.Fitness>
46.5180

> <Gold.PLP.PLP>
-38.9851

> <Gold.PLP.part.hbond>
-4.0000

> <Gold.PLP.part.metal>
0.0000

> <Gold.PLP.part.buried>
-1.5123

> <Gold.PLP.part.nonpolar>
-32.3996

> <Gold.PLP.part.repulsive>
0.1677

> <Gold.PLP.ligand.clash>
0.0000

> <Gold.PLP.ligand.torsion>
0.7072

> <Gold.PLP.Chemscore.Hbond>
2.8640

> <Gold.PLP.Chemscore.CHOScore>
0.0000

> <Gold.PLP.Chemscore.Metal>
0.0000

> <Gold.Chemscore.Hbonds>
donor molecule, donor type, donor heavy atom, donor atom, acceptor molecule, acceptor atom, score
      L1  H     7    30       P1  7948  0.90
      P1  H  7997  8009       L1    19  0.57
      P1  H 10752 10764       L1     6  0.28

> <Gold.PLP.Chemscore.Internal.Correction>
0.3552

> <Gold.Rescore>
     Score         DG    S(hbond)    S(metal)    S(lipo)     H(rot)  DE(clash)    DE(int)     intcor
     18.83     -19.72       2.27        0.00      95.62       1.77       0.14       0.75       ----

> <Gold.Chemscore.Fitness>
18.8277

> <Gold.Chemscore.DG>
-19.7180

> <Gold.Chemscore.ZeroCoef>
-5.4800

> <Gold.Chemscore.Hbond>
2.2689

> <Gold.Chemscore.Metal>
0.0000

> <Gold.Chemscore.Lipo>
95.6160

> <Gold.Chemscore.Internal_Hbond>
0.0000

> <Gold.Chemscore.DEClash>
0.1362

> <Gold.Chemscore.DEInternal>
0.7541

> <Gold.Chemscore.Rot>
1.7684

> <Gold.Chemscore.Internal.Correction>
   9.000000E+99

> <Gold.Chemscore.Hbonds>
donor molecule, donor type, donor heavy atom, donor atom, acceptor molecule, acceptor atom, score
      L1  H     7    30       P1  7948  0.16
      P1  H  7997  8009       L1    19  0.13
      P1  H 10752 10764       L1     6  0.26

> <Gold.Chemscore.Hbond.Weighted>
-7.5780

> <Gold.Chemscore.Metal.Weighted>
-0.0000

> <Gold.Chemscore.Lipo.Weighted>
-11.1871

> <Gold.Chemscore.Internal_Hbond.Weighted>
0.0000

> <Gold.Chemscore.DEClash.Weighted>
0.1362

> <Gold.Chemscore.DEInternal.Weighted>
0.7541

> <Gold.Chemscore.Rot.Weighted>
4.5271

> <Gold.Chemscore.Internal.Correction.Weighted>
   9.000000E+99

> <Gold.Protein.RotatedTorsions>
[ 6907 6896 6895 6894 ] final   61.90 input  -60.11 | X-H torsion
[ 7974 7965 7964 7962 ] final -154.30 input  175.53 | X-H torsion
[ 8008 7997 7996 7995 ] final  169.71 input   59.86 | X-H torsion
[ 10167 10162 10161 10158 ] final  148.25 input  -65.29 | X-H torsion
[ 10718 10713 10712 10709 ] final  141.21 input   66.30 | X-H torsion
[ 10763 10752 10751 10750 ] final  -29.31 input  -60.55 | X-H torsion
[ 11005 11000 10999 10996 ] final  -63.22 input  -57.11 | X-H torsion

> <Gold.Protein.ActiveResidues>
 VAL166  LYS551  ARG553  GLY616  TRP617  ASP618  TYR619  PRO620  LYS621  CYS622 
 ASP623  PHE694  ASN695  SER759  ASP760  ASP761  ALA762  ILE779  LEU786  VAL792 
 PHE793  MET794  SER795  GLU796  ALA797  LYS798  CYS799  TRP800  GLU811  SER814 

> <Gold.Protein.RotatedAtoms>
  152.4127  134.6096  160.0021 H   0  0  0  0  0  0  0  0  0  0  0  0  # atno 6907 bound_to 6896
  151.6268  133.3329  159.3108 H   0  0  0  0  0  0  0  0  0  0  0  0  # atno 6908 bound_to 6896
  150.8017  134.7155  159.6673 H   0  0  0  0  0  0  0  0  0  0  0  0  # atno 6909 bound_to 6896
  144.7696  140.4407  143.5916 H   0  0  0  0  0  0  0  0  0  0  0  0  # atno 7974 bound_to 7965
  156.1432  140.1557  156.8888 H   0  0  0  0  0  0  0  0  0  0  0  0  # atno 8008 bound_to 7997
  154.5005  140.0826  156.7826 H   0  0  0  0  0  0  0  0  0  0  0  0  # atno 8009 bound_to 7997
  155.4039  140.3415  155.4261 H   0  0  0  0  0  0  0  0  0  0  0  0  # atno 8010 bound_to 7997
  139.4877  144.5693  151.7084 H   0  0  0  0  0  0  0  0  0  0  0  0  # atno 10167 bound_to 10162
  157.3946  131.1009  151.0613 H   0  0  0  0  0  0  0  0  0  0  0  0  # atno 10718 bound_to 10713
  153.7626  135.6918  153.4922 H   0  0  0  0  0  0  0  0  0  0  0  0  # atno 10763 bound_to 10752
  153.1928  135.4465  155.0169 H   0  0  0  0  0  0  0  0  0  0  0  0  # atno 10764 bound_to 10752
  154.8147  135.3393  154.7140 H   0  0  0  0  0  0  0  0  0  0  0  0  # atno 10765 bound_to 10752
  141.1386  133.6649  156.5647 H   0  0  0  0  0  0  0  0  0  0  0  0  # atno 11005 bound_to 11000
  145.6363  139.1543  143.2941 LP  0  0  0  0  0  0  0  0  0  0  0  0  # atno 17320 bound_to 7965
  146.1833  140.6463  142.9179 LP  0  0  0  0  0  0  0  0  0  0  0  0  # atno 17321 bound_to 7965
  140.5278  144.0779  150.6043 LP  0  0  0  0  0  0  0  0  0  0  0  0  # atno 17342 bound_to 10162
  140.3758  143.2829  152.0226 LP  0  0  0  0  0  0  0  0  0  0  0  0  # atno 17343 bound_to 10162
  157.1634  130.6235  149.5618 LP  0  0  0  0  0  0  0  0  0  0  0  0  # atno 17370 bound_to 10713
  155.9807  130.4809  150.6786 LP  0  0  0  0  0  0  0  0  0  0  0  0  # atno 17371 bound_to 10713
  140.3960  134.7398  157.4751 LP  0  0  0  0  0  0  0  0  0  0  0  0  # atno 17394 bound_to 11000
  140.0531  134.6102  155.8838 LP  0  0  0  0  0  0  0  0  0  0  0  0  # atno 17395 bound_to 11000

$$$$
