AV-unprocessed.smi:2481|AV-procd|sdf|9773|dock6
  -GOLD-   2272013413D 1   1.00000     0.00000
 Structure written by MMmdl.
 37 38  0  0  0  0  0  0  0  0  1 V2000
  152.2308  137.5404  159.7021 C   0  0  0  0  0  0  0  0  0  0  0  0
  151.2239  137.5145  158.6588 N   0  0  0  0  0  0  0  0  0  0  0  0
  150.7942  136.3426  158.1347 N   0  0  0  0  0  0  0  0  0  0  0  0
  149.8983  136.7369  157.2297 C   0  0  0  0  0  0  0  0  0  0  0  0
  149.7097  138.0853  157.1214 N   0  0  0  0  0  0  0  0  0  0  0  0
  150.5708  138.5045  158.0434 C   0  0  0  0  0  0  0  0  0  0  0  0
  150.8269  139.8563  158.3974 N   0  0  0  0  0  0  0  0  0  0  0  0
  152.0193  140.4630  158.5221 C   0  0  0  0  0  0  0  0  0  0  0  0
  153.1126  139.9218  158.3554 O   0  0  0  0  0  0  0  0  0  0  0  0
  151.8726  141.7520  158.8602 N   0  0  0  0  0  0  0  0  0  0  0  0
  152.9627  142.7044  159.0773 C   0  0  2  0  0  0  0  0  0  0  0  0
  153.5669  142.5329  160.4879 C   0  0  0  0  0  0  0  0  0  0  0  0
  152.5978  142.9870  161.5923 C   0  0  0  0  0  0  0  0  0  0  0  0
  152.1321  144.4320  161.3620 C   0  0  0  0  0  0  0  0  0  0  0  0
  151.5172  144.6080  159.9642 C   0  0  0  0  0  0  0  0  0  0  0  0
  152.4891  144.1651  158.8492 C   0  0  2  0  0  0  0  0  0  0  0  0
  151.8761  144.4073  157.4532 C   0  0  0  0  0  0  0  0  0  0  0  0
  150.7556  143.5740  157.2430 O   0  0  0  0  0  0  0  0  0  0  0  0
  151.8863  138.1590  160.5315 H   0  0  0  0  0  0  0  0  0  0  0  0
  153.1567  137.9574  159.3052 H   0  0  0  0  0  0  0  0  0  0  0  0
  152.4253  136.5326  160.0721 H   0  0  0  0  0  0  0  0  0  0  0  0
  149.3592  136.0243  156.6228 H   0  0  0  0  0  0  0  0  0  0  0  0
  150.0105  140.4236  158.5707 H   0  0  0  0  0  0  0  0  0  0  0  0
  150.9353  142.1069  158.9795 H   0  0  0  0  0  0  0  0  0  0  0  0
  153.7494  142.4910  158.3511 H   0  0  0  0  0  0  0  0  0  0  0  0
  153.8619  141.4962  160.6539 H   0  0  0  0  0  0  0  0  0  0  0  0
  154.4838  143.1197  160.5564 H   0  0  0  0  0  0  0  0  0  0  0  0
  151.7334  142.3229  161.6221 H   0  0  0  0  0  0  0  0  0  0  0  0
  153.0816  142.9045  162.5661 H   0  0  0  0  0  0  0  0  0  0  0  0
  151.4061  144.7137  162.1251 H   0  0  0  0  0  0  0  0  0  0  0  0
  152.9786  145.1103  161.4759 H   0  0  0  0  0  0  0  0  0  0  0  0
  150.5900  144.0371  159.8993 H   0  0  0  0  0  0  0  0  0  0  0  0
  151.2416  145.6536  159.8228 H   0  0  0  0  0  0  0  0  0  0  0  0
  153.3693  144.8061  158.9260 H   0  0  0  0  0  0  0  0  0  0  0  0
  151.5830  145.4487  157.3200 H   0  0  0  0  0  0  0  0  0  0  0  0
  152.6088  144.1846  156.6770 H   0  0  0  0  0  0  0  0  0  0  0  0
  150.0894  144.0722  156.7944 H   0  0  0  0  0  0  0  0  0  0  0  0
  1  2  1  0  0  0  0
  1 19  1  0  0  0  0
  1 20  1  0  0  0  0
  1 21  1  0  0  0  0
  2  6  1  0  0  0  0
  2  3  1  0  0  0  0
  3  4  2  0  0  0  0
  4  5  1  0  0  0  0
  4 22  1  0  0  0  0
  5  6  2  0  0  0  0
  6  7  1  0  0  0  0
  7  8  1  0  0  0  0
  7 23  1  0  0  0  0
  8  9  2  0  0  0  0
  8 10  1  0  0  0  0
 10 11  1  0  0  0  0
 10 24  1  0  0  0  0
 11 16  1  0  0  0  0
 11 12  1  0  0  0  0
 11 25  1  0  0  0  0
 12 13  1  0  0  0  0
 12 26  1  0  0  0  0
 12 27  1  0  0  0  0
 13 14  1  0  0  0  0
 13 28  1  0  0  0  0
 13 29  1  0  0  0  0
 14 15  1  0  0  0  0
 14 30  1  0  0  0  0
 14 31  1  0  0  0  0
 15 16  1  0  0  0  0
 15 32  1  0  0  0  0
 15 33  1  0  0  0  0
 16 17  1  0  0  0  0
 16 34  1  0  0  0  0
 17 18  1  0  0  0  0
 17 35  1  0  0  0  0
 17 36  1  0  0  0  0
 18 37  1  0  0  0  0
M  END
> <s_m_source_file>
AV-unprocessed.smi

> <i_m_source_file_index>
2481

> <i_lp_mmshare_version>
43012

> <i_f3d_flags>
0

> <s_epik_input>
W0NIM11uMW5bY0hdbmMxW05IXUMoPU8pW05IXVtDQEBIXTJbQ0gyXVtDSDJdW0NIMl1bQ0gyXVtDQEhdMltDSDJdW09IXQ==

> <s_epik_cmdline>
J2VwaWtfcHl0aG9uJywgJy1waCcsICc3LjAnLCAnLXRuJywgJzgnLCAnLW1hJywgJzIwMCcsICctbWV0YWxfYmluZGluZycsICctaW1hZScsICc8aW5maWxlLm1hZT4nLCAnLW9tYWUnLCAnPG91dGZpbGUubWFlPic=

> <r_lp_tautomer_probability>
1

> <r_epik_Ionization_Penalty>
2.32704e-05

> <r_epik_Ionization_Penalty_Charging>
0

> <r_epik_Ionization_Penalty_Neutral>
2.32704e-05

> <r_epik_State_Penalty>
-0

> <r_epik_Charging_Adjusted_Penalty>
0

> <i_epik_Tot_Q>
0

> <i_epik_Tot_abs_Q>
0

> <r_epik_Metal_State_Penalty>
-0

> <b_epik_Metal_Only>
0

> <s_lp_Force_Field>
OPLS_2005

> <r_lp_Energy>
12.0515

> <b_lp_Chiralities_Consistent>
1

> <s_lp_Variant>
AV-unprocessed.smi:2481-3

> <Gold.Version>
5.8.1

> <Gold.Id.Protein>
6NUR|6NUR_protein|mol2

> <Gold.PLP.Fitness>
44.5431

> <Gold.PLP.PLP>
-37.8649

> <Gold.PLP.part.hbond>
-3.0000

> <Gold.PLP.part.metal>
0.0000

> <Gold.PLP.part.buried>
-5.2524

> <Gold.PLP.part.nonpolar>
-29.3577

> <Gold.PLP.part.repulsive>
0.2591

> <Gold.PLP.ligand.clash>
0.0000

> <Gold.PLP.ligand.torsion>
0.7515

> <Gold.PLP.Chemscore.Hbond>
2.7208

> <Gold.PLP.Chemscore.CHOScore>
0.0000

> <Gold.PLP.Chemscore.Metal>
0.0000

> <Gold.Chemscore.Hbonds>
donor molecule, donor type, donor heavy atom, donor atom, acceptor molecule, acceptor atom, score
      L1  H    18    37       P1  8028  1.00
      P1  H  6896  6909       L1     3  0.54
      P1  H  7997  8009       L1     9  1.00

> <Gold.PLP.Chemscore.Internal.Correction>
0.0188

> <Gold.Rescore>
     Score         DG    S(hbond)    S(metal)    S(lipo)     H(rot)  DE(clash)    DE(int)     intcor
     18.21     -20.77       2.79        0.00      94.50       1.99       0.20       2.36       ----

> <Gold.Chemscore.Fitness>
18.2094

> <Gold.Chemscore.DG>
-20.7675

> <Gold.Chemscore.ZeroCoef>
-5.4800

> <Gold.Chemscore.Hbond>
2.7903

> <Gold.Chemscore.Metal>
0.0000

> <Gold.Chemscore.Lipo>
94.4996

> <Gold.Chemscore.Internal_Hbond>
0.0000

> <Gold.Chemscore.DEClash>
0.2010

> <Gold.Chemscore.DEInternal>
2.3571

> <Gold.Chemscore.Rot>
1.9877

> <Gold.Chemscore.Internal.Correction>
   9.000000E+99

> <Gold.Chemscore.Hbonds>
donor molecule, donor type, donor heavy atom, donor atom, acceptor molecule, acceptor atom, score
      L1  H    18    37       P1  8028  0.98
      P1  H  6896  6909       L1     3  0.27
      P1  H  7997  8009       L1     9  0.95

> <Gold.Chemscore.Hbond.Weighted>
-9.3196

> <Gold.Chemscore.Metal.Weighted>
-0.0000

> <Gold.Chemscore.Lipo.Weighted>
-11.0565

> <Gold.Chemscore.Internal_Hbond.Weighted>
0.0000

> <Gold.Chemscore.DEClash.Weighted>
0.2010

> <Gold.Chemscore.DEInternal.Weighted>
2.3571

> <Gold.Chemscore.Rot.Weighted>
5.0885

> <Gold.Chemscore.Internal.Correction.Weighted>
   9.000000E+99

> <Gold.Protein.RotatedTorsions>
[ 6907 6896 6895 6894 ] final   78.66 input  -60.11 | X-H torsion
[ 7974 7965 7964 7962 ] final    2.76 input  175.53 | X-H torsion
[ 8008 7997 7996 7995 ] final  149.59 input   59.86 | X-H torsion
[ 10167 10162 10161 10158 ] final   81.29 input  -65.29 | X-H torsion
[ 10718 10713 10712 10709 ] final -136.24 input   66.30 | X-H torsion
[ 10763 10752 10751 10750 ] final   92.48 input  -60.55 | X-H torsion
[ 11005 11000 10999 10996 ] final -175.16 input  -57.11 | X-H torsion

> <Gold.Protein.ActiveResidues>
 VAL166  LYS551  ARG553  GLY616  TRP617  ASP618  TYR619  PRO620  LYS621  CYS622 
 ASP623  PHE694  ASN695  SER759  ASP760  ASP761  ALA762  ILE779  LEU786  VAL792 
 PHE793  MET794  SER795  GLU796  ALA797  LYS798  CYS799  TRP800  GLU811  SER814 

> <Gold.Protein.RotatedAtoms>
  152.5168  134.3629  159.9290 H   0  0  0  0  0  0  0  0  0  0  0  0  # atno 6907 bound_to 6896
  151.3582  133.3893  159.2695 H   0  0  0  0  0  0  0  0  0  0  0  0  # atno 6908 bound_to 6896
  150.9673  134.9070  159.7825 H   0  0  0  0  0  0  0  0  0  0  0  0  # atno 6909 bound_to 6896
  146.2444  140.0787  142.8358 H   0  0  0  0  0  0  0  0  0  0  0  0  # atno 7974 bound_to 7965
  156.2749  140.2097  156.5883 H   0  0  0  0  0  0  0  0  0  0  0  0  # atno 8008 bound_to 7997
  154.7003  140.0521  157.0475 H   0  0  0  0  0  0  0  0  0  0  0  0  # atno 8009 bound_to 7997
  155.0744  140.3180  155.4623 H   0  0  0  0  0  0  0  0  0  0  0  0  # atno 8010 bound_to 7997
  139.9408  144.6091  150.8254 H   0  0  0  0  0  0  0  0  0  0  0  0  # atno 10167 bound_to 10162
  156.2749  130.7287  151.1266 H   0  0  0  0  0  0  0  0  0  0  0  0  # atno 10718 bound_to 10713
  153.2196  135.4360  155.0474 H   0  0  0  0  0  0  0  0  0  0  0  0  # atno 10763 bound_to 10752
  154.8243  135.3353  154.6947 H   0  0  0  0  0  0  0  0  0  0  0  0  # atno 10764 bound_to 10752
  153.7380  135.7006  153.5029 H   0  0  0  0  0  0  0  0  0  0  0  0  # atno 10765 bound_to 10752
  140.4664  134.6206  157.4864 H   0  0  0  0  0  0  0  0  0  0  0  0  # atno 11005 bound_to 11000
  145.0752  140.9183  143.4858 LP  0  0  0  0  0  0  0  0  0  0  0  0  # atno 17320 bound_to 7965
  145.0929  139.2877  143.5725 LP  0  0  0  0  0  0  0  0  0  0  0  0  # atno 17321 bound_to 7965
  140.7611  143.3167  151.2716 LP  0  0  0  0  0  0  0  0  0  0  0  0  # atno 17342 bound_to 10162
  139.6706  144.0027  152.2750 LP  0  0  0  0  0  0  0  0  0  0  0  0  # atno 17343 bound_to 10162
  157.7296  131.0623  150.5766 LP  0  0  0  0  0  0  0  0  0  0  0  0  # atno 17370 bound_to 10713
  156.5866  130.4318  149.5954 LP  0  0  0  0  0  0  0  0  0  0  0  0  # atno 17371 bound_to 10713
  139.9912  134.6982  155.9686 LP  0  0  0  0  0  0  0  0  0  0  0  0  # atno 17394 bound_to 11000
  141.1597  133.6540  156.4278 LP  0  0  0  0  0  0  0  0  0  0  0  0  # atno 17395 bound_to 11000

$$$$
