AV-unprocessed.smi:1607|AV-procd|sdf|6466|dock5
  -GOLD-   22720 7123D 1   1.00000     0.00000
 Structure written by MMmdl.
 39 40  0  0  0  0  0  0  0  0  2 V2000
  146.0215  132.2615  150.8894 C   0  0  0  0  0  0  0  0  0  0  0  0
  146.2565  133.7083  151.3464 C   0  0  1  0  0  0  0  0  0  0  0  0
  145.0560  134.6064  151.0046 C   0  0  0  0  0  0  0  0  0  0  0  0
  145.3073  136.0375  151.4949 C   0  0  0  0  0  0  0  0  0  0  0  0
  145.6402  136.0543  152.9949 C   0  0  0  0  0  0  0  0  0  0  0  0
  146.8050  135.1822  153.2963 N   0  3  1  0  0  0  0  0  0  0  0  0
  147.2287  135.2864  154.7159 C   0  0  0  0  0  0  0  0  0  0  0  0
  148.7346  135.0361  154.9002 C   0  0  0  0  0  0  0  0  0  0  0  0
  149.5060  136.1471  154.3601 N   0  0  0  0  0  0  0  0  0  0  0  0
  150.7115  136.5231  154.8148 C   0  0  0  0  0  0  0  0  0  0  0  0
  151.2753  135.9729  155.7599 O   0  0  0  0  0  0  0  0  0  0  0  0
  151.3839  137.7024  154.1065 C   0  0  0  0  0  0  0  0  0  0  0  0
  151.6335  138.8066  155.0159 N   0  0  0  0  0  0  0  0  0  0  0  0
  152.3319  138.8657  156.1515 C   0  0  0  0  0  0  0  0  0  0  0  0
  152.2993  140.0778  156.6836 N   0  0  0  0  0  0  0  0  0  0  0  0
  151.5245  140.7943  155.7870 N   0  0  0  0  0  0  0  0  0  0  0  0
  151.1284  140.0461  154.7941 N   0  0  0  0  0  0  0  0  0  0  0  0
  146.5662  133.7810  152.8554 C   0  0  0  0  0  0  0  0  0  0  0  0
  145.1634  131.8189  151.3964 H   0  0  0  0  0  0  0  0  0  0  0  0
  146.8904  131.6367  151.0986 H   0  0  0  0  0  0  0  0  0  0  0  0
  145.8341  132.2144  149.8162 H   0  0  0  0  0  0  0  0  0  0  0  0
  147.1258  134.0857  150.8055 H   0  0  0  0  0  0  0  0  0  0  0  0
  144.8785  134.6090  149.9285 H   0  0  0  0  0  0  0  0  0  0  0  0
  144.1510  134.2127  151.4697 H   0  0  0  0  0  0  0  0  0  0  0  0
  146.1297  136.4801  150.9312 H   0  0  0  0  0  0  0  0  0  0  0  0
  144.4308  136.6566  151.3007 H   0  0  0  0  0  0  0  0  0  0  0  0
  145.8567  137.0795  153.2983 H   0  0  0  0  0  0  0  0  0  0  0  0
  144.7775  135.7261  153.5769 H   0  0  0  0  0  0  0  0  0  0  0  0
  147.0096  136.2910  155.0815 H   0  0  0  0  0  0  0  0  0  0  0  0
  146.6410  134.6010  155.3288 H   0  0  0  0  0  0  0  0  0  0  0  0
  148.9927  134.9232  155.9530 H   0  0  0  0  0  0  0  0  0  0  0  0
  149.0185  134.1105  154.3963 H   0  0  0  0  0  0  0  0  0  0  0  0
  149.1064  136.6550  153.5840 H   0  0  0  0  0  0  0  0  0  0  0  0
  152.3310  137.3775  153.6738 H   0  0  0  0  0  0  0  0  0  0  0  0
  150.7582  138.0563  153.2858 H   0  0  0  0  0  0  0  0  0  0  0  0
  152.8548  138.0275  156.5875 H   0  0  0  0  0  0  0  0  0  0  0  0
  145.7424  133.3551  153.4309 H   0  0  0  0  0  0  0  0  0  0  0  0
  147.4427  133.1685  153.0637 H   0  0  0  0  0  0  0  0  0  0  0  0
  147.5712  135.5387  152.7430 H   0  0  0  0  0  0  0  0  0  0  0  0
  1  2  1  0  0  0  0
  1 19  1  0  0  0  0
  1 20  1  0  0  0  0
  1 21  1  0  0  0  0
  2 18  1  0  0  0  0
  2  3  1  0  0  0  0
  2 22  1  0  0  0  0
  3  4  1  0  0  0  0
  3 23  1  0  0  0  0
  3 24  1  0  0  0  0
  4  5  1  0  0  0  0
  4 25  1  0  0  0  0
  4 26  1  0  0  0  0
  5  6  1  0  0  0  0
  5 27  1  0  0  0  0
  5 28  1  0  0  0  0
  6  7  1  0  0  0  0
  6 18  1  0  0  0  0
  6 39  1  0  0  0  0
  7  8  1  0  0  0  0
  7 29  1  0  0  0  0
  7 30  1  0  0  0  0
  8  9  1  0  0  0  0
  8 31  1  0  0  0  0
  8 32  1  0  0  0  0
  9 10  1  0  0  0  0
  9 33  1  0  0  0  0
 10 11  2  0  0  0  0
 10 12  1  0  0  0  0
 12 13  1  0  0  0  0
 12 34  1  0  0  0  0
 12 35  1  0  0  0  0
 13 17  1  0  0  0  0
 13 14  1  0  0  0  0
 14 15  2  0  0  0  0
 14 36  1  0  0  0  0
 15 16  1  0  0  0  0
 16 17  2  0  0  0  0
 18 37  1  0  0  0  0
 18 38  1  0  0  0  0
M  CHG  1   6   1
M  END
> <s_m_source_file>
AV-unprocessed.smi

> <i_m_source_file_index>
1607

> <i_lp_mmshare_version>
43012

> <i_f3d_flags>
0

> <s_epik_input>
W0NIM11bQ0BASF0xW0NIMl1bQ0gyXVtDSDJdTihbQ0gyXTEpW0NIMl1bQ0gyXVtOSF1DKD1PKVtDSDJdbjJbY0hdbm5uMg==

> <s_epik_cmdline>
J2VwaWtfcHl0aG9uJywgJy1waCcsICc3LjAnLCAnLXRuJywgJzgnLCAnLW1hJywgJzIwMCcsICctbWV0YWxfYmluZGluZycsICctaW1hZScsICc8aW5maWxlLm1hZT4nLCAnLW9tYWUnLCAnPG91dGZpbGUubWFlPic=

> <r_lp_tautomer_probability>
1

> <r_epik_Ionization_Penalty>
0.00268321

> <r_epik_Ionization_Penalty_Charging>
0.00267875

> <r_epik_Ionization_Penalty_Neutral>
4.46125e-06

> <r_epik_State_Penalty>
0.00186642

> <r_epik_Charging_Adjusted_Penalty>
0.00454517

> <i_epik_Tot_Q>
1

> <i_epik_Tot_abs_Q>
1

> <r_epik_Metal_State_Penalty>
-0

> <b_epik_Metal_Only>
0

> <s_lp_Force_Field>
OPLS_2005

> <r_lp_Energy>
19.4205

> <b_lp_Chiralities_Consistent>
1

> <s_lp_Variant>
AV-unprocessed.smi:1607-4

> <Gold.Version>
5.8.1

> <Gold.Id.Protein>
6NUR|6NUR_protein|mol2

> <Gold.PLP.Fitness>
44.0863

> <Gold.PLP.PLP>
-28.3168

> <Gold.PLP.part.hbond>
-6.1644

> <Gold.PLP.part.metal>
0.0000

> <Gold.PLP.part.buried>
-1.6322

> <Gold.PLP.part.nonpolar>
-21.7794

> <Gold.PLP.part.repulsive>
0.1581

> <Gold.PLP.ligand.clash>
0.0000

> <Gold.PLP.ligand.torsion>
0.5214

> <Gold.PLP.Chemscore.Hbond>
5.5880

> <Gold.PLP.Chemscore.CHOScore>
0.0000

> <Gold.PLP.Chemscore.Metal>
0.0000

> <Gold.Chemscore.Hbonds>
donor molecule, donor type, donor heavy atom, donor atom, acceptor molecule, acceptor atom, score
      L1  H     6    39       P1  7948  2.00
      L1  H     9    33       P1  7948  0.61
      P1  H  7989  7998       L1    17  1.00
      P1  H  7997  8010       L1    15  0.35
      P1  H 10752 10763       L1    11  0.91

> <Gold.PLP.Chemscore.Internal.Correction>
0.0484

> <Gold.Rescore>
     Score         DG    S(hbond)    S(metal)    S(lipo)     H(rot)  DE(clash)    DE(int)     intcor
     15.06     -15.89       3.56        0.00      46.44       2.69       0.34       0.49       ----

> <Gold.Chemscore.Fitness>
15.0597

> <Gold.Chemscore.DG>
-15.8944

> <Gold.Chemscore.ZeroCoef>
-5.4800

> <Gold.Chemscore.Hbond>
3.5555

> <Gold.Chemscore.Metal>
0.0000

> <Gold.Chemscore.Lipo>
46.4413

> <Gold.Chemscore.Internal_Hbond>
0.0000

> <Gold.Chemscore.DEClash>
0.3410

> <Gold.Chemscore.DEInternal>
0.4938

> <Gold.Chemscore.Rot>
2.6932

> <Gold.Chemscore.Internal.Correction>
   9.000000E+99

> <Gold.Chemscore.Hbonds>
donor molecule, donor type, donor heavy atom, donor atom, acceptor molecule, acceptor atom, score
      L1  H     6    39       P1  7948  1.00
      L1  H     9    33       P1  7948  0.60
      P1  H  7989  7998       L1    17  0.38
      P1  H  7997  8010       L1    15  0.01
      P1  H 10752 10763       L1    11  0.48

> <Gold.Chemscore.Hbond.Weighted>
-11.8753

> <Gold.Chemscore.Metal.Weighted>
-0.0000

> <Gold.Chemscore.Lipo.Weighted>
-5.4336

> <Gold.Chemscore.Internal_Hbond.Weighted>
0.0000

> <Gold.Chemscore.DEClash.Weighted>
0.3410

> <Gold.Chemscore.DEInternal.Weighted>
0.4938

> <Gold.Chemscore.Rot.Weighted>
6.8945

> <Gold.Chemscore.Internal.Correction.Weighted>
   9.000000E+99

> <Gold.Protein.RotatedTorsions>
[ 6907 6896 6895 6894 ] final -127.18 input  -60.11 | X-H torsion
[ 7974 7965 7964 7962 ] final -124.02 input  175.53 | X-H torsion
[ 8008 7997 7996 7995 ] final   54.04 input   59.86 | X-H torsion
[ 10167 10162 10161 10158 ] final   90.45 input  -65.29 | X-H torsion
[ 10718 10713 10712 10709 ] final -147.36 input   66.30 | X-H torsion
[ 10763 10752 10751 10750 ] final   91.70 input  -60.55 | X-H torsion
[ 11005 11000 10999 10996 ] final  140.14 input  -57.11 | X-H torsion

> <Gold.Protein.ActiveResidues>
 VAL166  LYS551  ARG553  GLY616  TRP617  ASP618  TYR619  PRO620  LYS621  CYS622 
 ASP623  PHE694  ASN695  SER759  ASP760  ASP761  ALA762  ILE779  LEU786  VAL792 
 PHE793  MET794  SER795  GLU796  ALA797  LYS798  CYS799  TRP800  GLU811  SER814 

> <Gold.Protein.RotatedAtoms>
  150.9046  133.7075  159.2869 H   0  0  0  0  0  0  0  0  0  0  0  0  # atno 6907 bound_to 6896
  151.4582  135.1034  159.9727 H   0  0  0  0  0  0  0  0  0  0  0  0  # atno 6908 bound_to 6896
  152.4896  133.8415  159.7210 H   0  0  0  0  0  0  0  0  0  0  0  0  # atno 6909 bound_to 6896
  145.0124  140.7918  143.4430 H   0  0  0  0  0  0  0  0  0  0  0  0  # atno 7974 bound_to 7965
  155.4783  140.3467  155.4336 H   0  0  0  0  0  0  0  0  0  0  0  0  # atno 8008 bound_to 7997
  156.1056  140.1447  156.9437 H   0  0  0  0  0  0  0  0  0  0  0  0  # atno 8009 bound_to 7997
  154.4722  140.0897  156.7151 H   0  0  0  0  0  0  0  0  0  0  0  0  # atno 8010 bound_to 7997
  139.8472  144.6612  150.9212 H   0  0  0  0  0  0  0  0  0  0  0  0  # atno 10167 bound_to 10162
  156.4066  130.7960  151.2175 H   0  0  0  0  0  0  0  0  0  0  0  0  # atno 10718 bound_to 10713
  153.2111  135.4388  155.0381 H   0  0  0  0  0  0  0  0  0  0  0  0  # atno 10763 bound_to 10752
  154.8200  135.3333  154.7067 H   0  0  0  0  0  0  0  0  0  0  0  0  # atno 10764 bound_to 10752
  153.7505  135.6998  153.5002 H   0  0  0  0  0  0  0  0  0  0  0  0  # atno 10765 bound_to 10752
  140.0306  134.9354  157.0654 H   0  0  0  0  0  0  0  0  0  0  0  0  # atno 11005 bound_to 11000
  145.2005  139.2255  143.5195 LP  0  0  0  0  0  0  0  0  0  0  0  0  # atno 17320 bound_to 7965
  146.3472  140.1821  142.8589 LP  0  0  0  0  0  0  0  0  0  0  0  0  # atno 17321 bound_to 7965
  140.7791  143.3859  151.1394 LP  0  0  0  0  0  0  0  0  0  0  0  0  # atno 17342 bound_to 10162
  139.7501  143.8792  152.3074 LP  0  0  0  0  0  0  0  0  0  0  0  0  # atno 17343 bound_to 10162
  157.7506  131.0270  150.3988 LP  0  0  0  0  0  0  0  0  0  0  0  0  # atno 17370 bound_to 10713
  156.4278  130.3966  149.6781 LP  0  0  0  0  0  0  0  0  0  0  0  0  # atno 17371 bound_to 10713
  140.4233  134.1858  155.7165 LP  0  0  0  0  0  0  0  0  0  0  0  0  # atno 17394 bound_to 11000
  141.1828  133.8377  157.1195 LP  0  0  0  0  0  0  0  0  0  0  0  0  # atno 17395 bound_to 11000

$$$$
