AV-unprocessed.smi:1947|AV-procd|sdf|7867|dock9
  -GOLD-   2272010 13D 1   1.00000     0.00000
 Structure written by MMmdl.
 39 40  0  0  0  0  0  0  0  0  1 V2000
  144.2357  132.5672  148.6907 C   0  0  0  0  0  0  0  0  0  0  0  0
  145.1133  132.2671  149.9168 C   0  0  2  0  0  0  0  0  0  0  0  0
  144.3719  131.4027  150.9557 C   0  0  0  0  0  0  0  0  0  0  0  0
  145.2667  131.0860  152.1648 C   0  0  0  0  0  0  0  0  0  0  0  0
  145.8083  132.3704  152.8108 C   0  0  0  0  0  0  0  0  0  0  0  0
  146.5484  133.2445  151.7841 C   0  0  0  0  0  0  0  0  0  0  0  0
  145.6674  133.5576  150.5599 C   0  0  2  0  0  0  0  0  0  0  0  0
  144.5739  134.3635  150.9802 O   0  0  0  0  0  0  0  0  0  0  0  0
  144.8825  135.7407  151.1221 C   0  0  0  0  0  0  0  0  0  0  0  0
  145.3451  135.9992  152.5648 C   0  0  0  0  0  0  0  0  0  0  0  0
  146.5855  136.7672  152.6074 N   0  0  0  0  0  0  0  0  0  0  0  0
  146.7315  137.9780  153.1631 C   0  0  0  0  0  0  0  0  0  0  0  0
  145.7998  138.6215  153.6456 O   0  0  0  0  0  0  0  0  0  0  0  0
  148.0138  138.3736  153.1262 N   0  0  0  0  0  0  0  0  0  0  0  0
  148.5830  139.5385  153.6975 C   0  0  0  0  0  0  0  0  0  0  0  0
  149.7957  139.4367  154.2540 N   0  0  0  0  0  0  0  0  0  0  0  0
  150.2289  140.6466  154.7827 N   0  0  0  0  0  0  0  0  0  0  0  0
  149.3237  141.6137  154.6054 C   0  0  0  0  0  0  0  0  0  0  0  0
  147.8507  141.1436  153.7755 S   0  0  0  0  0  0  0  0  0  0  0  0
  143.3408  133.1259  148.9657 H   0  0  0  0  0  0  0  0  0  0  0  0
  143.9132  131.6462  148.2045 H   0  0  0  0  0  0  0  0  0  0  0  0
  144.7806  133.1563  147.9526 H   0  0  0  0  0  0  0  0  0  0  0  0
  145.9674  131.6885  149.5615 H   0  0  0  0  0  0  0  0  0  0  0  0
  143.4714  131.9181  151.2926 H   0  0  0  0  0  0  0  0  0  0  0  0
  144.0385  130.4718  150.4958 H   0  0  0  0  0  0  0  0  0  0  0  0
  144.7061  130.5084  152.9003 H   0  0  0  0  0  0  0  0  0  0  0  0
  146.0996  130.4573  151.8478 H   0  0  0  0  0  0  0  0  0  0  0  0
  144.9831  132.9353  153.2463 H   0  0  0  0  0  0  0  0  0  0  0  0
  146.4768  132.1189  153.6343 H   0  0  0  0  0  0  0  0  0  0  0  0
  146.8803  134.1707  152.2540 H   0  0  0  0  0  0  0  0  0  0  0  0
  147.4507  132.7273  151.4558 H   0  0  0  0  0  0  0  0  0  0  0  0
  146.2718  134.0788  149.8147 H   0  0  0  0  0  0  0  0  0  0  0  0
  145.6658  136.0241  150.4178 H   0  0  0  0  0  0  0  0  0  0  0  0
  144.0040  136.3463  150.8945 H   0  0  0  0  0  0  0  0  0  0  0  0
  144.5812  136.5644  153.0991 H   0  0  0  0  0  0  0  0  0  0  0  0
  145.4698  135.0568  153.1001 H   0  0  0  0  0  0  0  0  0  0  0  0
  147.4069  136.3160  152.2323 H   0  0  0  0  0  0  0  0  0  0  0  0
  148.6654  137.7511  152.6714 H   0  0  0  0  0  0  0  0  0  0  0  0
  149.5247  142.6111  154.9676 H   0  0  0  0  0  0  0  0  0  0  0  0
  1  2  1  0  0  0  0
  1 20  1  0  0  0  0
  1 21  1  0  0  0  0
  1 22  1  0  0  0  0
  2  7  1  0  0  0  0
  2  3  1  0  0  0  0
  2 23  1  0  0  0  0
  3  4  1  0  0  0  0
  3 24  1  0  0  0  0
  3 25  1  0  0  0  0
  4  5  1  0  0  0  0
  4 26  1  0  0  0  0
  4 27  1  0  0  0  0
  5  6  1  0  0  0  0
  5 28  1  0  0  0  0
  5 29  1  0  0  0  0
  6  7  1  0  0  0  0
  6 30  1  0  0  0  0
  6 31  1  0  0  0  0
  7  8  1  0  0  0  0
  7 32  1  0  0  0  0
  8  9  1  0  0  0  0
  9 10  1  0  0  0  0
  9 33  1  0  0  0  0
  9 34  1  0  0  0  0
 10 11  1  0  0  0  0
 10 35  1  0  0  0  0
 10 36  1  0  0  0  0
 11 12  1  0  0  0  0
 11 37  1  0  0  0  0
 12 13  2  0  0  0  0
 12 14  1  0  0  0  0
 14 15  1  0  0  0  0
 14 38  1  0  0  0  0
 15 19  1  0  0  0  0
 15 16  2  0  0  0  0
 16 17  1  0  0  0  0
 17 18  2  0  0  0  0
 18 19  1  0  0  0  0
 18 39  1  0  0  0  0
M  END
> <s_m_source_file>
AV-unprocessed.smi

> <i_m_source_file_index>
1947

> <i_lp_mmshare_version>
43012

> <i_f3d_flags>
0

> <s_epik_input>
W0NIM11bQ0BASF0xW0NIMl1bQ0gyXVtDSDJdW0NIMl1bQ0BIXTFPW0NIMl1bQ0gyXVtOSF1DKD1PKVtOSF1jMm5uW2NIXXMy

> <s_epik_cmdline>
J2VwaWtfcHl0aG9uJywgJy1waCcsICc3LjAnLCAnLXRuJywgJzgnLCAnLW1hJywgJzIwMCcsICctbWV0YWxfYmluZGluZycsICctaW1hZScsICc8aW5maWxlLm1hZT4nLCAnLW9tYWUnLCAnPG91dGZpbGUubWFlPic=

> <r_lp_tautomer_probability>
1

> <r_epik_Ionization_Penalty>
0.00220897

> <r_epik_Ionization_Penalty_Charging>
0

> <r_epik_Ionization_Penalty_Neutral>
0.00220897

> <r_epik_State_Penalty>
-0

> <r_epik_Charging_Adjusted_Penalty>
0

> <i_epik_Tot_Q>
0

> <i_epik_Tot_abs_Q>
0

> <r_epik_Metal_State_Penalty>
0.345002

> <b_epik_Metal_Only>
0

> <s_lp_Force_Field>
OPLS_2005

> <r_lp_Energy>
8.93842

> <b_lp_Chiralities_Consistent>
1

> <s_lp_Variant>
AV-unprocessed.smi:1947-3

> <Gold.Version>
5.8.1

> <Gold.Id.Protein>
6NUR|6NUR_protein|mol2

> <Gold.PLP.Fitness>
42.8044

> <Gold.PLP.PLP>
-33.1929

> <Gold.PLP.part.hbond>
-3.7968

> <Gold.PLP.part.metal>
0.0000

> <Gold.PLP.part.buried>
-0.2439

> <Gold.PLP.part.nonpolar>
-28.7836

> <Gold.PLP.part.repulsive>
0.6712

> <Gold.PLP.ligand.clash>
0.0000

> <Gold.PLP.ligand.torsion>
1.0433

> <Gold.PLP.Chemscore.Hbond>
2.8920

> <Gold.PLP.Chemscore.CHOScore>
1.0000

> <Gold.PLP.Chemscore.Metal>
0.0000

> <Gold.Chemscore.Hbonds>
donor molecule, donor type, donor heavy atom, donor atom, acceptor molecule, acceptor atom, score
      L1  H    11    37       P1  7948  1.00
      L1  H    14    38       P1  7948  0.99
      P1  H  7989  7998       L1    17  0.66
      L1  C    18    39       P1  8028  1.00

> <Gold.PLP.Chemscore.Internal.Correction>
0.0221

> <Gold.Rescore>
     Score         DG    S(hbond)    S(metal)    S(lipo)     H(rot)  DE(clash)    DE(int)     intcor
     15.98     -17.03       1.95        0.00      85.39       1.94       0.02       1.03       ----

> <Gold.Chemscore.Fitness>
15.9788

> <Gold.Chemscore.DG>
-17.0307

> <Gold.Chemscore.ZeroCoef>
-5.4800

> <Gold.Chemscore.Hbond>
1.9530

> <Gold.Chemscore.Metal>
0.0000

> <Gold.Chemscore.Lipo>
85.3852

> <Gold.Chemscore.Internal_Hbond>
0.0000

> <Gold.Chemscore.DEClash>
0.0243

> <Gold.Chemscore.DEInternal>
1.0276

> <Gold.Chemscore.Rot>
1.9385

> <Gold.Chemscore.Internal.Correction>
   9.000000E+99

> <Gold.Chemscore.Hbonds>
donor molecule, donor type, donor heavy atom, donor atom, acceptor molecule, acceptor atom, score
      L1  H    11    37       P1  7948  0.95
      L1  H    14    38       P1  7948  0.94
      P1  H  7989  7998       L1    17  0.05

> <Gold.Chemscore.Hbond.Weighted>
-6.5232

> <Gold.Chemscore.Metal.Weighted>
-0.0000

> <Gold.Chemscore.Lipo.Weighted>
-9.9901

> <Gold.Chemscore.Internal_Hbond.Weighted>
0.0000

> <Gold.Chemscore.DEClash.Weighted>
0.0243

> <Gold.Chemscore.DEInternal.Weighted>
1.0276

> <Gold.Chemscore.Rot.Weighted>
4.9625

> <Gold.Chemscore.Internal.Correction.Weighted>
   9.000000E+99

> <Gold.Protein.RotatedTorsions>
[ 6907 6896 6895 6894 ] final   98.40 input  -60.11 | X-H torsion
[ 7974 7965 7964 7962 ] final  108.30 input  175.53 | X-H torsion
[ 8008 7997 7996 7995 ] final  -31.57 input   59.86 | X-H torsion
[ 10167 10162 10161 10158 ] final  -18.04 input  -65.29 | X-H torsion
[ 10718 10713 10712 10709 ] final -171.75 input   66.30 | X-H torsion
[ 10763 10752 10751 10750 ] final  -92.13 input  -60.55 | X-H torsion
[ 11005 11000 10999 10996 ] final   63.80 input  -57.11 | X-H torsion

> <Gold.Protein.ActiveResidues>
 VAL166  LYS551  ARG553  GLY616  TRP617  ASP618  TYR619  PRO620  LYS621  CYS622 
 ASP623  PHE694  ASN695  SER759  ASP760  ASP761  ALA762  ILE779  LEU786  VAL792 
 PHE793  MET794  SER795  GLU796  ALA797  LYS798  CYS799  TRP800  GLU811  SER814 

> <Gold.Protein.RotatedAtoms>
  152.5410  134.0587  159.8142 H   0  0  0  0  0  0  0  0  0  0  0  0  # atno 6907 bound_to 6896
  151.0718  133.5453  159.2634 H   0  0  0  0  0  0  0  0  0  0  0  0  # atno 6908 bound_to 6896
  151.2313  135.0563  159.9042 H   0  0  0  0  0  0  0  0  0  0  0  0  # atno 6909 bound_to 6896
  145.2825  139.2628  143.3908 H   0  0  0  0  0  0  0  0  0  0  0  0  # atno 7974 bound_to 7965
  154.4209  140.1761  156.1588 H   0  0  0  0  0  0  0  0  0  0  0  0  # atno 8008 bound_to 7997
  155.9855  140.3373  155.6678 H   0  0  0  0  0  0  0  0  0  0  0  0  # atno 8009 bound_to 7997
  155.6443  140.0683  157.2599 H   0  0  0  0  0  0  0  0  0  0  0  0  # atno 8010 bound_to 7997
  140.7254  143.4955  150.9936 H   0  0  0  0  0  0  0  0  0  0  0  0  # atno 10167 bound_to 10162
  156.7455  130.9358  151.3112 H   0  0  0  0  0  0  0  0  0  0  0  0  # atno 10718 bound_to 10713
  154.6830  135.5242  153.8289 H   0  0  0  0  0  0  0  0  0  0  0  0  # atno 10763 bound_to 10752
  153.0578  135.6557  154.0544 H   0  0  0  0  0  0  0  0  0  0  0  0  # atno 10764 bound_to 10752
  154.0429  135.2975  155.3332 H   0  0  0  0  0  0  0  0  0  0  0  0  # atno 10765 bound_to 10752
  140.0001  134.6456  155.9945 H   0  0  0  0  0  0  0  0  0  0  0  0  # atno 11005 bound_to 11000
  146.3211  140.3296  142.8639 LP  0  0  0  0  0  0  0  0  0  0  0  0  # atno 17320 bound_to 7965
  144.9241  140.7901  143.5730 LP  0  0  0  0  0  0  0  0  0  0  0  0  # atno 17321 bound_to 7965
  139.8662  143.7251  152.3170 LP  0  0  0  0  0  0  0  0  0  0  0  0  # atno 17342 bound_to 10162
  139.7484  144.7541  151.0545 LP  0  0  0  0  0  0  0  0  0  0  0  0  # atno 17343 bound_to 10162
  157.6800  130.9131  150.0244 LP  0  0  0  0  0  0  0  0  0  0  0  0  # atno 17370 bound_to 10713
  156.1436  130.3642  149.9544 LP  0  0  0  0  0  0  0  0  0  0  0  0  # atno 17371 bound_to 10713
  141.1635  133.6538  156.4399 LP  0  0  0  0  0  0  0  0  0  0  0  0  # atno 17394 bound_to 11000
  140.4745  134.6723  157.5144 LP  0  0  0  0  0  0  0  0  0  0  0  0  # atno 17395 bound_to 11000

$$$$
