AV-unprocessed.smi:1492|AV-procd|sdf|6044|dock10
  -GOLD-   22720 6153D 1   1.00000     0.00000
 Structure written by MMmdl.
 51 52  0  0  0  0  0  0  0  0  2 V2000
  151.0257  139.8438  155.4621 C   0  0  0  0  0  0  0  0  0  0  0  0
  151.4490  140.9697  156.4209 C   0  0  0  0  0  0  0  0  0  0  0  0
  150.6815  141.0158  157.7841 C   0  0  1  0  0  0  0  0  0  0  0  0
  149.1787  141.1851  157.4355 C   0  0  0  0  0  0  0  0  0  0  0  0
  150.8596  139.6382  158.5090 C   0  0  0  0  0  0  0  0  0  0  0  0
  149.9130  138.6128  158.0790 N   0  0  0  0  0  0  0  0  0  0  0  0
  149.7042  137.4214  158.6587 C   0  0  0  0  0  0  0  0  0  0  0  0
  150.3919  136.9762  159.5773 O   0  0  0  0  0  0  0  0  0  0  0  0
  148.5050  136.6289  158.1371 C   0  0  0  0  0  0  0  0  0  0  0  0
  147.8438  135.7189  159.1737 C   0  0  0  0  0  0  0  0  0  0  0  0
  147.6919  134.3752  158.9982 C   0  0  0  0  0  0  0  0  0  0  0  0
  148.1440  133.6497  157.7430 C   0  0  0  0  0  0  0  0  0  0  0  0
  147.1072  133.5734  159.9931 N   0  0  0  0  0  0  0  0  0  0  0  0
  146.7180  134.1106  161.0860 C   0  0  0  0  0  0  0  0  0  0  0  0
  146.0932  133.2426  162.1572 C   0  0  0  0  0  0  0  0  0  0  0  0
  146.8291  135.4543  161.3643 N   0  5  0  0  0  0  0  0  0  0  0  0
  147.3824  136.2986  160.4483 C   0  0  0  0  0  0  0  0  0  0  0  0
  147.5149  137.5024  160.6659 O   0  0  0  0  0  0  0  0  0  0  0  0
  151.1837  142.1233  158.6528 N   0  0  0  0  0  0  0  0  0  0  0  0
  152.5742  141.9856  159.1073 C   0  0  0  0  0  0  0  0  0  0  0  0
  152.9762  143.0933  160.0953 C   0  0  0  0  0  0  0  0  0  0  0  0
  152.7783  144.3664  159.4944 O   0  0  0  0  0  0  0  0  0  0  0  0
  151.4284  144.5698  159.0972 C   0  0  0  0  0  0  0  0  0  0  0  0
  151.0066  143.4741  158.1031 C   0  0  0  0  0  0  0  0  0  0  0  0
  151.6318  139.8673  154.5564 H   0  0  0  0  0  0  0  0  0  0  0  0
  149.9847  139.9439  155.1553 H   0  0  0  0  0  0  0  0  0  0  0  0
  151.1508  138.8605  155.9153 H   0  0  0  0  0  0  0  0  0  0  0  0
  152.5233  140.9032  156.5881 H   0  0  0  0  0  0  0  0  0  0  0  0
  151.3450  141.9179  155.8926 H   0  0  0  0  0  0  0  0  0  0  0  0
  148.8362  140.4082  156.7521 H   0  0  0  0  0  0  0  0  0  0  0  0
  148.9730  142.1326  156.9391 H   0  0  0  0  0  0  0  0  0  0  0  0
  148.5434  141.1277  158.3189 H   0  0  0  0  0  0  0  0  0  0  0  0
  151.8607  139.2476  158.3245 H   0  0  0  0  0  0  0  0  0  0  0  0
  150.7823  139.7497  159.5908 H   0  0  0  0  0  0  0  0  0  0  0  0
  149.2923  138.8708  157.3247 H   0  0  0  0  0  0  0  0  0  0  0  0
  147.7818  137.3263  157.7131 H   0  0  0  0  0  0  0  0  0  0  0  0
  148.8322  136.0210  157.2933 H   0  0  0  0  0  0  0  0  0  0  0  0
  147.5820  133.9999  156.8772 H   0  0  0  0  0  0  0  0  0  0  0  0
  147.9882  132.5740  157.8315 H   0  0  0  0  0  0  0  0  0  0  0  0
  149.2052  133.8182  157.5607 H   0  0  0  0  0  0  0  0  0  0  0  0
  145.0503  133.5225  162.3087 H   0  0  0  0  0  0  0  0  0  0  0  0
  146.6251  133.3645  163.1012 H   0  0  0  0  0  0  0  0  0  0  0  0
  146.1290  132.1883  161.8798 H   0  0  0  0  0  0  0  0  0  0  0  0
  152.7313  141.0347  159.6115 H   0  0  0  0  0  0  0  0  0  0  0  0
  153.2559  142.0125  158.2573 H   0  0  0  0  0  0  0  0  0  0  0  0
  152.3932  143.0204  161.0148 H   0  0  0  0  0  0  0  0  0  0  0  0
  154.0253  142.9905  160.3725 H   0  0  0  0  0  0  0  0  0  0  0  0
  150.7788  144.5664  159.9737 H   0  0  0  0  0  0  0  0  0  0  0  0
  151.3383  145.5533  158.6362 H   0  0  0  0  0  0  0  0  0  0  0  0
  151.5872  143.5873  157.1875 H   0  0  0  0  0  0  0  0  0  0  0  0
  149.9665  143.6601  157.8445 H   0  0  0  0  0  0  0  0  0  0  0  0
  1  2  1  0  0  0  0
  1 25  1  0  0  0  0
  1 26  1  0  0  0  0
  1 27  1  0  0  0  0
  2  3  1  0  0  0  0
  2 28  1  0  0  0  0
  2 29  1  0  0  0  0
  3  4  1  0  0  0  0
  3  5  1  0  0  0  0
  3 19  1  0  0  0  0
  4 30  1  0  0  0  0
  4 31  1  0  0  0  0
  4 32  1  0  0  0  0
  5  6  1  0  0  0  0
  5 33  1  0  0  0  0
  5 34  1  0  0  0  0
  6  7  1  0  0  0  0
  6 35  1  0  0  0  0
  7  8  2  0  0  0  0
  7  9  1  0  0  0  0
  9 10  1  0  0  0  0
  9 36  1  0  0  0  0
  9 37  1  0  0  0  0
 10 17  1  0  0  0  0
 10 11  2  0  0  0  0
 11 12  1  0  0  0  0
 11 13  1  0  0  0  0
 12 38  1  0  0  0  0
 12 39  1  0  0  0  0
 12 40  1  0  0  0  0
 13 14  2  0  0  0  0
 14 15  1  0  0  0  0
 14 16  1  0  0  0  0
 15 41  1  0  0  0  0
 15 42  1  0  0  0  0
 15 43  1  0  0  0  0
 16 17  1  0  0  0  0
 17 18  2  0  0  0  0
 19 24  1  0  0  0  0
 19 20  1  0  0  0  0
 20 21  1  0  0  0  0
 20 44  1  0  0  0  0
 20 45  1  0  0  0  0
 21 22  1  0  0  0  0
 21 46  1  0  0  0  0
 21 47  1  0  0  0  0
 22 23  1  0  0  0  0
 23 24  1  0  0  0  0
 23 48  1  0  0  0  0
 23 49  1  0  0  0  0
 24 50  1  0  0  0  0
 24 51  1  0  0  0  0
M  CHG  1  16  -1
M  END
> <s_m_source_file>
AV-unprocessed.smi

> <i_m_source_file_index>
1492

> <i_lp_mmshare_version>
43012

> <i_f3d_flags>
0

> <s_epik_input>
W0NIMl0xW0NIMl1PW0NIMl1bQ0gyXU4xW0NAQF0oW0NIM10pKFtDSDJdW0NIM10pW0NIMl1bTkhdQyg9TylbQ0gyXWMyYyhbQ0gzXSluYyhbQ0gzXSlbbkhdYzI9Tw==

> <s_epik_cmdline>
J2VwaWtfcHl0aG9uJywgJy1waCcsICc3LjAnLCAnLXRuJywgJzgnLCAnLW1hJywgJzIwMCcsICctbWV0YWxfYmluZGluZycsICctaW1hZScsICc8aW5maWxlLm1hZT4nLCAnLW9tYWUnLCAnPG91dGZpbGUubWFlPic=

> <r_lp_tautomer_probability>
0.839158

> <r_epik_Ionization_Penalty>
6.88574

> <r_epik_Ionization_Penalty_Charging>
6.74373e-08

> <r_epik_Ionization_Penalty_Neutral>
6.88574

> <r_epik_State_Penalty>
4.79448

> <r_epik_Charging_Adjusted_Penalty>
4.79448

> <i_epik_Tot_Q>
-1

> <i_epik_Tot_abs_Q>
1

> <r_epik_Metal_State_Penalty>
1.16421

> <b_epik_Metal_Only>
1

> <s_lp_Force_Field>
OPLS_2005

> <r_lp_Energy>
44.9842

> <b_lp_Chiralities_Consistent>
1

> <s_lp_Variant>
AV-unprocessed.smi:1492-9

> <Gold.Version>
5.8.1

> <Gold.Id.Protein>
6NUR|6NUR_protein|mol2

> <Gold.PLP.Fitness>
43.4146

> <Gold.PLP.PLP>
-36.9433

> <Gold.PLP.part.hbond>
-3.0000

> <Gold.PLP.part.metal>
0.0000

> <Gold.PLP.part.buried>
-7.1177

> <Gold.PLP.part.nonpolar>
-28.0191

> <Gold.PLP.part.repulsive>
0.1541

> <Gold.PLP.ligand.clash>
0.0000

> <Gold.PLP.ligand.torsion>
0.9235

> <Gold.PLP.Chemscore.Hbond>
2.7280

> <Gold.PLP.Chemscore.CHOScore>
0.0000

> <Gold.PLP.Chemscore.Metal>
0.0000

> <Gold.Chemscore.Hbonds>
donor molecule, donor type, donor heavy atom, donor atom, acceptor molecule, acceptor atom, score
      P1  H  6896  6909       L1     8  0.91
      P1  H  6931  6943       L1    18  0.54
      P1  H  6934  6947       L1    18  0.99

> <Gold.PLP.Chemscore.Internal.Correction>
0.1343

> <Gold.Rescore>
     Score         DG    S(hbond)    S(metal)    S(lipo)     H(rot)  DE(clash)    DE(int)     intcor
     17.02     -19.04       2.61        0.00      86.21       2.05       0.11       1.90       ----

> <Gold.Chemscore.Fitness>
17.0244

> <Gold.Chemscore.DG>
-19.0389

> <Gold.Chemscore.ZeroCoef>
-5.4800

> <Gold.Chemscore.Hbond>
2.6077

> <Gold.Chemscore.Metal>
0.0000

> <Gold.Chemscore.Lipo>
86.2150

> <Gold.Chemscore.Internal_Hbond>
0.0000

> <Gold.Chemscore.DEClash>
0.1117

> <Gold.Chemscore.DEInternal>
1.9027

> <Gold.Chemscore.Rot>
2.0461

> <Gold.Chemscore.Internal.Correction>
   9.000000E+99

> <Gold.Chemscore.Hbonds>
donor molecule, donor type, donor heavy atom, donor atom, acceptor molecule, acceptor atom, score
      P1  H  6896  6909       L1     8  0.87
      P1  H  6931  6943       L1    18  0.53
      P1  H  6934  6947       L1    18  0.91

> <Gold.Chemscore.Hbond.Weighted>
-8.7098

> <Gold.Chemscore.Metal.Weighted>
-0.0000

> <Gold.Chemscore.Lipo.Weighted>
-10.0872

> <Gold.Chemscore.Internal_Hbond.Weighted>
0.0000

> <Gold.Chemscore.DEClash.Weighted>
0.1117

> <Gold.Chemscore.DEInternal.Weighted>
1.9027

> <Gold.Chemscore.Rot.Weighted>
5.2381

> <Gold.Chemscore.Internal.Correction.Weighted>
   9.000000E+99

> <Gold.Protein.RotatedTorsions>
[ 6907 6896 6895 6894 ] final  103.48 input  -60.11 | X-H torsion
[ 7974 7965 7964 7962 ] final   82.33 input  175.53 | X-H torsion
[ 8008 7997 7996 7995 ] final   86.74 input   59.86 | X-H torsion
[ 10167 10162 10161 10158 ] final  166.79 input  -65.29 | X-H torsion
[ 10718 10713 10712 10709 ] final  -76.92 input   66.30 | X-H torsion
[ 10763 10752 10751 10750 ] final   26.92 input  -60.55 | X-H torsion
[ 11005 11000 10999 10996 ] final  178.77 input  -57.11 | X-H torsion

> <Gold.Protein.ActiveResidues>
 VAL166  LYS551  ARG553  GLY616  TRP617  ASP618  TYR619  PRO620  LYS621  CYS622 
 ASP623  PHE694  ASN695  SER759  ASP760  ASP761  ALA762  ILE779  LEU786  VAL792 
 PHE793  MET794  SER795  GLU796  ALA797  LYS798  CYS799  TRP800  GLU811  SER814 

> <Gold.Protein.RotatedAtoms>
  152.5294  133.9820  159.7810 H   0  0  0  0  0  0  0  0  0  0  0  0  # atno 6907 bound_to 6896
  151.0072  133.5992  159.2694 H   0  0  0  0  0  0  0  0  0  0  0  0  # atno 6908 bound_to 6896
  151.3079  135.0793  159.9315 H   0  0  0  0  0  0  0  0  0  0  0  0  # atno 6909 bound_to 6896
  145.6264  139.2396  143.2109 H   0  0  0  0  0  0  0  0  0  0  0  0  # atno 7974 bound_to 7965
  155.9666  140.3389  155.6538 H   0  0  0  0  0  0  0  0  0  0  0  0  # atno 8008 bound_to 7997
  155.6729  140.0729  157.2531 H   0  0  0  0  0  0  0  0  0  0  0  0  # atno 8009 bound_to 7997
  154.4156  140.1688  156.1886 H   0  0  0  0  0  0  0  0  0  0  0  0  # atno 8010 bound_to 7997
  139.4932  144.3990  151.9431 H   0  0  0  0  0  0  0  0  0  0  0  0  # atno 10167 bound_to 10162
  156.0160  130.4478  150.3266 H   0  0  0  0  0  0  0  0  0  0  0  0  # atno 10718 bound_to 10713
  153.0590  135.6549  154.0507 H   0  0  0  0  0  0  0  0  0  0  0  0  # atno 10763 bound_to 10752
  154.0179  135.2922  155.3386 H   0  0  0  0  0  0  0  0  0  0  0  0  # atno 10764 bound_to 10752
  154.6920  135.5279  153.8473 H   0  0  0  0  0  0  0  0  0  0  0  0  # atno 10765 bound_to 10752
  140.3988  134.6796  157.4550 H   0  0  0  0  0  0  0  0  0  0  0  0  # atno 11005 bound_to 11000
  146.1391  140.7082  142.9376 LP  0  0  0  0  0  0  0  0  0  0  0  0  # atno 17320 bound_to 7965
  144.7210  140.4374  143.7008 LP  0  0  0  0  0  0  0  0  0  0  0  0  # atno 17321 bound_to 7965
  140.3429  144.3182  150.5964 LP  0  0  0  0  0  0  0  0  0  0  0  0  # atno 17342 bound_to 10162
  140.5551  143.2200  151.7862 LP  0  0  0  0  0  0  0  0  0  0  0  0  # atno 17343 bound_to 10162
  157.1365  131.0285  151.2946 LP  0  0  0  0  0  0  0  0  0  0  0  0  # atno 17370 bound_to 10713
  157.4507  130.7597  149.7149 LP  0  0  0  0  0  0  0  0  0  0  0  0  # atno 17371 bound_to 10713
  140.0352  134.6348  155.9053 LP  0  0  0  0  0  0  0  0  0  0  0  0  # atno 17394 bound_to 11000
  141.1864  133.6557  156.5239 LP  0  0  0  0  0  0  0  0  0  0  0  0  # atno 17395 bound_to 11000

$$$$
