AV-unprocessed.smi:2285|AV-procd|sdf|9203|dock9
  -GOLD-   2272012423D 1   1.00000     0.00000
 Structure written by MMmdl.
 36 37  0  0  0  0  0  0  0  0  1 V2000
  146.7654  139.4481  151.5142 C   0  0  0  0  0  0  0  0  0  0  0  0
  147.0932  139.3254  153.0087 C   0  0  0  0  0  0  0  0  0  0  0  0
  147.4457  140.6551  153.6721 C   0  0  0  0  0  0  0  0  0  0  0  0
  148.9150  140.7416  154.0843 C   0  0  0  0  0  0  0  0  0  0  0  0
  149.2511  141.7510  155.0828 N   0  0  0  0  0  0  0  0  0  0  0  0
  150.3188  141.7061  155.8921 C   0  0  0  0  0  0  0  0  0  0  0  0
  151.1512  140.7980  155.8600 O   0  0  0  0  0  0  0  0  0  0  0  0
  150.3378  142.7691  156.7207 N   0  0  0  0  0  0  0  0  0  0  0  0
  151.2797  143.0776  157.7108 C   0  0  0  0  0  0  0  0  0  0  0  0
  151.7060  144.2883  157.9407 N   0  0  0  0  0  0  0  0  0  0  0  0
  152.6442  144.5598  158.9366 C   0  0  0  0  0  0  0  0  0  0  0  0
  153.1456  143.5721  159.6996 C   0  0  0  0  0  0  0  0  0  0  0  0
  152.7364  142.2444  159.5116 N   0  0  0  0  0  0  0  0  0  0  0  0
  153.3122  141.2088  160.3700 C   0  0  0  0  0  0  0  0  0  0  0  0
  151.8217  141.9217  158.5572 C   0  0  0  0  0  0  0  0  0  0  0  0
  151.4284  140.7706  158.3579 O   0  0  0  0  0  0  0  0  0  0  0  0
  146.7413  141.9149  153.2125 C   0  0  0  0  0  0  0  0  0  0  0  0
  146.4117  141.3170  154.5576 C   0  0  0  0  0  0  0  0  0  0  0  0
  146.5955  138.4647  151.0757 H   0  0  0  0  0  0  0  0  0  0  0  0
  147.5846  139.9172  150.9686 H   0  0  0  0  0  0  0  0  0  0  0  0
  145.8656  140.0398  151.3467 H   0  0  0  0  0  0  0  0  0  0  0  0
  146.2634  138.8580  153.5393 H   0  0  0  0  0  0  0  0  0  0  0  0
  147.9374  138.6444  153.1231 H   0  0  0  0  0  0  0  0  0  0  0  0
  149.2497  139.7643  154.4369 H   0  0  0  0  0  0  0  0  0  0  0  0
  149.5112  140.9471  153.1954 H   0  0  0  0  0  0  0  0  0  0  0  0
  148.6167  142.5313  155.1716 H   0  0  0  0  0  0  0  0  0  0  0  0
  149.5713  143.4175  156.6154 H   0  0  0  0  0  0  0  0  0  0  0  0
  152.9396  145.5917  159.0576 H   0  0  0  0  0  0  0  0  0  0  0  0
  153.8724  143.7334  160.4825 H   0  0  0  0  0  0  0  0  0  0  0  0
  153.7882  140.4319  159.7695 H   0  0  0  0  0  0  0  0  0  0  0  0
  152.5353  140.7420  160.9772 H   0  0  0  0  0  0  0  0  0  0  0  0
  154.0681  141.6035  161.0498 H   0  0  0  0  0  0  0  0  0  0  0  0
  147.3097  142.8429  153.2033 H   0  0  0  0  0  0  0  0  0  0  0  0
  145.9960  141.8222  152.4252 H   0  0  0  0  0  0  0  0  0  0  0  0
  145.4458  140.8272  154.6648 H   0  0  0  0  0  0  0  0  0  0  0  0
  146.7636  141.8462  155.4411 H   0  0  0  0  0  0  0  0  0  0  0  0
  1  2  1  0  0  0  0
  1 19  1  0  0  0  0
  1 20  1  0  0  0  0
  1 21  1  0  0  0  0
  2  3  1  0  0  0  0
  2 22  1  0  0  0  0
  2 23  1  0  0  0  0
  3 18  1  0  0  0  0
  3  4  1  0  0  0  0
  3 17  1  0  0  0  0
  4  5  1  0  0  0  0
  4 24  1  0  0  0  0
  4 25  1  0  0  0  0
  5  6  1  0  0  0  0
  5 26  1  0  0  0  0
  6  7  2  0  0  0  0
  6  8  1  0  0  0  0
  8  9  1  0  0  0  0
  8 27  1  0  0  0  0
  9 15  1  0  0  0  0
  9 10  2  0  0  0  0
 10 11  1  0  0  0  0
 11 12  2  0  0  0  0
 11 28  1  0  0  0  0
 12 13  1  0  0  0  0
 12 29  1  0  0  0  0
 13 14  1  0  0  0  0
 13 15  1  0  0  0  0
 14 30  1  0  0  0  0
 14 31  1  0  0  0  0
 14 32  1  0  0  0  0
 15 16  2  0  0  0  0
 17 18  1  0  0  0  0
 17 33  1  0  0  0  0
 17 34  1  0  0  0  0
 18 35  1  0  0  0  0
 18 36  1  0  0  0  0
M  END
> <s_m_source_file>
AV-unprocessed.smi

> <i_m_source_file_index>
2285

> <i_lp_mmshare_version>
43012

> <i_f3d_flags>
0

> <s_epik_input>
W0NIM11bQ0gyXUMxKFtDSDJdW0NIMl0xKVtDSDJdW05IXUMoPU8pW05IXWMybltjSF1bY0hdbihbQ0gzXSljMj1P

> <s_epik_cmdline>
J2VwaWtfcHl0aG9uJywgJy1waCcsICc3LjAnLCAnLXRuJywgJzgnLCAnLW1hJywgJzIwMCcsICctbWV0YWxfYmluZGluZycsICctaW1hZScsICc8aW5maWxlLm1hZT4nLCAnLW9tYWUnLCAnPG91dGZpbGUubWFlPic=

> <r_lp_tautomer_probability>
1

> <r_epik_Ionization_Penalty>
0.000603256

> <r_epik_Ionization_Penalty_Charging>
1.64466e-07

> <r_epik_Ionization_Penalty_Neutral>
0.000603092

> <r_epik_State_Penalty>
-0

> <r_epik_Charging_Adjusted_Penalty>
1.64466e-07

> <i_epik_Tot_Q>
0

> <i_epik_Tot_abs_Q>
0

> <r_epik_Metal_State_Penalty>
-0

> <b_epik_Metal_Only>
0

> <s_lp_Force_Field>
OPLS_2005

> <r_lp_Energy>
32.2968

> <b_lp_Chiralities_Consistent>
1

> <s_lp_Variant>
AV-unprocessed.smi:2285-1

> <Gold.Version>
5.8.1

> <Gold.Id.Protein>
6NUR|6NUR_protein|mol2

> <Gold.PLP.Fitness>
41.5153

> <Gold.PLP.PLP>
-39.2401

> <Gold.PLP.part.hbond>
-2.4806

> <Gold.PLP.part.metal>
0.0000

> <Gold.PLP.part.buried>
-2.2725

> <Gold.PLP.part.nonpolar>
-33.8540

> <Gold.PLP.part.repulsive>
0.3845

> <Gold.PLP.ligand.clash>
0.0000

> <Gold.PLP.ligand.torsion>
1.6946

> <Gold.PLP.Chemscore.Hbond>
1.5010

> <Gold.PLP.Chemscore.CHOScore>
0.0000

> <Gold.PLP.Chemscore.Metal>
0.0000

> <Gold.Chemscore.Hbonds>
donor molecule, donor type, donor heavy atom, donor atom, acceptor molecule, acceptor atom, score
      L1  H     5    26       P1  8028  0.32
      L1  H     8    27       P1  8028  0.93
      P1  H  7989  7998       L1     7  0.05

> <Gold.PLP.Chemscore.Internal.Correction>
1.1615

> <Gold.Rescore>
     Score         DG    S(hbond)    S(metal)    S(lipo)     H(rot)  DE(clash)    DE(int)     intcor
     10.70     -16.69       1.68        0.00      80.35       1.49       0.20       5.79       ----

> <Gold.Chemscore.Fitness>
10.7021

> <Gold.Chemscore.DG>
-16.6905

> <Gold.Chemscore.ZeroCoef>
-5.4800

> <Gold.Chemscore.Hbond>
1.6809

> <Gold.Chemscore.Metal>
0.0000

> <Gold.Chemscore.Lipo>
80.3465

> <Gold.Chemscore.Internal_Hbond>
0.0000

> <Gold.Chemscore.DEClash>
0.1996

> <Gold.Chemscore.DEInternal>
5.7888

> <Gold.Chemscore.Rot>
1.4861

> <Gold.Chemscore.Internal.Correction>
   9.000000E+99

> <Gold.Chemscore.Hbonds>
donor molecule, donor type, donor heavy atom, donor atom, acceptor molecule, acceptor atom, score
      L1  H     5    26       P1  8028  0.32
      L1  H     8    27       P1  8028  0.90
      P1  H  7989  7998       L1     7  0.01

> <Gold.Chemscore.Hbond.Weighted>
-5.6144

> <Gold.Chemscore.Metal.Weighted>
-0.0000

> <Gold.Chemscore.Lipo.Weighted>
-9.4005

> <Gold.Chemscore.Internal_Hbond.Weighted>
0.0000

> <Gold.Chemscore.DEClash.Weighted>
0.1996

> <Gold.Chemscore.DEInternal.Weighted>
5.7888

> <Gold.Chemscore.Rot.Weighted>
3.8044

> <Gold.Chemscore.Internal.Correction.Weighted>
   9.000000E+99

> <Gold.Protein.RotatedTorsions>
[ 6907 6896 6895 6894 ] final  -14.09 input  -60.11 | X-H torsion
[ 7974 7965 7964 7962 ] final  -48.67 input  175.53 | X-H torsion
[ 8008 7997 7996 7995 ] final   42.20 input   59.86 | X-H torsion
[ 10167 10162 10161 10158 ] final  163.57 input  -65.29 | X-H torsion
[ 10718 10713 10712 10709 ] final   77.28 input   66.30 | X-H torsion
[ 10763 10752 10751 10750 ] final -119.90 input  -60.55 | X-H torsion
[ 11005 11000 10999 10996 ] final  -38.09 input  -57.11 | X-H torsion

> <Gold.Protein.ActiveResidues>
 VAL166  LYS551  ARG553  GLY616  TRP617  ASP618  TYR619  PRO620  LYS621  CYS622 
 ASP623  PHE694  ASN695  SER759  ASP760  ASP761  ALA762  ILE779  LEU786  VAL792 
 PHE793  MET794  SER795  GLU796  ALA797  LYS798  CYS799  TRP800  GLU811  SER814 

> <Gold.Protein.RotatedAtoms>
  151.3448  135.0871  159.9382 H   0  0  0  0  0  0  0  0  0  0  0  0  # atno 6907 bound_to 6896
  152.5202  133.9412  159.7637 H   0  0  0  0  0  0  0  0  0  0  0  0  # atno 6908 bound_to 6896
  150.9775  133.6226  159.2757 H   0  0  0  0  0  0  0  0  0  0  0  0  # atno 6909 bound_to 6896
  145.9487  140.7593  142.9516 H   0  0  0  0  0  0  0  0  0  0  0  0  # atno 7974 bound_to 7965
  155.2822  140.3373  155.4257 H   0  0  0  0  0  0  0  0  0  0  0  0  # atno 8008 bound_to 7997
  156.2084  140.1760  156.7789 H   0  0  0  0  0  0  0  0  0  0  0  0  # atno 8009 bound_to 7997
  154.5653  140.0680  156.8866 H   0  0  0  0  0  0  0  0  0  0  0  0  # atno 8010 bound_to 7997
  139.4876  144.4323  151.9055 H   0  0  0  0  0  0  0  0  0  0  0  0  # atno 10167 bound_to 10162
  157.6704  130.9814  150.1618 H   0  0  0  0  0  0  0  0  0  0  0  0  # atno 10718 bound_to 10713
  154.8630  135.4222  154.2373 H   0  0  0  0  0  0  0  0  0  0  0  0  # atno 10763 bound_to 10752
  153.3345  135.6990  153.6925 H   0  0  0  0  0  0  0  0  0  0  0  0  # atno 10764 bound_to 10752
  153.5928  135.3551  155.2890 H   0  0  0  0  0  0  0  0  0  0  0  0  # atno 10765 bound_to 10752
  141.0001  133.6959  156.2007 H   0  0  0  0  0  0  0  0  0  0  0  0  # atno 11005 bound_to 11000
  144.6792  140.2399  143.7345 LP  0  0  0  0  0  0  0  0  0  0  0  0  # atno 17320 bound_to 7965
  145.8201  139.2040  143.1943 LP  0  0  0  0  0  0  0  0  0  0  0  0  # atno 17321 bound_to 7965
  140.3772  144.2782  150.5913 LP  0  0  0  0  0  0  0  0  0  0  0  0  # atno 17342 bound_to 10162
  140.5266  143.2253  151.8305 LP  0  0  0  0  0  0  0  0  0  0  0  0  # atno 17343 bound_to 10162
  156.2393  130.3689  149.8355 LP  0  0  0  0  0  0  0  0  0  0  0  0  # atno 17370 bound_to 10713
  156.6160  130.8606  151.3465 LP  0  0  0  0  0  0  0  0  0  0  0  0  # atno 17371 bound_to 10713
  140.6902  134.4674  157.5588 LP  0  0  0  0  0  0  0  0  0  0  0  0  # atno 17394 bound_to 11000
  139.9034  134.8503  156.1801 LP  0  0  0  0  0  0  0  0  0  0  0  0  # atno 17395 bound_to 11000

$$$$
