AV-unprocessed.smi:40|AV-procd|sdf|382|dock8
  -GOLD-   2262016243D 1   1.00000     0.00000
 Structure written by MMmdl.
 47 48  0  0  0  0  0  0  0  0  1 V2000
  150.7661  145.2829  159.6563 C   0  0  0  0  0  0  0  0  0  0  0  0
  152.0846  144.6136  160.0659 C   0  0  0  0  0  0  0  0  0  0  0  0
  152.2958  143.2248  159.4415 C   0  0  0  0  0  0  0  0  0  0  0  0
  153.2036  142.3022  160.2749 C   0  0  0  0  0  0  0  0  0  0  0  0
  153.4089  140.9229  159.6342 C   0  0  0  0  0  0  0  0  0  0  0  0
  152.1584  140.4229  159.1923 O   0  0  0  0  0  0  0  0  0  0  0  0
  152.0989  139.4331  158.2827 C   0  0  0  0  0  0  0  0  0  0  0  0
  152.9474  139.2446  157.4113 O   0  0  0  0  0  0  0  0  0  0  0  0
  150.9300  138.5953  158.4906 N   0  0  0  0  0  0  0  0  0  0  0  0
  150.5365  137.5104  157.7806 C   0  0  0  0  0  0  0  0  0  0  0  0
  150.9855  137.2676  156.5588 N   0  0  0  0  0  0  0  0  0  0  0  0
  150.6247  136.1781  155.8136 C   0  0  0  0  0  0  0  0  0  0  0  0
  151.0504  136.0294  154.6690 O   0  0  0  0  0  0  0  0  0  0  0  0
  149.7410  135.2486  156.4094 N   0  0  0  0  0  0  0  0  0  0  0  0
  149.3074  134.0397  155.6143 C   0  0  1  0  0  0  0  0  0  0  0  0
  148.5254  133.2179  156.4323 O   0  0  0  0  0  0  0  0  0  0  0  0
  147.3012  132.9012  155.7788 C   0  0  1  0  0  0  0  0  0  0  0  0
  146.1993  132.6497  156.8147 C   0  0  0  0  0  0  0  0  0  0  0  0
  147.0489  134.1067  154.8750 C   0  0  2  0  0  0  0  0  0  0  0  0
  146.1621  133.8236  153.8093 O   0  0  0  0  0  0  0  0  0  0  0  0
  148.4539  134.4733  154.4106 C   0  0  2  0  0  0  0  0  0  0  0  0
  148.8413  133.7795  153.2387 O   0  0  0  0  0  0  0  0  0  0  0  0
  149.2619  135.4808  157.6904 C   0  0  0  0  0  0  0  0  0  0  0  0
  149.6301  136.5684  158.4011 C   0  0  0  0  0  0  0  0  0  0  0  0
  149.1587  136.7692  159.6440 F   0  0  0  0  0  0  0  0  0  0  0  0
  150.2198  133.5055  155.3436 H   0  0  0  0  0  0  0  0  0  0  0  0
  147.4638  132.0072  155.1743 H   0  0  0  0  0  0  0  0  0  0  0  0
  146.6436  134.9300  155.4652 H   0  0  0  0  0  0  0  0  0  0  0  0
  148.5528  135.5432  154.2217 H   0  0  0  0  0  0  0  0  0  0  0  0
  150.6425  146.2364  160.1700 H   0  0  0  0  0  0  0  0  0  0  0  0
  149.9109  144.6564  159.9106 H   0  0  0  0  0  0  0  0  0  0  0  0
  150.7316  145.4819  158.5853 H   0  0  0  0  0  0  0  0  0  0  0  0
  152.9230  145.2640  159.8146 H   0  0  0  0  0  0  0  0  0  0  0  0
  152.0978  144.5124  161.1516 H   0  0  0  0  0  0  0  0  0  0  0  0
  151.3188  142.7545  159.3266 H   0  0  0  0  0  0  0  0  0  0  0  0
  152.6988  143.3304  158.4337 H   0  0  0  0  0  0  0  0  0  0  0  0
  154.1791  142.7706  160.4041 H   0  0  0  0  0  0  0  0  0  0  0  0
  152.7878  142.1779  161.2756 H   0  0  0  0  0  0  0  0  0  0  0  0
  154.1039  140.9899  158.7962 H   0  0  0  0  0  0  0  0  0  0  0  0
  153.8390  140.2363  160.3646 H   0  0  0  0  0  0  0  0  0  0  0  0
  150.3352  138.8919  159.2505 H   0  0  0  0  0  0  0  0  0  0  0  0
  145.2514  132.4190  156.3282 H   0  0  0  0  0  0  0  0  0  0  0  0
  146.0460  133.5226  157.4497 H   0  0  0  0  0  0  0  0  0  0  0  0
  146.4562  131.8095  157.4599 H   0  0  0  0  0  0  0  0  0  0  0  0
  145.3244  133.5820  154.1736 H   0  0  0  0  0  0  0  0  0  0  0  0
  148.6537  134.3266  152.4914 H   0  0  0  0  0  0  0  0  0  0  0  0
  148.5739  134.7859  158.1488 H   0  0  0  0  0  0  0  0  0  0  0  0
  1  2  1  0  0  0  0
  1 30  1  0  0  0  0
  1 31  1  0  0  0  0
  1 32  1  0  0  0  0
  2  3  1  0  0  0  0
  2 33  1  0  0  0  0
  2 34  1  0  0  0  0
  3  4  1  0  0  0  0
  3 35  1  0  0  0  0
  3 36  1  0  0  0  0
  4  5  1  0  0  0  0
  4 37  1  0  0  0  0
  4 38  1  0  0  0  0
  5  6  1  0  0  0  0
  5 39  1  0  0  0  0
  5 40  1  0  0  0  0
  6  7  1  0  0  0  0
  7  8  2  0  0  0  0
  7  9  1  0  0  0  0
  9 10  1  0  0  0  0
  9 41  1  0  0  0  0
 10 24  1  0  0  0  0
 10 11  2  0  0  0  0
 11 12  1  0  0  0  0
 12 13  2  0  0  0  0
 12 14  1  0  0  0  0
 14 15  1  0  0  0  0
 14 23  1  0  0  0  0
 15 26  1  0  0  0  0
 15 21  1  0  0  0  0
 15 16  1  0  0  0  0
 16 17  1  0  0  0  0
 17 27  1  0  0  0  0
 17 18  1  0  0  0  0
 17 19  1  0  0  0  0
 18 42  1  0  0  0  0
 18 43  1  0  0  0  0
 18 44  1  0  0  0  0
 19 28  1  0  0  0  0
 19 20  1  0  0  0  0
 19 21  1  0  0  0  0
 20 45  1  0  0  0  0
 21 29  1  0  0  0  0
 21 22  1  0  0  0  0
 22 46  1  0  0  0  0
 23 24  2  0  0  0  0
 23 47  1  0  0  0  0
 24 25  1  0  0  0  0
M  END
> <s_m_source_file>
AV-unprocessed.smi

> <i_m_source_file_index>
40

> <i_lp_mmshare_version>
43012

> <i_f3d_flags>
0

> <s_epik_input>
W0NIM11bQ0gyXVtDSDJdW0NIMl1bQ0gyXU9DKD1PKVtOSF1jMW5jKD1PKW4oW2NIXWMxRilbQ0BASF0yT1tDQEhdKFtDSDNdKVtDQEBIXShbT0hdKVtDQEhdMltPSF0=

> <s_epik_cmdline>
J2VwaWtfcHl0aG9uJywgJy1waCcsICc3LjAnLCAnLXRuJywgJzgnLCAnLW1hJywgJzIwMCcsICctbWV0YWxfYmluZGluZycsICctaW1hZScsICc8aW5maWxlLm1hZT4nLCAnLW9tYWUnLCAnPG91dGZpbGUubWFlPic=

> <r_lp_tautomer_probability>
1

> <r_epik_Ionization_Penalty>
2.29506e-06

> <r_epik_Ionization_Penalty_Charging>
8.26867e-09

> <r_epik_Ionization_Penalty_Neutral>
2.2868e-06

> <r_epik_State_Penalty>
-0

> <r_epik_Charging_Adjusted_Penalty>
8.26867e-09

> <i_epik_Tot_Q>
0

> <i_epik_Tot_abs_Q>
0

> <r_epik_Metal_State_Penalty>
-0

> <b_epik_Metal_Only>
0

> <s_epik_Chemistry_Notes>
This compound has an ester and may undergo hydrolysis at high or low pH. This compound contains an acetal/aminal-like group ( X-CH(R)-Y where X, Y are N, S, or O) that may be acid/base labile, releasing an aldehyde.

> <s_lp_Force_Field>
OPLS_2005

> <r_lp_Energy>
35.629

> <b_lp_Chiralities_Consistent>
1

> <s_lp_Variant>
AV-unprocessed.smi:40-16

> <Gold.Version>
5.8.1

> <Gold.Id.Protein>
6NUR|6NUR_protein|mol2

> <Gold.PLP.Fitness>
39.0866

> <Gold.PLP.PLP>
-33.5369

> <Gold.PLP.part.hbond>
-3.0000

> <Gold.PLP.part.metal>
0.0000

> <Gold.PLP.part.buried>
-4.1624

> <Gold.PLP.part.nonpolar>
-26.5392

> <Gold.PLP.part.repulsive>
0.2868

> <Gold.PLP.ligand.clash>
0.0000

> <Gold.PLP.ligand.torsion>
0.8219

> <Gold.PLP.Chemscore.Hbond>
2.3640

> <Gold.PLP.Chemscore.CHOScore>
0.0000

> <Gold.PLP.Chemscore.Metal>
0.0000

> <Gold.Chemscore.Hbonds>
donor molecule, donor type, donor heavy atom, donor atom, acceptor molecule, acceptor atom, score
      L1  H    22    46       P1  7948  0.32
      P1  H  7997  8010       L1     8  1.00
      P1  H 10752 10763       L1    13  1.00

> <Gold.PLP.Chemscore.Internal.Correction>
0.1014

> <Gold.Rescore>
     Score         DG    S(hbond)    S(metal)    S(lipo)     H(rot)  DE(clash)    DE(int)     intcor
      8.18     -11.22       2.00        0.00      73.00       3.70       0.03       3.02       ----

> <Gold.Chemscore.Fitness>
8.1771

> <Gold.Chemscore.DG>
-11.2238

> <Gold.Chemscore.ZeroCoef>
-5.4800

> <Gold.Chemscore.Hbond>
1.9951

> <Gold.Chemscore.Metal>
0.0000

> <Gold.Chemscore.Lipo>
73.0004

> <Gold.Chemscore.Internal_Hbond>
0.0000

> <Gold.Chemscore.DEClash>
0.0310

> <Gold.Chemscore.DEInternal>
3.0158

> <Gold.Chemscore.Rot>
3.6957

> <Gold.Chemscore.Internal.Correction>
   9.000000E+99

> <Gold.Chemscore.Hbonds>
donor molecule, donor type, donor heavy atom, donor atom, acceptor molecule, acceptor atom, score
      L1  H    22    46       P1  7948  0.01
      P1  H  7997  8010       L1     8  1.00
      P1  H 10752 10763       L1    13  0.81

> <Gold.Chemscore.Hbond.Weighted>
-6.6637

> <Gold.Chemscore.Metal.Weighted>
-0.0000

> <Gold.Chemscore.Lipo.Weighted>
-8.5410

> <Gold.Chemscore.Internal_Hbond.Weighted>
0.0000

> <Gold.Chemscore.DEClash.Weighted>
0.0310

> <Gold.Chemscore.DEInternal.Weighted>
3.0158

> <Gold.Chemscore.Rot.Weighted>
9.4610

> <Gold.Chemscore.Internal.Correction.Weighted>
   9.000000E+99

> <Gold.Protein.RotatedTorsions>
[ 6907 6896 6895 6894 ] final -154.08 input  -60.11 | X-H torsion
[ 7974 7965 7964 7962 ] final   29.64 input  175.53 | X-H torsion
[ 8008 7997 7996 7995 ] final   48.80 input   59.86 | X-H torsion
[ 10167 10162 10161 10158 ] final   72.44 input  -65.29 | X-H torsion
[ 10718 10713 10712 10709 ] final  129.69 input   66.30 | X-H torsion
[ 10763 10752 10751 10750 ] final   64.47 input  -60.55 | X-H torsion
[ 11005 11000 10999 10996 ] final   46.60 input  -57.11 | X-H torsion

> <Gold.Protein.ActiveResidues>
 VAL166  LYS551  ARG553  GLY616  TRP617  ASP618  TYR619  PRO620  LYS621  CYS622 
 ASP623  PHE694  ASN695  SER759  ASP760  ASP761  ALA762  ILE779  LEU786  VAL792 
 PHE793  MET794  SER795  GLU796  ALA797  LYS798  CYS799  TRP800  GLU811  SER814 

> <Gold.Protein.RotatedAtoms>
  151.2522  133.4344  159.2611 H   0  0  0  0  0  0  0  0  0  0  0  0  # atno 6907 bound_to 6896
  151.0607  134.9735  159.8269 H   0  0  0  0  0  0  0  0  0  0  0  0  # atno 6908 bound_to 6896
  152.5398  134.2472  159.8937 H   0  0  0  0  0  0  0  0  0  0  0  0  # atno 6909 bound_to 6896
  146.1659  139.6894  142.9001 H   0  0  0  0  0  0  0  0  0  0  0  0  # atno 7974 bound_to 7965
  155.3917  140.3433  155.4252 H   0  0  0  0  0  0  0  0  0  0  0  0  # atno 8008 bound_to 7997
  156.1554  140.1584  156.8734 H   0  0  0  0  0  0  0  0  0  0  0  0  # atno 8009 bound_to 7997
  154.5090  140.0795  156.7933 H   0  0  0  0  0  0  0  0  0  0  0  0  # atno 8010 bound_to 7997
  140.0352  144.5433  150.7476 H   0  0  0  0  0  0  0  0  0  0  0  0  # atno 10167 bound_to 10162
  157.5131  131.1097  150.9263 H   0  0  0  0  0  0  0  0  0  0  0  0  # atno 10718 bound_to 10713
  153.0057  135.5392  154.6515 H   0  0  0  0  0  0  0  0  0  0  0  0  # atno 10763 bound_to 10752
  154.5746  135.2844  155.0796 H   0  0  0  0  0  0  0  0  0  0  0  0  # atno 10764 bound_to 10752
  154.1948  135.6494  153.5123 H   0  0  0  0  0  0  0  0  0  0  0  0  # atno 10765 bound_to 10752
  140.1354  134.4652  155.8489 H   0  0  0  0  0  0  0  0  0  0  0  0  # atno 11005 bound_to 11000
  145.4468  141.0426  143.2827 LP  0  0  0  0  0  0  0  0  0  0  0  0  # atno 17320 bound_to 7965
  144.8092  139.5994  143.7037 LP  0  0  0  0  0  0  0  0  0  0  0  0  # atno 17321 bound_to 7965
  140.7284  143.2662  151.4038 LP  0  0  0  0  0  0  0  0  0  0  0  0  # atno 17342 bound_to 10162
  139.6050  144.1217  152.2239 LP  0  0  0  0  0  0  0  0  0  0  0  0  # atno 17343 bound_to 10162
  156.9897  130.5558  149.5302 LP  0  0  0  0  0  0  0  0  0  0  0  0  # atno 17370 bound_to 10713
  156.0302  130.5394  150.8515 LP  0  0  0  0  0  0  0  0  0  0  0  0  # atno 17371 bound_to 10713
  141.2177  133.6812  156.7147 LP  0  0  0  0  0  0  0  0  0  0  0  0  # atno 17394 bound_to 11000
  140.2789  134.8332  157.3915 LP  0  0  0  0  0  0  0  0  0  0  0  0  # atno 17395 bound_to 11000

$$$$
