AV-unprocessed.smi:1867|AV-procd|sdf|7560|dock1
  -GOLD-   22720 9273D 1   1.00000     0.00000
 Structure written by MMmdl.
 52 55  0  0  0  0  0  0  0  0  2 V2000
  150.0120  137.0279  157.6618 O   0  0  0  0  0  0  0  0  0  0  0  0
  150.0433  137.1464  156.4391 C   0  0  0  0  0  0  0  0  0  0  0  0
  150.3272  138.2901  155.7857 N   0  0  0  0  0  0  0  0  0  0  0  0
  150.7236  139.5419  156.3274 C   0  0  0  0  0  0  0  0  0  0  0  0
  150.6653  140.7671  155.6243 C   0  0  0  0  0  0  0  0  0  0  0  0
  151.0630  141.9487  156.2784 C   0  0  0  0  0  0  0  0  0  0  0  0
  151.5014  141.8806  157.6223 C   0  0  0  0  0  0  0  0  0  0  0  0
  151.9150  143.0375  158.3126 N   0  0  0  0  0  0  0  0  0  0  0  0
  151.7284  144.3745  157.7730 C   0  0  0  0  0  0  0  0  0  0  0  0
  152.1945  145.3127  158.8861 C   0  0  0  0  0  0  0  0  0  0  0  0
  151.8629  144.5361  160.1604 C   0  0  0  0  0  0  0  0  0  0  0  0
  152.0593  143.0694  159.7625 C   0  0  0  0  0  0  0  0  0  0  0  0
  151.5489  140.7062  158.2953 N   0  0  0  0  0  0  0  0  0  0  0  0
  151.1646  139.5769  157.6650 C   0  0  0  0  0  0  0  0  0  0  0  0
  149.7434  136.1114  155.6347 N   0  0  0  0  0  0  0  0  0  0  0  0
  149.3918  134.7444  156.0198 C   0  0  2  0  0  0  0  0  0  0  0  0
  150.5283  133.9761  156.7229 C   0  0  0  0  0  0  0  0  0  0  0  0
  150.4440  132.5344  156.1825 C   0  0  0  0  0  0  0  0  0  0  0  0
  149.2487  132.5113  155.3180 N   0  3  2  0  0  0  0  0  0  0  0  0
  149.2005  131.4822  154.2566 C   0  0  0  0  0  0  0  0  0  0  0  0
  147.8460  131.5716  153.5245 C   0  0  0  0  0  0  0  0  0  0  0  0
  147.5646  132.9995  153.0120 C   0  0  0  0  0  0  0  0  0  0  0  0
  147.7236  134.0376  154.1400 C   0  0  0  0  0  0  0  0  0  0  0  0
  149.1058  133.8777  154.7939 C   0  0  1  0  0  0  0  0  0  0  0  0
  150.2073  138.2714  154.7838 H   0  0  0  0  0  0  0  0  0  0  0  0
  150.3113  140.8282  154.6070 H   0  0  0  0  0  0  0  0  0  0  0  0
  151.0220  142.8840  155.7409 H   0  0  0  0  0  0  0  0  0  0  0  0
  152.3016  144.5250  156.8577 H   0  0  0  0  0  0  0  0  0  0  0  0
  150.6720  144.5327  157.5526 H   0  0  0  0  0  0  0  0  0  0  0  0
  153.2731  145.4610  158.8170 H   0  0  0  0  0  0  0  0  0  0  0  0
  151.7153  146.2911  158.8443 H   0  0  0  0  0  0  0  0  0  0  0  0
  152.4779  144.8300  161.0113 H   0  0  0  0  0  0  0  0  0  0  0  0
  150.8187  144.7047  160.4272 H   0  0  0  0  0  0  0  0  0  0  0  0
  151.3376  142.4275  160.2693 H   0  0  0  0  0  0  0  0  0  0  0  0
  153.0624  142.7295  160.0218 H   0  0  0  0  0  0  0  0  0  0  0  0
  151.2159  138.6699  158.2495 H   0  0  0  0  0  0  0  0  0  0  0  0
  149.7093  136.3125  154.6456 H   0  0  0  0  0  0  0  0  0  0  0  0
  148.5056  134.7470  156.6579 H   0  0  0  0  0  0  0  0  0  0  0  0
  151.5042  134.4026  156.4853 H   0  0  0  0  0  0  0  0  0  0  0  0
  150.4123  134.0100  157.8069 H   0  0  0  0  0  0  0  0  0  0  0  0
  151.3354  132.3020  155.5975 H   0  0  0  0  0  0  0  0  0  0  0  0
  150.3591  131.7951  156.9794 H   0  0  0  0  0  0  0  0  0  0  0  0
  150.0240  131.6304  153.5564 H   0  0  0  0  0  0  0  0  0  0  0  0
  149.3252  130.4931  154.6987 H   0  0  0  0  0  0  0  0  0  0  0  0
  147.8218  130.8646  152.6948 H   0  0  0  0  0  0  0  0  0  0  0  0
  147.0486  131.2718  154.2059 H   0  0  0  0  0  0  0  0  0  0  0  0
  148.2554  133.2357  152.2017 H   0  0  0  0  0  0  0  0  0  0  0  0
  146.5613  133.0554  152.5882 H   0  0  0  0  0  0  0  0  0  0  0  0
  147.6072  135.0460  153.7417 H   0  0  0  0  0  0  0  0  0  0  0  0
  146.9367  133.9007  154.8831 H   0  0  0  0  0  0  0  0  0  0  0  0
  149.8842  134.0451  154.0454 H   0  0  0  0  0  0  0  0  0  0  0  0
  148.4572  132.3540  155.9255 H   0  0  0  0  0  0  0  0  0  0  0  0
  1  2  2  0  0  0  0
  2  3  1  0  0  0  0
  2 15  1  0  0  0  0
  3  4  1  0  0  0  0
  3 25  1  0  0  0  0
  4 14  1  0  0  0  0
  4  5  2  0  0  0  0
  5  6  1  0  0  0  0
  5 26  1  0  0  0  0
  6  7  2  0  0  0  0
  6 27  1  0  0  0  0
  7  8  1  0  0  0  0
  7 13  1  0  0  0  0
  8 12  1  0  0  0  0
  8  9  1  0  0  0  0
  9 10  1  0  0  0  0
  9 28  1  0  0  0  0
  9 29  1  0  0  0  0
 10 11  1  0  0  0  0
 10 30  1  0  0  0  0
 10 31  1  0  0  0  0
 11 12  1  0  0  0  0
 11 32  1  0  0  0  0
 11 33  1  0  0  0  0
 12 34  1  0  0  0  0
 12 35  1  0  0  0  0
 13 14  2  0  0  0  0
 14 36  1  0  0  0  0
 15 16  1  0  0  0  0
 15 37  1  0  0  0  0
 16 24  1  0  0  0  0
 16 17  1  0  0  0  0
 16 38  1  0  0  0  0
 17 18  1  0  0  0  0
 17 39  1  0  0  0  0
 17 40  1  0  0  0  0
 18 19  1  0  0  0  0
 18 41  1  0  0  0  0
 18 42  1  0  0  0  0
 19 24  1  0  0  0  0
 19 20  1  0  0  0  0
 19 52  1  0  0  0  0
 20 21  1  0  0  0  0
 20 43  1  0  0  0  0
 20 44  1  0  0  0  0
 21 22  1  0  0  0  0
 21 45  1  0  0  0  0
 21 46  1  0  0  0  0
 22 23  1  0  0  0  0
 22 47  1  0  0  0  0
 22 48  1  0  0  0  0
 23 24  1  0  0  0  0
 23 49  1  0  0  0  0
 23 50  1  0  0  0  0
 24 51  1  0  0  0  0
M  CHG  1  19   1
M  END
> <s_m_source_file>
AV-unprocessed.smi

> <i_m_source_file_index>
1867

> <i_lp_mmshare_version>
43012

> <i_f3d_flags>
0

> <s_epik_input>
W0NIMl0xW0NIMl1bQ0gyXVtDSDJdW0NASF0oTjEyKVtDQEBIXShbQ0gyXVtDSDJdMilbTkhdQyg9TylbTkhdYzNbY0hdW2NIXWMobltjSF0zKU40W0NIMl1bQ0gyXVtDSDJdW0NIMl00

> <s_epik_cmdline>
J2VwaWtfcHl0aG9uJywgJy1waCcsICc3LjAnLCAnLXRuJywgJzgnLCAnLW1hJywgJzIwMCcsICctbWV0YWxfYmluZGluZycsICctaW1hZScsICc8aW5maWxlLm1hZT4nLCAnLW9tYWUnLCAnPG91dGZpbGUubWFlPic=

> <r_lp_tautomer_probability>
1

> <r_epik_Ionization_Penalty>
0.0751123

> <r_epik_Ionization_Penalty_Charging>
0.000974069

> <r_epik_Ionization_Penalty_Neutral>
0.0741382

> <r_epik_State_Penalty>
0.0647261

> <r_epik_Charging_Adjusted_Penalty>
0.0657002

> <i_epik_Tot_Q>
1

> <i_epik_Tot_abs_Q>
1

> <r_epik_Metal_State_Penalty>
0.0580571

> <b_epik_Metal_Only>
0

> <s_lp_Force_Field>
OPLS_2005

> <r_lp_Energy>
71.0604

> <b_lp_Chiralities_Consistent>
1

> <s_lp_Variant>
AV-unprocessed.smi:1867-1

> <Gold.Version>
5.8.1

> <Gold.Id.Protein>
6NUR|6NUR_protein|mol2

> <Gold.PLP.Fitness>
45.7378

> <Gold.PLP.PLP>
-45.8718

> <Gold.PLP.part.hbond>
0.0000

> <Gold.PLP.part.metal>
0.0000

> <Gold.PLP.part.buried>
-6.2356

> <Gold.PLP.part.nonpolar>
-38.8673

> <Gold.PLP.part.repulsive>
0.0759

> <Gold.PLP.ligand.clash>
0.0000

> <Gold.PLP.ligand.torsion>
0.1442

> <Gold.PLP.Chemscore.Hbond>
0.0000

> <Gold.PLP.Chemscore.CHOScore>
0.0000

> <Gold.PLP.Chemscore.Metal>
0.0000

> <Gold.PLP.Chemscore.Internal.Correction>
0.1545

> <Gold.Rescore>
     Score         DG    S(hbond)    S(metal)    S(lipo)     H(rot)  DE(clash)    DE(int)     intcor
     15.04     -16.59       0.00        0.00     116.86       1.00       0.02       1.53       ----

> <Gold.Chemscore.Fitness>
15.0374

> <Gold.Chemscore.DG>
-16.5928

> <Gold.Chemscore.ZeroCoef>
-5.4800

> <Gold.Chemscore.Hbond>
0.0001

> <Gold.Chemscore.Metal>
0.0000

> <Gold.Chemscore.Lipo>
116.8594

> <Gold.Chemscore.Internal_Hbond>
0.0000

> <Gold.Chemscore.DEClash>
0.0241

> <Gold.Chemscore.DEInternal>
1.5313

> <Gold.Chemscore.Rot>
1.0000

> <Gold.Chemscore.Internal.Correction>
   9.000000E+99

> <Gold.Chemscore.Hbond.Weighted>
-0.0003

> <Gold.Chemscore.Metal.Weighted>
-0.0000

> <Gold.Chemscore.Lipo.Weighted>
-13.6726

> <Gold.Chemscore.Internal_Hbond.Weighted>
0.0000

> <Gold.Chemscore.DEClash.Weighted>
0.0241

> <Gold.Chemscore.DEInternal.Weighted>
1.5313

> <Gold.Chemscore.Rot.Weighted>
2.5600

> <Gold.Chemscore.Internal.Correction.Weighted>
   9.000000E+99

> <Gold.Protein.RotatedTorsions>
[ 6907 6896 6895 6894 ] final   29.65 input  -60.11 | X-H torsion
[ 7974 7965 7964 7962 ] final   82.68 input  175.53 | X-H torsion
[ 8008 7997 7996 7995 ] final   41.39 input   59.86 | X-H torsion
[ 10167 10162 10161 10158 ] final -161.47 input  -65.29 | X-H torsion
[ 10718 10713 10712 10709 ] final   98.58 input   66.30 | X-H torsion
[ 10763 10752 10751 10750 ] final   75.61 input  -60.55 | X-H torsion
[ 11005 11000 10999 10996 ] final  115.35 input  -57.11 | X-H torsion

> <Gold.Protein.ActiveResidues>
 VAL166  LYS551  ARG553  GLY616  TRP617  ASP618  TYR619  PRO620  LYS621  CYS622 
 ASP623  PHE694  ASN695  SER759  ASP760  ASP761  ALA762  ILE779  LEU786  VAL792 
 PHE793  MET794  SER795  GLU796  ALA797  LYS798  CYS799  TRP800  GLU811  SER814 

> <Gold.Protein.RotatedAtoms>
  152.0345  134.9748  160.0572 H   0  0  0  0  0  0  0  0  0  0  0  0  # atno 6907 bound_to 6896
  152.1211  133.4349  159.4684 H   0  0  0  0  0  0  0  0  0  0  0  0  # atno 6908 bound_to 6896
  150.6849  134.2452  159.4532 H   0  0  0  0  0  0  0  0  0  0  0  0  # atno 6909 bound_to 6896
  145.6219  139.2387  143.2133 H   0  0  0  0  0  0  0  0  0  0  0  0  # atno 7974 bound_to 7965
  155.2689  140.3364  155.4267 H   0  0  0  0  0  0  0  0  0  0  0  0  # atno 8008 bound_to 7997
  156.2141  140.1782  156.7670 H   0  0  0  0  0  0  0  0  0  0  0  0  # atno 8009 bound_to 7997
  154.5729  140.0667  156.8975 H   0  0  0  0  0  0  0  0  0  0  0  0  # atno 8010 bound_to 7997
  139.6463  144.0166  152.2129 H   0  0  0  0  0  0  0  0  0  0  0  0  # atno 10167 bound_to 10162
  157.6893  131.0644  150.4818 H   0  0  0  0  0  0  0  0  0  0  0  0  # atno 10718 bound_to 10713
  153.0667  135.4982  154.8215 H   0  0  0  0  0  0  0  0  0  0  0  0  # atno 10763 bound_to 10752
  154.6964  135.2993  154.9408 H   0  0  0  0  0  0  0  0  0  0  0  0  # atno 10764 bound_to 10752
  154.0146  135.6750  153.4820 H   0  0  0  0  0  0  0  0  0  0  0  0  # atno 10765 bound_to 10752
  139.9007  134.9582  156.7032 H   0  0  0  0  0  0  0  0  0  0  0  0  # atno 11005 bound_to 11000
  146.1424  140.7039  142.9360 LP  0  0  0  0  0  0  0  0  0  0  0  0  # atno 17320 bound_to 7965
  144.7228  140.4427  143.6996 LP  0  0  0  0  0  0  0  0  0  0  0  0  # atno 17321 bound_to 7965
  139.9869  144.6389  150.7850 LP  0  0  0  0  0  0  0  0  0  0  0  0  # atno 17342 bound_to 10162
  140.7516  143.2975  151.3165 LP  0  0  0  0  0  0  0  0  0  0  0  0  # atno 17343 bound_to 10162
  156.5150  130.4148  149.6281 LP  0  0  0  0  0  0  0  0  0  0  0  0  # atno 17370 bound_to 10713
  156.3206  130.7278  151.2189 LP  0  0  0  0  0  0  0  0  0  0  0  0  # atno 17371 bound_to 10713
  140.7134  133.9203  155.8099 LP  0  0  0  0  0  0  0  0  0  0  0  0  # atno 17394 bound_to 11000
  141.0283  134.0792  157.4043 LP  0  0  0  0  0  0  0  0  0  0  0  0  # atno 17395 bound_to 11000

$$$$
