AV-unprocessed.smi:832|AV-procd|sdf|3878|dock1
  -GOLD-   22720 1333D 1   1.00000     0.00000
 Structure written by MMmdl.
 42 43  0  0  0  0  0  0  0  0  2 V2000
  151.8654  141.0567  156.0200 C   0  0  0  0  0  0  0  0  0  0  0  0
  151.7193  139.6644  155.5091 C   0  0  0  0  0  0  0  0  0  0  0  0
  150.6338  138.9080  155.1674 C   0  0  0  0  0  0  0  0  0  0  0  0
  151.2166  137.6799  154.7561 C   0  0  0  0  0  0  0  0  0  0  0  0
  150.4080  136.6043  154.3078 N   0  0  0  0  0  0  0  0  0  0  0  0
  150.2376  135.4082  154.8965 C   0  0  0  0  0  0  0  0  0  0  0  0
  150.7546  135.0603  155.9585 O   0  0  0  0  0  0  0  0  0  0  0  0
  149.4219  134.6223  154.1781 N   0  0  0  0  0  0  0  0  0  0  0  0
  149.0565  133.2499  154.5167 C   0  0  0  0  0  0  0  0  0  0  0  0
  147.7990  132.7790  153.7608 C   0  0  2  0  0  0  0  0  0  0  0  0
  147.6509  131.2655  153.6154 C   0  0  0  0  0  0  0  0  0  0  0  0
  146.7141  131.1365  152.4204 C   0  0  0  0  0  0  0  0  0  0  0  0
  147.1308  132.2069  151.4877 N   0  3  1  0  0  0  0  0  0  0  0  0
  146.1002  132.6456  150.5042 C   0  0  0  0  0  0  0  0  0  0  0  0
  144.7181  132.8190  151.1630 C   0  0  0  0  0  0  0  0  0  0  0  0
  145.9873  131.6467  149.3366 C   0  0  0  0  0  0  0  0  0  0  0  0
  147.7239  133.2911  152.3128 C   0  0  0  0  0  0  0  0  0  0  0  0
  152.5380  137.6843  154.8436 N   0  0  0  0  0  0  0  0  0  0  0  0
  152.8669  138.9565  155.3265 O   0  0  0  0  0  0  0  0  0  0  0  0
  150.9007  141.5633  156.0528 H   0  0  0  0  0  0  0  0  0  0  0  0
  152.5295  141.6363  155.3785 H   0  0  0  0  0  0  0  0  0  0  0  0
  152.2819  141.0563  157.0273 H   0  0  0  0  0  0  0  0  0  0  0  0
  149.5926  139.1923  155.2036 H   0  0  0  0  0  0  0  0  0  0  0  0
  149.9218  136.7571  153.4367 H   0  0  0  0  0  0  0  0  0  0  0  0
  149.0412  134.9938  153.3199 H   0  0  0  0  0  0  0  0  0  0  0  0
  149.8996  132.6111  154.2522 H   0  0  0  0  0  0  0  0  0  0  0  0
  148.9207  133.1398  155.5943 H   0  0  0  0  0  0  0  0  0  0  0  0
  146.9168  133.1473  154.2876 H   0  0  0  0  0  0  0  0  0  0  0  0
  148.6136  130.8082  153.3819 H   0  0  0  0  0  0  0  0  0  0  0  0
  147.2578  130.7877  154.5134 H   0  0  0  0  0  0  0  0  0  0  0  0
  146.7699  130.1502  151.9590 H   0  0  0  0  0  0  0  0  0  0  0  0
  145.6851  131.3056  152.7427 H   0  0  0  0  0  0  0  0  0  0  0  0
  146.4060  133.6128  150.1018 H   0  0  0  0  0  0  0  0  0  0  0  0
  143.9660  133.0948  150.4230 H   0  0  0  0  0  0  0  0  0  0  0  0
  144.7183  133.6054  151.9177 H   0  0  0  0  0  0  0  0  0  0  0  0
  144.3866  131.8959  151.6398 H   0  0  0  0  0  0  0  0  0  0  0  0
  145.2171  131.9578  148.6301 H   0  0  0  0  0  0  0  0  0  0  0  0
  145.7235  130.6503  149.6929 H   0  0  0  0  0  0  0  0  0  0  0  0
  146.9161  131.5624  148.7729 H   0  0  0  0  0  0  0  0  0  0  0  0
  147.1353  134.2089  152.2776 H   0  0  0  0  0  0  0  0  0  0  0  0
  148.7135  133.5191  151.9148 H   0  0  0  0  0  0  0  0  0  0  0  0
  147.8962  131.8192  150.9547 H   0  0  0  0  0  0  0  0  0  0  0  0
  1  2  1  0  0  0  0
  1 20  1  0  0  0  0
  1 21  1  0  0  0  0
  1 22  1  0  0  0  0
  2 19  1  0  0  0  0
  2  3  2  0  0  0  0
  3  4  1  0  0  0  0
  3 23  1  0  0  0  0
  4  5  1  0  0  0  0
  4 18  2  0  0  0  0
  5  6  1  0  0  0  0
  5 24  1  0  0  0  0
  6  7  2  0  0  0  0
  6  8  1  0  0  0  0
  8  9  1  0  0  0  0
  8 25  1  0  0  0  0
  9 10  1  0  0  0  0
  9 26  1  0  0  0  0
  9 27  1  0  0  0  0
 10 17  1  0  0  0  0
 10 11  1  0  0  0  0
 10 28  1  0  0  0  0
 11 12  1  0  0  0  0
 11 29  1  0  0  0  0
 11 30  1  0  0  0  0
 12 13  1  0  0  0  0
 12 31  1  0  0  0  0
 12 32  1  0  0  0  0
 13 14  1  0  0  0  0
 13 17  1  0  0  0  0
 13 42  1  0  0  0  0
 14 15  1  0  0  0  0
 14 16  1  0  0  0  0
 14 33  1  0  0  0  0
 15 34  1  0  0  0  0
 15 35  1  0  0  0  0
 15 36  1  0  0  0  0
 16 37  1  0  0  0  0
 16 38  1  0  0  0  0
 16 39  1  0  0  0  0
 17 40  1  0  0  0  0
 17 41  1  0  0  0  0
 18 19  1  0  0  0  0
M  CHG  1  13   1
M  END
> <s_m_source_file>
AV-unprocessed.smi

> <i_m_source_file_index>
832

> <i_lp_mmshare_version>
43012

> <i_f3d_flags>
0

> <s_epik_input>
W0NIM11jMVtjSF1jKG5vMSlbTkhdQyg9TylbTkhdW0NIMl1bQ0BASF0yW0NIMl1bQ0gyXU4oW0NIMl0yKVtDSF0oW0NIM10pW0NIM10=

> <s_epik_cmdline>
J2VwaWtfcHl0aG9uJywgJy1waCcsICc3LjAnLCAnLXRuJywgJzgnLCAnLW1hJywgJzIwMCcsICctbWV0YWxfYmluZGluZycsICctaW1hZScsICc8aW5maWxlLm1hZT4nLCAnLW9tYWUnLCAnPG91dGZpbGUubWFlPic=

> <r_lp_tautomer_probability>
1

> <r_epik_Ionization_Penalty>
0.000242791

> <r_epik_Ionization_Penalty_Charging>
0.000220876

> <r_epik_Ionization_Penalty_Neutral>
2.19143e-05

> <r_epik_State_Penalty>
-0

> <r_epik_Charging_Adjusted_Penalty>
0.000220876

> <i_epik_Tot_Q>
1

> <i_epik_Tot_abs_Q>
1

> <r_epik_Metal_State_Penalty>
-0

> <b_epik_Metal_Only>
0

> <s_lp_Force_Field>
OPLS_2005

> <r_lp_Energy>
27.9623

> <b_lp_Chiralities_Consistent>
1

> <s_lp_Variant>
AV-unprocessed.smi:832-3

> <Gold.Version>
5.8.1

> <Gold.Id.Protein>
6NUR|6NUR_protein|mol2

> <Gold.PLP.Fitness>
46.4231

> <Gold.PLP.PLP>
-35.9663

> <Gold.PLP.part.hbond>
-5.9520

> <Gold.PLP.part.metal>
0.0000

> <Gold.PLP.part.buried>
-4.4370

> <Gold.PLP.part.nonpolar>
-25.6697

> <Gold.PLP.part.repulsive>
0.2219

> <Gold.PLP.ligand.clash>
0.0000

> <Gold.PLP.ligand.torsion>
1.3612

> <Gold.PLP.Chemscore.Hbond>
4.3828

> <Gold.PLP.Chemscore.CHOScore>
0.0000

> <Gold.PLP.Chemscore.Metal>
0.0000

> <Gold.Chemscore.Hbonds>
donor molecule, donor type, donor heavy atom, donor atom, acceptor molecule, acceptor atom, score
      L1  H     5    24       P1  7948  1.00
      L1  H     8    25       P1  7948  0.95
      L1  H    13    42       P1 10747  1.00
      P1  H  7997  8008       L1    19  0.91
      P1  H 10752 10765       L1    18  0.41

> <Gold.PLP.Chemscore.Internal.Correction>
0.0308

> <Gold.Rescore>
     Score         DG    S(hbond)    S(metal)    S(lipo)     H(rot)  DE(clash)    DE(int)     intcor
     18.08     -19.27       2.76        0.00      72.13       1.51       0.08       1.10       ----

> <Gold.Chemscore.Fitness>
18.0845

> <Gold.Chemscore.DG>
-19.2652

> <Gold.Chemscore.ZeroCoef>
-5.4800

> <Gold.Chemscore.Hbond>
2.7616

> <Gold.Chemscore.Metal>
0.0000

> <Gold.Chemscore.Lipo>
72.1259

> <Gold.Chemscore.Internal_Hbond>
0.0000

> <Gold.Chemscore.DEClash>
0.0838

> <Gold.Chemscore.DEInternal>
1.0970

> <Gold.Chemscore.Rot>
1.5146

> <Gold.Chemscore.Internal.Correction>
   9.000000E+99

> <Gold.Chemscore.Hbonds>
donor molecule, donor type, donor heavy atom, donor atom, acceptor molecule, acceptor atom, score
      L1  H     5    24       P1  7948  0.25
      L1  H     8    25       P1  7948  0.21
      L1  H    13    42       P1 10747  0.98
      P1  H  7997  8008       L1    19  0.48
      P1  H 10752 10765       L1    18  0.12

> <Gold.Chemscore.Hbond.Weighted>
-9.2239

> <Gold.Chemscore.Metal.Weighted>
-0.0000

> <Gold.Chemscore.Lipo.Weighted>
-8.4387

> <Gold.Chemscore.Internal_Hbond.Weighted>
0.0000

> <Gold.Chemscore.DEClash.Weighted>
0.0838

> <Gold.Chemscore.DEInternal.Weighted>
1.0970

> <Gold.Chemscore.Rot.Weighted>
3.8774

> <Gold.Chemscore.Internal.Correction.Weighted>
   9.000000E+99

> <Gold.Protein.RotatedTorsions>
[ 6907 6896 6895 6894 ] final  144.28 input  -60.11 | X-H torsion
[ 7974 7965 7964 7962 ] final  160.42 input  175.53 | X-H torsion
[ 8008 7997 7996 7995 ] final  -23.37 input   59.86 | X-H torsion
[ 10167 10162 10161 10158 ] final  117.40 input  -65.29 | X-H torsion
[ 10718 10713 10712 10709 ] final -137.60 input   66.30 | X-H torsion
[ 10763 10752 10751 10750 ] final  160.89 input  -60.55 | X-H torsion
[ 11005 11000 10999 10996 ] final   83.69 input  -57.11 | X-H torsion

> <Gold.Protein.ActiveResidues>
 VAL166  LYS551  ARG553  GLY616  TRP617  ASP618  TYR619  PRO620  LYS621  CYS622 
 ASP623  PHE694  ASN695  SER759  ASP760  ASP761  ALA762  ILE779  LEU786  VAL792 
 PHE793  MET794  SER795  GLU796  ALA797  LYS798  CYS799  TRP800  GLU811  SER814 

> <Gold.Protein.RotatedAtoms>
  152.1957  133.4805  159.5031 H   0  0  0  0  0  0  0  0  0  0  0  0  # atno 6907 bound_to 6896
  150.6959  134.1655  159.4201 H   0  0  0  0  0  0  0  0  0  0  0  0  # atno 6908 bound_to 6896
  151.9571  135.0141  160.0596 H   0  0  0  0  0  0  0  0  0  0  0  0  # atno 6909 bound_to 6896
  144.7738  139.7755  143.6287 H   0  0  0  0  0  0  0  0  0  0  0  0  # atno 7974 bound_to 7965
  154.4589  140.1982  156.0300 H   0  0  0  0  0  0  0  0  0  0  0  0  # atno 8008 bound_to 7997
  156.0802  140.3272  155.7655 H   0  0  0  0  0  0  0  0  0  0  0  0  # atno 8009 bound_to 7997
  155.5124  140.0563  157.2912 H   0  0  0  0  0  0  0  0  0  0  0  0  # atno 8010 bound_to 7997
  139.6181  144.7096  151.2694 H   0  0  0  0  0  0  0  0  0  0  0  0  # atno 10167 bound_to 10162
  156.2899  130.7369  151.1392 H   0  0  0  0  0  0  0  0  0  0  0  0  # atno 10718 bound_to 10713
  154.2544  135.2770  155.2803 H   0  0  0  0  0  0  0  0  0  0  0  0  # atno 10763 bound_to 10752
  154.5437  135.5695  153.6865 H   0  0  0  0  0  0  0  0  0  0  0  0  # atno 10764 bound_to 10752
  152.9974  135.6257  154.2692 H   0  0  0  0  0  0  0  0  0  0  0  0  # atno 10765 bound_to 10752
  139.9023  134.8163  156.2344 H   0  0  0  0  0  0  0  0  0  0  0  0  # atno 11005 bound_to 11000
  146.1903  139.5140  142.9809 LP  0  0  0  0  0  0  0  0  0  0  0  0  # atno 17320 bound_to 7965
  145.6246  141.0316  143.1896 LP  0  0  0  0  0  0  0  0  0  0  0  0  # atno 17321 bound_to 7965
  140.7364  143.6707  150.8084 LP  0  0  0  0  0  0  0  0  0  0  0  0  # atno 17342 bound_to 10162
  140.0313  143.5440  152.2758 LP  0  0  0  0  0  0  0  0  0  0  0  0  # atno 17343 bound_to 10162
  157.7339  131.0586  150.5551 LP  0  0  0  0  0  0  0  0  0  0  0  0  # atno 17370 bound_to 10713
  156.5666  130.4269  149.6038 LP  0  0  0  0  0  0  0  0  0  0  0  0  # atno 17371 bound_to 10713
  141.0325  133.6981  156.1455 LP  0  0  0  0  0  0  0  0  0  0  0  0  # atno 17394 bound_to 11000
  140.7075  134.4497  157.5583 LP  0  0  0  0  0  0  0  0  0  0  0  0  # atno 17395 bound_to 11000

$$$$
