AV-unprocessed.smi:3278|AV-procd|sdf|12547|dock10
  -GOLD-   2272018463D 1   1.00000     0.00000
 Structure written by MMmdl.
 38 39  0  0  0  0  0  0  0  0  1 V2000
  153.1224  137.8038  156.9095 C   0  0  0  0  0  0  0  0  0  0  0  0
  152.0351  138.2145  156.0473 N   0  0  0  0  0  0  0  0  0  0  0  0
  151.2549  139.3472  156.1264 C   0  0  0  0  0  0  0  0  0  0  0  0
  150.3565  139.3060  155.0947 C   0  0  0  0  0  0  0  0  0  0  0  0
  149.2826  140.3036  154.7111 C   0  0  2  0  0  0  0  0  0  0  0  0
  147.9104  139.6318  154.5051 C   0  0  0  0  0  0  0  0  0  0  0  0
  149.5945  140.9169  153.4766 O   0  0  0  0  0  0  0  0  0  0  0  0
  149.2002  141.4517  155.7402 C   0  0  0  0  0  0  0  0  0  0  0  0
  150.4325  142.2435  155.7827 N   0  0  0  0  0  0  0  0  0  0  0  0
  150.7999  142.7759  157.0976 C   0  0  1  0  0  0  0  0  0  0  0  0
  151.4334  141.6948  158.0045 C   0  0  0  0  0  0  0  0  0  0  0  0
  151.7856  142.2220  159.4053 C   0  0  0  0  0  0  0  0  0  0  0  0
  152.7957  143.3757  159.3666 C   0  0  0  0  0  0  0  0  0  0  0  0
  152.1206  144.7995  158.4732 S   0  0  0  0  0  0  0  0  0  0  0  0
  151.7505  143.9713  156.9033 C   0  0  0  0  0  0  0  0  0  0  0  0
  150.6853  138.0873  154.4314 C   0  0  0  0  0  0  0  0  0  0  0  0
  151.6859  137.4377  155.0028 N   0  0  0  0  0  0  0  0  0  0  0  0
  153.1890  138.4693  157.7706 H   0  0  0  0  0  0  0  0  0  0  0  0
  154.0624  137.8408  156.3587 H   0  0  0  0  0  0  0  0  0  0  0  0
  152.9523  136.7859  157.2620 H   0  0  0  0  0  0  0  0  0  0  0  0
  151.4041  140.0836  156.9023 H   0  0  0  0  0  0  0  0  0  0  0  0
  147.5561  139.1506  155.4171 H   0  0  0  0  0  0  0  0  0  0  0  0
  147.9540  138.8686  153.7273 H   0  0  0  0  0  0  0  0  0  0  0  0
  147.1531  140.3594  154.2099 H   0  0  0  0  0  0  0  0  0  0  0  0
  149.4236  140.2981  152.7833 H   0  0  0  0  0  0  0  0  0  0  0  0
  148.3633  142.1021  155.4813 H   0  0  0  0  0  0  0  0  0  0  0  0
  148.9775  141.0370  156.7232 H   0  0  0  0  0  0  0  0  0  0  0  0
  150.3586  143.0086  155.1196 H   0  0  0  0  0  0  0  0  0  0  0  0
  149.8973  143.1480  157.5845 H   0  0  0  0  0  0  0  0  0  0  0  0
  150.7505  140.8559  158.1327 H   0  0  0  0  0  0  0  0  0  0  0  0
  152.3286  141.2906  157.5295 H   0  0  0  0  0  0  0  0  0  0  0  0
  150.8775  142.5457  159.9155 H   0  0  0  0  0  0  0  0  0  0  0  0
  152.1962  141.4069  160.0020 H   0  0  0  0  0  0  0  0  0  0  0  0
  153.0518  143.6877  160.3792 H   0  0  0  0  0  0  0  0  0  0  0  0
  153.7207  143.0573  158.8848 H   0  0  0  0  0  0  0  0  0  0  0  0
  152.6862  143.6480  156.4453 H   0  0  0  0  0  0  0  0  0  0  0  0
  151.3048  144.7064  156.2322 H   0  0  0  0  0  0  0  0  0  0  0  0
  150.2274  137.6600  153.5514 H   0  0  0  0  0  0  0  0  0  0  0  0
  1  2  1  0  0  0  0
  1 18  1  0  0  0  0
  1 19  1  0  0  0  0
  1 20  1  0  0  0  0
  2 17  1  0  0  0  0
  2  3  1  0  0  0  0
  3  4  2  0  0  0  0
  3 21  1  0  0  0  0
  4  5  1  0  0  0  0
  4 16  1  0  0  0  0
  5  6  1  0  0  0  0
  5  7  1  0  0  0  0
  5  8  1  0  0  0  0
  6 22  1  0  0  0  0
  6 23  1  0  0  0  0
  6 24  1  0  0  0  0
  7 25  1  0  0  0  0
  8  9  1  0  0  0  0
  8 26  1  0  0  0  0
  8 27  1  0  0  0  0
  9 10  1  0  0  0  0
  9 28  1  0  0  0  0
 10 15  1  0  0  0  0
 10 11  1  0  0  0  0
 10 29  1  0  0  0  0
 11 12  1  0  0  0  0
 11 30  1  0  0  0  0
 11 31  1  0  0  0  0
 12 13  1  0  0  0  0
 12 32  1  0  0  0  0
 12 33  1  0  0  0  0
 13 14  1  0  0  0  0
 13 34  1  0  0  0  0
 13 35  1  0  0  0  0
 14 15  1  0  0  0  0
 15 36  1  0  0  0  0
 15 37  1  0  0  0  0
 16 17  2  0  0  0  0
 16 38  1  0  0  0  0
M  END
> <s_m_source_file>
AV-unprocessed.smi

> <i_m_source_file_index>
3278

> <i_lp_mmshare_version>
43012

> <i_f3d_flags>
0

> <s_epik_input>
W0NIM11uMVtjSF1jKFtjSF1uMSlbQ0BAXShbQ0gzXSkoW09IXSlbQ0gyXVtOSF1bQ0BASF0yW0NIMl1bQ0gyXVtDSDJdU1tDSDJdMg==

> <s_epik_cmdline>
J2VwaWtfcHl0aG9uJywgJy1waCcsICc3LjAnLCAnLXRuJywgJzgnLCAnLW1hJywgJzIwMCcsICctbWV0YWxfYmluZGluZycsICctaW1hZScsICc8aW5maWxlLm1hZT4nLCAnLW9tYWUnLCAnPG91dGZpbGUubWFlPic=

> <r_lp_tautomer_probability>
1

> <r_epik_Ionization_Penalty>
2.06123

> <r_epik_Ionization_Penalty_Charging>
0

> <r_epik_Ionization_Penalty_Neutral>
2.06123

> <r_epik_State_Penalty>
2.1944

> <r_epik_Charging_Adjusted_Penalty>
2.1944

> <i_epik_Tot_Q>
0

> <i_epik_Tot_abs_Q>
0

> <r_epik_Metal_State_Penalty>
2.19434

> <b_epik_Metal_Only>
0

> <s_lp_Force_Field>
OPLS_2005

> <r_lp_Energy>
8.30166

> <b_lp_Chiralities_Consistent>
1

> <s_lp_Variant>
AV-unprocessed.smi:3278-8

> <Gold.Version>
5.8.1

> <Gold.Id.Protein>
6NUR|6NUR_protein|mol2

> <Gold.PLP.Fitness>
48.2564

> <Gold.PLP.PLP>
-37.6903

> <Gold.PLP.part.hbond>
-4.6628

> <Gold.PLP.part.metal>
0.0000

> <Gold.PLP.part.buried>
-1.6573

> <Gold.PLP.part.nonpolar>
-31.8787

> <Gold.PLP.part.repulsive>
0.1183

> <Gold.PLP.ligand.clash>
0.0000

> <Gold.PLP.ligand.torsion>
0.5732

> <Gold.PLP.Chemscore.Hbond>
2.7485

> <Gold.PLP.Chemscore.CHOScore>
1.1396

> <Gold.PLP.Chemscore.Metal>
0.0000

> <Gold.Chemscore.Hbonds>
donor molecule, donor type, donor heavy atom, donor atom, acceptor molecule, acceptor atom, score
      L1  H     7    25       P1  7957  0.86
      L1  H     9    28       P1  8028  0.11
      P1  H  7989  7998       L1     7  0.29
      P1  H  8011  8017       L1     7  0.75
      P1  H 10752 10765       L1    17  0.30
      L1  C    16    38       P1  7948  1.00
      L1  C    16    38       P1  7949  0.09

> <Gold.PLP.Chemscore.Internal.Correction>
0.0484

> <Gold.Rescore>
     Score         DG    S(hbond)    S(metal)    S(lipo)     H(rot)  DE(clash)    DE(int)     intcor
     19.46     -20.52       2.00        0.00     113.77       1.93       0.53       0.53       ----

> <Gold.Chemscore.Fitness>
19.4577

> <Gold.Chemscore.DG>
-20.5191

> <Gold.Chemscore.ZeroCoef>
-5.4800

> <Gold.Chemscore.Hbond>
1.9989

> <Gold.Chemscore.Metal>
0.0000

> <Gold.Chemscore.Lipo>
113.7689

> <Gold.Chemscore.Internal_Hbond>
0.0000

> <Gold.Chemscore.DEClash>
0.5313

> <Gold.Chemscore.DEInternal>
0.5301

> <Gold.Chemscore.Rot>
1.9329

> <Gold.Chemscore.Internal.Correction>
   9.000000E+99

> <Gold.Chemscore.Hbonds>
donor molecule, donor type, donor heavy atom, donor atom, acceptor molecule, acceptor atom, score
      L1  H     7    25       P1  7957  0.85
      L1  H     9    28       P1  8028  0.11
      P1  H  7989  7998       L1     7  0.03
      P1  H  8011  8017       L1     7  0.09
      P1  H 10752 10765       L1    17  0.30

> <Gold.Chemscore.Hbond.Weighted>
-6.6764

> <Gold.Chemscore.Metal.Weighted>
-0.0000

> <Gold.Chemscore.Lipo.Weighted>
-13.3110

> <Gold.Chemscore.Internal_Hbond.Weighted>
0.0000

> <Gold.Chemscore.DEClash.Weighted>
0.5313

> <Gold.Chemscore.DEInternal.Weighted>
0.5301

> <Gold.Chemscore.Rot.Weighted>
4.9483

> <Gold.Chemscore.Internal.Correction.Weighted>
   9.000000E+99

> <Gold.Protein.RotatedTorsions>
[ 6907 6896 6895 6894 ] final   60.17 input  -60.11 | X-H torsion
[ 7974 7965 7964 7962 ] final -150.58 input  175.53 | X-H torsion
[ 8008 7997 7996 7995 ] final   29.00 input   59.86 | X-H torsion
[ 10167 10162 10161 10158 ] final  -95.09 input  -65.29 | X-H torsion
[ 10718 10713 10712 10709 ] final  167.52 input   66.30 | X-H torsion
[ 10763 10752 10751 10750 ] final  158.85 input  -60.55 | X-H torsion
[ 11005 11000 10999 10996 ] final   47.06 input  -57.11 | X-H torsion

> <Gold.Protein.ActiveResidues>
 VAL166  LYS551  ARG553  GLY616  TRP617  ASP618  TYR619  PRO620  LYS621  CYS622 
 ASP623  PHE694  ASN695  SER759  ASP760  ASP761  ALA762  ILE779  LEU786  VAL792 
 PHE793  MET794  SER795  GLU796  ALA797  LYS798  CYS799  TRP800  GLU811  SER814 

> <Gold.Protein.RotatedAtoms>
  152.3979  134.6335  160.0081 H   0  0  0  0  0  0  0  0  0  0  0  0  # atno 6907 bound_to 6896
  151.6549  133.3314  159.3168 H   0  0  0  0  0  0  0  0  0  0  0  0  # atno 6908 bound_to 6896
  150.7884  134.6930  159.6552 H   0  0  0  0  0  0  0  0  0  0  0  0  # atno 6909 bound_to 6896
  144.7899  140.4912  143.5780 H   0  0  0  0  0  0  0  0  0  0  0  0  # atno 7974 bound_to 7965
  155.0676  140.3197  155.4641 H   0  0  0  0  0  0  0  0  0  0  0  0  # atno 8008 bound_to 7997
  156.2798  140.2117  156.5748 H   0  0  0  0  0  0  0  0  0  0  0  0  # atno 8009 bound_to 7997
  154.7081  140.0500  157.0511 H   0  0  0  0  0  0  0  0  0  0  0  0  # atno 8010 bound_to 7997
  140.3078  143.3123  152.0181 H   0  0  0  0  0  0  0  0  0  0  0  0  # atno 10167 bound_to 10162
  157.0504  131.0312  151.2683 H   0  0  0  0  0  0  0  0  0  0  0  0  # atno 10718 bound_to 10713
  154.2226  135.2781  155.2919 H   0  0  0  0  0  0  0  0  0  0  0  0  # atno 10763 bound_to 10752
  154.5690  135.5624  153.7080 H   0  0  0  0  0  0  0  0  0  0  0  0  # atno 10764 bound_to 10752
  153.0038  135.6316  154.2366 H   0  0  0  0  0  0  0  0  0  0  0  0  # atno 10765 bound_to 10752
  140.1313  134.4702  155.8519 H   0  0  0  0  0  0  0  0  0  0  0  0  # atno 11005 bound_to 11000
  145.5822  139.1489  143.3229 LP  0  0  0  0  0  0  0  0  0  0  0  0  # atno 17320 bound_to 7965
  146.2147  140.5951  142.9044 LP  0  0  0  0  0  0  0  0  0  0  0  0  # atno 17321 bound_to 7965
  139.4900  144.6408  151.6882 LP  0  0  0  0  0  0  0  0  0  0  0  0  # atno 17342 bound_to 10162
  140.5595  144.0292  150.6163 LP  0  0  0  0  0  0  0  0  0  0  0  0  # atno 17343 bound_to 10162
  157.5035  130.7894  149.7629 LP  0  0  0  0  0  0  0  0  0  0  0  0  # atno 17370 bound_to 10713
  156.0009  130.3880  150.2608 LP  0  0  0  0  0  0  0  0  0  0  0  0  # atno 17371 bound_to 10713
  141.2170  133.6797  156.7074 LP  0  0  0  0  0  0  0  0  0  0  0  0  # atno 17394 bound_to 11000
  140.2839  134.8295  157.3957 LP  0  0  0  0  0  0  0  0  0  0  0  0  # atno 17395 bound_to 11000

$$$$
