AV-unprocessed.smi:196|AV-procd|sdf|1542|dock8
  -GOLD-   2262019403D 1   1.00000     0.00000
 Structure written by MMmdl.
 47 50  0  0  0  0  0  0  0  0  1 V2000
  148.0374  141.9884  154.1005 C   0  0  0  0  0  0  0  0  0  0  0  0
  148.5510  140.7276  154.8145 C   0  0  2  0  0  0  0  0  0  0  0  0
  149.9777  140.7153  154.8573 O   0  0  0  0  0  0  0  0  0  0  0  0
  150.4752  139.5106  154.2916 C   0  0  0  0  0  0  0  0  0  0  0  0
  149.3397  138.5105  154.4657 C   0  0  0  0  0  0  0  0  0  0  0  0
  148.1061  139.3687  154.2266 C   0  0  2  0  0  0  0  0  0  0  0  0
  147.8927  139.4667  152.8269 O   0  0  0  0  0  0  0  0  0  0  0  0
  146.8173  138.8189  154.8819 C   0  0  0  0  0  0  0  0  0  0  0  0
  146.4845  137.4674  154.4599 N   0  0  0  0  0  0  0  0  0  0  0  0
  146.4096  136.3494  155.2610 C   0  0  0  0  0  0  0  0  0  0  0  0
  146.0916  135.2428  154.6464 N   0  0  0  0  0  0  0  0  0  0  0  0
  145.9476  135.6268  153.3199 C   0  0  0  0  0  0  0  0  0  0  0  0
  145.6269  134.9354  152.1238 C   0  0  0  0  0  0  0  0  0  0  0  0
  145.3751  133.6076  152.1155 N   0  0  0  0  0  0  0  0  0  0  0  0
  144.0575  133.2241  151.6189 C   0  0  0  0  0  0  0  0  0  0  0  0
  144.2739  131.9892  150.7399 C   0  0  1  0  0  0  0  0  0  0  0  0
  144.3620  132.3652  149.4630 F   0  0  0  0  0  0  0  0  0  0  0  0
  145.6242  131.4527  151.2054 C   0  0  0  0  0  0  0  0  0  0  0  0
  146.4013  132.7289  151.5517 C   0  0  2  0  0  0  0  0  0  0  0  0
  147.5422  132.4588  152.5440 C   0  0  0  0  0  0  0  0  0  0  0  0
  148.3390  133.4883  152.8391 N   0  0  0  0  0  0  0  0  0  0  0  0
  147.7127  131.3412  153.0285 O   0  0  0  0  0  0  0  0  0  0  0  0
  145.5678  135.6495  150.9694 N   0  0  0  0  0  0  0  0  0  0  0  0
  145.8193  136.9621  150.9855 C   0  0  0  0  0  0  0  0  0  0  0  0
  146.1399  137.7385  152.0235 N   0  0  0  0  0  0  0  0  0  0  0  0
  146.1914  137.0211  153.1830 C   0  0  0  0  0  0  0  0  0  0  0  0
  143.4671  131.2595  150.8126 H   0  0  0  0  0  0  0  0  0  0  0  0
  146.8073  133.1582  150.6335 H   0  0  0  0  0  0  0  0  0  0  0  0
  146.9484  141.9950  154.0500 H   0  0  0  0  0  0  0  0  0  0  0  0
  148.4245  142.0606  153.0836 H   0  0  0  0  0  0  0  0  0  0  0  0
  148.3500  142.8868  154.6331 H   0  0  0  0  0  0  0  0  0  0  0  0
  148.2331  140.7769  155.8570 H   0  0  0  0  0  0  0  0  0  0  0  0
  150.6853  139.6748  153.2339 H   0  0  0  0  0  0  0  0  0  0  0  0
  151.3970  139.1901  154.7772 H   0  0  0  0  0  0  0  0  0  0  0  0
  149.4166  137.6507  153.7989 H   0  0  0  0  0  0  0  0  0  0  0  0
  149.3479  138.1403  155.4916 H   0  0  0  0  0  0  0  0  0  0  0  0
  148.7334  139.4591  152.3954 H   0  0  0  0  0  0  0  0  0  0  0  0
  146.9144  138.8207  155.9684 H   0  0  0  0  0  0  0  0  0  0  0  0
  145.9714  139.4680  154.6515 H   0  0  0  0  0  0  0  0  0  0  0  0
  146.5960  136.3815  156.3249 H   0  0  0  0  0  0  0  0  0  0  0  0
  143.4404  132.9679  152.4807 H   0  0  0  0  0  0  0  0  0  0  0  0
  143.5462  134.0218  151.0766 H   0  0  0  0  0  0  0  0  0  0  0  0
  145.4824  130.8305  152.0910 H   0  0  0  0  0  0  0  0  0  0  0  0
  146.1208  130.8469  150.4467 H   0  0  0  0  0  0  0  0  0  0  0  0
  149.1059  133.3644  153.4841 H   0  0  0  0  0  0  0  0  0  0  0  0
  148.1719  134.3883  152.4127 H   0  0  0  0  0  0  0  0  0  0  0  0
  145.7550  137.4618  150.0303 H   0  0  0  0  0  0  0  0  0  0  0  0
  1  2  1  0  0  0  0
  1 29  1  0  0  0  0
  1 30  1  0  0  0  0
  1 31  1  0  0  0  0
  2  6  1  0  0  0  0
  2  3  1  0  0  0  0
  2 32  1  0  0  0  0
  3  4  1  0  0  0  0
  4  5  1  0  0  0  0
  4 33  1  0  0  0  0
  4 34  1  0  0  0  0
  5  6  1  0  0  0  0
  5 35  1  0  0  0  0
  5 36  1  0  0  0  0
  6  7  1  0  0  0  0
  6  8  1  0  0  0  0
  7 37  1  0  0  0  0
  8  9  1  0  0  0  0
  8 38  1  0  0  0  0
  8 39  1  0  0  0  0
  9 26  1  0  0  0  0
  9 10  1  0  0  0  0
 10 11  2  0  0  0  0
 10 40  1  0  0  0  0
 11 12  1  0  0  0  0
 12 26  2  0  0  0  0
 12 13  1  0  0  0  0
 13 14  1  0  0  0  0
 13 23  2  0  0  0  0
 14 19  1  0  0  0  0
 14 15  1  0  0  0  0
 15 16  1  0  0  0  0
 15 41  1  0  0  0  0
 15 42  1  0  0  0  0
 16 27  1  0  0  0  0
 16 17  1  0  0  0  0
 16 18  1  0  0  0  0
 18 19  1  0  0  0  0
 18 43  1  0  0  0  0
 18 44  1  0  0  0  0
 19 28  1  0  0  0  0
 19 20  1  0  0  0  0
 20 21  1  0  0  0  0
 20 22  2  0  0  0  0
 21 45  1  0  0  0  0
 21 46  1  0  0  0  0
 23 24  1  0  0  0  0
 24 25  2  0  0  0  0
 24 47  1  0  0  0  0
 25 26  1  0  0  0  0
M  END
> <s_m_source_file>
AV-unprocessed.smi

> <i_m_source_file_index>
196

> <i_lp_mmshare_version>
43012

> <i_f3d_flags>
0

> <s_epik_input>
W0NIMl0xW0NIMl1PW0NAQEhdKFtDSDNdKVtDQEBdMShbT0hdKVtDSDJdbihbY0hdbjIpYyhjMjMpbltjSF1uYzNONFtDSDJdW0NASF0oRilbQ0gyXVtDQEhdNEMoPU8pW05IMl0=

> <s_epik_cmdline>
J2VwaWtfcHl0aG9uJywgJy1waCcsICc3LjAnLCAnLXRuJywgJzgnLCAnLW1hJywgJzIwMCcsICctbWV0YWxfYmluZGluZycsICctaW1hZScsICc8aW5maWxlLm1hZT4nLCAnLW9tYWUnLCAnPG91dGZpbGUubWFlPic=

> <r_lp_tautomer_probability>
1

> <r_epik_Ionization_Penalty>
0.000857933

> <r_epik_Ionization_Penalty_Charging>
0

> <r_epik_Ionization_Penalty_Neutral>
0.000857933

> <r_epik_State_Penalty>
0.000462053

> <r_epik_Charging_Adjusted_Penalty>
0.000462053

> <i_epik_Tot_Q>
0

> <i_epik_Tot_abs_Q>
0

> <r_epik_Metal_State_Penalty>
-0

> <b_epik_Metal_Only>
0

> <s_lp_Force_Field>
OPLS_2005

> <r_lp_Energy>
44.722

> <b_lp_Chiralities_Consistent>
1

> <s_lp_Variant>
AV-unprocessed.smi:196-15

> <Gold.Version>
5.8.1

> <Gold.Id.Protein>
6NUR|6NUR_protein|mol2

> <Gold.PLP.Fitness>
42.6539

> <Gold.PLP.PLP>
-35.6873

> <Gold.PLP.part.hbond>
-2.6931

> <Gold.PLP.part.metal>
0.0000

> <Gold.PLP.part.buried>
-1.5800

> <Gold.PLP.part.nonpolar>
-31.7535

> <Gold.PLP.part.repulsive>
0.8719

> <Gold.PLP.ligand.clash>
0.0000

> <Gold.PLP.ligand.torsion>
0.2709

> <Gold.PLP.Chemscore.Hbond>
1.8240

> <Gold.PLP.Chemscore.CHOScore>
0.6183

> <Gold.PLP.Chemscore.Metal>
0.0000

> <Gold.Chemscore.Hbonds>
donor molecule, donor type, donor heavy atom, donor atom, acceptor molecule, acceptor atom, score
      L1  H     7    37       P1  7957  0.91
      L1  H    21    46       P1  7948  0.84
      L1  C    24    47       P1 10171  0.66

> <Gold.PLP.Chemscore.Internal.Correction>
0.1815

> <Gold.Rescore>
     Score         DG    S(hbond)    S(metal)    S(lipo)     H(rot)  DE(clash)    DE(int)     intcor
      5.76      -9.55       1.23        0.00      66.24       3.04       1.85       1.94       ----

> <Gold.Chemscore.Fitness>
5.7580

> <Gold.Chemscore.DG>
-9.5483

> <Gold.Chemscore.ZeroCoef>
-5.4800

> <Gold.Chemscore.Hbond>
1.2286

> <Gold.Chemscore.Metal>
0.0000

> <Gold.Chemscore.Lipo>
66.2431

> <Gold.Chemscore.Internal_Hbond>
0.0000

> <Gold.Chemscore.DEClash>
1.8513

> <Gold.Chemscore.DEInternal>
1.9390

> <Gold.Chemscore.Rot>
3.0413

> <Gold.Chemscore.Internal.Correction>
   9.000000E+99

> <Gold.Chemscore.Hbonds>
donor molecule, donor type, donor heavy atom, donor atom, acceptor molecule, acceptor atom, score
      L1  H     7    37       P1  7957  0.87
      L1  H    21    46       P1  7948  0.15

> <Gold.Chemscore.Hbond.Weighted>
-4.1035

> <Gold.Chemscore.Metal.Weighted>
-0.0000

> <Gold.Chemscore.Lipo.Weighted>
-7.7504

> <Gold.Chemscore.Internal_Hbond.Weighted>
0.0000

> <Gold.Chemscore.DEClash.Weighted>
1.8513

> <Gold.Chemscore.DEInternal.Weighted>
1.9390

> <Gold.Chemscore.Rot.Weighted>
7.7856

> <Gold.Chemscore.Internal.Correction.Weighted>
   9.000000E+99

> <Gold.Protein.RotatedTorsions>
[ 6907 6896 6895 6894 ] final  -41.17 input  -60.11 | X-H torsion
[ 7974 7965 7964 7962 ] final  143.11 input  175.53 | X-H torsion
[ 8008 7997 7996 7995 ] final  169.79 input   59.86 | X-H torsion
[ 10167 10162 10161 10158 ] final   63.84 input  -65.29 | X-H torsion
[ 10718 10713 10712 10709 ] final  112.70 input   66.30 | X-H torsion
[ 10763 10752 10751 10750 ] final  146.64 input  -60.55 | X-H torsion
[ 11005 11000 10999 10996 ] final  128.96 input  -57.11 | X-H torsion

> <Gold.Protein.ActiveResidues>
 VAL166  LYS551  ARG553  GLY616  TRP617  ASP618  TYR619  PRO620  LYS621  CYS622 
 ASP623  PHE694  ASN695  SER759  ASP760  ASP761  ALA762  ILE779  LEU786  VAL792 
 PHE793  MET794  SER795  GLU796  ALA797  LYS798  CYS799  TRP800  GLU811  SER814 

> <Gold.Protein.RotatedAtoms>
  150.9698  134.9073  159.7780 H   0  0  0  0  0  0  0  0  0  0  0  0  # atno 6907 bound_to 6896
  152.5186  134.3556  159.9276 H   0  0  0  0  0  0  0  0  0  0  0  0  # atno 6908 bound_to 6896
  151.3566  133.3864  159.2720 H   0  0  0  0  0  0  0  0  0  0  0  0  # atno 6909 bound_to 6896
  144.8949  139.5505  143.5781 H   0  0  0  0  0  0  0  0  0  0  0  0  # atno 7974 bound_to 7965
  156.1425  140.1555  156.8899 H   0  0  0  0  0  0  0  0  0  0  0  0  # atno 8008 bound_to 7997
  154.4999  140.0828  156.7815 H   0  0  0  0  0  0  0  0  0  0  0  0  # atno 8009 bound_to 7997
  155.4052  140.3416  155.4262 H   0  0  0  0  0  0  0  0  0  0  0  0  # atno 8010 bound_to 7997
  140.1286  144.4664  150.6878 H   0  0  0  0  0  0  0  0  0  0  0  0  # atno 10167 bound_to 10162
  157.6378  131.0972  150.6934 H   0  0  0  0  0  0  0  0  0  0  0  0  # atno 10718 bound_to 10713
  154.0253  135.2902  155.3375 H   0  0  0  0  0  0  0  0  0  0  0  0  # atno 10763 bound_to 10752
  154.7021  135.5184  153.8545 H   0  0  0  0  0  0  0  0  0  0  0  0  # atno 10764 bound_to 10752
  153.0663  135.6632  154.0471 H   0  0  0  0  0  0  0  0  0  0  0  0  # atno 10765 bound_to 10752
  139.9589  134.9607  156.9078 H   0  0  0  0  0  0  0  0  0  0  0  0  # atno 11005 bound_to 11000
  146.3075  139.7631  142.9045 LP  0  0  0  0  0  0  0  0  0  0  0  0  # atno 17320 bound_to 7965
  145.3718  141.0344  143.3227 LP  0  0  0  0  0  0  0  0  0  0  0  0  # atno 17321 bound_to 7965
  140.6830  143.2336  151.5334 LP  0  0  0  0  0  0  0  0  0  0  0  0  # atno 17342 bound_to 10162
  139.5531  144.2344  152.1565 LP  0  0  0  0  0  0  0  0  0  0  0  0  # atno 17343 bound_to 10162
  156.7263  130.4696  149.5510 LP  0  0  0  0  0  0  0  0  0  0  0  0  # atno 17370 bound_to 10713
  156.1632  130.6388  151.0745 LP  0  0  0  0  0  0  0  0  0  0  0  0  # atno 17371 bound_to 10713
  140.5545  134.0595  155.7379 LP  0  0  0  0  0  0  0  0  0  0  0  0  # atno 17394 bound_to 11000
  141.1264  133.9376  157.2626 LP  0  0  0  0  0  0  0  0  0  0  0  0  # atno 17395 bound_to 11000

$$$$
