AV-unprocessed.smi:109|AV-procd|sdf|1038|dock4
  -GOLD-   2262018 63D 1   1.00000     0.00000
 Structure written by MMmdl.
 58 61  0  0  0  0  0  0  0  0  1 V2000
  149.1683  141.3444  153.4504 O   0  0  0  0  0  0  0  0  0  0  0  0
  149.2396  140.7954  154.7484 C   0  0  0  0  0  0  0  0  0  0  0  0
  149.6920  141.8736  155.7486 C   0  0  0  0  0  0  0  0  0  0  0  0
  150.4756  141.3182  156.9630 C   0  0  1  0  0  0  0  0  0  0  0  0
  151.7243  140.7106  156.4963 N   0  0  0  0  0  0  0  0  0  0  0  0
  151.7584  139.4923  155.9108 C   0  0  0  0  0  0  0  0  0  0  0  0
  152.3163  139.3076  154.6859 N   0  0  0  0  0  0  0  0  0  0  0  0
  152.3398  138.0896  154.1362 C   0  0  0  0  0  0  0  0  0  0  0  0
  151.8714  136.9413  154.6304 N   0  0  0  0  0  0  0  0  0  0  0  0
  151.3096  137.1238  155.8602 C   0  0  0  0  0  0  0  0  0  0  0  0
  151.2137  138.3562  156.5628 C   0  0  0  0  0  0  0  0  0  0  0  0
  150.5872  138.1514  157.7855 N   0  0  0  0  0  0  0  0  0  0  0  0
  150.3329  136.8697  157.8002 C   0  0  0  0  0  0  0  0  0  0  0  0
  150.7260  136.1785  156.6734 N   0  0  0  0  0  0  0  0  0  0  0  0
  150.6013  134.7210  156.3578 C   0  0  1  0  0  0  0  0  0  0  0  0
  149.9525  134.0803  157.4216 O   0  0  0  0  0  0  0  0  0  0  0  0
  148.7464  133.4429  156.9965 C   0  0  1  0  0  0  0  0  0  0  0  0
  147.5443  134.3525  157.3323 C   0  0  0  0  0  0  0  0  0  0  0  0
  147.5303  134.6347  158.7152 O   0  0  0  0  0  0  0  0  0  0  0  0
  149.0028  133.2162  155.5003 C   0  0  1  0  0  0  0  0  0  0  0  0
  147.8514  132.9624  154.7162 O   0  0  0  0  0  0  0  0  0  0  0  0
  149.7838  134.4501  155.0784 C   0  0  1  0  0  0  0  0  0  0  0  0
  148.9395  135.5247  154.6941 O   0  0  0  0  0  0  0  0  0  0  0  0
  150.7943  142.3873  158.0470 C   0  0  0  0  0  0  0  0  0  0  0  0
  151.4108  143.6580  157.4076 C   0  0  0  0  0  0  0  0  0  0  0  0
  151.7428  144.7398  158.4469 C   0  0  0  0  0  0  0  0  0  0  0  0
  152.6852  144.1987  159.5286 C   0  0  0  0  0  0  0  0  0  0  0  0
  152.0841  142.9545  160.1926 C   0  0  0  0  0  0  0  0  0  0  0  0
  151.7441  141.8701  159.1565 C   0  0  0  0  0  0  0  0  0  0  0  0
  151.6298  134.3632  156.2934 H   0  0  0  0  0  0  0  0  0  0  0  0
  148.6302  132.4815  157.4992 H   0  0  0  0  0  0  0  0  0  0  0  0
  149.6600  132.3509  155.4009 H   0  0  0  0  0  0  0  0  0  0  0  0
  150.4607  134.2352  154.2509 H   0  0  0  0  0  0  0  0  0  0  0  0
  148.9097  140.6626  152.8494 H   0  0  0  0  0  0  0  0  0  0  0  0
  148.2593  140.4042  155.0222 H   0  0  0  0  0  0  0  0  0  0  0  0
  149.9341  139.9555  154.7289 H   0  0  0  0  0  0  0  0  0  0  0  0
  150.2932  142.6248  155.2345 H   0  0  0  0  0  0  0  0  0  0  0  0
  148.7912  142.3806  156.0905 H   0  0  0  0  0  0  0  0  0  0  0  0
  149.8395  140.5760  157.4440 H   0  0  0  0  0  0  0  0  0  0  0  0
  152.5385  141.3057  156.5496 H   0  0  0  0  0  0  0  0  0  0  0  0
  152.8000  138.0267  153.1612 H   0  0  0  0  0  0  0  0  0  0  0  0
  149.8510  136.3958  158.6427 H   0  0  0  0  0  0  0  0  0  0  0  0
  147.5541  135.2801  156.7620 H   0  0  0  0  0  0  0  0  0  0  0  0
  146.6048  133.8497  157.1050 H   0  0  0  0  0  0  0  0  0  0  0  0
  147.1567  135.4934  158.8427 H   0  0  0  0  0  0  0  0  0  0  0  0
  147.3500  133.7611  154.6528 H   0  0  0  0  0  0  0  0  0  0  0  0
  148.9399  135.5789  153.7504 H   0  0  0  0  0  0  0  0  0  0  0  0
  149.8556  142.6728  158.5247 H   0  0  0  0  0  0  0  0  0  0  0  0
  152.3172  143.3896  156.8628 H   0  0  0  0  0  0  0  0  0  0  0  0
  150.7316  144.0887  156.6718 H   0  0  0  0  0  0  0  0  0  0  0  0
  152.1983  145.5996  157.9549 H   0  0  0  0  0  0  0  0  0  0  0  0
  150.8219  145.0986  158.9080 H   0  0  0  0  0  0  0  0  0  0  0  0
  153.6508  143.9504  159.0860 H   0  0  0  0  0  0  0  0  0  0  0  0
  152.8744  144.9675  160.2783 H   0  0  0  0  0  0  0  0  0  0  0  0
  152.7804  142.5559  160.9312 H   0  0  0  0  0  0  0  0  0  0  0  0
  151.1814  143.2324  160.7383 H   0  0  0  0  0  0  0  0  0  0  0  0
  151.2946  141.0372  159.6945 H   0  0  0  0  0  0  0  0  0  0  0  0
  152.6639  141.4922  158.7078 H   0  0  0  0  0  0  0  0  0  0  0  0
  1  2  1  0  0  0  0
  1 34  1  0  0  0  0
  2  3  1  0  0  0  0
  2 35  1  0  0  0  0
  2 36  1  0  0  0  0
  3  4  1  0  0  0  0
  3 37  1  0  0  0  0
  3 38  1  0  0  0  0
  4  5  1  0  0  0  0
  4 24  1  0  0  0  0
  4 39  1  0  0  0  0
  5  6  1  0  0  0  0
  5 40  1  0  0  0  0
  6 11  1  0  0  0  0
  6  7  2  0  0  0  0
  7  8  1  0  0  0  0
  8  9  2  0  0  0  0
  8 41  1  0  0  0  0
  9 10  1  0  0  0  0
 10 14  1  0  0  0  0
 10 11  2  0  0  0  0
 11 12  1  0  0  0  0
 12 13  2  0  0  0  0
 13 14  1  0  0  0  0
 13 42  1  0  0  0  0
 14 15  1  0  0  0  0
 15 30  1  0  0  0  0
 15 22  1  0  0  0  0
 15 16  1  0  0  0  0
 16 17  1  0  0  0  0
 17 31  1  0  0  0  0
 17 18  1  0  0  0  0
 17 20  1  0  0  0  0
 18 19  1  0  0  0  0
 18 43  1  0  0  0  0
 18 44  1  0  0  0  0
 19 45  1  0  0  0  0
 20 32  1  0  0  0  0
 20 21  1  0  0  0  0
 20 22  1  0  0  0  0
 21 46  1  0  0  0  0
 22 33  1  0  0  0  0
 22 23  1  0  0  0  0
 23 47  1  0  0  0  0
 24 29  1  0  0  0  0
 24 25  1  0  0  0  0
 24 48  1  0  0  0  0
 25 26  1  0  0  0  0
 25 49  1  0  0  0  0
 25 50  1  0  0  0  0
 26 27  1  0  0  0  0
 26 51  1  0  0  0  0
 26 52  1  0  0  0  0
 27 28  1  0  0  0  0
 27 53  1  0  0  0  0
 27 54  1  0  0  0  0
 28 29  1  0  0  0  0
 28 55  1  0  0  0  0
 28 56  1  0  0  0  0
 29 57  1  0  0  0  0
 29 58  1  0  0  0  0
M  END
> <s_m_source_file>
AV-unprocessed.smi

> <i_m_source_file_index>
109

> <i_lp_mmshare_version>
43012

> <i_f3d_flags>
0

> <s_epik_input>
W0NIMl0xW0NIMl1bQ0gyXVtDSDJdW0NIMl1bQ0hdMVtDQEhdKFtDSDJdW0NIMl1bT0hdKVtOSF1jKG5bY0hdbjIpYyhjMjMpbltjSF1uM1tDQEBIXTRPW0NASF0oW0NIMl1bT0hdKVtDQEBIXShbT0hdKVtDQEhdNFtPSF0=

> <s_epik_cmdline>
J2VwaWtfcHl0aG9uJywgJy1waCcsICc3LjAnLCAnLXRuJywgJzgnLCAnLW1hJywgJzIwMCcsICctbWV0YWxfYmluZGluZycsICctaW1hZScsICc8aW5maWxlLm1hZT4nLCAnLW9tYWUnLCAnPG91dGZpbGUubWFlPic=

> <r_lp_tautomer_probability>
1

> <r_epik_Ionization_Penalty>
0.000793976

> <r_epik_Ionization_Penalty_Charging>
0

> <r_epik_Ionization_Penalty_Neutral>
0.000793976

> <r_epik_State_Penalty>
-0

> <r_epik_Charging_Adjusted_Penalty>
0

> <i_epik_Tot_Q>
0

> <i_epik_Tot_abs_Q>
0

> <r_epik_Metal_State_Penalty>
-0

> <b_epik_Metal_Only>
0

> <s_epik_Chemistry_Notes>
This compound contains an acetal/aminal-like group ( X-CH(R)-Y where X, Y are N, S, or O) that may be acid/base labile, releasing an aldehyde.

> <s_lp_Force_Field>
OPLS_2005

> <r_lp_Energy>
62.3675

> <b_lp_Chiralities_Consistent>
1

> <s_lp_Variant>
AV-unprocessed.smi:109-8

> <Gold.Version>
5.8.1

> <Gold.Id.Protein>
6NUR|6NUR_protein|mol2

> <Gold.PLP.Fitness>
59.1952

> <Gold.PLP.PLP>
-45.5466

> <Gold.PLP.part.hbond>
-7.0000

> <Gold.PLP.part.metal>
0.0000

> <Gold.PLP.part.buried>
-3.9945

> <Gold.PLP.part.nonpolar>
-34.7637

> <Gold.PLP.part.repulsive>
0.3304

> <Gold.PLP.ligand.clash>
0.0000

> <Gold.PLP.ligand.torsion>
1.1109

> <Gold.PLP.Chemscore.Hbond>
5.2209

> <Gold.PLP.Chemscore.CHOScore>
0.0000

> <Gold.PLP.Chemscore.Metal>
0.0000

> <Gold.Chemscore.Hbonds>
donor molecule, donor type, donor heavy atom, donor atom, acceptor molecule, acceptor atom, score
      L1  H     1    34       P1  7957  0.67
      L1  H    23    47       P1  7948  1.00
      P1  H  6896  6909       L1    16  0.90
      P1  H  7989  7998       L1     7  0.71
      P1  H  8011  8017       L1     1  0.85
      P1  H 10752 10764       L1     9  1.00

> <Gold.PLP.Chemscore.Internal.Correction>
0.2077

> <Gold.Rescore>
     Score         DG    S(hbond)    S(metal)    S(lipo)     H(rot)  DE(clash)    DE(int)     intcor
     13.50     -16.58       3.93        0.00     102.29       5.47       1.85       1.23       ----

> <Gold.Chemscore.Fitness>
13.4970

> <Gold.Chemscore.DG>
-16.5799

> <Gold.Chemscore.ZeroCoef>
-5.4800

> <Gold.Chemscore.Hbond>
3.9296

> <Gold.Chemscore.Metal>
0.0000

> <Gold.Chemscore.Lipo>
102.2946

> <Gold.Chemscore.Internal_Hbond>
0.0000

> <Gold.Chemscore.DEClash>
1.8505

> <Gold.Chemscore.DEInternal>
1.2324

> <Gold.Chemscore.Rot>
5.4662

> <Gold.Chemscore.Internal.Correction>
   9.000000E+99

> <Gold.Chemscore.Hbonds>
donor molecule, donor type, donor heavy atom, donor atom, acceptor molecule, acceptor atom, score
      L1  H     1    34       P1  7957  0.66
      L1  H    23    47       P1  7948  0.86
      P1  H  6896  6909       L1    16  0.82
      P1  H  7989  7998       L1     7  0.39
      P1  H  8011  8017       L1     1  0.16
      P1  H 10752 10764       L1     9  0.71

> <Gold.Chemscore.Hbond.Weighted>
-13.1249

> <Gold.Chemscore.Metal.Weighted>
-0.0000

> <Gold.Chemscore.Lipo.Weighted>
-11.9685

> <Gold.Chemscore.Internal_Hbond.Weighted>
0.0000

> <Gold.Chemscore.DEClash.Weighted>
1.8505

> <Gold.Chemscore.DEInternal.Weighted>
1.2324

> <Gold.Chemscore.Rot.Weighted>
13.9935

> <Gold.Chemscore.Internal.Correction.Weighted>
   9.000000E+99

> <Gold.Protein.RotatedTorsions>
[ 6907 6896 6895 6894 ] final   -1.63 input  -60.11 | X-H torsion
[ 7974 7965 7964 7962 ] final   -1.39 input  175.53 | X-H torsion
[ 8008 7997 7996 7995 ] final   14.15 input   59.86 | X-H torsion
[ 10167 10162 10161 10158 ] final   61.62 input  -65.29 | X-H torsion
[ 10718 10713 10712 10709 ] final  -75.34 input   66.30 | X-H torsion
[ 10763 10752 10751 10750 ] final  -79.95 input  -60.55 | X-H torsion
[ 11005 11000 10999 10996 ] final  -34.07 input  -57.11 | X-H torsion

> <Gold.Protein.ActiveResidues>
 VAL166  LYS551  ARG553  GLY616  TRP617  ASP618  TYR619  PRO620  LYS621  CYS622 
 ASP623  PHE694  ASN695  SER759  ASP760  ASP761  ALA762  ILE779  LEU786  VAL792 
 PHE793  MET794  SER795  GLU796  ALA797  LYS798  CYS799  TRP800  GLU811  SER814 

> <Gold.Protein.RotatedAtoms>
  151.5430  135.1068  159.9930 H   0  0  0  0  0  0  0  0  0  0  0  0  # atno 6907 bound_to 6896
  152.4526  133.7656  159.6781 H   0  0  0  0  0  0  0  0  0  0  0  0  # atno 6908 bound_to 6896
  150.8460  133.7795  159.3067 H   0  0  0  0  0  0  0  0  0  0  0  0  # atno 6909 bound_to 6896
  146.2417  140.1413  142.8335 H   0  0  0  0  0  0  0  0  0  0  0  0  # atno 7974 bound_to 7965
  154.8444  140.2920  155.5638 H   0  0  0  0  0  0  0  0  0  0  0  0  # atno 8008 bound_to 7997
  156.3013  140.2508  156.3324 H   0  0  0  0  0  0  0  0  0  0  0  0  # atno 8009 bound_to 7997
  154.9090  140.0389  157.1925 H   0  0  0  0  0  0  0  0  0  0  0  0  # atno 8010 bound_to 7997
  140.1528  144.4446  150.6750 H   0  0  0  0  0  0  0  0  0  0  0  0  # atno 10167 bound_to 10162
  156.0211  130.4438  150.3027 H   0  0  0  0  0  0  0  0  0  0  0  0  # atno 10718 bound_to 10713
  154.5451  135.5678  153.6873 H   0  0  0  0  0  0  0  0  0  0  0  0  # atno 10763 bound_to 10752
  152.9974  135.6237  154.2449 H   0  0  0  0  0  0  0  0  0  0  0  0  # atno 10764 bound_to 10752
  154.2382  135.2863  155.2844 H   0  0  0  0  0  0  0  0  0  0  0  0  # atno 10765 bound_to 10752
  140.9686  133.7122  156.1486 H   0  0  0  0  0  0  0  0  0  0  0  0  # atno 11005 bound_to 11000
  145.0244  140.8820  143.5147 LP  0  0  0  0  0  0  0  0  0  0  0  0  # atno 17320 bound_to 7965
  145.1467  139.2539  143.5462 LP  0  0  0  0  0  0  0  0  0  0  0  0  # atno 17321 bound_to 7965
  140.6692  143.2279  151.5668 LP  0  0  0  0  0  0  0  0  0  0  0  0  # atno 17342 bound_to 10162
  139.5417  144.2628  152.1364 LP  0  0  0  0  0  0  0  0  0  0  0  0  # atno 17343 bound_to 10162
  157.1130  131.0226  151.3040 LP  0  0  0  0  0  0  0  0  0  0  0  0  # atno 17370 bound_to 10713
  157.4689  130.7697  149.7305 LP  0  0  0  0  0  0  0  0  0  0  0  0  # atno 17371 bound_to 10713
  140.7362  134.4200  157.5560 LP  0  0  0  0  0  0  0  0  0  0  0  0  # atno 17394 bound_to 11000
  139.8904  134.8806  156.2373 LP  0  0  0  0  0  0  0  0  0  0  0  0  # atno 17395 bound_to 11000

$$$$
