#       Name:                AV-unprocessed.smi:1458
#       Creating user name   scv26
#       Creation time:       Fri Mar 27 06:00:36 2020


#       File generated by GOLD software.
#

@<TRIPOS>MOLECULE
AV-unprocessed.smi:1458
    54    55     1
SMALL
NO_CHARGES


@<TRIPOS>ATOM
      1 ****        -5.9607   4.6479   2.2421 C.3            1 S1                 0.0000
      2 ****        -5.5427   3.4016   2.7694 O.3            1 S1                 0.0000
      3 ****        -6.0045   2.3037   1.9990 C.3            1 S1                 0.0000
      4 ****        -5.5002   0.9977   2.6287 C.3            1 S1                 0.0000
      5 ****        -4.0463   0.8973   2.5633 N.am           1 S1                 0.0000
      6 ****        -3.3503   0.4705   1.5006 C.2            1 S1                 0.0000
      7 ****        -3.8733   0.1044   0.4482 O.2            1 S1                 0.0000
      8 ****        -2.0282   0.5216   1.7354 N.am           1 S1                 0.0000
      9 ****        -0.9621   0.1059   0.8930 C.ar           1 S1                 0.0000
     10 ****        -1.0960  -0.8242  -0.1637 C.ar           1 S1                 0.0000
     11 ****         0.0455  -1.1799  -0.9077 C.ar           1 S1                 0.0000
     12 ****         1.2963  -0.6075  -0.5761 C.ar           1 S1                 0.0000
     13 ****         2.4552  -0.9617  -1.3012 N.3            1 S1                 0.0000
     14 ****         2.7171  -2.3953  -1.4002 C.3            1 S1                 0.0000
     15 ****         3.8157  -2.6736  -2.4437 C.3            1 S1                 0.0000
     16 ****         4.2051  -4.1549  -2.4866 C.3            1 S1                 0.0000
     17 ****         4.9774  -1.9160  -2.1168 O.3            1 S1                 0.0000
     18 ****         4.7339  -0.5123  -2.1367 C.3            1 S1                 0.0000
     19 ****         6.0584   0.2089  -1.8663 C.3            1 S1                 0.0000
     20 ****         3.6647  -0.1705  -1.0824 C.3            1 S1                 0.0000
     21 ****         1.4193   0.2839   0.4379 N.ar           1 S1                 0.0000
     22 ****         0.3238   0.6207   1.1496 C.ar           1 S1                 0.0000
     23 ****        -5.5836   5.4557   2.8691 H              1 S1                 0.0000
     24 ****        -7.0488   4.7213   2.2168 H              1 S1                 0.0000
     25 ****        -5.5755   4.7973   1.2325 H              1 S1                 0.0000
     26 ****        -7.0954   2.3031   1.9807 H              1 S1                 0.0000
     27 ****        -5.6624   2.3888   0.9661 H              1 S1                 0.0000
     28 ****        -5.8066   0.9450   3.6737 H              1 S1                 0.0000
     29 ****        -5.9557   0.1404   2.1304 H              1 S1                 0.0000
     30 ****        -3.5344   1.1879   3.3834 H              1 S1                 0.0000
     31 ****        -1.7495   0.9393   2.6112 H              1 S1                 0.0000
     32 ****        -2.0414  -1.2819  -0.4093 H              1 S1                 0.0000
     33 ****        -0.0539  -1.8796  -1.7240 H              1 S1                 0.0000
     34 ****         3.0281  -2.7612  -0.4208 H              1 S1                 0.0000
     35 ****         1.8204  -2.9493  -1.6745 H              1 S1                 0.0000
     36 ****         3.4641  -2.3791  -3.4342 H              1 S1                 0.0000
     37 ****         3.3491  -4.7781  -2.7463 H              1 S1                 0.0000
     38 ****         4.5838  -4.4914  -1.5212 H              1 S1                 0.0000
     39 ****         4.9827  -4.3317  -3.2300 H              1 S1                 0.0000
     40 ****         4.3783  -0.2245  -3.1278 H              1 S1                 0.0000
     41 ****         5.9264   1.2910  -1.8848 H              1 S1                 0.0000
     42 ****         6.8033  -0.0481  -2.6196 H              1 S1                 0.0000
     43 ****         6.4633  -0.0629  -0.8910 H              1 S1                 0.0000
     44 ****         3.4304   0.8935  -1.1372 H              1 S1                 0.0000
     45 ****         4.0481  -0.3698  -0.0805 H              1 S1                 0.0000
     46 ****         0.4818   1.3273   1.9515 H              1 S1                 0.0000
     47 ****        -5.8972   3.3120   3.7002 LP             1 S1                 0.0000
     48 ****        -4.5431   3.3811   2.7900 LP             1 S1                 0.0000
     49 ****        -4.8688   0.1159   0.3541 LP             1 S1                 0.0000
     50 ****        -3.3027  -0.2046  -0.3127 LP             1 S1                 0.0000
     51 ****         2.1697  -0.6712  -2.2145 LP             1 S1                 0.0000
     52 ****         5.6954  -2.1268  -2.7801 LP             1 S1                 0.0000
     53 ****         5.2830  -2.1760  -1.2008 LP             1 S1                 0.0000
     54 ****         2.3088   0.6858   0.6551 LP             1 S1                 0.0000
@<TRIPOS>BOND
    1    1    2 1     
    2    1   23 1     
    3    1   24 1     
    4    1   25 1     
    5    2    3 1     
    6    3    4 1     
    7    3   26 1     
    8    3   27 1     
    9    4    5 1     
   10    4   28 1     
   11    4   29 1     
   12    5    6 am    
   13    5   30 1     
   14    6    7 2     
   15    6    8 am    
   16    8    9 1     
   17    8   31 1     
   18    9   22 ar    
   19    9   10 ar    
   20   10   11 ar    
   21   10   32 1     
   22   11   12 ar    
   23   11   33 1     
   24   12   13 1     
   25   12   21 ar    
   26   13   20 1     
   27   13   14 1     
   28   14   15 1     
   29   14   34 1     
   30   14   35 1     
   31   15   16 1     
   32   15   17 1     
   33   15   36 1     
   34   16   37 1     
   35   16   38 1     
   36   16   39 1     
   37   17   18 1     
   38   18   19 1     
   39   18   20 1     
   40   18   40 1     
   41   19   41 1     
   42   19   42 1     
   43   19   43 1     
   44   20   44 1     
   45   20   45 1     
   46   21   22 ar    
   47   22   46 1     
   48    2   47 1     
   49    2   48 1     
   50    7   49 1     
   51    7   50 1     
   52   13   51 1     
   53   17   52 1     
   54   17   53 1     
   55   21   54 1     
@<TRIPOS>SUBSTRUCTURE
      1 S1             1
@<TRIPOS>SET
LONE_PAIRS      STATIC     ATOMS    <user>   **** ""
8 47 48 49 50 51 52 53 54
DONOR_HYDROGENS      STATIC     ATOMS    <user>   **** ""
2 30 31
ATOM$BLUE        STATIC     ATOMS    COLORGROUP SYSTEM
8 47 48 49 50 51 52 53 54
ATOM$RED        STATIC     ATOMS    COLORGROUP SYSTEM
2 30 31
