AV-unprocessed.smi:2247|AV-procd|sdf|9093|dock2
  -GOLD-   2272012293D 1   1.00000     0.00000
 Structure written by MMmdl.
 33 34  0  0  0  0  0  0  0  0  2 V2000
  152.6119  144.0712  162.3242 C   0  0  0  0  0  0  0  0  0  0  0  0
  152.4761  142.7819  161.4935 C   0  0  0  0  0  0  0  0  0  0  0  0
  153.6753  141.8430  161.7018 C   0  0  0  0  0  0  0  0  0  0  0  0
  152.2781  143.0441  160.0607 N   0  0  0  0  0  0  0  0  0  0  0  0
  152.1304  144.3870  159.5230 C   0  0  0  0  0  0  0  0  0  0  0  0
  152.2230  144.2142  158.0039 C   0  0  0  0  0  0  0  0  0  0  0  0
  152.0161  142.7185  157.7161 C   0  0  2  0  0  0  0  0  0  0  0  0
  150.6559  142.4915  157.2311 N   0  0  0  0  0  0  0  0  0  0  0  0
  150.3064  141.7231  156.1890 C   0  0  0  0  0  0  0  0  0  0  0  0
  151.1736  141.1312  155.5423 O   0  0  0  0  0  0  0  0  0  0  0  0
  148.9742  141.6912  155.9608 N   0  5  0  0  0  0  0  0  0  0  0  0
  148.4888  140.9619  154.9433 C   0  0  0  0  0  0  0  0  0  0  0  0
  149.0943  139.9324  154.3488 N   0  0  0  0  0  0  0  0  0  0  0  0
  148.2186  139.4929  153.3678 C   0  0  0  0  0  0  0  0  0  0  0  0
  147.1021  140.2820  153.4176 C   0  0  0  0  0  0  0  0  0  0  0  0
  147.2590  141.2099  154.4096 O   0  0  0  0  0  0  0  0  0  0  0  0
  152.1903  142.1077  159.1054 C   0  0  0  0  0  0  0  0  0  0  0  0
  152.2679  140.8927  159.2866 O   0  0  0  0  0  0  0  0  0  0  0  0
  152.6657  143.8404  163.3884 H   0  0  0  0  0  0  0  0  0  0  0  0
  151.7538  144.7279  162.1772 H   0  0  0  0  0  0  0  0  0  0  0  0
  153.5130  144.6289  162.0677 H   0  0  0  0  0  0  0  0  0  0  0  0
  151.5863  142.2685  161.8623 H   0  0  0  0  0  0  0  0  0  0  0  0
  153.8083  141.6057  162.7576 H   0  0  0  0  0  0  0  0  0  0  0  0
  154.5995  142.2969  161.3430 H   0  0  0  0  0  0  0  0  0  0  0  0
  153.5388  140.9007  161.1697 H   0  0  0  0  0  0  0  0  0  0  0  0
  151.1552  144.7873  159.8031 H   0  0  0  0  0  0  0  0  0  0  0  0
  152.9019  145.0608  159.8973 H   0  0  0  0  0  0  0  0  0  0  0  0
  151.5158  144.8555  157.4759 H   0  0  0  0  0  0  0  0  0  0  0  0
  153.2204  144.5050  157.6712 H   0  0  0  0  0  0  0  0  0  0  0  0
  152.7658  142.3415  157.0183 H   0  0  0  0  0  0  0  0  0  0  0  0
  149.9118  142.9518  157.7340 H   0  0  0  0  0  0  0  0  0  0  0  0
  148.4557  138.6618  152.7205 H   0  0  0  0  0  0  0  0  0  0  0  0
  146.1767  140.3137  152.8622 H   0  0  0  0  0  0  0  0  0  0  0  0
  1  2  1  0  0  0  0
  1 19  1  0  0  0  0
  1 20  1  0  0  0  0
  1 21  1  0  0  0  0
  2  3  1  0  0  0  0
  2  4  1  0  0  0  0
  2 22  1  0  0  0  0
  3 23  1  0  0  0  0
  3 24  1  0  0  0  0
  3 25  1  0  0  0  0
  4 17  1  0  0  0  0
  4  5  1  0  0  0  0
  5  6  1  0  0  0  0
  5 26  1  0  0  0  0
  5 27  1  0  0  0  0
  6  7  1  0  0  0  0
  6 28  1  0  0  0  0
  6 29  1  0  0  0  0
  7  8  1  0  0  0  0
  7 17  1  0  0  0  0
  7 30  1  0  0  0  0
  8  9  1  0  0  0  0
  8 31  1  0  0  0  0
  9 10  2  0  0  0  0
  9 11  1  0  0  0  0
 11 12  1  0  0  0  0
 12 16  1  0  0  0  0
 12 13  2  0  0  0  0
 13 14  1  0  0  0  0
 14 15  2  0  0  0  0
 14 32  1  0  0  0  0
 15 16  1  0  0  0  0
 15 33  1  0  0  0  0
 17 18  2  0  0  0  0
M  CHG  1  11  -1
M  END
> <s_m_source_file>
AV-unprocessed.smi

> <i_m_source_file_index>
2247

> <i_lp_mmshare_version>
43012

> <i_f3d_flags>
0

> <s_epik_input>
W0NIM11bQ0hdKFtDSDNdKU4xW0NIMl1bQ0gyXVtDQEhdKEMxPU8pW05IXUMoPU8pW05IXWMybltjSF1bY0hdbzI=

> <s_epik_cmdline>
J2VwaWtfcHl0aG9uJywgJy1waCcsICc3LjAnLCAnLXRuJywgJzgnLCAnLW1hJywgJzIwMCcsICctbWV0YWxfYmluZGluZycsICctaW1hZScsICc8aW5maWxlLm1hZT4nLCAnLW9tYWUnLCAnPG91dGZpbGUubWFlPic=

> <r_lp_tautomer_probability>
0.785861

> <r_epik_Ionization_Penalty>
8.37364

> <r_epik_Ionization_Penalty_Charging>
6.20178

> <r_epik_Ionization_Penalty_Neutral>
2.17186

> <r_epik_State_Penalty>
6.22234

> <r_epik_Charging_Adjusted_Penalty>
12.4241

> <i_epik_Tot_Q>
-1

> <i_epik_Tot_abs_Q>
1

> <r_epik_Metal_State_Penalty>
2.14252

> <b_epik_Metal_Only>
1

> <s_lp_Force_Field>
OPLS_2005

> <r_lp_Energy>
16.3016

> <b_lp_Chiralities_Consistent>
1

> <s_lp_Variant>
AV-unprocessed.smi:2247-8

> <Gold.Version>
5.8.1

> <Gold.Id.Protein>
6NUR|6NUR_protein|mol2

> <Gold.PLP.Fitness>
42.5146

> <Gold.PLP.PLP>
-34.9051

> <Gold.PLP.part.hbond>
-1.1561

> <Gold.PLP.part.metal>
0.0000

> <Gold.PLP.part.buried>
-2.0839

> <Gold.PLP.part.nonpolar>
-31.5987

> <Gold.PLP.part.repulsive>
0.5968

> <Gold.PLP.ligand.clash>
0.0000

> <Gold.PLP.ligand.torsion>
0.3106

> <Gold.PLP.Chemscore.Hbond>
0.4766

> <Gold.PLP.Chemscore.CHOScore>
2.2353

> <Gold.PLP.Chemscore.Metal>
0.0000

> <Gold.Chemscore.Hbonds>
donor molecule, donor type, donor heavy atom, donor atom, acceptor molecule, acceptor atom, score
      P1  H  7989  7998       L1    10  0.50
      L1  C    14    32       P1  7948  0.84
      L1  C    14    32       P1  7957  0.28
      L1  C    15    33       P1 10175  1.00

> <Gold.PLP.Chemscore.Internal.Correction>
0.0949

> <Gold.Rescore>
     Score         DG    S(hbond)    S(metal)    S(lipo)     H(rot)  DE(clash)    DE(int)     intcor
     10.17     -14.01       0.71        0.00      81.49       1.32       0.80       3.04       ----

> <Gold.Chemscore.Fitness>
10.1710

> <Gold.Chemscore.DG>
-14.0063

> <Gold.Chemscore.ZeroCoef>
-5.4800

> <Gold.Chemscore.Hbond>
0.7114

> <Gold.Chemscore.Metal>
0.0000

> <Gold.Chemscore.Lipo>
81.4909

> <Gold.Chemscore.Internal_Hbond>
0.0000

> <Gold.Chemscore.DEClash>
0.7999

> <Gold.Chemscore.DEInternal>
3.0354

> <Gold.Chemscore.Rot>
1.3219

> <Gold.Chemscore.Internal.Correction>
   9.000000E+99

> <Gold.Chemscore.Hbonds>
donor molecule, donor type, donor heavy atom, donor atom, acceptor molecule, acceptor atom, score
      P1  H  7989  7998       L1    10  0.48

> <Gold.Chemscore.Hbond.Weighted>
-2.3761

> <Gold.Chemscore.Metal.Weighted>
-0.0000

> <Gold.Chemscore.Lipo.Weighted>
-9.5344

> <Gold.Chemscore.Internal_Hbond.Weighted>
0.0000

> <Gold.Chemscore.DEClash.Weighted>
0.7999

> <Gold.Chemscore.DEInternal.Weighted>
3.0354

> <Gold.Chemscore.Rot.Weighted>
3.3842

> <Gold.Chemscore.Internal.Correction.Weighted>
   9.000000E+99

> <Gold.Protein.RotatedTorsions>
[ 6907 6896 6895 6894 ] final -160.68 input  -60.11 | X-H torsion
[ 7974 7965 7964 7962 ] final  113.69 input  175.53 | X-H torsion
[ 8008 7997 7996 7995 ] final  -97.53 input   59.86 | X-H torsion
[ 10167 10162 10161 10158 ] final  -10.82 input  -65.29 | X-H torsion
[ 10718 10713 10712 10709 ] final -110.05 input   66.30 | X-H torsion
[ 10763 10752 10751 10750 ] final   84.53 input  -60.55 | X-H torsion
[ 11005 11000 10999 10996 ] final  117.88 input  -57.11 | X-H torsion

> <Gold.Protein.ActiveResidues>
 VAL166  LYS551  ARG553  GLY616  TRP617  ASP618  TYR619  PRO620  LYS621  CYS622 
 ASP623  PHE694  ASN695  SER759  ASP760  ASP761  ALA762  ILE779  LEU786  VAL792 
 PHE793  MET794  SER795  GLU796  ALA797  LYS798  CYS799  TRP800  GLU811  SER814 

> <Gold.Protein.RotatedAtoms>
  151.3529  133.3918  159.2681 H   0  0  0  0  0  0  0  0  0  0  0  0  # atno 6907 bound_to 6896
  150.9787  134.9147  159.7842 H   0  0  0  0  0  0  0  0  0  0  0  0  # atno 6908 bound_to 6896
  152.5209  134.3492  159.9297 H   0  0  0  0  0  0  0  0  0  0  0  0  # atno 6909 bound_to 6896
  145.2138  139.2894  143.4254 H   0  0  0  0  0  0  0  0  0  0  0  0  # atno 7974 bound_to 7965
  154.7890  140.0462  157.1186 H   0  0  0  0  0  0  0  0  0  0  0  0  # atno 8008 bound_to 7997
  154.9614  140.3078  155.5009 H   0  0  0  0  0  0  0  0  0  0  0  0  # atno 8009 bound_to 7997
  156.2947  140.2270  156.4700 H   0  0  0  0  0  0  0  0  0  0  0  0  # atno 8010 bound_to 7997
  140.7123  143.5706  150.9096 H   0  0  0  0  0  0  0  0  0  0  0  0  # atno 10167 bound_to 10162
  156.0569  130.5795  150.8183 H   0  0  0  0  0  0  0  0  0  0  0  0  # atno 10718 bound_to 10713
  153.1390  135.4651  154.9467 H   0  0  0  0  0  0  0  0  0  0  0  0  # atno 10763 bound_to 10752
  154.7731  135.3165  154.8151 H   0  0  0  0  0  0  0  0  0  0  0  0  # atno 10764 bound_to 10752
  153.8677  135.6906  153.4831 H   0  0  0  0  0  0  0  0  0  0  0  0  # atno 10765 bound_to 10752
  139.9090  134.9615  156.7418 H   0  0  0  0  0  0  0  0  0  0  0  0  # atno 11005 bound_to 11000
  146.3391  140.2422  142.8596 LP  0  0  0  0  0  0  0  0  0  0  0  0  # atno 17320 bound_to 7965
  144.9831  140.8477  143.5385 LP  0  0  0  0  0  0  0  0  0  0  0  0  # atno 17321 bound_to 7965
  139.9432  143.6357  152.3048 LP  0  0  0  0  0  0  0  0  0  0  0  0  # atno 17342 bound_to 10162
  139.6850  144.7652  151.1541 LP  0  0  0  0  0  0  0  0  0  0  0  0  # atno 17343 bound_to 10162
  157.5547  131.0944  150.9645 LP  0  0  0  0  0  0  0  0  0  0  0  0  # atno 17370 bound_to 10713
  156.9897  130.5558  149.5302 LP  0  0  0  0  0  0  0  0  0  0  0  0  # atno 17371 bound_to 10713
  140.6843  133.9446  155.7929 LP  0  0  0  0  0  0  0  0  0  0  0  0  # atno 17394 bound_to 11000
  141.0487  134.0516  157.3811 LP  0  0  0  0  0  0  0  0  0  0  0  0  # atno 17395 bound_to 11000

$$$$
