AV-unprocessed.smi:3319|AV-procd|sdf|12767|dock3
  -GOLD-   2272019103D 1   1.00000     0.00000
 Structure written by MMmdl.
 40 41  0  0  0  0  0  0  0  0  2 V2000
  153.8078  141.1690  162.6081 C   0  0  0  0  0  0  0  0  0  0  0  0
  153.2765  142.1769  162.1688 C   0  0  0  0  0  0  0  0  0  0  0  0
  152.6454  143.4030  161.6468 C   0  0  0  0  0  0  0  0  0  0  0  0
  151.9093  143.1857  160.4013 N   0  0  0  0  0  0  0  0  0  0  0  0
  152.8112  142.5811  159.4191 C   0  0  0  0  0  0  0  0  0  0  0  0
  152.0438  142.2406  158.1298 C   0  0  0  0  0  0  0  0  0  0  0  0
  151.4046  143.4956  157.5166 C   0  0  0  0  0  0  0  0  0  0  0  0
  150.5980  143.1273  156.3319 N   0  3  0  0  0  0  0  0  0  0  0  0
  149.5059  142.1637  156.5838 C   0  0  0  0  0  0  0  0  0  0  0  0
  148.9880  141.5664  155.2687 C   0  0  0  0  0  0  0  0  0  0  0  0
  149.8365  140.4025  154.7940 C   0  0  0  0  0  0  0  0  0  0  0  0
  149.5207  139.7197  153.6012 C   0  0  0  0  0  0  0  0  0  0  0  0
  150.3417  138.6443  153.2051 C   0  0  0  0  0  0  0  0  0  0  0  0
  151.4184  138.2351  153.9100 N   0  0  0  0  0  0  0  0  0  0  0  0
  151.7151  138.8943  155.0506 C   0  0  0  0  0  0  0  0  0  0  0  0
  150.9599  139.9816  155.5349 C   0  0  0  0  0  0  0  0  0  0  0  0
  150.5584  144.1932  158.5965 C   0  0  0  0  0  0  0  0  0  0  0  0
  151.3861  144.4495  159.8683 C   0  0  0  0  0  0  0  0  0  0  0  0
  154.2708  140.2894  162.9957 H   0  0  0  0  0  0  0  0  0  0  0  0
  152.0002  143.8304  162.4157 H   0  0  0  0  0  0  0  0  0  0  0  0
  153.4590  144.1094  161.4772 H   0  0  0  0  0  0  0  0  0  0  0  0
  153.6427  143.2544  159.2035 H   0  0  0  0  0  0  0  0  0  0  0  0
  153.2396  141.6658  159.8297 H   0  0  0  0  0  0  0  0  0  0  0  0
  152.7225  141.7782  157.4124 H   0  0  0  0  0  0  0  0  0  0  0  0
  151.2757  141.4979  158.3519 H   0  0  0  0  0  0  0  0  0  0  0  0
  152.2051  144.1649  157.1970 H   0  0  0  0  0  0  0  0  0  0  0  0
  150.1770  143.9730  155.9747 H   0  0  0  0  0  0  0  0  0  0  0  0
  149.8621  141.3635  157.2324 H   0  0  0  0  0  0  0  0  0  0  0  0
  148.6935  142.6689  157.1078 H   0  0  0  0  0  0  0  0  0  0  0  0
  147.9584  141.2266  155.3901 H   0  0  0  0  0  0  0  0  0  0  0  0
  148.9702  142.3313  154.4912 H   0  0  0  0  0  0  0  0  0  0  0  0
  148.6702  140.0084  153.0009 H   0  0  0  0  0  0  0  0  0  0  0  0
  150.1277  138.0988  152.2978 H   0  0  0  0  0  0  0  0  0  0  0  0
  152.5809  138.5457  155.5941 H   0  0  0  0  0  0  0  0  0  0  0  0
  151.2396  140.4764  156.4536 H   0  0  0  0  0  0  0  0  0  0  0  0
  150.1742  145.1442  158.2281 H   0  0  0  0  0  0  0  0  0  0  0  0
  149.6892  143.5822  158.8454 H   0  0  0  0  0  0  0  0  0  0  0  0
  150.7498  144.9364  160.6077 H   0  0  0  0  0  0  0  0  0  0  0  0
  152.2070  145.1361  159.6552 H   0  0  0  0  0  0  0  0  0  0  0  0
  151.2136  142.7535  155.6236 H   0  0  0  0  0  0  0  0  0  0  0  0
  1  2  3  0  0  0  0
  1 19  1  0  0  0  0
  2  3  1  0  0  0  0
  3  4  1  0  0  0  0
  3 20  1  0  0  0  0
  3 21  1  0  0  0  0
  4 18  1  0  0  0  0
  4  5  1  0  0  0  0
  5  6  1  0  0  0  0
  5 22  1  0  0  0  0
  5 23  1  0  0  0  0
  6  7  1  0  0  0  0
  6 24  1  0  0  0  0
  6 25  1  0  0  0  0
  7  8  1  0  0  0  0
  7 17  1  0  0  0  0
  7 26  1  0  0  0  0
  8  9  1  0  0  0  0
  8 27  1  0  0  0  0
  8 40  1  0  0  0  0
  9 10  1  0  0  0  0
  9 28  1  0  0  0  0
  9 29  1  0  0  0  0
 10 11  1  0  0  0  0
 10 30  1  0  0  0  0
 10 31  1  0  0  0  0
 11 16  1  0  0  0  0
 11 12  2  0  0  0  0
 12 13  1  0  0  0  0
 12 32  1  0  0  0  0
 13 14  2  0  0  0  0
 13 33  1  0  0  0  0
 14 15  1  0  0  0  0
 15 16  2  0  0  0  0
 15 34  1  0  0  0  0
 16 35  1  0  0  0  0
 17 18  1  0  0  0  0
 17 36  1  0  0  0  0
 17 37  1  0  0  0  0
 18 38  1  0  0  0  0
 18 39  1  0  0  0  0
M  CHG  1   8   1
M  END
> <s_m_source_file>
AV-unprocessed.smi

> <i_m_source_file_index>
3319

> <i_lp_mmshare_version>
43012

> <i_f3d_flags>
0

> <s_epik_input>
W0NIXSNDW0NIMl1OMVtDSDJdW0NIMl1bQ0hdKFtDSDJdW0NIMl0xKVtOSF1bQ0gyXVtDSDJdYzJbY0hdW2NIXW5bY0hdW2NIXTI=

> <s_epik_cmdline>
J2VwaWtfcHl0aG9uJywgJy1waCcsICc3LjAnLCAnLXRuJywgJzgnLCAnLW1hJywgJzIwMCcsICctbWV0YWxfYmluZGluZycsICctaW1hZScsICc8aW5maWxlLm1hZT4nLCAnLW9tYWUnLCAnPG91dGZpbGUubWFlPic=

> <r_epik_Ionization_Penalty>
0.00927662

> <r_epik_Ionization_Penalty_Charging>
0.000485704

> <r_epik_Ionization_Penalty_Neutral>
0.00879091

> <r_epik_State_Penalty>
0.00559669

> <r_epik_Charging_Adjusted_Penalty>
0.0060824

> <i_epik_Tot_Q>
1

> <i_epik_Tot_abs_Q>
1

> <r_epik_Metal_State_Penalty>
-0

> <b_epik_Metal_Only>
0

> <s_lp_Force_Field>
OPLS_2005

> <r_lp_Energy>
19.7292

> <b_lp_Chiralities_Consistent>
1

> <s_lp_Variant>
AV-unprocessed.smi:3319-1

> <Gold.Version>
5.8.1

> <Gold.Id.Protein>
6NUR|6NUR_protein|mol2

> <Gold.PLP.Fitness>
54.1266

> <Gold.PLP.PLP>
-44.6920

> <Gold.PLP.part.hbond>
-2.0000

> <Gold.PLP.part.metal>
0.0000

> <Gold.PLP.part.buried>
-6.4023

> <Gold.PLP.part.nonpolar>
-36.3510

> <Gold.PLP.part.repulsive>
0.2159

> <Gold.PLP.ligand.clash>
0.0000

> <Gold.PLP.ligand.torsion>
0.1917

> <Gold.PLP.Chemscore.Hbond>
2.2621

> <Gold.PLP.Chemscore.CHOScore>
1.0000

> <Gold.PLP.Chemscore.Metal>
0.0000

> <Gold.Chemscore.Hbonds>
donor molecule, donor type, donor heavy atom, donor atom, acceptor molecule, acceptor atom, score
      L1  H     8    27       P1  8028  1.81
      L1  C    13    33       P1  7948  0.58
      L1  C    13    33       P1  7957  0.11

> <Gold.PLP.Chemscore.Internal.Correction>
0.0319

> <Gold.Rescore>
     Score         DG    S(hbond)    S(metal)    S(lipo)     H(rot)  DE(clash)    DE(int)     intcor
     21.18     -21.52       1.57        0.00     123.82       1.44       0.08       0.27       ----

> <Gold.Chemscore.Fitness>
21.1754

> <Gold.Chemscore.DG>
-21.5227

> <Gold.Chemscore.ZeroCoef>
-5.4800

> <Gold.Chemscore.Hbond>
1.5672

> <Gold.Chemscore.Metal>
0.0000

> <Gold.Chemscore.Lipo>
123.8219

> <Gold.Chemscore.Internal_Hbond>
0.0000

> <Gold.Chemscore.DEClash>
0.0773

> <Gold.Chemscore.DEInternal>
0.2701

> <Gold.Chemscore.Rot>
1.4371

> <Gold.Chemscore.Internal.Correction>
   9.000000E+99

> <Gold.Chemscore.Hbonds>
donor molecule, donor type, donor heavy atom, donor atom, acceptor molecule, acceptor atom, score
      L1  H     8    27       P1  8028  0.83

> <Gold.Chemscore.Hbond.Weighted>
-5.2346

> <Gold.Chemscore.Metal.Weighted>
-0.0000

> <Gold.Chemscore.Lipo.Weighted>
-14.4872

> <Gold.Chemscore.Internal_Hbond.Weighted>
0.0000

> <Gold.Chemscore.DEClash.Weighted>
0.0773

> <Gold.Chemscore.DEInternal.Weighted>
0.2701

> <Gold.Chemscore.Rot.Weighted>
3.6790

> <Gold.Chemscore.Internal.Correction.Weighted>
   9.000000E+99

> <Gold.Protein.RotatedTorsions>
[ 6907 6896 6895 6894 ] final    5.19 input  -60.11 | X-H torsion
[ 7974 7965 7964 7962 ] final -146.40 input  175.53 | X-H torsion
[ 8008 7997 7996 7995 ] final -103.88 input   59.86 | X-H torsion
[ 10167 10162 10161 10158 ] final   51.35 input  -65.29 | X-H torsion
[ 10718 10713 10712 10709 ] final -151.44 input   66.30 | X-H torsion
[ 10763 10752 10751 10750 ] final   46.43 input  -60.55 | X-H torsion
[ 11005 11000 10999 10996 ] final   96.91 input  -57.11 | X-H torsion

> <Gold.Protein.ActiveResidues>
 VAL166  LYS551  ARG553  GLY616  TRP617  ASP618  TYR619  PRO620  LYS621  CYS622 
 ASP623  PHE694  ASN695  SER759  ASP760  ASP761  ALA762  ILE779  LEU786  VAL792 
 PHE793  MET794  SER795  GLU796  ALA797  LYS798  CYS799  TRP800  GLU811  SER814 

> <Gold.Protein.RotatedAtoms>
  151.6535  135.0998  160.0165 H   0  0  0  0  0  0  0  0  0  0  0  0  # atno 6907 bound_to 6896
  152.3987  133.6781  159.6306 H   0  0  0  0  0  0  0  0  0  0  0  0  # atno 6908 bound_to 6896
  150.7890  133.8746  159.3309 H   0  0  0  0  0  0  0  0  0  0  0  0  # atno 6909 bound_to 6896
  144.8162  140.5460  143.5609 H   0  0  0  0  0  0  0  0  0  0  0  0  # atno 7974 bound_to 7965
  154.8772  140.0420  157.1760 H   0  0  0  0  0  0  0  0  0  0  0  0  # atno 8008 bound_to 7997
  154.8677  140.2953  155.5479 H   0  0  0  0  0  0  0  0  0  0  0  0  # atno 8009 bound_to 7997
  156.2999  140.2435  156.3661 H   0  0  0  0  0  0  0  0  0  0  0  0  # atno 8010 bound_to 7997
  140.2628  144.3353  150.6313 H   0  0  0  0  0  0  0  0  0  0  0  0  # atno 10167 bound_to 10162
  156.4593  130.8205  151.2436 H   0  0  0  0  0  0  0  0  0  0  0  0  # atno 10718 bound_to 10713
  152.9811  135.6008  154.3598 H   0  0  0  0  0  0  0  0  0  0  0  0  # atno 10763 bound_to 10752
  154.3281  135.2769  155.2487 H   0  0  0  0  0  0  0  0  0  0  0  0  # atno 10764 bound_to 10752
  154.4624  135.5962  153.6320 H   0  0  0  0  0  0  0  0  0  0  0  0  # atno 10765 bound_to 10752
  139.8779  134.8975  156.4229 H   0  0  0  0  0  0  0  0  0  0  0  0  # atno 11005 bound_to 11000
  145.5210  139.1476  143.3552 LP  0  0  0  0  0  0  0  0  0  0  0  0  # atno 17320 bound_to 7965
  146.2465  140.5350  142.8911 LP  0  0  0  0  0  0  0  0  0  0  0  0  # atno 17321 bound_to 7965
  140.5952  143.2167  151.7178 LP  0  0  0  0  0  0  0  0  0  0  0  0  # atno 17342 bound_to 10162
  139.5011  144.3878  152.0310 LP  0  0  0  0  0  0  0  0  0  0  0  0  # atno 17343 bound_to 10162
  157.7499  131.0112  150.3337 LP  0  0  0  0  0  0  0  0  0  0  0  0  # atno 17370 bound_to 10713
  156.3734  130.3867  149.7158 LP  0  0  0  0  0  0  0  0  0  0  0  0  # atno 17371 bound_to 10713
  140.9121  133.7704  155.9804 LP  0  0  0  0  0  0  0  0  0  0  0  0  # atno 17394 bound_to 11000
  140.8535  134.2926  157.5265 LP  0  0  0  0  0  0  0  0  0  0  0  0  # atno 17395 bound_to 11000

$$$$
