AV-unprocessed.smi:2274|AV-procd|sdf|9168|dock2
  -GOLD-   2272012383D 1   1.00000     0.00000
 Structure written by MMmdl.
 47 48  0  0  0  0  0  0  0  0  1 V2000
  151.6210  140.2530  157.4268 C   0  0  0  0  0  0  0  0  0  0  0  0
  151.5180  141.1223  156.1680 C   0  0  0  0  0  0  0  0  0  0  0  0
  150.3943  140.7275  155.3366 N   0  0  0  0  0  0  0  0  0  0  0  0
  149.3940  141.6161  155.1246 N   0  0  0  0  0  0  0  0  0  0  0  0
  148.5211  140.9937  154.3464 C   0  0  0  0  0  0  0  0  0  0  0  0
  147.2442  141.6981  153.9805 C   0  0  0  0  0  0  0  0  0  0  0  0
  148.9914  139.6863  154.0205 C   0  0  0  0  0  0  0  0  0  0  0  0
  148.3621  138.6790  153.2476 N   0  0  0  0  0  0  0  0  0  0  0  0
  147.0433  138.4565  153.1419 C   0  0  0  0  0  0  0  0  0  0  0  0
  146.1700  139.1315  153.6867 O   0  0  0  0  0  0  0  0  0  0  0  0
  146.7851  137.4102  152.3449 N   0  0  0  0  0  0  0  0  0  0  0  0
  145.4527  136.9095  152.0279 C   0  0  0  0  0  0  0  0  0  0  0  0
  145.4703  135.9974  150.7885 C   0  0  0  0  0  0  0  0  0  0  0  0
  145.1475  134.5320  151.1196 C   0  0  2  0  0  0  0  0  0  0  0  0
  146.4188  133.6618  151.1739 C   0  0  0  0  0  0  0  0  0  0  0  0
  146.0583  132.1929  151.4229 C   0  0  0  0  0  0  0  0  0  0  0  0
  145.0251  131.7325  150.3895 C   0  0  0  0  0  0  0  0  0  0  0  0
  143.8273  132.6947  150.3675 C   0  0  0  0  0  0  0  0  0  0  0  0
  144.2761  134.0222  150.1117 O   0  0  0  0  0  0  0  0  0  0  0  0
  150.1716  139.5257  154.6869 C   0  0  0  0  0  0  0  0  0  0  0  0
  151.1145  138.3678  154.7649 C   0  0  0  0  0  0  0  0  0  0  0  0
  152.4686  140.5581  158.0403 H   0  0  0  0  0  0  0  0  0  0  0  0
  151.7578  139.2021  157.1694 H   0  0  0  0  0  0  0  0  0  0  0  0
  150.7211  140.3348  158.0372 H   0  0  0  0  0  0  0  0  0  0  0  0
  151.4084  142.1723  156.4408 H   0  0  0  0  0  0  0  0  0  0  0  0
  152.4351  141.0469  155.5818 H   0  0  0  0  0  0  0  0  0  0  0  0
  146.4178  140.9937  153.8848 H   0  0  0  0  0  0  0  0  0  0  0  0
  147.3473  142.2280  153.0334 H   0  0  0  0  0  0  0  0  0  0  0  0
  146.9606  142.4292  154.7385 H   0  0  0  0  0  0  0  0  0  0  0  0
  148.9663  138.1359  152.6488 H   0  0  0  0  0  0  0  0  0  0  0  0
  147.5654  136.9191  151.9335 H   0  0  0  0  0  0  0  0  0  0  0  0
  145.0373  136.3811  152.8877 H   0  0  0  0  0  0  0  0  0  0  0  0
  144.8063  137.7694  151.8508 H   0  0  0  0  0  0  0  0  0  0  0  0
  144.7628  136.3690  150.0460 H   0  0  0  0  0  0  0  0  0  0  0  0
  146.4557  136.0454  150.3228 H   0  0  0  0  0  0  0  0  0  0  0  0
  144.6424  134.4925  152.0865 H   0  0  0  0  0  0  0  0  0  0  0  0
  146.9650  133.7480  150.2336 H   0  0  0  0  0  0  0  0  0  0  0  0
  147.0881  134.0177  151.9578 H   0  0  0  0  0  0  0  0  0  0  0  0
  146.9505  131.5680  151.3740 H   0  0  0  0  0  0  0  0  0  0  0  0
  145.6493  132.0799  152.4276 H   0  0  0  0  0  0  0  0  0  0  0  0
  145.4842  131.7008  149.4008 H   0  0  0  0  0  0  0  0  0  0  0  0
  144.6926  130.7184  150.6134 H   0  0  0  0  0  0  0  0  0  0  0  0
  143.1272  132.4033  149.5844 H   0  0  0  0  0  0  0  0  0  0  0  0
  143.2815  132.6592  151.3118 H   0  0  0  0  0  0  0  0  0  0  0  0
  150.8254  137.5760  154.0741 H   0  0  0  0  0  0  0  0  0  0  0  0
  151.1274  137.9476  155.7707 H   0  0  0  0  0  0  0  0  0  0  0  0
  152.1295  138.6751  154.5124 H   0  0  0  0  0  0  0  0  0  0  0  0
  1  2  1  0  0  0  0
  1 22  1  0  0  0  0
  1 23  1  0  0  0  0
  1 24  1  0  0  0  0
  2  3  1  0  0  0  0
  2 25  1  0  0  0  0
  2 26  1  0  0  0  0
  3 20  1  0  0  0  0
  3  4  1  0  0  0  0
  4  5  2  0  0  0  0
  5  6  1  0  0  0  0
  5  7  1  0  0  0  0
  6 27  1  0  0  0  0
  6 28  1  0  0  0  0
  6 29  1  0  0  0  0
  7  8  1  0  0  0  0
  7 20  2  0  0  0  0
  8  9  1  0  0  0  0
  8 30  1  0  0  0  0
  9 10  2  0  0  0  0
  9 11  1  0  0  0  0
 11 12  1  0  0  0  0
 11 31  1  0  0  0  0
 12 13  1  0  0  0  0
 12 32  1  0  0  0  0
 12 33  1  0  0  0  0
 13 14  1  0  0  0  0
 13 34  1  0  0  0  0
 13 35  1  0  0  0  0
 14 19  1  0  0  0  0
 14 15  1  0  0  0  0
 14 36  1  0  0  0  0
 15 16  1  0  0  0  0
 15 37  1  0  0  0  0
 15 38  1  0  0  0  0
 16 17  1  0  0  0  0
 16 39  1  0  0  0  0
 16 40  1  0  0  0  0
 17 18  1  0  0  0  0
 17 41  1  0  0  0  0
 17 42  1  0  0  0  0
 18 19  1  0  0  0  0
 18 43  1  0  0  0  0
 18 44  1  0  0  0  0
 20 21  1  0  0  0  0
 21 45  1  0  0  0  0
 21 46  1  0  0  0  0
 21 47  1  0  0  0  0
M  END
> <s_m_source_file>
AV-unprocessed.smi

> <i_m_source_file_index>
2274

> <i_lp_mmshare_version>
43012

> <i_f3d_flags>
0

> <s_epik_input>
W0NIM11bQ0gyXW4xbmMoW0NIM10pYyhjMVtDSDNdKVtOSF1DKD1PKVtOSF1bQ0gyXVtDSDJdW0NAQEhdMltDSDJdW0NIMl1bQ0gyXVtDSDJdTzI=

> <s_epik_cmdline>
J2VwaWtfcHl0aG9uJywgJy1waCcsICc3LjAnLCAnLXRuJywgJzgnLCAnLW1hJywgJzIwMCcsICctbWV0YWxfYmluZGluZycsICctaW1hZScsICc8aW5maWxlLm1hZT4nLCAnLW9tYWUnLCAnPG91dGZpbGUubWFlPic=

> <r_lp_tautomer_probability>
1

> <r_epik_Ionization_Penalty>
0.00368263

> <r_epik_Ionization_Penalty_Charging>
0

> <r_epik_Ionization_Penalty_Neutral>
0.00368263

> <r_epik_State_Penalty>
0.00259417

> <r_epik_Charging_Adjusted_Penalty>
0.00259417

> <i_epik_Tot_Q>
0

> <i_epik_Tot_abs_Q>
0

> <r_epik_Metal_State_Penalty>
-0

> <b_epik_Metal_Only>
0

> <s_lp_Force_Field>
OPLS_2005

> <r_lp_Energy>
11.6854

> <b_lp_Chiralities_Consistent>
1

> <s_lp_Variant>
AV-unprocessed.smi:2274-1

> <Gold.Version>
5.8.1

> <Gold.Id.Protein>
6NUR|6NUR_protein|mol2

> <Gold.PLP.Fitness>
45.6671

> <Gold.PLP.PLP>
-42.4909

> <Gold.PLP.part.hbond>
-2.9125

> <Gold.PLP.part.metal>
0.0000

> <Gold.PLP.part.buried>
-4.0678

> <Gold.PLP.part.nonpolar>
-36.7471

> <Gold.PLP.part.repulsive>
1.0194

> <Gold.PLP.ligand.clash>
0.0000

> <Gold.PLP.ligand.torsion>
1.3119

> <Gold.PLP.Chemscore.Hbond>
1.7680

> <Gold.PLP.Chemscore.CHOScore>
0.0000

> <Gold.PLP.Chemscore.Metal>
0.0000

> <Gold.Chemscore.Hbonds>
donor molecule, donor type, donor heavy atom, donor atom, acceptor molecule, acceptor atom, score
      L1  H     8    30       P1  7948  0.75
      L1  H    11    31       P1  7948  0.99

> <Gold.PLP.Chemscore.Internal.Correction>
0.4961

> <Gold.Rescore>
     Score         DG    S(hbond)    S(metal)    S(lipo)     H(rot)  DE(clash)    DE(int)     intcor
     16.34     -18.90       1.91        0.00      92.19       1.46       0.19       2.36       ----

> <Gold.Chemscore.Fitness>
16.3413

> <Gold.Chemscore.DG>
-18.8956

> <Gold.Chemscore.ZeroCoef>
-5.4800

> <Gold.Chemscore.Hbond>
1.9067

> <Gold.Chemscore.Metal>
0.0000

> <Gold.Chemscore.Lipo>
92.1922

> <Gold.Chemscore.Internal_Hbond>
0.0000

> <Gold.Chemscore.DEClash>
0.1917

> <Gold.Chemscore.DEInternal>
2.3627

> <Gold.Chemscore.Rot>
1.4606

> <Gold.Chemscore.Internal.Correction>
   9.000000E+99

> <Gold.Chemscore.Hbonds>
donor molecule, donor type, donor heavy atom, donor atom, acceptor molecule, acceptor atom, score
      L1  H     8    30       P1  7948  0.71
      L1  H    11    31       P1  7948  0.92

> <Gold.Chemscore.Hbond.Weighted>
-6.3684

> <Gold.Chemscore.Metal.Weighted>
-0.0000

> <Gold.Chemscore.Lipo.Weighted>
-10.7865

> <Gold.Chemscore.Internal_Hbond.Weighted>
0.0000

> <Gold.Chemscore.DEClash.Weighted>
0.1917

> <Gold.Chemscore.DEInternal.Weighted>
2.3627

> <Gold.Chemscore.Rot.Weighted>
3.7393

> <Gold.Chemscore.Internal.Correction.Weighted>
   9.000000E+99

> <Gold.Protein.RotatedTorsions>
[ 6907 6896 6895 6894 ] final   85.87 input  -60.11 | X-H torsion
[ 7974 7965 7964 7962 ] final  -86.18 input  175.53 | X-H torsion
[ 8008 7997 7996 7995 ] final  -50.40 input   59.86 | X-H torsion
[ 10167 10162 10161 10158 ] final  -39.57 input  -65.29 | X-H torsion
[ 10718 10713 10712 10709 ] final -171.40 input   66.30 | X-H torsion
[ 10763 10752 10751 10750 ] final  112.83 input  -60.55 | X-H torsion
[ 11005 11000 10999 10996 ] final  172.65 input  -57.11 | X-H torsion

> <Gold.Protein.ActiveResidues>
 VAL166  LYS551  ARG553  GLY616  TRP617  ASP618  TYR619  PRO620  LYS621  CYS622 
 ASP623  PHE694  ASN695  SER759  ASP760  ASP761  ALA762  ILE779  LEU786  VAL792 
 PHE793  MET794  SER795  GLU796  ALA797  LYS798  CYS799  TRP800  GLU811  SER814 

> <Gold.Protein.RotatedAtoms>
  152.5383  134.2520  159.8901 H   0  0  0  0  0  0  0  0  0  0  0  0  # atno 6907 bound_to 6896
  151.2483  133.4357  159.2618 H   0  0  0  0  0  0  0  0  0  0  0  0  # atno 6908 bound_to 6896
  151.0563  134.9721  159.8294 H   0  0  0  0  0  0  0  0  0  0  0  0  # atno 6909 bound_to 6896
  145.4833  140.9556  143.1852 H   0  0  0  0  0  0  0  0  0  0  0  0  # atno 7974 bound_to 7965
  154.4061  140.1273  156.4660 H   0  0  0  0  0  0  0  0  0  0  0  0  # atno 8008 bound_to 7997
  155.7227  140.3492  155.5003 H   0  0  0  0  0  0  0  0  0  0  0  0  # atno 8009 bound_to 7997
  155.9200  140.1051  157.1204 H   0  0  0  0  0  0  0  0  0  0  0  0  # atno 8010 bound_to 7997
  140.7060  143.3206  151.2801 H   0  0  0  0  0  0  0  0  0  0  0  0  # atno 10167 bound_to 10162
  156.7404  130.9340  151.3110 H   0  0  0  0  0  0  0  0  0  0  0  0  # atno 10718 bound_to 10713
  153.4836  135.3674  155.2455 H   0  0  0  0  0  0  0  0  0  0  0  0  # atno 10763 bound_to 10752
  154.8754  135.3960  154.3671 H   0  0  0  0  0  0  0  0  0  0  0  0  # atno 10764 bound_to 10752
  153.4278  135.7081  153.6316 H   0  0  0  0  0  0  0  0  0  0  0  0  # atno 10765 bound_to 10752
  140.3320  134.7349  157.4141 H   0  0  0  0  0  0  0  0  0  0  0  0  # atno 11005 bound_to 11000
  144.7876  139.6394  143.7127 LP  0  0  0  0  0  0  0  0  0  0  0  0  # atno 17320 bound_to 7965
  146.2328  139.5846  142.9544 LP  0  0  0  0  0  0  0  0  0  0  0  0  # atno 17321 bound_to 7965
  139.6659  144.0106  152.2722 LP  0  0  0  0  0  0  0  0  0  0  0  0  # atno 17342 bound_to 10162
  139.9689  144.6507  150.8008 LP  0  0  0  0  0  0  0  0  0  0  0  0  # atno 17343 bound_to 10162
  157.6821  130.9150  150.0293 LP  0  0  0  0  0  0  0  0  0  0  0  0  # atno 17370 bound_to 10713
  156.1468  130.3642  149.9497 LP  0  0  0  0  0  0  0  0  0  0  0  0  # atno 17371 bound_to 10713
  140.0853  134.5675  155.8499 LP  0  0  0  0  0  0  0  0  0  0  0  0  # atno 17394 bound_to 11000
  141.2061  133.6652  156.6220 LP  0  0  0  0  0  0  0  0  0  0  0  0  # atno 17395 bound_to 11000

$$$$
