#       Name:                AV-unprocessed.smi:965
#       Creating user name   scv26
#       Creation time:       Fri Mar 27 02:18:58 2020


#       File generated by GOLD software.
#

@<TRIPOS>MOLECULE
AV-unprocessed.smi:965
    33    34     1
SMALL
NO_CHARGES


@<TRIPOS>ATOM
      1 ****        -4.1753   1.8949  -0.9320 C.3            1 S1                 0.0000
      2 ****        -3.6482   0.5639  -1.4780 C.3            1 S1                 0.0000
      3 ****        -2.1579   0.4915  -1.4680 C.2            1 S1                 0.0000
      4 ****        -1.3826   0.0204  -0.4944 N.2            1 S1                 0.0000
      5 ****        -0.1428   0.2638  -1.0045 C.2            1 S1                 0.0000
      6 ****         1.1205  -0.0926  -0.2828 C.3            1 S1                 0.0000
      7 ****         1.2716   0.6809   1.0409 C.3            1 S1                 0.0000
      8 ****         2.5724   0.2772   1.7521 C.3            1 S1                 0.0000
      9 ****         2.6486  -1.2479   1.9356 C.3            1 S1                 0.0000
     10 ****         2.5174  -1.9391   0.6342 N.4            1 S1                 1.0000
     11 ****         1.2572  -1.6139  -0.0701 C.3            1 S1                 0.0000
     12 ****        -0.1130   0.8477  -2.1965 N.2            1 S1                 0.0000
     13 ****        -1.4693   1.0165  -2.5097 O.3            1 S1                 0.0000
     14 ****        -5.2648   1.9202  -0.9541 H              1 S1                 0.0000
     15 ****        -3.8102   2.7347  -1.5240 H              1 S1                 0.0000
     16 ****        -3.8590   2.0490   0.1001 H              1 S1                 0.0000
     17 ****        -4.0441  -0.2632  -0.8878 H              1 S1                 0.0000
     18 ****        -3.9992   0.4161  -2.4998 H              1 S1                 0.0000
     19 ****         1.9519   0.2124  -0.9218 H              1 S1                 0.0000
     20 ****         1.2656   1.7557   0.8551 H              1 S1                 0.0000
     21 ****         0.4230   0.4719   1.6939 H              1 S1                 0.0000
     22 ****         3.4297   0.6201   1.1711 H              1 S1                 0.0000
     23 ****         2.6372   0.7736   2.7207 H              1 S1                 0.0000
     24 ****         3.5983  -1.5269   2.3928 H              1 S1                 0.0000
     25 ****         1.8590  -1.5902   2.6059 H              1 S1                 0.0000
     26 ****         3.2934  -1.6674   0.0475 H              1 S1                 0.0000
     27 ****         0.4187  -1.9967   0.5136 H              1 S1                 0.0000
     28 ****         1.2441  -2.1353  -1.0277 H              1 S1                 0.0000
     29 ****         2.5587  -2.9368   0.7868 H              1 S1                 0.0000
     30 ****        -1.6403  -0.3989   0.3762 LP             1 S1                 0.0000
     31 ****         0.6854   1.1054  -2.7406 LP             1 S1                 0.0000
     32 ****        -1.6840   1.9875  -2.6148 LP             1 S1                 0.0000
     33 ****        -1.6942   0.5320  -3.3551 LP             1 S1                 0.0000
@<TRIPOS>BOND
    1    1    2 1     
    2    1   14 1     
    3    1   15 1     
    4    1   16 1     
    5    2    3 1     
    6    2   17 1     
    7    2   18 1     
    8    3   13 1     
    9    3    4 2     
   10    4    5 1     
   11    5    6 1     
   12    5   12 2     
   13    6   11 1     
   14    6    7 1     
   15    6   19 1     
   16    7    8 1     
   17    7   20 1     
   18    7   21 1     
   19    8    9 1     
   20    8   22 1     
   21    8   23 1     
   22    9   10 1     
   23    9   24 1     
   24    9   25 1     
   25   10   11 1     
   26   10   26 1     
   27   10   29 1     
   28   11   27 1     
   29   11   28 1     
   30   12   13 1     
   31    4   30 1     
   32   12   31 1     
   33   13   32 1     
   34   13   33 1     
@<TRIPOS>SUBSTRUCTURE
      1 S1             1
@<TRIPOS>SET
LONE_PAIRS      STATIC     ATOMS    <user>   **** ""
4 30 31 32 33
DONOR_HYDROGENS      STATIC     ATOMS    <user>   **** ""
2 26 29
ATOM$BLUE        STATIC     ATOMS    COLORGROUP SYSTEM
4 30 31 32 33
ATOM$RED        STATIC     ATOMS    COLORGROUP SYSTEM
2 26 29
