#       Name:                AV-unprocessed.smi:1703
#       Creating user name   scv26
#       Creation time:       Fri Mar 27 08:04:50 2020


#       File generated by GOLD software.
#

@<TRIPOS>MOLECULE
AV-unprocessed.smi:1703
    56    58     1
SMALL
NO_CHARGES


@<TRIPOS>ATOM
      1 ****        -4.3558   1.8080  -0.9918 C.3            1 S1                 0.0000
      2 ****        -2.9086   1.4592  -0.6284 C.3            1 S1                 0.0000
      3 ****        -1.8988   2.0671  -1.6242 C.3            1 S1                 0.0000
      4 ****        -0.5013   1.7917  -1.2116 N.4            1 S1                 1.0000
      5 ****        -0.0560   0.4046  -1.5098 C.3            1 S1                 0.0000
      6 ****         1.4799   0.2963  -1.6487 C.3            1 S1                 0.0000
      7 ****         1.8670   0.8394  -2.8941 O.3            1 S1                 0.0000
      8 ****         2.0143  -1.1476  -1.5611 C.3            1 S1                 0.0000
      9 ****         1.6157  -1.8100  -0.3248 N.pl3          1 S1                 0.0000
     10 ****         0.7351  -2.8300  -0.1555 C.2            1 S1                 0.0000
     11 ****         0.0108  -3.4664  -1.3023 C.3            1 S1                 0.0000
     12 ****         0.8436  -4.3015  -2.0775 O.3            1 S1                 0.0000
     13 ****         0.5394  -3.2237   1.1029 N.2            1 S1                 0.0000
     14 ****         1.3780  -2.3914   1.8173 C.ar           1 S1                 0.0000
     15 ****         1.6210  -2.3058   3.2067 C.ar           1 S1                 0.0000
     16 ****         2.5341  -1.3587   3.7147 C.ar           1 S1                 0.0000
     17 ****         3.2172  -0.4869   2.8425 C.ar           1 S1                 0.0000
     18 ****         2.9886  -0.5547   1.4548 C.ar           1 S1                 0.0000
     19 ****         2.0729  -1.4991   0.9527 C.ar           1 S1                 0.0000
     20 ****        -0.2840   2.2231   0.1947 C.3            1 S1                 0.0000
     21 ****        -1.3450   1.6297   1.1472 C.3            1 S1                 0.0000
     22 ****        -1.1971   2.1656   2.5752 C.3            1 S1                 0.0000
     23 ****        -2.6423   1.9737   0.6724 O.3            1 S1                 0.0000
     24 ****        -4.6154   1.4261  -1.9794 H              1 S1                 0.0000
     25 ****        -4.5131   2.8871  -0.9981 H              1 S1                 0.0000
     26 ****        -5.0532   1.3742  -0.2747 H              1 S1                 0.0000
     27 ****        -2.8121   0.3723  -0.6124 H              1 S1                 0.0000
     28 ****        -2.0771   1.6997  -2.6357 H              1 S1                 0.0000
     29 ****        -2.0343   3.1488  -1.6651 H              1 S1                 0.0000
     30 ****        -0.4307  -0.2559  -0.7305 H              1 S1                 0.0000
     31 ****        -0.5141   0.0503  -2.4344 H              1 S1                 0.0000
     32 ****         1.9734   0.8836  -0.8768 H              1 S1                 0.0000
     33 ****         1.5247   0.2922  -3.5848 H              1 S1                 0.0000
     34 ****         1.6763  -1.7285  -2.4184 H              1 S1                 0.0000
     35 ****         3.1043  -1.1470  -1.6065 H              1 S1                 0.0000
     36 ****        -0.8186  -4.0626  -0.9199 H              1 S1                 0.0000
     37 ****        -0.4254  -2.6936  -1.9355 H              1 S1                 0.0000
     38 ****         0.3208  -4.7045  -2.7537 H              1 S1                 0.0000
     39 ****         1.1045  -2.9707   3.8832 H              1 S1                 0.0000
     40 ****         2.7135  -1.3031   4.7785 H              1 S1                 0.0000
     41 ****         3.9181   0.2329   3.2395 H              1 S1                 0.0000
     42 ****         3.5134   0.1111   0.7862 H              1 S1                 0.0000
     43 ****         0.7175   1.9684   0.5391 H              1 S1                 0.0000
     44 ****        -0.3441   3.3120   0.2224 H              1 S1                 0.0000
     45 ****        -1.2559   0.5434   1.1885 H              1 S1                 0.0000
     46 ****        -0.2200   1.9138   2.9885 H              1 S1                 0.0000
     47 ****        -1.9546   1.7378   3.2322 H              1 S1                 0.0000
     48 ****        -1.3043   3.2503   2.6048 H              1 S1                 0.0000
     49 ****         0.0798   2.3816  -1.7907 H              1 S1                 0.0000
     50 ****         2.8648   0.8691  -2.9522 LP             1 S1                 0.0000
     51 ****         1.5000   1.7651  -2.9856 LP             1 S1                 0.0000
     52 ****         1.2462  -5.0088  -1.4964 LP             1 S1                 0.0000
     53 ****         1.5721  -3.7578  -2.4940 LP             1 S1                 0.0000
     54 ****        -0.0650  -3.9434   1.4448 LP             1 S1                 0.0000
     55 ****        -3.3225   1.6061   1.3067 LP             1 S1                 0.0000
     56 ****        -2.7180   2.9704   0.6434 LP             1 S1                 0.0000
@<TRIPOS>BOND
    1    1    2 1     
    2    1   24 1     
    3    1   25 1     
    4    1   26 1     
    5    2   23 1     
    6    2    3 1     
    7    2   27 1     
    8    3    4 1     
    9    3   28 1     
   10    3   29 1     
   11    4    5 1     
   12    4   20 1     
   13    4   49 1     
   14    5    6 1     
   15    5   30 1     
   16    5   31 1     
   17    6    7 1     
   18    6    8 1     
   19    6   32 1     
   20    7   33 1     
   21    8    9 1     
   22    8   34 1     
   23    8   35 1     
   24    9   19 1     
   25    9   10 1     
   26   10   11 1     
   27   10   13 2     
   28   11   12 1     
   29   11   36 1     
   30   11   37 1     
   31   12   38 1     
   32   13   14 1     
   33   14   19 ar    
   34   14   15 ar    
   35   15   16 ar    
   36   15   39 1     
   37   16   17 ar    
   38   16   40 1     
   39   17   18 ar    
   40   17   41 1     
   41   18   19 ar    
   42   18   42 1     
   43   20   21 1     
   44   20   43 1     
   45   20   44 1     
   46   21   22 1     
   47   21   23 1     
   48   21   45 1     
   49   22   46 1     
   50   22   47 1     
   51   22   48 1     
   52    7   50 1     
   53    7   51 1     
   54   12   52 1     
   55   12   53 1     
   56   13   54 1     
   57   23   55 1     
   58   23   56 1     
@<TRIPOS>SUBSTRUCTURE
      1 S1             1
@<TRIPOS>SET
LONE_PAIRS      STATIC     ATOMS    <user>   **** ""
7 50 51 52 53 54 55 56
DONOR_HYDROGENS      STATIC     ATOMS    <user>   **** ""
3 49 33 38
ATOM$BLUE        STATIC     ATOMS    COLORGROUP SYSTEM
7 50 51 52 53 54 55 56
ATOM$RED        STATIC     ATOMS    COLORGROUP SYSTEM
3 49 33 38
