AV-unprocessed.smi:607|AV-procd|sdf|3043|dock2
  -GOLD-   2262023563D 1   1.00000     0.00000
 Structure written by MMmdl.
 42 43  0  0  0  0  0  0  0  0  1 V2000
  152.4815  140.4804  158.9840 C   0  0  0  0  0  0  0  0  0  0  0  0
  152.3077  141.7842  159.7097 C   0  0  0  0  0  0  0  0  0  0  0  0
  152.8347  141.9272  160.9133 N   0  0  0  0  0  0  0  0  0  0  0  0
  152.5142  143.1826  161.2815 N   0  0  0  0  0  0  0  0  0  0  0  0
  152.9454  143.6745  162.5757 C   0  0  0  0  0  0  0  0  0  0  0  0
  151.7858  143.8374  160.3074 C   0  0  0  0  0  0  0  0  0  0  0  0
  151.3248  145.2491  160.4922 C   0  0  0  0  0  0  0  0  0  0  0  0
  151.6277  142.9572  159.2654 C   0  0  0  0  0  0  0  0  0  0  0  0
  150.9214  143.1398  157.9364 C   0  0  1  0  0  0  0  0  0  0  0  0
  151.9184  143.1994  156.7636 C   0  0  0  0  0  0  0  0  0  0  0  0
  149.8431  142.0570  157.7653 C   0  0  0  0  0  0  0  0  0  0  0  0
  149.7999  141.0828  158.5168 O   0  0  0  0  0  0  0  0  0  0  0  0
  148.9693  142.2490  156.7627 N   0  0  0  0  0  0  0  0  0  0  0  0
  147.8151  141.4099  156.4340 C   0  0  0  0  0  0  0  0  0  0  0  0
  147.0298  141.1004  157.6440 C   0  0  0  0  0  0  0  0  0  0  0  0
  146.4150  140.8576  158.5938 N   0  0  0  0  0  0  0  0  0  0  0  0
  146.9542  142.1463  155.3969 C   0  0  0  0  0  0  0  0  0  0  0  0
  147.5441  141.8087  154.0207 C   0  0  0  0  0  0  0  0  0  0  0  0
  148.4392  140.5790  154.2206 C   0  0  0  0  0  0  0  0  0  0  0  0
  148.2403  140.1417  155.6744 C   0  0  0  0  0  0  0  0  0  0  0  0
  153.1274  140.6038  158.1145 H   0  0  0  0  0  0  0  0  0  0  0  0
  151.5226  140.0977  158.6350 H   0  0  0  0  0  0  0  0  0  0  0  0
  152.9274  139.7169  159.6227 H   0  0  0  0  0  0  0  0  0  0  0  0
  153.6172  144.5225  162.4400 H   0  0  0  0  0  0  0  0  0  0  0  0
  153.4700  142.8949  163.1302 H   0  0  0  0  0  0  0  0  0  0  0  0
  152.0781  143.9946  163.1537 H   0  0  0  0  0  0  0  0  0  0  0  0
  150.9359  145.6712  159.5666 H   0  0  0  0  0  0  0  0  0  0  0  0
  152.1457  145.8872  160.8203 H   0  0  0  0  0  0  0  0  0  0  0  0
  150.5347  145.3011  161.2414 H   0  0  0  0  0  0  0  0  0  0  0  0
  150.3841  144.0887  157.9319 H   0  0  0  0  0  0  0  0  0  0  0  0
  152.5083  142.2868  156.6789 H   0  0  0  0  0  0  0  0  0  0  0  0
  152.6143  144.0290  156.8912 H   0  0  0  0  0  0  0  0  0  0  0  0
  151.4045  143.3510  155.8135 H   0  0  0  0  0  0  0  0  0  0  0  0
  149.0898  143.0787  156.2000 H   0  0  0  0  0  0  0  0  0  0  0  0
  145.9320  141.7667  155.4403 H   0  0  0  0  0  0  0  0  0  0  0  0
  146.8989  143.2213  155.5742 H   0  0  0  0  0  0  0  0  0  0  0  0
  146.7529  141.6165  153.2953 H   0  0  0  0  0  0  0  0  0  0  0  0
  148.1362  142.6430  153.6430 H   0  0  0  0  0  0  0  0  0  0  0  0
  148.2030  139.7773  153.5202 H   0  0  0  0  0  0  0  0  0  0  0  0
  149.4817  140.8561  154.0599 H   0  0  0  0  0  0  0  0  0  0  0  0
  149.1249  139.6558  156.0868 H   0  0  0  0  0  0  0  0  0  0  0  0
  147.4310  139.4111  155.7140 H   0  0  0  0  0  0  0  0  0  0  0  0
  1  2  1  0  0  0  0
  1 21  1  0  0  0  0
  1 22  1  0  0  0  0
  1 23  1  0  0  0  0
  2  8  1  0  0  0  0
  2  3  2  0  0  0  0
  3  4  1  0  0  0  0
  4  5  1  0  0  0  0
  4  6  1  0  0  0  0
  5 24  1  0  0  0  0
  5 25  1  0  0  0  0
  5 26  1  0  0  0  0
  6  7  1  0  0  0  0
  6  8  2  0  0  0  0
  7 27  1  0  0  0  0
  7 28  1  0  0  0  0
  7 29  1  0  0  0  0
  8  9  1  0  0  0  0
  9 10  1  0  0  0  0
  9 11  1  0  0  0  0
  9 30  1  0  0  0  0
 10 31  1  0  0  0  0
 10 32  1  0  0  0  0
 10 33  1  0  0  0  0
 11 12  2  0  0  0  0
 11 13  1  0  0  0  0
 13 14  1  0  0  0  0
 13 34  1  0  0  0  0
 14 20  1  0  0  0  0
 14 15  1  0  0  0  0
 14 17  1  0  0  0  0
 15 16  3  0  0  0  0
 17 18  1  0  0  0  0
 17 35  1  0  0  0  0
 17 36  1  0  0  0  0
 18 19  1  0  0  0  0
 18 37  1  0  0  0  0
 18 38  1  0  0  0  0
 19 20  1  0  0  0  0
 19 39  1  0  0  0  0
 19 40  1  0  0  0  0
 20 41  1  0  0  0  0
 20 42  1  0  0  0  0
M  END
> <s_m_source_file>
AV-unprocessed.smi

> <i_m_source_file_index>
607

> <i_lp_mmshare_version>
43012

> <i_f3d_flags>
0

> <s_epik_input>
W0NIM11jMW5uKFtDSDNdKWMoW0NIM10pYzFbQ0BIXShbQ0gzXSlDKD1PKVtOSF1DMihDI04pW0NIMl1bQ0gyXVtDSDJdW0NIMl0y

> <s_epik_cmdline>
J2VwaWtfcHl0aG9uJywgJy1waCcsICc3LjAnLCAnLXRuJywgJzgnLCAnLW1hJywgJzIwMCcsICctbWV0YWxfYmluZGluZycsICctaW1hZScsICc8aW5maWxlLm1hZT4nLCAnLW9tYWUnLCAnPG91dGZpbGUubWFlPic=

> <r_lp_tautomer_probability>
1

> <r_epik_Ionization_Penalty>
0.00342632

> <r_epik_Ionization_Penalty_Charging>
0

> <r_epik_Ionization_Penalty_Neutral>
0.00342632

> <r_epik_State_Penalty>
0.00242724

> <r_epik_Charging_Adjusted_Penalty>
0.00242724

> <i_epik_Tot_Q>
0

> <i_epik_Tot_abs_Q>
0

> <r_epik_Metal_State_Penalty>
-0

> <b_epik_Metal_Only>
0

> <s_lp_Force_Field>
OPLS_2005

> <r_lp_Energy>
13.7926

> <b_lp_Chiralities_Consistent>
1

> <s_lp_Variant>
AV-unprocessed.smi:607-2

> <Gold.Version>
5.8.1

> <Gold.Id.Protein>
6NUR|6NUR_protein|mol2

> <Gold.PLP.Fitness>
38.1458

> <Gold.PLP.PLP>
-35.0288

> <Gold.PLP.part.hbond>
-2.0887

> <Gold.PLP.part.metal>
0.0000

> <Gold.PLP.part.buried>
-5.4071

> <Gold.PLP.part.nonpolar>
-28.4290

> <Gold.PLP.part.repulsive>
0.0279

> <Gold.PLP.ligand.clash>
0.0000

> <Gold.PLP.ligand.torsion>
0.5392

> <Gold.PLP.Chemscore.Hbond>
1.3580

> <Gold.PLP.Chemscore.CHOScore>
0.0000

> <Gold.PLP.Chemscore.Metal>
0.0000

> <Gold.Chemscore.Hbonds>
donor molecule, donor type, donor heavy atom, donor atom, acceptor molecule, acceptor atom, score
      L1  H    13    34       P1  8028  1.00
      P1  H  6934  6946       L1    16  0.25

> <Gold.PLP.Chemscore.Internal.Correction>
0.1213

> <Gold.Rescore>
     Score         DG    S(hbond)    S(metal)    S(lipo)     H(rot)  DE(clash)    DE(int)     intcor
     14.66     -18.50       1.34        0.00     103.00       1.37       1.75       2.09       ----

> <Gold.Chemscore.Fitness>
14.6584

> <Gold.Chemscore.DG>
-18.4971

> <Gold.Chemscore.ZeroCoef>
-5.4800

> <Gold.Chemscore.Hbond>
1.3408

> <Gold.Chemscore.Metal>
0.0000

> <Gold.Chemscore.Lipo>
103.0005

> <Gold.Chemscore.Internal_Hbond>
0.0000

> <Gold.Chemscore.DEClash>
1.7496

> <Gold.Chemscore.DEInternal>
2.0892

> <Gold.Chemscore.Rot>
1.3720

> <Gold.Chemscore.Internal.Correction>
   9.000000E+99

> <Gold.Chemscore.Hbonds>
donor molecule, donor type, donor heavy atom, donor atom, acceptor molecule, acceptor atom, score
      L1  H    13    34       P1  8028  0.99
      P1  H  6934  6946       L1    16  0.25

> <Gold.Chemscore.Hbond.Weighted>
-4.4783

> <Gold.Chemscore.Metal.Weighted>
-0.0000

> <Gold.Chemscore.Lipo.Weighted>
-12.0511

> <Gold.Chemscore.Internal_Hbond.Weighted>
0.0000

> <Gold.Chemscore.DEClash.Weighted>
1.7496

> <Gold.Chemscore.DEInternal.Weighted>
2.0892

> <Gold.Chemscore.Rot.Weighted>
3.5123

> <Gold.Chemscore.Internal.Correction.Weighted>
   9.000000E+99

> <Gold.Protein.RotatedTorsions>
[ 6907 6896 6895 6894 ] final -110.88 input  -60.11 | X-H torsion
[ 7974 7965 7964 7962 ] final  171.09 input  175.53 | X-H torsion
[ 8008 7997 7996 7995 ] final   98.92 input   59.86 | X-H torsion
[ 10167 10162 10161 10158 ] final  -83.24 input  -65.29 | X-H torsion
[ 10718 10713 10712 10709 ] final  -11.84 input   66.30 | X-H torsion
[ 10763 10752 10751 10750 ] final  121.34 input  -60.55 | X-H torsion
[ 11005 11000 10999 10996 ] final   96.69 input  -57.11 | X-H torsion

> <Gold.Protein.ActiveResidues>
 VAL166  LYS551  ARG553  GLY616  TRP617  ASP618  TYR619  PRO620  LYS621  CYS622 
 ASP623  PHE694  ASN695  SER759  ASP760  ASP761  ALA762  ILE779  LEU786  VAL792 
 PHE793  MET794  SER795  GLU796  ALA797  LYS798  CYS799  TRP800  GLU811  SER814 

> <Gold.Protein.RotatedAtoms>
  150.7653  133.9317  159.3428 H   0  0  0  0  0  0  0  0  0  0  0  0  # atno 6907 bound_to 6896
  151.7216  135.0891  160.0294 H   0  0  0  0  0  0  0  0  0  0  0  0  # atno 6908 bound_to 6896
  152.3646  133.6303  159.6076 H   0  0  0  0  0  0  0  0  0  0  0  0  # atno 6909 bound_to 6896
  144.7304  139.9299  143.6424 H   0  0  0  0  0  0  0  0  0  0  0  0  # atno 7974 bound_to 7965
  156.1053  140.3236  155.7997 H   0  0  0  0  0  0  0  0  0  0  0  0  # atno 8008 bound_to 7997
  155.4767  140.0551  157.2990 H   0  0  0  0  0  0  0  0  0  0  0  0  # atno 8009 bound_to 7997
  154.4723  140.2017  155.9978 H   0  0  0  0  0  0  0  0  0  0  0  0  # atno 8010 bound_to 7997
  140.4245  143.2572  151.8845 H   0  0  0  0  0  0  0  0  0  0  0  0  # atno 10167 bound_to 10162
  156.6533  130.4961  149.6055 H   0  0  0  0  0  0  0  0  0  0  0  0  # atno 10718 bound_to 10713
  153.6125  135.3428  155.2983 H   0  0  0  0  0  0  0  0  0  0  0  0  # atno 10763 bound_to 10752
  154.8616  135.4253  154.2294 H   0  0  0  0  0  0  0  0  0  0  0  0  # atno 10764 bound_to 10752
  153.3148  135.7034  153.7155 H   0  0  0  0  0  0  0  0  0  0  0  0  # atno 10765 bound_to 10752
  139.8780  134.8963  156.4196 H   0  0  0  0  0  0  0  0  0  0  0  0  # atno 11005 bound_to 11000
  146.0865  139.3854  143.0432 LP  0  0  0  0  0  0  0  0  0  0  0  0  # atno 17320 bound_to 7965
  145.7769  140.9873  143.1119 LP  0  0  0  0  0  0  0  0  0  0  0  0  # atno 17321 bound_to 7965
  139.4783  144.5402  151.8540 LP  0  0  0  0  0  0  0  0  0  0  0  0  # atno 17342 bound_to 10162
  140.4497  144.1873  150.5896 LP  0  0  0  0  0  0  0  0  0  0  0  0  # atno 17343 bound_to 10162
  156.2067  130.6654  151.1226 LP  0  0  0  0  0  0  0  0  0  0  0  0  # atno 17370 bound_to 10713
  157.7134  131.0723  150.6418 LP  0  0  0  0  0  0  0  0  0  0  0  0  # atno 17371 bound_to 10713
  140.9143  133.7690  155.9829 LP  0  0  0  0  0  0  0  0  0  0  0  0  # atno 17394 bound_to 11000
  140.8512  134.2952  157.5274 LP  0  0  0  0  0  0  0  0  0  0  0  0  # atno 17395 bound_to 11000

$$$$
