AV-unprocessed.smi:1194|AV-procd|sdf|4993|dock4
  -GOLD-   22720 3593D 1   1.00000     0.00000
 Structure written by MMmdl.
 48 49  0  0  0  0  0  0  0  0  2 V2000
  151.4837  141.6970  158.8829 C   0  0  0  0  0  0  0  0  0  0  0  0
  151.3130  141.4528  157.3793 C   0  0  0  0  0  0  0  0  0  0  0  0
  149.8350  141.4757  156.9443 C   0  0  0  0  0  0  0  0  0  0  0  0
  149.5822  140.8811  155.5462 C   0  0  0  0  0  0  0  0  0  0  0  0
  150.5324  140.3841  154.9392 O   0  0  0  0  0  0  0  0  0  0  0  0
  148.3252  140.9060  155.0287 N   0  0  0  0  0  0  0  0  0  0  0  0
  147.1696  141.5441  155.6933 C   0  0  0  0  0  0  0  0  0  0  0  0
  146.7037  142.7573  154.8694 C   0  0  0  0  0  0  0  0  0  0  0  0
  146.3954  142.3549  153.4176 C   0  0  0  0  0  0  0  0  0  0  0  0
  147.5867  141.6038  152.7968 C   0  0  0  0  0  0  0  0  0  0  0  0
  148.0349  140.4013  153.6642 C   0  0  2  0  0  0  0  0  0  0  0  0
  147.0697  139.1961  153.6334 C   0  0  0  0  0  0  0  0  0  0  0  0
  146.5981  138.7493  154.6792 O   0  0  0  0  0  0  0  0  0  0  0  0
  146.7716  138.6799  152.4305 N   0  0  0  0  0  0  0  0  0  0  0  0
  145.8816  137.5491  152.2165 C   0  0  0  0  0  0  0  0  0  0  0  0
  146.4557  136.6047  151.1529 C   0  0  0  0  0  0  0  0  0  0  0  0
  145.6865  135.3003  151.0753 C   0  0  0  0  0  0  0  0  0  0  0  0
  146.3216  134.0740  151.3726 C   0  0  0  0  0  0  0  0  0  0  0  0
  145.5847  132.8744  151.2847 C   0  0  0  0  0  0  0  0  0  0  0  0
  144.2292  132.9283  150.9005 C   0  0  0  0  0  0  0  0  0  0  0  0
  143.6557  134.1200  150.6231 N   0  3  0  0  0  0  0  0  0  0  0  0
  144.3268  135.2905  150.6957 C   0  0  0  0  0  0  0  0  0  0  0  0
  152.5376  141.6818  159.1613 H   0  0  0  0  0  0  0  0  0  0  0  0
  150.9744  140.9298  159.4667 H   0  0  0  0  0  0  0  0  0  0  0  0
  151.0769  142.6660  159.1735 H   0  0  0  0  0  0  0  0  0  0  0  0
  151.8734  142.2121  156.8318 H   0  0  0  0  0  0  0  0  0  0  0  0
  151.7615  140.4913  157.1248 H   0  0  0  0  0  0  0  0  0  0  0  0
  149.2458  140.9174  157.6729 H   0  0  0  0  0  0  0  0  0  0  0  0
  149.4796  142.5070  156.9559 H   0  0  0  0  0  0  0  0  0  0  0  0
  146.3527  140.8273  155.7772 H   0  0  0  0  0  0  0  0  0  0  0  0
  147.3598  141.8638  156.7157 H   0  0  0  0  0  0  0  0  0  0  0  0
  145.8214  143.2051  155.3272 H   0  0  0  0  0  0  0  0  0  0  0  0
  147.4805  143.5230  154.8792 H   0  0  0  0  0  0  0  0  0  0  0  0
  145.5062  141.7238  153.3936 H   0  0  0  0  0  0  0  0  0  0  0  0
  146.1608  143.2395  152.8250 H   0  0  0  0  0  0  0  0  0  0  0  0
  147.3390  141.2833  151.7842 H   0  0  0  0  0  0  0  0  0  0  0  0
  148.4242  142.2948  152.6901 H   0  0  0  0  0  0  0  0  0  0  0  0
  148.9364  140.0157  153.1871 H   0  0  0  0  0  0  0  0  0  0  0  0
  147.1892  139.1030  151.6142 H   0  0  0  0  0  0  0  0  0  0  0  0
  145.7439  137.0168  153.1591 H   0  0  0  0  0  0  0  0  0  0  0  0
  144.9017  137.9141  151.9039 H   0  0  0  0  0  0  0  0  0  0  0  0
  146.4353  137.0866  150.1743 H   0  0  0  0  0  0  0  0  0  0  0  0
  147.5032  136.3894  151.3686 H   0  0  0  0  0  0  0  0  0  0  0  0
  147.3623  134.0513  151.6621 H   0  0  0  0  0  0  0  0  0  0  0  0
  146.0533  131.9269  151.5071 H   0  0  0  0  0  0  0  0  0  0  0  0
  143.5917  132.0611  150.8067 H   0  0  0  0  0  0  0  0  0  0  0  0
  143.7600  136.1761  150.4473 H   0  0  0  0  0  0  0  0  0  0  0  0
  142.6737  134.1364  150.3460 H   0  0  0  0  0  0  0  0  0  0  0  0
  1  2  1  0  0  0  0
  1 23  1  0  0  0  0
  1 24  1  0  0  0  0
  1 25  1  0  0  0  0
  2  3  1  0  0  0  0
  2 26  1  0  0  0  0
  2 27  1  0  0  0  0
  3  4  1  0  0  0  0
  3 28  1  0  0  0  0
  3 29  1  0  0  0  0
  4  5  2  0  0  0  0
  4  6  1  0  0  0  0
  6 11  1  0  0  0  0
  6  7  1  0  0  0  0
  7  8  1  0  0  0  0
  7 30  1  0  0  0  0
  7 31  1  0  0  0  0
  8  9  1  0  0  0  0
  8 32  1  0  0  0  0
  8 33  1  0  0  0  0
  9 10  1  0  0  0  0
  9 34  1  0  0  0  0
  9 35  1  0  0  0  0
 10 11  1  0  0  0  0
 10 36  1  0  0  0  0
 10 37  1  0  0  0  0
 11 12  1  0  0  0  0
 11 38  1  0  0  0  0
 12 13  2  0  0  0  0
 12 14  1  0  0  0  0
 14 15  1  0  0  0  0
 14 39  1  0  0  0  0
 15 16  1  0  0  0  0
 15 40  1  0  0  0  0
 15 41  1  0  0  0  0
 16 17  1  0  0  0  0
 16 42  1  0  0  0  0
 16 43  1  0  0  0  0
 17 22  1  0  0  0  0
 17 18  2  0  0  0  0
 18 19  1  0  0  0  0
 18 44  1  0  0  0  0
 19 20  2  0  0  0  0
 19 45  1  0  0  0  0
 20 21  1  0  0  0  0
 20 46  1  0  0  0  0
 21 22  2  0  0  0  0
 21 48  1  0  0  0  0
 22 47  1  0  0  0  0
M  CHG  1  21   1
M  END
> <s_m_source_file>
AV-unprocessed.smi

> <i_m_source_file_index>
1194

> <i_lp_mmshare_version>
43012

> <i_f3d_flags>
0

> <s_epik_input>
W0NIM11bQ0gyXVtDSDJdQyg9TylOMVtDSDJdW0NIMl1bQ0gyXVtDSDJdW0NASF0xQyg9TylbTkhdW0NIMl1bQ0gyXWMyW2NIXVtjSF1bY0hdbltjSF0y

> <s_epik_cmdline>
J2VwaWtfcHl0aG9uJywgJy1waCcsICc3LjAnLCAnLXRuJywgJzgnLCAnLW1hJywgJzIwMCcsICctbWV0YWxfYmluZGluZycsICctaW1hZScsICc8aW5maWxlLm1hZT4nLCAnLW9tYWUnLCAnPG91dGZpbGUubWFlPic=

> <r_epik_Ionization_Penalty>
2.26523

> <r_epik_Ionization_Penalty_Charging>
2.26523

> <r_epik_Ionization_Penalty_Neutral>
5.33649e-08

> <r_epik_State_Penalty>
2.41338

> <r_epik_Charging_Adjusted_Penalty>
4.67861

> <i_epik_Tot_Q>
1

> <i_epik_Tot_abs_Q>
1

> <r_epik_Metal_State_Penalty>
2.42628

> <b_epik_Metal_Only>
0

> <s_lp_Force_Field>
OPLS_2005

> <r_lp_Energy>
33.0292

> <b_lp_Chiralities_Consistent>
1

> <s_lp_Variant>
AV-unprocessed.smi:1194-4

> <Gold.Version>
5.8.1

> <Gold.Id.Protein>
6NUR|6NUR_protein|mol2

> <Gold.PLP.Fitness>
45.4253

> <Gold.PLP.PLP>
-36.7707

> <Gold.PLP.part.hbond>
-2.0106

> <Gold.PLP.part.metal>
0.0000

> <Gold.PLP.part.buried>
-3.2040

> <Gold.PLP.part.nonpolar>
-31.4653

> <Gold.PLP.part.repulsive>
0.2127

> <Gold.PLP.ligand.clash>
0.0000

> <Gold.PLP.ligand.torsion>
0.2514

> <Gold.PLP.Chemscore.Hbond>
3.0000

> <Gold.PLP.Chemscore.CHOScore>
0.0000

> <Gold.PLP.Chemscore.Metal>
0.0000

> <Gold.Chemscore.Hbonds>
donor molecule, donor type, donor heavy atom, donor atom, acceptor molecule, acceptor atom, score
      L1  H    21    48       P1 10186  2.00
      P1  H  7989  7998       L1     5  1.00

> <Gold.PLP.Chemscore.Internal.Correction>
0.1573

> <Gold.Rescore>
     Score         DG    S(hbond)    S(metal)    S(lipo)     H(rot)  DE(clash)    DE(int)     intcor
     14.40     -18.27       1.92        0.00      93.78       1.80       2.67       1.21       ----

> <Gold.Chemscore.Fitness>
14.3952

> <Gold.Chemscore.DG>
-18.2749

> <Gold.Chemscore.ZeroCoef>
-5.4800

> <Gold.Chemscore.Hbond>
1.9241

> <Gold.Chemscore.Metal>
0.0000

> <Gold.Chemscore.Lipo>
93.7819

> <Gold.Chemscore.Internal_Hbond>
0.0000

> <Gold.Chemscore.DEClash>
2.6711

> <Gold.Chemscore.DEInternal>
1.2086

> <Gold.Chemscore.Rot>
1.7985

> <Gold.Chemscore.Internal.Correction>
   9.000000E+99

> <Gold.Chemscore.Hbonds>
donor molecule, donor type, donor heavy atom, donor atom, acceptor molecule, acceptor atom, score
      L1  H    21    48       P1 10186  0.88
      P1  H  7989  7998       L1     5  0.98

> <Gold.Chemscore.Hbond.Weighted>
-6.4266

> <Gold.Chemscore.Metal.Weighted>
-0.0000

> <Gold.Chemscore.Lipo.Weighted>
-10.9725

> <Gold.Chemscore.Internal_Hbond.Weighted>
0.0000

> <Gold.Chemscore.DEClash.Weighted>
2.6711

> <Gold.Chemscore.DEInternal.Weighted>
1.2086

> <Gold.Chemscore.Rot.Weighted>
4.6041

> <Gold.Chemscore.Internal.Correction.Weighted>
   9.000000E+99

> <Gold.Protein.RotatedTorsions>
[ 6907 6896 6895 6894 ] final  131.81 input  -60.11 | X-H torsion
[ 7974 7965 7964 7962 ] final  142.13 input  175.53 | X-H torsion
[ 8008 7997 7996 7995 ] final   98.67 input   59.86 | X-H torsion
[ 10167 10162 10161 10158 ] final  -21.36 input  -65.29 | X-H torsion
[ 10718 10713 10712 10709 ] final  -47.42 input   66.30 | X-H torsion
[ 10763 10752 10751 10750 ] final  123.42 input  -60.55 | X-H torsion
[ 11005 11000 10999 10996 ] final  176.96 input  -57.11 | X-H torsion

> <Gold.Protein.ActiveResidues>
 VAL166  LYS551  ARG553  GLY616  TRP617  ASP618  TYR619  PRO620  LYS621  CYS622 
 ASP623  PHE694  ASN695  SER759  ASP760  ASP761  ALA762  ILE779  LEU786  VAL792 
 PHE793  MET794  SER795  GLU796  ALA797  LYS798  CYS799  TRP800  GLU811  SER814 

> <Gold.Protein.RotatedAtoms>
  152.3389  133.6043  159.5861 H   0  0  0  0  0  0  0  0  0  0  0  0  # atno 6907 bound_to 6896
  150.7466  133.9753  159.3568 H   0  0  0  0  0  0  0  0  0  0  0  0  # atno 6908 bound_to 6896
  151.7620  135.0808  160.0398 H   0  0  0  0  0  0  0  0  0  0  0  0  # atno 6909 bound_to 6896
  144.9035  139.5390  143.5742 H   0  0  0  0  0  0  0  0  0  0  0  0  # atno 7974 bound_to 7965
  156.1027  140.3240  155.7964 H   0  0  0  0  0  0  0  0  0  0  0  0  # atno 8008 bound_to 7997
  155.4808  140.0554  157.2984 H   0  0  0  0  0  0  0  0  0  0  0  0  # atno 8009 bound_to 7997
  154.4708  140.2010  156.0016 H   0  0  0  0  0  0  0  0  0  0  0  0  # atno 8010 bound_to 7997
  140.7281  143.4635  151.0347 H   0  0  0  0  0  0  0  0  0  0  0  0  # atno 10167 bound_to 10162
  156.2086  130.4159  149.9144 H   0  0  0  0  0  0  0  0  0  0  0  0  # atno 10718 bound_to 10713
  153.6452  135.3372  155.3083 H   0  0  0  0  0  0  0  0  0  0  0  0  # atno 10763 bound_to 10752
  154.8550  135.4328  154.1962 H   0  0  0  0  0  0  0  0  0  0  0  0  # atno 10764 bound_to 10752
  153.2891  135.7015  153.7385 H   0  0  0  0  0  0  0  0  0  0  0  0  # atno 10765 bound_to 10752
  140.3789  134.6964  157.4439 H   0  0  0  0  0  0  0  0  0  0  0  0  # atno 11005 bound_to 11000
  146.3121  139.7784  142.9012 LP  0  0  0  0  0  0  0  0  0  0  0  0  # atno 17320 bound_to 7965
  145.3576  141.0319  143.3303 LP  0  0  0  0  0  0  0  0  0  0  0  0  # atno 17321 bound_to 7965
  139.8321  143.7677  152.3180 LP  0  0  0  0  0  0  0  0  0  0  0  0  # atno 17342 bound_to 10162
  139.7796  144.7449  151.0107 LP  0  0  0  0  0  0  0  0  0  0  0  0  # atno 17343 bound_to 10162
  156.6830  130.8865  151.3578 LP  0  0  0  0  0  0  0  0  0  0  0  0  # atno 17370 bound_to 10713
  157.7026  130.9350  150.0832 LP  0  0  0  0  0  0  0  0  0  0  0  0  # atno 17371 bound_to 10713
  140.0494  134.6153  155.8881 LP  0  0  0  0  0  0  0  0  0  0  0  0  # atno 17394 bound_to 11000
  141.1930  133.6577  156.5528 LP  0  0  0  0  0  0  0  0  0  0  0  0  # atno 17395 bound_to 11000

$$$$
