AV-unprocessed.smi:3245|AV-procd|sdf|12408|dock9
  -GOLD-   2272018293D 1   1.00000     0.00000
 Structure written by MMmdl.
 34 35  0  0  0  0  0  0  0  0  2 V2000
  149.3506  141.9426  158.3045 C   0  0  0  0  0  0  0  0  0  0  0  0
  150.7378  141.3189  158.0744 C   0  0  2  0  0  0  0  0  0  0  0  0
  151.8496  142.3791  157.8880 C   0  0  0  0  0  0  0  0  0  0  0  0
  151.7663  143.4628  158.8502 N   0  0  0  0  0  0  0  0  0  0  0  0
  152.0798  144.7937  158.6709 C   0  0  0  0  0  0  0  0  0  0  0  0
  151.8538  145.4278  159.8590 C   0  0  0  0  0  0  0  0  0  0  0  0
  151.4037  144.3865  160.7177 C   0  0  0  0  0  0  0  0  0  0  0  0
  151.3560  143.2108  160.1125 N   0  0  0  0  0  0  0  0  0  0  0  0
  150.6444  140.4719  156.8919 N   0  0  0  0  0  0  0  0  0  0  0  0
  150.1786  141.2040  155.7220 C   0  0  0  0  0  0  0  0  0  0  0  0
  149.6613  140.2260  154.6518 C   0  0  0  0  0  0  0  0  0  0  0  0
  150.2667  138.8943  154.7801 N   0  0  0  0  0  0  0  0  0  0  0  0
  149.5716  137.7731  154.9957 C   0  0  0  0  0  0  0  0  0  0  0  0
  148.3521  137.6503  155.1136 O   0  0  0  0  0  0  0  0  0  0  0  0
  150.5588  136.6327  155.0798 C   0  0  0  0  0  0  0  0  0  0  0  0
  151.8234  137.3038  154.8836 N   0  5  0  0  0  0  0  0  0  0  0  0
  151.5859  138.6264  154.7173 C   0  0  0  0  0  0  0  0  0  0  0  0
  152.4279  139.5046  154.5315 O   0  0  0  0  0  0  0  0  0  0  0  0
  149.3238  142.5290  159.2230 H   0  0  0  0  0  0  0  0  0  0  0  0
  148.5830  141.1732  158.3936 H   0  0  0  0  0  0  0  0  0  0  0  0
  149.0690  142.6007  157.4815 H   0  0  0  0  0  0  0  0  0  0  0  0
  150.9678  140.6947  158.9392 H   0  0  0  0  0  0  0  0  0  0  0  0
  152.8403  141.9335  157.9781 H   0  0  0  0  0  0  0  0  0  0  0  0
  151.7930  142.8083  156.8864 H   0  0  0  0  0  0  0  0  0  0  0  0
  152.4319  145.1740  157.7234 H   0  0  0  0  0  0  0  0  0  0  0  0
  151.9910  146.4755  160.0815 H   0  0  0  0  0  0  0  0  0  0  0  0
  151.1144  144.4486  161.7564 H   0  0  0  0  0  0  0  0  0  0  0  0
  151.5491  140.0722  156.6876 H   0  0  0  0  0  0  0  0  0  0  0  0
  149.3983  141.9166  155.9864 H   0  0  0  0  0  0  0  0  0  0  0  0
  151.0113  141.7776  155.3135 H   0  0  0  0  0  0  0  0  0  0  0  0
  148.5798  140.1263  154.7551 H   0  0  0  0  0  0  0  0  0  0  0  0
  149.8174  140.6374  153.6531 H   0  0  0  0  0  0  0  0  0  0  0  0
  150.4776  136.1429  156.0508 H   0  0  0  0  0  0  0  0  0  0  0  0
  150.3386  135.8933  154.3091 H   0  0  0  0  0  0  0  0  0  0  0  0
  1  2  1  0  0  0  0
  1 19  1  0  0  0  0
  1 20  1  0  0  0  0
  1 21  1  0  0  0  0
  2  3  1  0  0  0  0
  2  9  1  0  0  0  0
  2 22  1  0  0  0  0
  3  4  1  0  0  0  0
  3 23  1  0  0  0  0
  3 24  1  0  0  0  0
  4  8  1  0  0  0  0
  4  5  1  0  0  0  0
  5  6  2  0  0  0  0
  5 25  1  0  0  0  0
  6  7  1  0  0  0  0
  6 26  1  0  0  0  0
  7  8  2  0  0  0  0
  7 27  1  0  0  0  0
  9 10  1  0  0  0  0
  9 28  1  0  0  0  0
 10 11  1  0  0  0  0
 10 29  1  0  0  0  0
 10 30  1  0  0  0  0
 11 12  1  0  0  0  0
 11 31  1  0  0  0  0
 11 32  1  0  0  0  0
 12 17  1  0  0  0  0
 12 13  1  0  0  0  0
 13 14  2  0  0  0  0
 13 15  1  0  0  0  0
 15 16  1  0  0  0  0
 15 33  1  0  0  0  0
 15 34  1  0  0  0  0
 16 17  1  0  0  0  0
 17 18  2  0  0  0  0
M  CHG  1  16  -1
M  END
> <s_m_source_file>
AV-unprocessed.smi

> <i_m_source_file_index>
3245

> <i_lp_mmshare_version>
43012

> <i_f3d_flags>
0

> <s_epik_input>
bjFbY0hdW2NIXVtjSF1uMVtDSDJdW0NAQEhdKFtDSDNdKVtOSF1bQ0gyXVtDSDJdTjJDKD1PKVtDSDJdW05IXUMyPU8=

> <s_epik_cmdline>
J2VwaWtfcHl0aG9uJywgJy1waCcsICc3LjAnLCAnLXRuJywgJzgnLCAnLW1hJywgJzIwMCcsICctbWV0YWxfYmluZGluZycsICctaW1hZScsICc8aW5maWxlLm1hZT4nLCAnLW9tYWUnLCAnPG91dGZpbGUubWFlPic=

> <r_lp_tautomer_probability>
1

> <r_epik_Ionization_Penalty>
8.62027

> <r_epik_Ionization_Penalty_Charging>
6.28132

> <r_epik_Ionization_Penalty_Neutral>
2.33895

> <r_epik_State_Penalty>
8.57043

> <r_epik_Charging_Adjusted_Penalty>
14.8517

> <i_epik_Tot_Q>
-1

> <i_epik_Tot_abs_Q>
1

> <r_epik_Metal_State_Penalty>
4.56785

> <b_epik_Metal_Only>
1

> <s_lp_Force_Field>
OPLS_2005

> <r_lp_Energy>
21.0374

> <b_lp_Chiralities_Consistent>
1

> <s_lp_Variant>
AV-unprocessed.smi:3245-7

> <Gold.Version>
5.8.1

> <Gold.Id.Protein>
6NUR|6NUR_protein|mol2

> <Gold.PLP.Fitness>
44.4244

> <Gold.PLP.PLP>
-38.1885

> <Gold.PLP.part.hbond>
-2.5999

> <Gold.PLP.part.metal>
0.0000

> <Gold.PLP.part.buried>
-5.7431

> <Gold.PLP.part.nonpolar>
-30.3163

> <Gold.PLP.part.repulsive>
0.2888

> <Gold.PLP.ligand.clash>
0.0000

> <Gold.PLP.ligand.torsion>
0.8024

> <Gold.PLP.Chemscore.Hbond>
2.5976

> <Gold.PLP.Chemscore.CHOScore>
0.0000

> <Gold.PLP.Chemscore.Metal>
0.0000

> <Gold.Chemscore.Hbonds>
donor molecule, donor type, donor heavy atom, donor atom, acceptor molecule, acceptor atom, score
      P1  H  7989  7998       L1    18  0.64
      P1  H 10752 10763       L1    16  1.56

> <Gold.PLP.Chemscore.Internal.Correction>
0.0477

> <Gold.Rescore>
     Score         DG    S(hbond)    S(metal)    S(lipo)     H(rot)  DE(clash)    DE(int)     intcor
     10.75     -12.04       1.43        0.00      71.63       2.58       0.02       1.26       ----

> <Gold.Chemscore.Fitness>
10.7548

> <Gold.Chemscore.DG>
-12.0370

> <Gold.Chemscore.ZeroCoef>
-5.4800

> <Gold.Chemscore.Hbond>
1.4323

> <Gold.Chemscore.Metal>
0.0000

> <Gold.Chemscore.Lipo>
71.6294

> <Gold.Chemscore.Internal_Hbond>
0.0000

> <Gold.Chemscore.DEClash>
0.0202

> <Gold.Chemscore.DEInternal>
1.2620

> <Gold.Chemscore.Rot>
2.5811

> <Gold.Chemscore.Internal.Correction>
   9.000000E+99

> <Gold.Chemscore.Hbonds>
donor molecule, donor type, donor heavy atom, donor atom, acceptor molecule, acceptor atom, score
      P1  H  7989  7998       L1    18  0.45
      P1  H 10752 10763       L1    16  0.12

> <Gold.Chemscore.Hbond.Weighted>
-4.7839

> <Gold.Chemscore.Metal.Weighted>
-0.0000

> <Gold.Chemscore.Lipo.Weighted>
-8.3806

> <Gold.Chemscore.Internal_Hbond.Weighted>
0.0000

> <Gold.Chemscore.DEClash.Weighted>
0.0202

> <Gold.Chemscore.DEInternal.Weighted>
1.2620

> <Gold.Chemscore.Rot.Weighted>
6.6076

> <Gold.Chemscore.Internal.Correction.Weighted>
   9.000000E+99

> <Gold.Protein.RotatedTorsions>
[ 6907 6896 6895 6894 ] final   62.97 input  -60.11 | X-H torsion
[ 7974 7965 7964 7962 ] final  -22.11 input  175.53 | X-H torsion
[ 8008 7997 7996 7995 ] final  160.45 input   59.86 | X-H torsion
[ 10167 10162 10161 10158 ] final  107.79 input  -65.29 | X-H torsion
[ 10718 10713 10712 10709 ] final -156.12 input   66.30 | X-H torsion
[ 10763 10752 10751 10750 ] final   56.63 input  -60.55 | X-H torsion
[ 11005 11000 10999 10996 ] final  -22.46 input  -57.11 | X-H torsion

> <Gold.Protein.ActiveResidues>
 VAL166  LYS551  ARG553  GLY616  TRP617  ASP618  TYR619  PRO620  LYS621  CYS622 
 ASP623  PHE694  ASN695  SER759  ASP760  ASP761  ALA762  ILE779  LEU786  VAL792 
 PHE793  MET794  SER795  GLU796  ALA797  LYS798  CYS799  TRP800  GLU811  SER814 

> <Gold.Protein.RotatedAtoms>
  152.4216  134.5945  159.9983 H   0  0  0  0  0  0  0  0  0  0  0  0  # atno 6907 bound_to 6896
  151.6093  133.3343  159.3072 H   0  0  0  0  0  0  0  0  0  0  0  0  # atno 6908 bound_to 6896
  150.8104  134.7293  159.6748 H   0  0  0  0  0  0  0  0  0  0  0  0  # atno 6909 bound_to 6896
  146.1695  140.4433  142.8538 H   0  0  0  0  0  0  0  0  0  0  0  0  # atno 7974 bound_to 7965
  156.2171  140.1804  156.7563 H   0  0  0  0  0  0  0  0  0  0  0  0  # atno 8008 bound_to 7997
  154.5809  140.0666  156.9131 H   0  0  0  0  0  0  0  0  0  0  0  0  # atno 8009 bound_to 7997
  155.2505  140.3328  155.4285 H   0  0  0  0  0  0  0  0  0  0  0  0  # atno 8010 bound_to 7997
  139.6898  144.7109  151.1367 H   0  0  0  0  0  0  0  0  0  0  0  0  # atno 10167 bound_to 10162
  156.5222  130.8483  151.2686 H   0  0  0  0  0  0  0  0  0  0  0  0  # atno 10718 bound_to 10713
  152.9835  135.5669  154.5260 H   0  0  0  0  0  0  0  0  0  0  0  0  # atno 10763 bound_to 10752
  154.4740  135.2786  155.1623 H   0  0  0  0  0  0  0  0  0  0  0  0  # atno 10764 bound_to 10752
  154.3159  135.6279  153.5539 H   0  0  0  0  0  0  0  0  0  0  0  0  # atno 10765 bound_to 10752
  140.8659  133.7755  156.0128 H   0  0  0  0  0  0  0  0  0  0  0  0  # atno 11005 bound_to 11000
  144.8141  140.6437  143.6396 LP  0  0  0  0  0  0  0  0  0  0  0  0  # atno 17320 bound_to 7965
  145.4379  139.1540  143.3986 LP  0  0  0  0  0  0  0  0  0  0  0  0  # atno 17321 bound_to 7965
  140.7679  143.5575  150.9135 LP  0  0  0  0  0  0  0  0  0  0  0  0  # atno 17342 bound_to 10162
  139.9252  143.6558  152.3088 LP  0  0  0  0  0  0  0  0  0  0  0  0  # atno 17343 bound_to 10162
  157.7435  130.9913  150.2597 LP  0  0  0  0  0  0  0  0  0  0  0  0  # atno 17370 bound_to 10713
  156.3139  130.3776  149.7636 LP  0  0  0  0  0  0  0  0  0  0  0  0  # atno 17371 bound_to 10713
  140.8630  134.2818  157.5226 LP  0  0  0  0  0  0  0  0  0  0  0  0  # atno 17394 bound_to 11000
  139.8709  134.9528  156.4125 LP  0  0  0  0  0  0  0  0  0  0  0  0  # atno 17395 bound_to 11000

$$$$
