AV-unprocessed.smi:65|AV-procd|sdf|613|dock5
  -GOLD-   2262016503D 1   1.00000     0.00000
 Structure written by MMmdl.
 25 26  0  0  0  0  0  0  0  0  1 V2000
  155.3447  139.9553  159.8099 N   0  0  0  0  0  0  0  0  0  0  0  0
  154.6311  140.8315  160.5905 C   0  0  0  0  0  0  0  0  0  0  0  0
  154.6550  140.6147  161.9061 N   0  0  0  0  0  0  0  0  0  0  0  0
  153.9515  141.4757  162.6718 C   0  0  0  0  0  0  0  0  0  0  0  0
  153.2299  142.5503  162.1133 C   0  0  0  0  0  0  0  0  0  0  0  0
  153.2788  142.6880  160.7054 C   0  0  0  0  0  0  0  0  0  0  0  0
  152.5891  143.7214  160.0427 N   0  0  0  0  0  0  0  0  0  0  0  0
  152.5095  143.7714  158.5884 C   0  0  0  0  0  0  0  0  0  0  0  0
  151.2019  144.5075  158.2708 C   0  0  0  0  0  0  0  0  0  0  0  0
  150.9111  145.2963  159.5483 C   0  0  1  0  0  0  0  0  0  0  0  0
  149.5389  145.5892  159.7037 O   0  0  0  0  0  0  0  0  0  0  0  0
  151.4349  144.3703  160.6448 C   0  0  0  0  0  0  0  0  0  0  0  0
  153.9862  141.8102  159.9528 N   0  0  0  0  0  0  0  0  0  0  0  0
  155.3659  140.0657  158.8065 H   0  0  0  0  0  0  0  0  0  0  0  0
  155.8354  139.1797  160.2305 H   0  0  0  0  0  0  0  0  0  0  0  0
  153.9618  141.3057  163.7382 H   0  0  0  0  0  0  0  0  0  0  0  0
  152.6672  143.2218  162.7444 H   0  0  0  0  0  0  0  0  0  0  0  0
  153.3679  144.3259  158.2081 H   0  0  0  0  0  0  0  0  0  0  0  0
  152.5150  142.7780  158.1385 H   0  0  0  0  0  0  0  0  0  0  0  0
  151.2731  145.1388  157.3846 H   0  0  0  0  0  0  0  0  0  0  0  0
  150.4117  143.7750  158.0976 H   0  0  0  0  0  0  0  0  0  0  0  0
  151.4840  146.2248  159.5443 H   0  0  0  0  0  0  0  0  0  0  0  0
  149.1563  145.6977  158.8463 H   0  0  0  0  0  0  0  0  0  0  0  0
  150.6935  143.6134  160.9056 H   0  0  0  0  0  0  0  0  0  0  0  0
  151.7020  144.9207  161.5476 H   0  0  0  0  0  0  0  0  0  0  0  0
  1  2  1  0  0  0  0
  1 14  1  0  0  0  0
  1 15  1  0  0  0  0
  2 13  1  0  0  0  0
  2  3  2  0  0  0  0
  3  4  1  0  0  0  0
  4  5  2  0  0  0  0
  4 16  1  0  0  0  0
  5  6  1  0  0  0  0
  5 17  1  0  0  0  0
  6  7  1  0  0  0  0
  6 13  2  0  0  0  0
  7 12  1  0  0  0  0
  7  8  1  0  0  0  0
  8  9  1  0  0  0  0
  8 18  1  0  0  0  0
  8 19  1  0  0  0  0
  9 10  1  0  0  0  0
  9 20  1  0  0  0  0
  9 21  1  0  0  0  0
 10 11  1  0  0  0  0
 10 12  1  0  0  0  0
 10 22  1  0  0  0  0
 11 23  1  0  0  0  0
 12 24  1  0  0  0  0
 12 25  1  0  0  0  0
M  END
> <s_m_source_file>
AV-unprocessed.smi

> <i_m_source_file_index>
65

> <i_lp_mmshare_version>
43012

> <i_f3d_flags>
0

> <s_epik_input>
W05IMl1jMW5bY0hdW2NIXWMobjEpTjJbQ0gyXVtDSDJdW0NAQEhdKFtPSF0pW0NIMl0y

> <s_epik_cmdline>
J2VwaWtfcHl0aG9uJywgJy1waCcsICc3LjAnLCAnLXRuJywgJzgnLCAnLW1hJywgJzIwMCcsICctbWV0YWxfYmluZGluZycsICctaW1hZScsICc8aW5maWxlLm1hZT4nLCAnLW9tYWUnLCAnPG91dGZpbGUubWFlPic=

> <r_lp_tautomer_probability>
1

> <r_epik_Ionization_Penalty>
0.99295

> <r_epik_Ionization_Penalty_Charging>
0

> <r_epik_Ionization_Penalty_Neutral>
0.99295

> <r_epik_State_Penalty>
0.750885

> <r_epik_Charging_Adjusted_Penalty>
0.750885

> <i_epik_Tot_Q>
0

> <i_epik_Tot_abs_Q>
0

> <r_epik_Metal_State_Penalty>
0.338511

> <b_epik_Metal_Only>
0

> <s_lp_Force_Field>
OPLS_2005

> <r_lp_Energy>
17.7727

> <b_lp_Chiralities_Consistent>
1

> <s_lp_Variant>
AV-unprocessed.smi:65-3

> <Gold.Version>
5.8.1

> <Gold.Id.Protein>
6NUR|6NUR_protein|mol2

> <Gold.PLP.Fitness>
37.2331

> <Gold.PLP.PLP>
-34.2874

> <Gold.PLP.part.hbond>
-2.3139

> <Gold.PLP.part.metal>
0.0000

> <Gold.PLP.part.buried>
-4.0877

> <Gold.PLP.part.nonpolar>
-28.2235

> <Gold.PLP.part.repulsive>
0.0868

> <Gold.PLP.ligand.clash>
0.0000

> <Gold.PLP.ligand.torsion>
0.1321

> <Gold.PLP.Chemscore.Hbond>
1.0000

> <Gold.PLP.Chemscore.CHOScore>
0.0000

> <Gold.PLP.Chemscore.Metal>
0.0000

> <Gold.Chemscore.Hbonds>
donor molecule, donor type, donor heavy atom, donor atom, acceptor molecule, acceptor atom, score
      L1  H    11    23       P1  8029  1.00

> <Gold.PLP.Chemscore.Internal.Correction>
0.2099

> <Gold.Rescore>
     Score         DG    S(hbond)    S(metal)    S(lipo)     H(rot)  DE(clash)    DE(int)     intcor
     13.91     -14.10       0.98        0.00      67.43       1.00       0.06       0.13       ----

> <Gold.Chemscore.Fitness>
13.9120

> <Gold.Chemscore.DG>
-14.0976

> <Gold.Chemscore.ZeroCoef>
-5.4800

> <Gold.Chemscore.Hbond>
0.9844

> <Gold.Chemscore.Metal>
0.0000

> <Gold.Chemscore.Lipo>
67.4321

> <Gold.Chemscore.Internal_Hbond>
0.0000

> <Gold.Chemscore.DEClash>
0.0601

> <Gold.Chemscore.DEInternal>
0.1254

> <Gold.Chemscore.Rot>
1.0000

> <Gold.Chemscore.Internal.Correction>
   9.000000E+99

> <Gold.Chemscore.Hbonds>
donor molecule, donor type, donor heavy atom, donor atom, acceptor molecule, acceptor atom, score
      L1  H    11    23       P1  8029  0.94

> <Gold.Chemscore.Hbond.Weighted>
-3.2880

> <Gold.Chemscore.Metal.Weighted>
-0.0000

> <Gold.Chemscore.Lipo.Weighted>
-7.8896

> <Gold.Chemscore.Internal_Hbond.Weighted>
0.0000

> <Gold.Chemscore.DEClash.Weighted>
0.0601

> <Gold.Chemscore.DEInternal.Weighted>
0.1254

> <Gold.Chemscore.Rot.Weighted>
2.5600

> <Gold.Chemscore.Internal.Correction.Weighted>
   9.000000E+99

> <Gold.Protein.RotatedTorsions>
[ 6907 6896 6895 6894 ] final   43.90 input  -60.11 | X-H torsion
[ 7974 7965 7964 7962 ] final  179.57 input  175.53 | X-H torsion
[ 8008 7997 7996 7995 ] final -147.23 input   59.86 | X-H torsion
[ 10167 10162 10161 10158 ] final   12.99 input  -65.29 | X-H torsion
[ 10718 10713 10712 10709 ] final  -73.56 input   66.30 | X-H torsion
[ 10763 10752 10751 10750 ] final   27.22 input  -60.55 | X-H torsion
[ 11005 11000 10999 10996 ] final  -82.92 input  -57.11 | X-H torsion

> <Gold.Protein.ActiveResidues>
 VAL166  LYS551  ARG553  GLY616  TRP617  ASP618  TYR619  PRO620  LYS621  CYS622 
 ASP623  PHE694  ASN695  SER759  ASP760  ASP761  ALA762  ILE779  LEU786  VAL792 
 PHE793  MET794  SER795  GLU796  ALA797  LYS798  CYS799  TRP800  GLU811  SER814 

> <Gold.Protein.RotatedAtoms>
  152.2259  134.8368  160.0479 H   0  0  0  0  0  0  0  0  0  0  0  0  # atno 6907 bound_to 6896
  151.9135  133.3562  159.3880 H   0  0  0  0  0  0  0  0  0  0  0  0  # atno 6908 bound_to 6896
  150.7012  134.4633  159.5435 H   0  0  0  0  0  0  0  0  0  0  0  0  # atno 6909 bound_to 6896
  144.7144  140.0568  143.6434 H   0  0  0  0  0  0  0  0  0  0  0  0  # atno 7974 bound_to 7965
  155.5722  140.0635  157.2804 H   0  0  0  0  0  0  0  0  0  0  0  0  # atno 8008 bound_to 7997
  154.4357  140.1867  156.0937 H   0  0  0  0  0  0  0  0  0  0  0  0  # atno 8009 bound_to 7997
  156.0368  140.3300  155.7203 H   0  0  0  0  0  0  0  0  0  0  0  0  # atno 8010 bound_to 7997
  140.6032  143.8563  150.6986 H   0  0  0  0  0  0  0  0  0  0  0  0  # atno 10167 bound_to 10162
  156.0275  130.4397  150.2761 H   0  0  0  0  0  0  0  0  0  0  0  0  # atno 10718 bound_to 10713
  153.0570  135.6542  154.0554 H   0  0  0  0  0  0  0  0  0  0  0  0  # atno 10763 bound_to 10752
  154.0230  135.2918  155.3380 H   0  0  0  0  0  0  0  0  0  0  0  0  # atno 10764 bound_to 10752
  154.6890  135.5290  153.8433 H   0  0  0  0  0  0  0  0  0  0  0  0  # atno 10765 bound_to 10752
  141.1660  133.7268  156.8644 H   0  0  0  0  0  0  0  0  0  0  0  0  # atno 11005 bound_to 11000
  145.9898  139.3006  143.0992 LP  0  0  0  0  0  0  0  0  0  0  0  0  # atno 17320 bound_to 7965
  145.8916  140.9300  143.0549 LP  0  0  0  0  0  0  0  0  0  0  0  0  # atno 17321 bound_to 7965
  140.2113  143.3881  152.1715 LP  0  0  0  0  0  0  0  0  0  0  0  0  # atno 17342 bound_to 10162
  139.5306  144.7154  151.5071 LP  0  0  0  0  0  0  0  0  0  0  0  0  # atno 17343 bound_to 10162
  157.0864  131.0158  151.3137 LP  0  0  0  0  0  0  0  0  0  0  0  0  # atno 17370 bound_to 10713
  157.4887  130.7809  149.7486 LP  0  0  0  0  0  0  0  0  0  0  0  0  # atno 17371 bound_to 10713
  140.1826  134.9023  157.2966 LP  0  0  0  0  0  0  0  0  0  0  0  0  # atno 17394 bound_to 11000
  140.2378  134.3831  155.7493 LP  0  0  0  0  0  0  0  0  0  0  0  0  # atno 17395 bound_to 11000

$$$$
