#       Name:                AV-unprocessed.smi:1734
#       Creating user name   scv26
#       Creation time:       Fri Mar 27 08:19:46 2020


#       File generated by GOLD software.
#

@<TRIPOS>MOLECULE
AV-unprocessed.smi:1734
    58    60     1
SMALL
NO_CHARGES


@<TRIPOS>ATOM
      1 ****        -5.3359  -0.6393   0.4144 C.3            1 S1                 0.0000
      2 ****        -5.1054   0.8240   0.7554 C.ar           1 S1                 0.0000
      3 ****        -6.2056   1.7073   0.7845 C.ar           1 S1                 0.0000
      4 ****        -5.9911   3.0596   1.1002 C.ar           1 S1                 0.0000
      5 ****        -4.6769   3.4744   1.3751 C.ar           1 S1                 0.0000
      6 ****        -3.6198   2.6375   1.3486 N.ar           1 S1                 0.0000
      7 ****        -3.8091   1.3285   1.0455 C.ar           1 S1                 0.0000
      8 ****        -2.7405   0.3891   0.9951 N.am           1 S1                 0.0000
      9 ****        -1.4279   0.6031   1.1941 C.2            1 S1                 0.0000
     10 ****        -0.9197   1.6838   1.4946 O.2            1 S1                 0.0000
     11 ****        -0.7233  -0.5234   1.0123 N.am           1 S1                 0.0000
     12 ****         0.7299  -0.6442   1.0994 C.3            1 S1                 0.0000
     13 ****         1.3565  -1.0997  -0.2470 C.3            1 S1                 0.0000
     14 ****         0.9429  -0.1918  -1.4463 C.3            1 S1                 0.0000
     15 ****         1.0967   1.3245  -1.2951 C.3            1 S1                 0.0000
     16 ****         1.7295   1.7681  -2.6151 C.3            1 S1                 0.0000
     17 ****         1.4451   0.7091  -3.5160 O.3            1 S1                 0.0000
     18 ****         1.6158  -0.4972  -2.7909 C.3            1 S1                 0.0000
     19 ****         2.7951  -1.4259  -0.1838 N.3            1 S1                 0.0000
     20 ****         3.6804  -0.3144   0.1587 C.3            1 S1                 0.0000
     21 ****         5.1617  -0.7272   0.1004 C.3            1 S1                 0.0000
     22 ****         5.3862  -1.8559   0.9389 O.3            1 S1                 0.0000
     23 ****         4.5781  -2.9725   0.5828 C.3            1 S1                 0.0000
     24 ****         3.0952  -2.5755   0.6669 C.3            1 S1                 0.0000
     25 ****        -6.3890  -0.8393   0.2142 H              1 S1                 0.0000
     26 ****        -5.0250  -1.2772   1.2422 H              1 S1                 0.0000
     27 ****        -4.7672  -0.9188  -0.4729 H              1 S1                 0.0000
     28 ****        -7.2038   1.3560   0.5677 H              1 S1                 0.0000
     29 ****        -6.8122   3.7605   1.1312 H              1 S1                 0.0000
     30 ****        -4.4677   4.5047   1.6224 H              1 S1                 0.0000
     31 ****        -3.0079  -0.5547   0.7587 H              1 S1                 0.0000
     32 ****        -1.2299  -1.3627   0.7711 H              1 S1                 0.0000
     33 ****         1.1842   0.2863   1.4411 H              1 S1                 0.0000
     34 ****         0.9259  -1.3753   1.8822 H              1 S1                 0.0000
     35 ****         0.8644  -2.0468  -0.4742 H              1 S1                 0.0000
     36 ****        -0.1225  -0.3588  -1.6137 H              1 S1                 0.0000
     37 ****         0.1151   1.7849  -1.1771 H              1 S1                 0.0000
     38 ****         1.6953   1.6334  -0.4398 H              1 S1                 0.0000
     39 ****         1.3313   2.7175  -2.9738 H              1 S1                 0.0000
     40 ****         2.8107   1.8704  -2.5093 H              1 S1                 0.0000
     41 ****         2.6840  -0.6937  -2.6925 H              1 S1                 0.0000
     42 ****         1.1598  -1.3430  -3.3058 H              1 S1                 0.0000
     43 ****         3.5385   0.5119  -0.5336 H              1 S1                 0.0000
     44 ****         3.4500   0.0577   1.1572 H              1 S1                 0.0000
     45 ****         5.4531  -0.9651  -0.9238 H              1 S1                 0.0000
     46 ****         5.7970   0.0948   0.4303 H              1 S1                 0.0000
     47 ****         4.8321  -3.3116  -0.4226 H              1 S1                 0.0000
     48 ****         4.7895  -3.7975   1.2632 H              1 S1                 0.0000
     49 ****         2.8576  -2.3508   1.7064 H              1 S1                 0.0000
     50 ****         2.4773  -3.4259   0.3774 H              1 S1                 0.0000
     51 ****        -2.7021   2.9795   1.5511 LP             1 S1                 0.0000
     52 ****        -1.4962   2.4928   1.6094 LP             1 S1                 0.0000
     53 ****         0.0696   1.7524   1.6238 LP             1 S1                 0.0000
     54 ****         2.0756   0.7375  -4.2917 LP             1 S1                 0.0000
     55 ****         0.5047   0.7819  -3.8480 LP             1 S1                 0.0000
     56 ****         2.9957  -1.6649  -1.1339 LP             1 S1                 0.0000
     57 ****         5.1798  -1.5994   1.8832 LP             1 S1                 0.0000
     58 ****         6.3478  -2.1211   0.8682 LP             1 S1                 0.0000
@<TRIPOS>BOND
    1    1    2 1     
    2    1   25 1     
    3    1   26 1     
    4    1   27 1     
    5    2    7 ar    
    6    2    3 ar    
    7    3    4 ar    
    8    3   28 1     
    9    4    5 ar    
   10    4   29 1     
   11    5    6 ar    
   12    5   30 1     
   13    6    7 ar    
   14    7    8 1     
   15    8    9 am    
   16    8   31 1     
   17    9   10 2     
   18    9   11 am    
   19   11   12 1     
   20   11   32 1     
   21   12   13 1     
   22   12   33 1     
   23   12   34 1     
   24   13   14 1     
   25   13   19 1     
   26   13   35 1     
   27   14   18 1     
   28   14   15 1     
   29   14   36 1     
   30   15   16 1     
   31   15   37 1     
   32   15   38 1     
   33   16   17 1     
   34   16   39 1     
   35   16   40 1     
   36   17   18 1     
   37   18   41 1     
   38   18   42 1     
   39   19   24 1     
   40   19   20 1     
   41   20   21 1     
   42   20   43 1     
   43   20   44 1     
   44   21   22 1     
   45   21   45 1     
   46   21   46 1     
   47   22   23 1     
   48   23   24 1     
   49   23   47 1     
   50   23   48 1     
   51   24   49 1     
   52   24   50 1     
   53    6   51 1     
   54   10   52 1     
   55   10   53 1     
   56   17   54 1     
   57   17   55 1     
   58   19   56 1     
   59   22   57 1     
   60   22   58 1     
@<TRIPOS>SUBSTRUCTURE
      1 S1             1
@<TRIPOS>SET
LONE_PAIRS      STATIC     ATOMS    <user>   **** ""
8 51 52 53 54 55 56 57 58
DONOR_HYDROGENS      STATIC     ATOMS    <user>   **** ""
2 31 32
ATOM$BLUE        STATIC     ATOMS    COLORGROUP SYSTEM
8 51 52 53 54 55 56 57 58
ATOM$RED        STATIC     ATOMS    COLORGROUP SYSTEM
2 31 32
