AV-unprocessed.smi:2098|AV-procd|sdf|8567|dock9
  -GOLD-   2272011293D 1   1.00000     0.00000
 Structure written by MMmdl.
 37 39  0  0  0  0  0  0  0  0  2 V2000
  150.1939  139.8917  154.6468 O   0  0  0  0  0  0  0  0  0  0  0  0
  149.6981  140.9855  155.3935 C   0  0  2  0  0  0  0  0  0  0  0  0
  148.7917  141.8263  154.4807 C   0  0  0  0  0  0  0  0  0  0  0  0
  147.5408  142.0218  155.1273 O   0  0  0  0  0  0  0  0  0  0  0  0
  146.7813  143.1132  154.7636 C   0  0  0  0  0  0  0  0  0  0  0  0
  145.9390  143.6644  155.7517 C   0  0  0  0  0  0  0  0  0  0  0  0
  145.1300  144.7818  155.4685 C   0  0  0  0  0  0  0  0  0  0  0  0
  145.1551  145.3611  154.1866 C   0  0  0  0  0  0  0  0  0  0  0  0
  144.3781  146.4354  153.9122 F   0  0  0  0  0  0  0  0  0  0  0  0
  145.9897  144.8215  153.1907 C   0  0  0  0  0  0  0  0  0  0  0  0
  146.7996  143.7043  153.4744 C   0  0  0  0  0  0  0  0  0  0  0  0
  150.8825  141.8089  155.9378 C   0  0  0  0  0  0  0  0  0  0  0  0
  151.2339  141.4621  157.3225 N   0  0  0  0  0  0  0  0  0  0  0  0
  151.1732  140.2599  157.9567 C   0  0  0  0  0  0  0  0  0  0  0  0
  151.5985  140.4470  159.2367 N   0  3  0  0  0  0  0  0  0  0  0  0
  151.9382  141.7884  159.4238 C   0  0  0  0  0  0  0  0  0  0  0  0
  152.4174  142.4581  160.5456 C   0  0  0  0  0  0  0  0  0  0  0  0
  152.6692  143.8381  160.3992 C   0  0  0  0  0  0  0  0  0  0  0  0
  152.4452  144.4997  159.1744 C   0  0  0  0  0  0  0  0  0  0  0  0
  151.9573  143.8111  158.0443 C   0  0  0  0  0  0  0  0  0  0  0  0
  151.7089  142.4472  158.1970 C   0  0  0  0  0  0  0  0  0  0  0  0
  150.3060  139.1576  155.2319 H   0  0  0  0  0  0  0  0  0  0  0  0
  149.1174  140.6045  156.2348 H   0  0  0  0  0  0  0  0  0  0  0  0
  149.2515  142.8029  154.3204 H   0  0  0  0  0  0  0  0  0  0  0  0
  148.6726  141.3492  153.5060 H   0  0  0  0  0  0  0  0  0  0  0  0
  145.9133  143.2261  156.7386 H   0  0  0  0  0  0  0  0  0  0  0  0
  144.4909  145.1943  156.2353 H   0  0  0  0  0  0  0  0  0  0  0  0
  146.0102  145.2653  152.2064 H   0  0  0  0  0  0  0  0  0  0  0  0
  147.4269  143.3206  152.6845 H   0  0  0  0  0  0  0  0  0  0  0  0
  151.7635  141.7061  155.3037 H   0  0  0  0  0  0  0  0  0  0  0  0
  150.6278  142.8696  155.9334 H   0  0  0  0  0  0  0  0  0  0  0  0
  150.8450  139.3262  157.5235 H   0  0  0  0  0  0  0  0  0  0  0  0
  152.5916  141.9531  161.4844 H   0  0  0  0  0  0  0  0  0  0  0  0
  153.0436  144.4000  161.2426 H   0  0  0  0  0  0  0  0  0  0  0  0
  152.6529  145.5573  159.0990 H   0  0  0  0  0  0  0  0  0  0  0  0
  151.7954  144.3272  157.1096 H   0  0  0  0  0  0  0  0  0  0  0  0
  151.6522  139.7111  159.9292 H   0  0  0  0  0  0  0  0  0  0  0  0
  1  2  1  0  0  0  0
  1 22  1  0  0  0  0
  2  3  1  0  0  0  0
  2 12  1  0  0  0  0
  2 23  1  0  0  0  0
  3  4  1  0  0  0  0
  3 24  1  0  0  0  0
  3 25  1  0  0  0  0
  4  5  1  0  0  0  0
  5 11  1  0  0  0  0
  5  6  2  0  0  0  0
  6  7  1  0  0  0  0
  6 26  1  0  0  0  0
  7  8  2  0  0  0  0
  7 27  1  0  0  0  0
  8  9  1  0  0  0  0
  8 10  1  0  0  0  0
 10 11  2  0  0  0  0
 10 28  1  0  0  0  0
 11 29  1  0  0  0  0
 12 13  1  0  0  0  0
 12 30  1  0  0  0  0
 12 31  1  0  0  0  0
 13 21  1  0  0  0  0
 13 14  1  0  0  0  0
 14 15  2  0  0  0  0
 14 32  1  0  0  0  0
 15 16  1  0  0  0  0
 15 37  1  0  0  0  0
 16 21  2  0  0  0  0
 16 17  1  0  0  0  0
 17 18  2  0  0  0  0
 17 33  1  0  0  0  0
 18 19  1  0  0  0  0
 18 34  1  0  0  0  0
 19 20  2  0  0  0  0
 19 35  1  0  0  0  0
 20 21  1  0  0  0  0
 20 36  1  0  0  0  0
M  CHG  1  15   1
M  END
> <s_m_source_file>
AV-unprocessed.smi

> <i_m_source_file_index>
2098

> <i_lp_mmshare_version>
43012

> <i_f3d_flags>
0

> <s_epik_input>
W2NIXTFbY0hdW2NIXVtjSF1jKGMxMiluKFtjSF1uMilbQ0gyXVtDQEhdKFtPSF0pW0NIMl1PYzNbY0hdW2NIXWMoRilbY0hdW2NIXTM=

> <s_epik_cmdline>
J2VwaWtfcHl0aG9uJywgJy1waCcsICc3LjAnLCAnLXRuJywgJzgnLCAnLW1hJywgJzIwMCcsICctbWV0YWxfYmluZGluZycsICctaW1hZScsICc8aW5maWxlLm1hZT4nLCAnLW9tYWUnLCAnPG91dGZpbGUubWFlPic=

> <r_lp_tautomer_probability>
1

> <r_epik_Ionization_Penalty>
1.3832

> <r_epik_Ionization_Penalty_Charging>
1.38319

> <r_epik_Ionization_Penalty_Neutral>
2.3993e-06

> <r_epik_State_Penalty>
1.46389

> <r_epik_Charging_Adjusted_Penalty>
2.84709

> <i_epik_Tot_Q>
1

> <i_epik_Tot_abs_Q>
1

> <r_epik_Metal_State_Penalty>
5.50438

> <b_epik_Metal_Only>
0

> <s_lp_Force_Field>
OPLS_2005

> <r_lp_Energy>
20.4389

> <b_lp_Chiralities_Consistent>
1

> <s_lp_Variant>
AV-unprocessed.smi:2098-3

> <Gold.Version>
5.8.1

> <Gold.Id.Protein>
6NUR|6NUR_protein|mol2

> <Gold.PLP.Fitness>
49.5251

> <Gold.PLP.PLP>
-50.6808

> <Gold.PLP.part.hbond>
-1.0000

> <Gold.PLP.part.metal>
0.0000

> <Gold.PLP.part.buried>
-7.6553

> <Gold.PLP.part.nonpolar>
-42.2361

> <Gold.PLP.part.repulsive>
0.2603

> <Gold.PLP.ligand.clash>
0.0000

> <Gold.PLP.ligand.torsion>
2.0872

> <Gold.PLP.Chemscore.Hbond>
1.0000

> <Gold.PLP.Chemscore.CHOScore>
0.0000

> <Gold.PLP.Chemscore.Metal>
0.0000

> <Gold.Chemscore.Hbonds>
donor molecule, donor type, donor heavy atom, donor atom, acceptor molecule, acceptor atom, score
      P1  H  7989  7998       L1     1  0.88

> <Gold.PLP.Chemscore.Internal.Correction>
0.0188

> <Gold.Rescore>
     Score         DG    S(hbond)    S(metal)    S(lipo)     H(rot)  DE(clash)    DE(int)     intcor
     14.12     -15.90       0.68        0.00     123.30       2.46       0.12       1.66       ----

> <Gold.Chemscore.Fitness>
14.1190

> <Gold.Chemscore.DG>
-15.8998

> <Gold.Chemscore.ZeroCoef>
-5.4800

> <Gold.Chemscore.Hbond>
0.6847

> <Gold.Chemscore.Metal>
0.0000

> <Gold.Chemscore.Lipo>
123.3038

> <Gold.Chemscore.Internal_Hbond>
0.0000

> <Gold.Chemscore.DEClash>
0.1162

> <Gold.Chemscore.DEInternal>
1.6646

> <Gold.Chemscore.Rot>
2.4584

> <Gold.Chemscore.Internal.Correction>
   9.000000E+99

> <Gold.Chemscore.Hbonds>
donor molecule, donor type, donor heavy atom, donor atom, acceptor molecule, acceptor atom, score
      P1  H  7989  7998       L1     1  0.22

> <Gold.Chemscore.Hbond.Weighted>
-2.2869

> <Gold.Chemscore.Metal.Weighted>
-0.0000

> <Gold.Chemscore.Lipo.Weighted>
-14.4265

> <Gold.Chemscore.Internal_Hbond.Weighted>
0.0000

> <Gold.Chemscore.DEClash.Weighted>
0.1162

> <Gold.Chemscore.DEInternal.Weighted>
1.6646

> <Gold.Chemscore.Rot.Weighted>
6.2936

> <Gold.Chemscore.Internal.Correction.Weighted>
   9.000000E+99

> <Gold.Protein.RotatedTorsions>
[ 6907 6896 6895 6894 ] final  -44.80 input  -60.11 | X-H torsion
[ 7974 7965 7964 7962 ] final  133.62 input  175.53 | X-H torsion
[ 8008 7997 7996 7995 ] final  -80.37 input   59.86 | X-H torsion
[ 10167 10162 10161 10158 ] final   51.21 input  -65.29 | X-H torsion
[ 10718 10713 10712 10709 ] final  -50.51 input   66.30 | X-H torsion
[ 10763 10752 10751 10750 ] final  -77.14 input  -60.55 | X-H torsion
[ 11005 11000 10999 10996 ] final   50.65 input  -57.11 | X-H torsion

> <Gold.Protein.ActiveResidues>
 VAL166  LYS551  ARG553  GLY616  TRP617  ASP618  TYR619  PRO620  LYS621  CYS622 
 ASP623  PHE694  ASN695  SER759  ASP760  ASP761  ALA762  ILE779  LEU786  VAL792 
 PHE793  MET794  SER795  GLU796  ALA797  LYS798  CYS799  TRP800  GLU811  SER814 

> <Gold.Protein.RotatedAtoms>
  150.9288  134.8704  159.7537 H   0  0  0  0  0  0  0  0  0  0  0  0  # atno 6907 bound_to 6896
  152.5028  134.4109  159.9458 H   0  0  0  0  0  0  0  0  0  0  0  0  # atno 6908 bound_to 6896
  151.4137  133.3679  159.2782 H   0  0  0  0  0  0  0  0  0  0  0  0  # atno 6909 bound_to 6896
  144.9846  139.4469  143.5369 H   0  0  0  0  0  0  0  0  0  0  0  0  # atno 7974 bound_to 7965
  154.5876  140.0664  156.9193 H   0  0  0  0  0  0  0  0  0  0  0  0  # atno 8008 bound_to 7997
  155.2351  140.3340  155.4280 H   0  0  0  0  0  0  0  0  0  0  0  0  # atno 8009 bound_to 7997
  156.2234  140.1808  156.7407 H   0  0  0  0  0  0  0  0  0  0  0  0  # atno 8010 bound_to 7997
  140.2643  144.3337  150.6308 H   0  0  0  0  0  0  0  0  0  0  0  0  # atno 10167 bound_to 10162
  156.1794  130.4150  149.9528 H   0  0  0  0  0  0  0  0  0  0  0  0  # atno 10718 bound_to 10713
  154.5091  135.5774  153.6590 H   0  0  0  0  0  0  0  0  0  0  0  0  # atno 10763 bound_to 10752
  152.9893  135.6154  154.2903 H   0  0  0  0  0  0  0  0  0  0  0  0  # atno 10764 bound_to 10752
  154.2816  135.2851  155.2674 H   0  0  0  0  0  0  0  0  0  0  0  0  # atno 10765 bound_to 10752
  140.1000  134.5094  155.8772 H   0  0  0  0  0  0  0  0  0  0  0  0  # atno 11005 bound_to 11000
  146.3417  139.9140  142.8776 LP  0  0  0  0  0  0  0  0  0  0  0  0  # atno 17320 bound_to 7965
  145.2372  140.9995  143.3957 LP  0  0  0  0  0  0  0  0  0  0  0  0  # atno 17321 bound_to 7965
  140.5940  143.2167  151.7198 LP  0  0  0  0  0  0  0  0  0  0  0  0  # atno 17342 bound_to 10162
  139.5007  144.3895  152.0294 LP  0  0  0  0  0  0  0  0  0  0  0  0  # atno 17343 bound_to 10162
  156.7303  130.9041  151.3625 LP  0  0  0  0  0  0  0  0  0  0  0  0  # atno 17370 bound_to 10713
  157.6858  130.9184  150.0383 LP  0  0  0  0  0  0  0  0  0  0  0  0  # atno 17371 bound_to 10713
  141.2103  133.6693  156.6498 LP  0  0  0  0  0  0  0  0  0  0  0  0  # atno 17394 bound_to 11000
  140.3234  134.7989  157.4270 LP  0  0  0  0  0  0  0  0  0  0  0  0  # atno 17395 bound_to 11000

$$$$
