AV-unprocessed.smi:2702|AV-procd|sdf|10434|dock3
  -GOLD-   2272014473D 1   1.00000     0.00000
 Structure written by MMmdl.
 47 48  0  0  0  0  0  0  0  0  1 V2000
  149.5768  128.1387  153.9172 C   0  0  0  0  0  0  0  0  0  0  0  0
  149.9969  129.3952  154.4191 O   0  0  0  0  0  0  0  0  0  0  0  0
  149.4350  130.4814  153.7018 C   0  0  0  0  0  0  0  0  0  0  0  0
  149.5779  131.7672  154.4905 C   0  0  0  0  0  0  0  0  0  0  0  0
  150.1537  131.7977  155.7149 C   0  0  0  0  0  0  0  0  0  0  0  0
  150.2662  133.0546  156.4553 C   0  0  0  0  0  0  0  0  0  0  0  0
  150.7864  133.1247  157.5692 O   0  0  0  0  0  0  0  0  0  0  0  0
  149.7510  134.1465  155.8161 N   0  0  0  0  0  0  0  0  0  0  0  0
  149.7943  135.4844  156.4340 C   0  0  0  0  0  0  0  0  0  0  0  0
  150.5751  136.5094  155.5993 C   0  0  0  0  0  0  0  0  0  0  0  0
  151.7843  136.3738  155.4091 O   0  0  0  0  0  0  0  0  0  0  0  0
  149.8597  137.5375  155.1182 N   0  0  0  0  0  0  0  0  0  0  0  0
  150.3627  138.6273  154.2790 C   0  0  2  0  0  0  0  0  0  0  0  0
  151.7534  139.0662  154.7729 C   0  0  0  0  0  0  0  0  0  0  0  0
  151.6798  139.7795  156.1309 C   0  0  0  0  0  0  0  0  0  0  0  0
  150.7117  140.9688  156.0751 C   0  0  0  0  0  0  0  0  0  0  0  0
  149.3015  140.5520  155.6080 C   0  0  1  0  0  0  0  0  0  0  0  0
  148.3765  141.7822  155.5870 C   0  0  0  0  0  0  0  0  0  0  0  0
  149.3718  139.8216  154.2374 C   0  0  2  0  0  0  0  0  0  0  0  0
  147.9880  139.3905  153.7098 C   0  0  0  0  0  0  0  0  0  0  0  0
  149.1474  134.0554  154.5460 C   0  0  0  0  0  0  0  0  0  0  0  0
  149.0620  132.9304  153.9103 N   0  0  0  0  0  0  0  0  0  0  0  0
  150.0317  127.3398  154.5028 H   0  0  0  0  0  0  0  0  0  0  0  0
  149.8795  128.0085  152.8775 H   0  0  0  0  0  0  0  0  0  0  0  0
  148.4933  128.0299  153.9831 H   0  0  0  0  0  0  0  0  0  0  0  0
  149.9395  130.5988  152.7409 H   0  0  0  0  0  0  0  0  0  0  0  0
  148.3812  130.2886  153.4923 H   0  0  0  0  0  0  0  0  0  0  0  0
  150.5398  130.8899  156.1552 H   0  0  0  0  0  0  0  0  0  0  0  0
  148.7754  135.8450  156.5893 H   0  0  0  0  0  0  0  0  0  0  0  0
  150.2365  135.4542  157.4315 H   0  0  0  0  0  0  0  0  0  0  0  0
  148.8734  137.5593  155.3333 H   0  0  0  0  0  0  0  0  0  0  0  0
  150.4907  138.2632  153.2581 H   0  0  0  0  0  0  0  0  0  0  0  0
  152.4208  138.2059  154.8375 H   0  0  0  0  0  0  0  0  0  0  0  0
  152.1982  139.7402  154.0397 H   0  0  0  0  0  0  0  0  0  0  0  0
  151.3589  139.0799  156.9036 H   0  0  0  0  0  0  0  0  0  0  0  0
  152.6728  140.1232  156.4219 H   0  0  0  0  0  0  0  0  0  0  0  0
  150.6563  141.4333  157.0604 H   0  0  0  0  0  0  0  0  0  0  0  0
  151.1121  141.7274  155.4011 H   0  0  0  0  0  0  0  0  0  0  0  0
  148.8980  139.8574  156.3463 H   0  0  0  0  0  0  0  0  0  0  0  0
  148.6778  142.4922  154.8161 H   0  0  0  0  0  0  0  0  0  0  0  0
  148.3986  142.3041  156.5442 H   0  0  0  0  0  0  0  0  0  0  0  0
  147.3388  141.5055  155.4030 H   0  0  0  0  0  0  0  0  0  0  0  0
  149.7711  140.5330  153.5126 H   0  0  0  0  0  0  0  0  0  0  0  0
  147.4506  138.7810  154.4370 H   0  0  0  0  0  0  0  0  0  0  0  0
  148.0843  138.8060  152.7943 H   0  0  0  0  0  0  0  0  0  0  0  0
  147.3630  140.2505  153.4707 H   0  0  0  0  0  0  0  0  0  0  0  0
  148.7576  134.9913  154.1427 H   0  0  0  0  0  0  0  0  0  0  0  0
  1  2  1  0  0  0  0
  1 23  1  0  0  0  0
  1 24  1  0  0  0  0
  1 25  1  0  0  0  0
  2  3  1  0  0  0  0
  3  4  1  0  0  0  0
  3 26  1  0  0  0  0
  3 27  1  0  0  0  0
  4 22  1  0  0  0  0
  4  5  2  0  0  0  0
  5  6  1  0  0  0  0
  5 28  1  0  0  0  0
  6  7  2  0  0  0  0
  6  8  1  0  0  0  0
  8  9  1  0  0  0  0
  8 21  1  0  0  0  0
  9 10  1  0  0  0  0
  9 29  1  0  0  0  0
  9 30  1  0  0  0  0
 10 11  2  0  0  0  0
 10 12  1  0  0  0  0
 12 13  1  0  0  0  0
 12 31  1  0  0  0  0
 13 19  1  0  0  0  0
 13 14  1  0  0  0  0
 13 32  1  0  0  0  0
 14 15  1  0  0  0  0
 14 33  1  0  0  0  0
 14 34  1  0  0  0  0
 15 16  1  0  0  0  0
 15 35  1  0  0  0  0
 15 36  1  0  0  0  0
 16 17  1  0  0  0  0
 16 37  1  0  0  0  0
 16 38  1  0  0  0  0
 17 18  1  0  0  0  0
 17 19  1  0  0  0  0
 17 39  1  0  0  0  0
 18 40  1  0  0  0  0
 18 41  1  0  0  0  0
 18 42  1  0  0  0  0
 19 20  1  0  0  0  0
 19 43  1  0  0  0  0
 20 44  1  0  0  0  0
 20 45  1  0  0  0  0
 20 46  1  0  0  0  0
 21 22  2  0  0  0  0
 21 47  1  0  0  0  0
M  END
> <s_m_source_file>
AV-unprocessed.smi

> <i_m_source_file_index>
2702

> <i_lp_mmshare_version>
43012

> <i_f3d_flags>
0

> <s_epik_input>
W0NIM11PW0NIMl1jMVtjSF1jKD1PKW4oW2NIXW4xKVtDSDJdQyg9TylbTkhdW0NAQEhdMltDSDJdW0NIMl1bQ0gyXVtDQEBIXShbQ0gzXSlbQ0BIXTJbQ0gzXQ==

> <s_epik_cmdline>
J2VwaWtfcHl0aG9uJywgJy1waCcsICc3LjAnLCAnLXRuJywgJzgnLCAnLW1hJywgJzIwMCcsICctbWV0YWxfYmluZGluZycsICctaW1hZScsICc8aW5maWxlLm1hZT4nLCAnLW9tYWUnLCAnPG91dGZpbGUubWFlPic=

> <r_lp_tautomer_probability>
1

> <r_epik_Ionization_Penalty>
1.22164e-06

> <r_epik_Ionization_Penalty_Charging>
3.17988e-07

> <r_epik_Ionization_Penalty_Neutral>
9.03656e-07

> <r_epik_State_Penalty>
-0

> <r_epik_Charging_Adjusted_Penalty>
3.17988e-07

> <i_epik_Tot_Q>
0

> <i_epik_Tot_abs_Q>
0

> <r_epik_Metal_State_Penalty>
-0

> <b_epik_Metal_Only>
0

> <s_lp_Force_Field>
OPLS_2005

> <r_lp_Energy>
16.9419

> <b_lp_Chiralities_Consistent>
1

> <s_lp_Variant>
AV-unprocessed.smi:2702-5

> <Gold.Version>
5.8.1

> <Gold.Id.Protein>
6NUR|6NUR_protein|mol2

> <Gold.PLP.Fitness>
42.8199

> <Gold.PLP.PLP>
-34.7084

> <Gold.PLP.part.hbond>
-1.8917

> <Gold.PLP.part.metal>
0.0000

> <Gold.PLP.part.buried>
-1.0370

> <Gold.PLP.part.nonpolar>
-31.1079

> <Gold.PLP.part.repulsive>
0.3623

> <Gold.PLP.ligand.clash>
0.0000

> <Gold.PLP.ligand.torsion>
0.3222

> <Gold.PLP.Chemscore.Hbond>
1.9033

> <Gold.PLP.Chemscore.CHOScore>
1.0000

> <Gold.PLP.Chemscore.Metal>
0.0000

> <Gold.Chemscore.Hbonds>
donor molecule, donor type, donor heavy atom, donor atom, acceptor molecule, acceptor atom, score
      P1  H  6896  6908       L1     7  0.85
      P1  H 10752 10763       L1    11  1.00
      L1  C    21    47       P1  7948  0.88

> <Gold.PLP.Chemscore.Internal.Correction>
0.0462

> <Gold.Rescore>
     Score         DG    S(hbond)    S(metal)    S(lipo)     H(rot)  DE(clash)    DE(int)     intcor
     13.85     -15.41       1.93        0.00      71.99       1.93       0.03       1.54       ----

> <Gold.Chemscore.Fitness>
13.8481

> <Gold.Chemscore.DG>
-15.4147

> <Gold.Chemscore.ZeroCoef>
-5.4800

> <Gold.Chemscore.Hbond>
1.9306

> <Gold.Chemscore.Metal>
0.0000

> <Gold.Chemscore.Lipo>
71.9934

> <Gold.Chemscore.Internal_Hbond>
0.0000

> <Gold.Chemscore.DEClash>
0.0296

> <Gold.Chemscore.DEInternal>
1.5370

> <Gold.Chemscore.Rot>
1.9284

> <Gold.Chemscore.Internal.Correction>
   9.000000E+99

> <Gold.Chemscore.Hbonds>
donor molecule, donor type, donor heavy atom, donor atom, acceptor molecule, acceptor atom, score
      P1  H  6896  6908       L1     7  0.85
      P1  H 10752 10763       L1    11  0.98

> <Gold.Chemscore.Hbond.Weighted>
-6.4482

> <Gold.Chemscore.Metal.Weighted>
-0.0000

> <Gold.Chemscore.Lipo.Weighted>
-8.4232

> <Gold.Chemscore.Internal_Hbond.Weighted>
0.0000

> <Gold.Chemscore.DEClash.Weighted>
0.0296

> <Gold.Chemscore.DEInternal.Weighted>
1.5370

> <Gold.Chemscore.Rot.Weighted>
4.9368

> <Gold.Chemscore.Internal.Correction.Weighted>
   9.000000E+99

> <Gold.Protein.RotatedTorsions>
[ 6907 6896 6895 6894 ] final   77.07 input  -60.11 | X-H torsion
[ 7974 7965 7964 7962 ] final  -89.60 input  175.53 | X-H torsion
[ 8008 7997 7996 7995 ] final -130.29 input   59.86 | X-H torsion
[ 10167 10162 10161 10158 ] final -148.54 input  -65.29 | X-H torsion
[ 10718 10713 10712 10709 ] final   89.30 input   66.30 | X-H torsion
[ 10763 10752 10751 10750 ] final   79.50 input  -60.55 | X-H torsion
[ 11005 11000 10999 10996 ] final   43.10 input  -57.11 | X-H torsion

> <Gold.Protein.ActiveResidues>
 VAL166  LYS551  ARG553  GLY616  TRP617  ASP618  TYR619  PRO620  LYS621  CYS622 
 ASP623  PHE694  ASN695  SER759  ASP760  ASP761  ALA762  ILE779  LEU786  VAL792 
 PHE793  MET794  SER795  GLU796  ALA797  LYS798  CYS799  TRP800  GLU811  SER814 

> <Gold.Protein.RotatedAtoms>
  152.5101  134.3872  159.9371 H   0  0  0  0  0  0  0  0  0  0  0  0  # atno 6907 bound_to 6896
  151.3831  133.3808  159.2720 H   0  0  0  0  0  0  0  0  0  0  0  0  # atno 6908 bound_to 6896
  150.9489  134.8912  159.7718 H   0  0  0  0  0  0  0  0  0  0  0  0  # atno 6909 bound_to 6896
  145.4376  140.9558  143.2093 H   0  0  0  0  0  0  0  0  0  0  0  0  # atno 7974 bound_to 7965
  155.2934  140.0449  157.3024 H   0  0  0  0  0  0  0  0  0  0  0  0  # atno 8008 bound_to 7997
  154.5528  140.2322  155.8425 H   0  0  0  0  0  0  0  0  0  0  0  0  # atno 8009 bound_to 7997
  156.1982  140.3033  155.9477 H   0  0  0  0  0  0  0  0  0  0  0  0  # atno 8010 bound_to 7997
  139.7522  143.8500  152.2589 H   0  0  0  0  0  0  0  0  0  0  0  0  # atno 10167 bound_to 10162
  157.6954  131.0328  150.3405 H   0  0  0  0  0  0  0  0  0  0  0  0  # atno 10718 bound_to 10713
  153.0958  135.4837  154.8775 H   0  0  0  0  0  0  0  0  0  0  0  0  # atno 10763 bound_to 10752
  154.7322  135.3063  154.8874 H   0  0  0  0  0  0  0  0  0  0  0  0  # atno 10764 bound_to 10752
  153.9506  135.6824  153.4797 H   0  0  0  0  0  0  0  0  0  0  0  0  # atno 10765 bound_to 10752
  140.1677  134.4262  155.8277 H   0  0  0  0  0  0  0  0  0  0  0  0  # atno 11005 bound_to 11000
  144.8142  139.5907  143.7016 LP  0  0  0  0  0  0  0  0  0  0  0  0  # atno 17320 bound_to 7965
  146.2574  139.6332  142.9386 LP  0  0  0  0  0  0  0  0  0  0  0  0  # atno 17321 bound_to 7965
  139.8482  144.7177  150.9246 LP  0  0  0  0  0  0  0  0  0  0  0  0  # atno 17342 bound_to 10162
  140.7799  143.3922  151.1290 LP  0  0  0  0  0  0  0  0  0  0  0  0  # atno 17343 bound_to 10162
  156.3866  130.3890  149.7061 LP  0  0  0  0  0  0  0  0  0  0  0  0  # atno 17370 bound_to 10713
  156.4425  130.7868  151.2889 LP  0  0  0  0  0  0  0  0  0  0  0  0  # atno 17371 bound_to 10713
  141.2215  133.6941  156.7707 LP  0  0  0  0  0  0  0  0  0  0  0  0  # atno 17394 bound_to 11000
  140.2414  134.8610  157.3577 LP  0  0  0  0  0  0  0  0  0  0  0  0  # atno 17395 bound_to 11000

$$$$
