AV-unprocessed.smi:1260|AV-procd|sdf|5300|dock3
  -GOLD-   22720 4423D 1   1.00000     0.00000
 Structure written by MMmdl.
 37 39  0  0  0  0  0  0  0  0  2 V2000
  147.4938  131.8904  153.6075 O   0  0  0  0  0  0  0  0  0  0  0  0
  148.1225  132.9385  153.4654 C   0  0  0  0  0  0  0  0  0  0  0  0
  149.5448  133.0563  154.0141 C   0  0  0  0  0  0  0  0  0  0  0  0
  149.5549  132.9622  155.4617 N   0  0  0  0  0  0  0  0  0  0  0  0
  150.5588  133.0299  156.3385 C   0  0  0  0  0  0  0  0  0  0  0  0
  150.1316  132.8761  157.5826 N   0  0  0  0  0  0  0  0  0  0  0  0
  148.7659  132.7054  157.4282 N   0  0  0  0  0  0  0  0  0  0  0  0
  148.4179  132.7550  156.1718 N   0  0  0  0  0  0  0  0  0  0  0  0
  147.6298  134.0184  152.8384 N   0  0  0  0  0  0  0  0  0  0  0  0
  146.2888  134.1279  152.2717 C   0  0  1  0  0  0  0  0  0  0  0  0
  145.7834  135.5763  152.2101 C   0  0  0  0  0  0  0  0  0  0  0  0
  144.9936  135.6784  150.8900 C   0  0  0  0  0  0  0  0  0  0  0  0
  144.9973  134.3263  150.2851 N   0  3  2  0  0  0  0  0  0  0  0  0
  143.7392  133.5826  150.5725 C   0  0  0  0  0  0  0  0  0  0  0  0
  143.8296  132.1077  150.1598 C   0  0  0  0  0  0  0  0  0  0  0  0
  145.0046  131.4301  150.8692 C   0  0  0  0  0  0  0  0  0  0  0  0
  146.3012  132.1673  150.5199 C   0  0  0  0  0  0  0  0  0  0  0  0
  146.2298  133.6849  150.8041 C   0  0  2  0  0  0  0  0  0  0  0  0
  150.1711  132.2609  153.6080 H   0  0  0  0  0  0  0  0  0  0  0  0
  149.9870  134.0054  153.7065 H   0  0  0  0  0  0  0  0  0  0  0  0
  151.5929  133.1840  156.0674 H   0  0  0  0  0  0  0  0  0  0  0  0
  148.2219  134.8341  152.7710 H   0  0  0  0  0  0  0  0  0  0  0  0
  145.5789  133.5466  152.8630 H   0  0  0  0  0  0  0  0  0  0  0  0
  145.1606  135.8106  153.0740 H   0  0  0  0  0  0  0  0  0  0  0  0
  146.6100  136.2884  152.2005 H   0  0  0  0  0  0  0  0  0  0  0  0
  143.9850  136.0677  151.0381 H   0  0  0  0  0  0  0  0  0  0  0  0
  145.5043  136.3603  150.2092 H   0  0  0  0  0  0  0  0  0  0  0  0
  143.5044  133.6448  151.6363 H   0  0  0  0  0  0  0  0  0  0  0  0
  142.9151  134.0637  150.0444 H   0  0  0  0  0  0  0  0  0  0  0  0
  142.8999  131.5945  150.4078 H   0  0  0  0  0  0  0  0  0  0  0  0
  143.9495  132.0292  149.0784 H   0  0  0  0  0  0  0  0  0  0  0  0
  144.8469  131.4331  151.9483 H   0  0  0  0  0  0  0  0  0  0  0  0
  145.0753  130.3847  150.5673 H   0  0  0  0  0  0  0  0  0  0  0  0
  147.1433  131.7182  151.0456 H   0  0  0  0  0  0  0  0  0  0  0  0
  146.5041  132.0219  149.4579 H   0  0  0  0  0  0  0  0  0  0  0  0
  147.0674  134.1532  150.2826 H   0  0  0  0  0  0  0  0  0  0  0  0
  145.0735  134.4083  149.2812 H   0  0  0  0  0  0  0  0  0  0  0  0
  1  2  2  0  0  0  0
  2  3  1  0  0  0  0
  2  9  1  0  0  0  0
  3  4  1  0  0  0  0
  3 19  1  0  0  0  0
  3 20  1  0  0  0  0
  4  8  1  0  0  0  0
  4  5  1  0  0  0  0
  5  6  2  0  0  0  0
  5 21  1  0  0  0  0
  6  7  1  0  0  0  0
  7  8  2  0  0  0  0
  9 10  1  0  0  0  0
  9 22  1  0  0  0  0
 10 18  1  0  0  0  0
 10 11  1  0  0  0  0
 10 23  1  0  0  0  0
 11 12  1  0  0  0  0
 11 24  1  0  0  0  0
 11 25  1  0  0  0  0
 12 13  1  0  0  0  0
 12 26  1  0  0  0  0
 12 27  1  0  0  0  0
 13 18  1  0  0  0  0
 13 14  1  0  0  0  0
 13 37  1  0  0  0  0
 14 15  1  0  0  0  0
 14 28  1  0  0  0  0
 14 29  1  0  0  0  0
 15 16  1  0  0  0  0
 15 30  1  0  0  0  0
 15 31  1  0  0  0  0
 16 17  1  0  0  0  0
 16 32  1  0  0  0  0
 16 33  1  0  0  0  0
 17 18  1  0  0  0  0
 17 34  1  0  0  0  0
 17 35  1  0  0  0  0
 18 36  1  0  0  0  0
M  CHG  1  13   1
M  END
> <s_m_source_file>
AV-unprocessed.smi

> <i_m_source_file_index>
1260

> <i_lp_mmshare_version>
43012

> <i_f3d_flags>
0

> <s_epik_input>
bjFubltjSF1uMVtDSDJdQyg9TylbTkhdW0NASF0oW0NIMl1bQ0gyXTIpW0NAQEhdKE4yMylbQ0gyXVtDSDJdW0NIMl1bQ0gyXTM=

> <s_epik_cmdline>
J2VwaWtfcHl0aG9uJywgJy1waCcsICc3LjAnLCAnLXRuJywgJzgnLCAnLW1hJywgJzIwMCcsICctbWV0YWxfYmluZGluZycsICctaW1hZScsICc8aW5maWxlLm1hZT4nLCAnLW9tYWUnLCAnPG91dGZpbGUubWFlPic=

> <r_lp_tautomer_probability>
1

> <r_epik_Ionization_Penalty>
0.00234324

> <r_epik_Ionization_Penalty_Charging>
0.00233897

> <r_epik_Ionization_Penalty_Neutral>
4.26861e-06

> <r_epik_State_Penalty>
0.00161477

> <r_epik_Charging_Adjusted_Penalty>
0.00395374

> <i_epik_Tot_Q>
1

> <i_epik_Tot_abs_Q>
1

> <r_epik_Metal_State_Penalty>
-0

> <b_epik_Metal_Only>
0

> <s_lp_Force_Field>
OPLS_2005

> <r_lp_Energy>
39.0739

> <b_lp_Chiralities_Consistent>
1

> <s_lp_Variant>
AV-unprocessed.smi:1260-8

> <Gold.Version>
5.8.1

> <Gold.Id.Protein>
6NUR|6NUR_protein|mol2

> <Gold.PLP.Fitness>
39.1285

> <Gold.PLP.PLP>
-30.9004

> <Gold.PLP.part.hbond>
-3.0000

> <Gold.PLP.part.metal>
0.0000

> <Gold.PLP.part.buried>
-1.0031

> <Gold.PLP.part.nonpolar>
-27.2910

> <Gold.PLP.part.repulsive>
0.1266

> <Gold.PLP.ligand.clash>
0.0000

> <Gold.PLP.ligand.torsion>
0.3909

> <Gold.PLP.Chemscore.Hbond>
3.0000

> <Gold.PLP.Chemscore.CHOScore>
0.0000

> <Gold.PLP.Chemscore.Metal>
0.0000

> <Gold.Chemscore.Hbonds>
donor molecule, donor type, donor heavy atom, donor atom, acceptor molecule, acceptor atom, score
      L1  H     9    22       P1  7948  1.00
      L1  H    13    37       P1  7921  1.00
      P1  H  6896  6908       L1     6  1.00

> <Gold.PLP.Chemscore.Internal.Correction>
0.0099

> <Gold.Rescore>
     Score         DG    S(hbond)    S(metal)    S(lipo)     H(rot)  DE(clash)    DE(int)     intcor
     15.22     -17.16       2.69        0.00      66.18       1.98       0.19       1.74       ----

> <Gold.Chemscore.Fitness>
15.2235

> <Gold.Chemscore.DG>
-17.1582

> <Gold.Chemscore.ZeroCoef>
-5.4800

> <Gold.Chemscore.Hbond>
2.6924

> <Gold.Chemscore.Metal>
0.0000

> <Gold.Chemscore.Lipo>
66.1825

> <Gold.Chemscore.Internal_Hbond>
0.0000

> <Gold.Chemscore.DEClash>
0.1950

> <Gold.Chemscore.DEInternal>
1.7398

> <Gold.Chemscore.Rot>
1.9757

> <Gold.Chemscore.Internal.Correction>
   9.000000E+99

> <Gold.Chemscore.Hbonds>
donor molecule, donor type, donor heavy atom, donor atom, acceptor molecule, acceptor atom, score
      L1  H     9    22       P1  7948  0.67
      L1  H    13    37       P1  7921  0.91
      P1  H  6896  6908       L1     6  0.98

> <Gold.Chemscore.Hbond.Weighted>
-8.9926

> <Gold.Chemscore.Metal.Weighted>
-0.0000

> <Gold.Chemscore.Lipo.Weighted>
-7.7434

> <Gold.Chemscore.Internal_Hbond.Weighted>
0.0000

> <Gold.Chemscore.DEClash.Weighted>
0.1950

> <Gold.Chemscore.DEInternal.Weighted>
1.7398

> <Gold.Chemscore.Rot.Weighted>
5.0578

> <Gold.Chemscore.Internal.Correction.Weighted>
   9.000000E+99

> <Gold.Protein.RotatedTorsions>
[ 6907 6896 6895 6894 ] final   97.69 input  -60.11 | X-H torsion
[ 7974 7965 7964 7962 ] final  -63.59 input  175.53 | X-H torsion
[ 8008 7997 7996 7995 ] final   84.19 input   59.86 | X-H torsion
[ 10167 10162 10161 10158 ] final  170.56 input  -65.29 | X-H torsion
[ 10718 10713 10712 10709 ] final  103.43 input   66.30 | X-H torsion
[ 10763 10752 10751 10750 ] final  143.98 input  -60.55 | X-H torsion
[ 11005 11000 10999 10996 ] final   74.35 input  -57.11 | X-H torsion

> <Gold.Protein.ActiveResidues>
 VAL166  LYS551  ARG553  GLY616  TRP617  ASP618  TYR619  PRO620  LYS621  CYS622 
 ASP623  PHE694  ASN695  SER759  ASP760  ASP761  ALA762  ILE779  LEU786  VAL792 
 PHE793  MET794  SER795  GLU796  ALA797  LYS798  CYS799  TRP800  GLU811  SER814 

> <Gold.Protein.RotatedAtoms>
  152.5420  134.0694  159.8187 H   0  0  0  0  0  0  0  0  0  0  0  0  # atno 6907 bound_to 6896
  151.0811  133.5382  159.2628 H   0  0  0  0  0  0  0  0  0  0  0  0  # atno 6908 bound_to 6896
  151.2209  135.0526  159.9003 H   0  0  0  0  0  0  0  0  0  0  0  0  # atno 6909 bound_to 6896
  145.7771  140.8782  143.0349 H   0  0  0  0  0  0  0  0  0  0  0  0  # atno 7974 bound_to 7965
  155.9337  140.3413  155.6270 H   0  0  0  0  0  0  0  0  0  0  0  0  # atno 8008 bound_to 7997
  155.7125  140.0773  157.2383 H   0  0  0  0  0  0  0  0  0  0  0  0  # atno 8009 bound_to 7997
  154.4090  140.1620  156.2299 H   0  0  0  0  0  0  0  0  0  0  0  0  # atno 8010 bound_to 7997
  139.5022  144.3582  151.9852 H   0  0  0  0  0  0  0  0  0  0  0  0  # atno 10167 bound_to 10162
  157.6773  131.0778  150.5553 H   0  0  0  0  0  0  0  0  0  0  0  0  # atno 10718 bound_to 10713
  153.9812  135.2941  155.3420 H   0  0  0  0  0  0  0  0  0  0  0  0  # atno 10763 bound_to 10752
  154.7267  135.5085  153.8901 H   0  0  0  0  0  0  0  0  0  0  0  0  # atno 10764 bound_to 10752
  153.0853  135.6691  154.0076 H   0  0  0  0  0  0  0  0  0  0  0  0  # atno 10765 bound_to 10752
  139.9395  134.7425  156.1137 H   0  0  0  0  0  0  0  0  0  0  0  0  # atno 11005 bound_to 11000
  144.6802  139.9937  143.7484 LP  0  0  0  0  0  0  0  0  0  0  0  0  # atno 17320 bound_to 7965
  146.0111  139.3171  143.0870 LP  0  0  0  0  0  0  0  0  0  0  0  0  # atno 17321 bound_to 7965
  140.3019  144.3637  150.6058 LP  0  0  0  0  0  0  0  0  0  0  0  0  # atno 17342 bound_to 10162
  140.5867  143.2169  151.7329 LP  0  0  0  0  0  0  0  0  0  0  0  0  # atno 17343 bound_to 10162
  156.5857  130.4316  149.5958 LP  0  0  0  0  0  0  0  0  0  0  0  0  # atno 17370 bound_to 10713
  156.2624  130.6970  151.1743 LP  0  0  0  0  0  0  0  0  0  0  0  0  # atno 17371 bound_to 10713
  141.1024  133.6672  156.2785 LP  0  0  0  0  0  0  0  0  0  0  0  0  # atno 17394 bound_to 11000
  140.5988  134.5576  157.5513 LP  0  0  0  0  0  0  0  0  0  0  0  0  # atno 17395 bound_to 11000

$$$$
