AV-unprocessed.smi:290|AV-procd|sdf|2244|dock10
  -GOLD-   2262022123D 1   1.00000     0.00000
 Structure written by MMmdl.
 59 62  0  0  0  0  0  0  0  0  2 V2000
  150.0526  138.1696  154.4978 C   0  0  0  0  0  0  0  0  0  0  0  0
  149.6832  139.2862  155.4904 C   0  0  1  0  0  0  0  0  0  0  0  0
  150.7928  139.5769  156.3393 O   0  0  0  0  0  0  0  0  0  0  0  0
  151.1598  140.9427  156.2117 C   0  0  0  0  0  0  0  0  0  0  0  0
  149.8638  141.6415  155.8232 C   0  0  0  0  0  0  0  0  0  0  0  0
  149.2143  140.6344  154.8867 C   0  0  1  0  0  0  0  0  0  0  0  0
  149.7587  140.8256  153.5903 O   0  0  0  0  0  0  0  0  0  0  0  0
  147.6780  140.8066  154.8063 C   0  0  0  0  0  0  0  0  0  0  0  0
  147.0030  139.6846  154.1736 N   0  0  0  0  0  0  0  0  0  0  0  0
  147.1219  139.2879  152.8622 C   0  0  0  0  0  0  0  0  0  0  0  0
  146.4266  138.2336  152.5377 N   0  0  0  0  0  0  0  0  0  0  0  0
  145.7664  137.8763  153.7091 C   0  0  0  0  0  0  0  0  0  0  0  0
  144.8634  136.8322  154.0743 C   0  0  0  0  0  0  0  0  0  0  0  0
  144.4354  135.8473  153.2375 N   0  0  0  0  0  0  0  0  0  0  0  0
  143.0209  135.6698  152.9248 C   0  0  0  0  0  0  0  0  0  0  0  0
  142.9109  134.3009  152.2400 C   0  0  0  0  0  0  0  0  0  0  0  0
  144.3635  133.9380  151.8845 C   0  0  2  0  0  0  0  0  0  0  0  0
  144.6459  132.4846  151.6886 N   0  3  2  0  0  0  0  0  0  0  0  0
  146.0692  132.2386  151.3405 C   0  0  0  0  0  0  0  0  0  0  0  0
  143.7244  131.8036  150.7366 C   0  0  0  0  0  0  0  0  0  0  0  0
  143.7100  132.4799  149.3546 C   0  0  0  0  0  0  0  0  0  0  0  0
  142.6841  131.9241  148.5590 O   0  0  0  0  0  0  0  0  0  0  0  0
  145.1479  134.5918  153.0417 C   0  0  2  0  0  0  0  0  0  0  0  0
  145.1597  133.7495  154.3404 C   0  0  0  0  0  0  0  0  0  0  0  0
  144.3985  136.8377  155.3520 N   0  0  0  0  0  0  0  0  0  0  0  0
  144.7970  137.7711  156.2200 C   0  0  0  0  0  0  0  0  0  0  0  0
  145.6437  138.7816  156.0246 N   0  0  0  0  0  0  0  0  0  0  0  0
  146.1067  138.7970  154.7429 C   0  0  0  0  0  0  0  0  0  0  0  0
  144.6162  134.4586  150.9583 H   0  0  0  0  0  0  0  0  0  0  0  0
  146.1667  134.7837  152.7097 H   0  0  0  0  0  0  0  0  0  0  0  0
  149.2216  137.9350  153.8332 H   0  0  0  0  0  0  0  0  0  0  0  0
  150.3153  137.2551  155.0297 H   0  0  0  0  0  0  0  0  0  0  0  0
  150.9095  138.4463  153.8829 H   0  0  0  0  0  0  0  0  0  0  0  0
  148.9069  138.9098  156.1567 H   0  0  0  0  0  0  0  0  0  0  0  0
  151.5891  141.3308  157.1355 H   0  0  0  0  0  0  0  0  0  0  0  0
  151.9042  141.0414  155.4205 H   0  0  0  0  0  0  0  0  0  0  0  0
  149.2514  141.7796  156.7153 H   0  0  0  0  0  0  0  0  0  0  0  0
  150.0230  142.6221  155.3726 H   0  0  0  0  0  0  0  0  0  0  0  0
  149.5339  140.0765  153.0600 H   0  0  0  0  0  0  0  0  0  0  0  0
  147.2599  140.9381  155.8051 H   0  0  0  0  0  0  0  0  0  0  0  0
  147.4282  141.7120  154.2516 H   0  0  0  0  0  0  0  0  0  0  0  0
  147.7529  139.8027  152.1522 H   0  0  0  0  0  0  0  0  0  0  0  0
  142.3980  135.7080  153.8195 H   0  0  0  0  0  0  0  0  0  0  0  0
  142.7020  136.4656  152.2507 H   0  0  0  0  0  0  0  0  0  0  0  0
  142.4935  133.5731  152.9373 H   0  0  0  0  0  0  0  0  0  0  0  0
  142.2567  134.3439  151.3687 H   0  0  0  0  0  0  0  0  0  0  0  0
  146.3189  132.6952  150.3819 H   0  0  0  0  0  0  0  0  0  0  0  0
  146.2882  131.1741  151.2725 H   0  0  0  0  0  0  0  0  0  0  0  0
  146.7456  132.6465  152.0904 H   0  0  0  0  0  0  0  0  0  0  0  0
  144.0011  130.7632  150.5783 H   0  0  0  0  0  0  0  0  0  0  0  0
  142.7187  131.7810  151.1586 H   0  0  0  0  0  0  0  0  0  0  0  0
  143.5124  133.5462  149.4685 H   0  0  0  0  0  0  0  0  0  0  0  0
  144.6645  132.3915  148.8371 H   0  0  0  0  0  0  0  0  0  0  0  0
  141.9621  132.5341  148.5270 H   0  0  0  0  0  0  0  0  0  0  0  0
  145.6790  132.8017  154.2033 H   0  0  0  0  0  0  0  0  0  0  0  0
  144.1519  133.5251  154.6900 H   0  0  0  0  0  0  0  0  0  0  0  0
  145.6716  134.2722  155.1481 H   0  0  0  0  0  0  0  0  0  0  0  0
  144.3803  137.6947  157.2135 H   0  0  0  0  0  0  0  0  0  0  0  0
  144.4800  132.0519  152.5863 H   0  0  0  0  0  0  0  0  0  0  0  0
  1  2  1  0  0  0  0
  1 31  1  0  0  0  0
  1 32  1  0  0  0  0
  1 33  1  0  0  0  0
  2  6  1  0  0  0  0
  2  3  1  0  0  0  0
  2 34  1  0  0  0  0
  3  4  1  0  0  0  0
  4  5  1  0  0  0  0
  4 35  1  0  0  0  0
  4 36  1  0  0  0  0
  5  6  1  0  0  0  0
  5 37  1  0  0  0  0
  5 38  1  0  0  0  0
  6  7  1  0  0  0  0
  6  8  1  0  0  0  0
  7 39  1  0  0  0  0
  8  9  1  0  0  0  0
  8 40  1  0  0  0  0
  8 41  1  0  0  0  0
  9 28  1  0  0  0  0
  9 10  1  0  0  0  0
 10 11  2  0  0  0  0
 10 42  1  0  0  0  0
 11 12  1  0  0  0  0
 12 28  2  0  0  0  0
 12 13  1  0  0  0  0
 13 14  1  0  0  0  0
 13 25  2  0  0  0  0
 14 23  1  0  0  0  0
 14 15  1  0  0  0  0
 15 16  1  0  0  0  0
 15 43  1  0  0  0  0
 15 44  1  0  0  0  0
 16 17  1  0  0  0  0
 16 45  1  0  0  0  0
 16 46  1  0  0  0  0
 17 29  1  0  0  0  0
 17 18  1  0  0  0  0
 17 23  1  0  0  0  0
 18 19  1  0  0  0  0
 18 20  1  0  0  0  0
 18 59  1  0  0  0  0
 19 47  1  0  0  0  0
 19 48  1  0  0  0  0
 19 49  1  0  0  0  0
 20 21  1  0  0  0  0
 20 50  1  0  0  0  0
 20 51  1  0  0  0  0
 21 22  1  0  0  0  0
 21 52  1  0  0  0  0
 21 53  1  0  0  0  0
 22 54  1  0  0  0  0
 23 30  1  0  0  0  0
 23 24  1  0  0  0  0
 24 55  1  0  0  0  0
 24 56  1  0  0  0  0
 24 57  1  0  0  0  0
 25 26  1  0  0  0  0
 26 27  2  0  0  0  0
 26 58  1  0  0  0  0
 27 28  1  0  0  0  0
M  CHG  1  18   1
M  END
> <s_m_source_file>
AV-unprocessed.smi

> <i_m_source_file_index>
290

> <i_lp_mmshare_version>
43012

> <i_f3d_flags>
0

> <s_epik_input>
W0NIMl0xW0NIMl1PW0NAQEhdKFtDSDNdKVtDQEBdMShbT0hdKVtDSDJdbihbY0hdbjIpYyhjMjMpbltjSF1uYzNONFtDSDJdW0NIMl1bQ0BIXShbQ0BIXTRbQ0gzXSlOKFtDSDNdKVtDSDJdW0NIMl1bT0hd

> <s_epik_cmdline>
J2VwaWtfcHl0aG9uJywgJy1waCcsICc3LjAnLCAnLXRuJywgJzgnLCAnLW1hJywgJzIwMCcsICctbWV0YWxfYmluZGluZycsICctaW1hZScsICc8aW5maWxlLm1hZT4nLCAnLW9tYWUnLCAnPG91dGZpbGUubWFlPic=

> <r_lp_tautomer_probability>
1

> <r_epik_Ionization_Penalty>
0.0036983

> <r_epik_Ionization_Penalty_Charging>
0.0032725

> <r_epik_Ionization_Penalty_Neutral>
0.000425798

> <r_epik_State_Penalty>
-0

> <r_epik_Charging_Adjusted_Penalty>
0.0032725

> <i_epik_Tot_Q>
1

> <i_epik_Tot_abs_Q>
1

> <r_epik_Metal_State_Penalty>
-0

> <b_epik_Metal_Only>
0

> <s_lp_Force_Field>
OPLS_2005

> <r_lp_Energy>
62.044

> <b_lp_Chiralities_Consistent>
1

> <s_lp_Variant>
AV-unprocessed.smi:290-30

> <Gold.Version>
5.8.1

> <Gold.Id.Protein>
6NUR|6NUR_protein|mol2

> <Gold.PLP.Fitness>
52.1576

> <Gold.PLP.PLP>
-42.0549

> <Gold.PLP.part.hbond>
-6.3924

> <Gold.PLP.part.metal>
0.0000

> <Gold.PLP.part.buried>
-5.3048

> <Gold.PLP.part.nonpolar>
-30.1332

> <Gold.PLP.part.repulsive>
0.3195

> <Gold.PLP.ligand.clash>
0.0000

> <Gold.PLP.ligand.torsion>
1.5533

> <Gold.PLP.Chemscore.Hbond>
3.2846

> <Gold.PLP.Chemscore.CHOScore>
1.0000

> <Gold.PLP.Chemscore.Metal>
0.0000

> <Gold.Chemscore.Hbonds>
donor molecule, donor type, donor heavy atom, donor atom, acceptor molecule, acceptor atom, score
      L1  H     7    39       P1  7957  0.48
      L1  H    22    54       P1 10186  0.25
      P1  H  7989  7998       L1     7  0.37
      P1  H  8011  8017       L1     7  1.00
      P1  H 10785 10796       L1    22  0.86
      L1  C    10    42       P1  7957  1.00

> <Gold.PLP.Chemscore.Internal.Correction>
0.3555

> <Gold.Rescore>
     Score         DG    S(hbond)    S(metal)    S(lipo)     H(rot)  DE(clash)    DE(int)     intcor
     13.08     -15.26       2.48        0.00      86.12       3.35       0.39       1.79       ----

> <Gold.Chemscore.Fitness>
13.0766

> <Gold.Chemscore.DG>
-15.2557

> <Gold.Chemscore.ZeroCoef>
-5.4800

> <Gold.Chemscore.Hbond>
2.4791

> <Gold.Chemscore.Metal>
0.0000

> <Gold.Chemscore.Lipo>
86.1208

> <Gold.Chemscore.Internal_Hbond>
0.0000

> <Gold.Chemscore.DEClash>
0.3934

> <Gold.Chemscore.DEInternal>
1.7857

> <Gold.Chemscore.Rot>
3.3518

> <Gold.Chemscore.Internal.Correction>
   9.000000E+99

> <Gold.Chemscore.Hbonds>
donor molecule, donor type, donor heavy atom, donor atom, acceptor molecule, acceptor atom, score
      L1  H     7    39       P1  7957  0.48
      L1  H    22    54       P1 10186  0.24
      P1  H  7989  7998       L1     7  0.14
      P1  H  8011  8017       L1     7  0.50
      P1  H 10785 10796       L1    22  0.16

> <Gold.Chemscore.Hbond.Weighted>
-8.2801

> <Gold.Chemscore.Metal.Weighted>
-0.0000

> <Gold.Chemscore.Lipo.Weighted>
-10.0761

> <Gold.Chemscore.Internal_Hbond.Weighted>
0.0000

> <Gold.Chemscore.DEClash.Weighted>
0.3934

> <Gold.Chemscore.DEInternal.Weighted>
1.7857

> <Gold.Chemscore.Rot.Weighted>
8.5806

> <Gold.Chemscore.Internal.Correction.Weighted>
   9.000000E+99

> <Gold.Protein.RotatedTorsions>
[ 6907 6896 6895 6894 ] final   31.82 input  -60.11 | X-H torsion
[ 7974 7965 7964 7962 ] final -131.06 input  175.53 | X-H torsion
[ 8008 7997 7996 7995 ] final  -24.10 input   59.86 | X-H torsion
[ 10167 10162 10161 10158 ] final   64.97 input  -65.29 | X-H torsion
[ 10718 10713 10712 10709 ] final  150.24 input   66.30 | X-H torsion
[ 10763 10752 10751 10750 ] final   69.89 input  -60.55 | X-H torsion
[ 11005 11000 10999 10996 ] final   37.89 input  -57.11 | X-H torsion

> <Gold.Protein.ActiveResidues>
 VAL166  LYS551  ARG553  GLY616  TRP617  ASP618  TYR619  PRO620  LYS621  CYS622 
 ASP623  PHE694  ASN695  SER759  ASP760  ASP761  ALA762  ILE779  LEU786  VAL792 
 PHE793  MET794  SER795  GLU796  ALA797  LYS798  CYS799  TRP800  GLU811  SER814 

> <Gold.Protein.RotatedAtoms>
  152.0657  134.9566  160.0574 H   0  0  0  0  0  0  0  0  0  0  0  0  # atno 6907 bound_to 6896
  152.0911  133.4196  159.4553 H   0  0  0  0  0  0  0  0  0  0  0  0  # atno 6908 bound_to 6896
  150.6837  134.2789  159.4662 H   0  0  0  0  0  0  0  0  0  0  0  0  # atno 6909 bound_to 6896
  144.9415  140.7244  143.4843 H   0  0  0  0  0  0  0  0  0  0  0  0  # atno 7974 bound_to 7965
  154.4548  140.1963  156.0412 H   0  0  0  0  0  0  0  0  0  0  0  0  # atno 8008 bound_to 7997
  156.0723  140.3283  155.7564 H   0  0  0  0  0  0  0  0  0  0  0  0  # atno 8009 bound_to 7997
  155.5243  140.0572  157.2892 H   0  0  0  0  0  0  0  0  0  0  0  0  # atno 8010 bound_to 7997
  140.1164  144.4771  150.6947 H   0  0  0  0  0  0  0  0  0  0  0  0  # atno 10167 bound_to 10162
  157.2860  131.0844  151.1497 H   0  0  0  0  0  0  0  0  0  0  0  0  # atno 10718 bound_to 10713
  153.0311  135.5194  154.7358 H   0  0  0  0  0  0  0  0  0  0  0  0  # atno 10763 bound_to 10752
  154.6372  135.2907  155.0149 H   0  0  0  0  0  0  0  0  0  0  0  0  # atno 10764 bound_to 10752
  154.1080  135.6626  153.4932 H   0  0  0  0  0  0  0  0  0  0  0  0  # atno 10765 bound_to 10752
  140.2180  134.3674  155.8018 H   0  0  0  0  0  0  0  0  0  0  0  0  # atno 11005 bound_to 11000
  145.2983  139.1859  143.4703 LP  0  0  0  0  0  0  0  0  0  0  0  0  # atno 17320 bound_to 7965
  146.3287  140.2971  142.8618 LP  0  0  0  0  0  0  0  0  0  0  0  0  # atno 17321 bound_to 7965
  140.6897  143.2369  151.5165 LP  0  0  0  0  0  0  0  0  0  0  0  0  # atno 17342 bound_to 10162
  139.5592  144.2199  152.1663 LP  0  0  0  0  0  0  0  0  0  0  0  0  # atno 17343 bound_to 10162
  157.2913  130.6797  149.6115 LP  0  0  0  0  0  0  0  0  0  0  0  0  # atno 17370 bound_to 10713
  155.9665  130.4420  150.5363 LP  0  0  0  0  0  0  0  0  0  0  0  0  # atno 17371 bound_to 10713
  141.2224  133.7178  156.8529 LP  0  0  0  0  0  0  0  0  0  0  0  0  # atno 17394 bound_to 11000
  140.1879  134.8986  157.3026 LP  0  0  0  0  0  0  0  0  0  0  0  0  # atno 17395 bound_to 11000

$$$$
