AV-unprocessed.smi:1434|AV-procd|sdf|5855|dock8
  -GOLD-   22720 5523D 1   1.00000     0.00000
 Structure written by MMmdl.
 44 45  0  0  0  0  0  0  0  0  3 V2000
  149.4448  133.0081  155.3938 C   0  0  0  0  0  0  0  0  0  0  0  0
  150.8234  133.7828  156.3275 S   0  0  0  0  0  0  0  0  0  0  0  0
  150.2369  134.2524  157.5931 O   0  0  0  0  0  0  0  0  0  0  0  0
  151.8733  132.7547  156.4132 O   0  0  0  0  0  0  0  0  0  0  0  0
  151.2124  134.9995  155.3277 N   0  5  0  0  0  0  0  0  0  0  0  0
  150.5716  136.2981  155.4794 C   0  0  2  0  0  0  0  0  0  0  0  0
  149.1389  136.2882  154.8822 C   0  0  0  0  0  0  0  0  0  0  0  0
  148.5014  137.6998  154.7796 C   0  0  0  0  0  0  0  0  0  0  0  0
  149.4296  138.7211  154.0841 C   0  0  0  0  0  0  0  0  0  0  0  0
  150.7245  138.7042  154.8015 N   0  0  0  0  0  0  0  0  0  0  0  0
  151.2803  139.7586  155.4559 C   0  0  0  0  0  0  0  0  0  0  0  0
  152.3970  139.7231  155.9749 O   0  0  0  0  0  0  0  0  0  0  0  0
  150.4964  140.8459  155.5433 N   0  0  0  0  0  0  0  0  0  0  0  0
  150.8625  142.0741  156.2350 C   0  0  0  0  0  0  0  0  0  0  0  0
  150.6569  141.9281  157.7485 C   0  0  0  0  0  0  0  0  0  0  0  0
  151.0964  143.1658  158.5067 C   0  0  0  0  0  0  0  0  0  0  0  0
  152.0973  143.1210  159.5015 C   0  0  0  0  0  0  0  0  0  0  0  0
  152.4662  144.3117  160.1618 C   0  0  0  0  0  0  0  0  0  0  0  0
  151.8283  145.5204  159.8134 C   0  0  0  0  0  0  0  0  0  0  0  0
  150.8366  145.5080  158.8116 C   0  0  0  0  0  0  0  0  0  0  0  0
  150.5108  144.3468  158.2020 N   0  3  0  0  0  0  0  0  0  0  0  0
  151.3956  137.3851  154.7349 C   0  0  0  0  0  0  0  0  0  0  0  0
  149.0662  132.1536  155.9535 H   0  0  0  0  0  0  0  0  0  0  0  0
  149.8075  132.6739  154.4221 H   0  0  0  0  0  0  0  0  0  0  0  0
  148.6455  133.7353  155.2549 H   0  0  0  0  0  0  0  0  0  0  0  0
  150.5071  136.5922  156.5280 H   0  0  0  0  0  0  0  0  0  0  0  0
  149.1706  135.8541  153.8816 H   0  0  0  0  0  0  0  0  0  0  0  0
  148.4884  135.6421  155.4719 H   0  0  0  0  0  0  0  0  0  0  0  0
  147.5584  137.6332  154.2365 H   0  0  0  0  0  0  0  0  0  0  0  0
  148.2465  138.0653  155.7764 H   0  0  0  0  0  0  0  0  0  0  0  0
  149.5964  138.4269  153.0469 H   0  0  0  0  0  0  0  0  0  0  0  0
  148.9443  139.6958  154.0387 H   0  0  0  0  0  0  0  0  0  0  0  0
  149.5832  140.8080  155.1140 H   0  0  0  0  0  0  0  0  0  0  0  0
  151.9065  142.3141  156.0260 H   0  0  0  0  0  0  0  0  0  0  0  0
  150.2579  142.8951  155.8468 H   0  0  0  0  0  0  0  0  0  0  0  0
  149.6063  141.7327  157.9678 H   0  0  0  0  0  0  0  0  0  0  0  0
  151.2149  141.0669  158.1192 H   0  0  0  0  0  0  0  0  0  0  0  0
  152.5800  142.1881  159.7548 H   0  0  0  0  0  0  0  0  0  0  0  0
  153.2302  144.2981  160.9252 H   0  0  0  0  0  0  0  0  0  0  0  0
  152.0970  146.4433  160.3064 H   0  0  0  0  0  0  0  0  0  0  0  0
  150.2989  146.3846  158.4809 H   0  0  0  0  0  0  0  0  0  0  0  0
  152.4070  137.4134  155.1434 H   0  0  0  0  0  0  0  0  0  0  0  0
  151.5144  137.1125  153.6848 H   0  0  0  0  0  0  0  0  0  0  0  0
  149.7918  144.3620  157.4783 H   0  0  0  0  0  0  0  0  0  0  0  0
  1  2  1  0  0  0  0
  1 23  1  0  0  0  0
  1 24  1  0  0  0  0
  1 25  1  0  0  0  0
  2  3  2  0  0  0  0
  2  4  2  0  0  0  0
  2  5  1  0  0  0  0
  5  6  1  0  0  0  0
  6 22  1  0  0  0  0
  6  7  1  0  0  0  0
  6 26  1  0  0  0  0
  7  8  1  0  0  0  0
  7 27  1  0  0  0  0
  7 28  1  0  0  0  0
  8  9  1  0  0  0  0
  8 29  1  0  0  0  0
  8 30  1  0  0  0  0
  9 10  1  0  0  0  0
  9 31  1  0  0  0  0
  9 32  1  0  0  0  0
 10 11  1  0  0  0  0
 10 22  1  0  0  0  0
 11 12  2  0  0  0  0
 11 13  1  0  0  0  0
 13 14  1  0  0  0  0
 13 33  1  0  0  0  0
 14 15  1  0  0  0  0
 14 34  1  0  0  0  0
 14 35  1  0  0  0  0
 15 16  1  0  0  0  0
 15 36  1  0  0  0  0
 15 37  1  0  0  0  0
 16 21  1  0  0  0  0
 16 17  2  0  0  0  0
 17 18  1  0  0  0  0
 17 38  1  0  0  0  0
 18 19  2  0  0  0  0
 18 39  1  0  0  0  0
 19 20  1  0  0  0  0
 19 40  1  0  0  0  0
 20 21  2  0  0  0  0
 20 41  1  0  0  0  0
 21 44  1  0  0  0  0
 22 42  1  0  0  0  0
 22 43  1  0  0  0  0
M  CHG  1   5  -1
M  CHG  1  21   1
M  END
> <s_m_source_file>
AV-unprocessed.smi

> <i_m_source_file_index>
1434

> <i_lp_mmshare_version>
43012

> <i_f3d_flags>
0

> <s_epik_input>
W0NIM11TKD1PKSg9TylbTkhdW0NAQEhdMVtDSDJdW0NIMl1bQ0gyXU4oW0NIMl0xKUMoPU8pW05IXVtDSDJdW0NIMl1jMltjSF1bY0hdW2NIXVtjSF1uMg==

> <s_epik_cmdline>
J2VwaWtfcHl0aG9uJywgJy1waCcsICc3LjAnLCAnLXRuJywgJzgnLCAnLW1hJywgJzIwMCcsICctbWV0YWxfYmluZGluZycsICctaW1hZScsICc8aW5maWxlLm1hZT4nLCAnLW9tYWUnLCAnPG91dGZpbGUubWFlPic=

> <r_epik_Ionization_Penalty>
8.07847

> <r_epik_Ionization_Penalty_Charging>
8.0784

> <r_epik_Ionization_Penalty_Neutral>
6.25603e-05

> <r_epik_State_Penalty>
8.17261

> <r_epik_Charging_Adjusted_Penalty>
16.251

> <i_epik_Tot_Q>
0

> <i_epik_Tot_abs_Q>
2

> <r_epik_Metal_State_Penalty>
4.14042

> <b_epik_Metal_Only>
1

> <s_lp_Force_Field>
OPLS_2005

> <r_lp_Energy>
29.5402

> <b_lp_Chiralities_Consistent>
1

> <s_lp_Variant>
AV-unprocessed.smi:1434-7

> <Gold.Version>
5.8.1

> <Gold.Id.Protein>
6NUR|6NUR_protein|mol2

> <Gold.PLP.Fitness>
53.6702

> <Gold.PLP.PLP>
-37.7101

> <Gold.PLP.part.hbond>
-4.3494

> <Gold.PLP.part.metal>
0.0000

> <Gold.PLP.part.buried>
-0.8867

> <Gold.PLP.part.nonpolar>
-31.5425

> <Gold.PLP.part.repulsive>
0.3127

> <Gold.PLP.ligand.clash>
0.0000

> <Gold.PLP.ligand.torsion>
0.8796

> <Gold.PLP.Chemscore.Hbond>
5.5754

> <Gold.PLP.Chemscore.CHOScore>
0.0000

> <Gold.PLP.Chemscore.Metal>
0.0000

> <Gold.Chemscore.Hbonds>
donor molecule, donor type, donor heavy atom, donor atom, acceptor molecule, acceptor atom, score
      L1  H    21    44       P1  8028  1.90
      P1  H  6896  6909       L1     3  0.80
      P1  H  7997  8009       L1    12  1.00
      P1  H 10752 10763       L1     5  1.70

> <Gold.PLP.Chemscore.Internal.Correction>
0.9932

> <Gold.Rescore>
     Score         DG    S(hbond)    S(metal)    S(lipo)     H(rot)  DE(clash)    DE(int)     intcor
     18.83     -19.78       2.20        0.00      98.07       1.77       0.08       0.86       ----

> <Gold.Chemscore.Fitness>
18.8338

> <Gold.Chemscore.DG>
-19.7772

> <Gold.Chemscore.ZeroCoef>
-5.4800

> <Gold.Chemscore.Hbond>
2.1989

> <Gold.Chemscore.Metal>
0.0000

> <Gold.Chemscore.Lipo>
98.0698

> <Gold.Chemscore.Internal_Hbond>
0.0000

> <Gold.Chemscore.DEClash>
0.0840

> <Gold.Chemscore.DEInternal>
0.8595

> <Gold.Chemscore.Rot>
1.7661

> <Gold.Chemscore.Internal.Correction>
   9.000000E+99

> <Gold.Chemscore.Hbonds>
donor molecule, donor type, donor heavy atom, donor atom, acceptor molecule, acceptor atom, score
      L1  H    21    44       P1  8028  0.20
      P1  H  6896  6909       L1     3  0.80
      P1  H  7997  8009       L1    12  0.96
      P1  H 10752 10763       L1     5  0.25

> <Gold.Chemscore.Hbond.Weighted>
-7.3442

> <Gold.Chemscore.Metal.Weighted>
-0.0000

> <Gold.Chemscore.Lipo.Weighted>
-11.4742

> <Gold.Chemscore.Internal_Hbond.Weighted>
0.0000

> <Gold.Chemscore.DEClash.Weighted>
0.0840

> <Gold.Chemscore.DEInternal.Weighted>
0.8595

> <Gold.Chemscore.Rot.Weighted>
4.5211

> <Gold.Chemscore.Internal.Correction.Weighted>
   9.000000E+99

> <Gold.Protein.RotatedTorsions>
[ 6907 6896 6895 6894 ] final    6.01 input  -60.11 | X-H torsion
[ 7974 7965 7964 7962 ] final -104.16 input  175.53 | X-H torsion
[ 8008 7997 7996 7995 ] final -159.02 input   59.86 | X-H torsion
[ 10167 10162 10161 10158 ] final  138.08 input  -65.29 | X-H torsion
[ 10718 10713 10712 10709 ] final  102.44 input   66.30 | X-H torsion
[ 10763 10752 10751 10750 ] final   65.35 input  -60.55 | X-H torsion
[ 11005 11000 10999 10996 ] final  -29.59 input  -57.11 | X-H torsion

> <Gold.Protein.ActiveResidues>
 VAL166  LYS551  ARG553  GLY616  TRP617  ASP618  TYR619  PRO620  LYS621  CYS622 
 ASP623  PHE694  ASN695  SER759  ASP760  ASP761  ALA762  ILE779  LEU786  VAL792 
 PHE793  MET794  SER795  GLU796  ALA797  LYS798  CYS799  TRP800  GLU811  SER814 

> <Gold.Protein.RotatedAtoms>
  151.6668  135.0982  160.0189 H   0  0  0  0  0  0  0  0  0  0  0  0  # atno 6907 bound_to 6896
  152.3915  133.6681  159.6250 H   0  0  0  0  0  0  0  0  0  0  0  0  # atno 6908 bound_to 6896
  150.7830  133.8863  159.3341 H   0  0  0  0  0  0  0  0  0  0  0  0  # atno 6909 bound_to 6896
  145.2467  140.9224  143.3119 H   0  0  0  0  0  0  0  0  0  0  0  0  # atno 7974 bound_to 7965
  155.7563  140.0833  157.2177 H   0  0  0  0  0  0  0  0  0  0  0  0  # atno 8008 bound_to 7997
  154.4007  140.1551  156.2837 H   0  0  0  0  0  0  0  0  0  0  0  0  # atno 8009 bound_to 7997
  155.8882  140.3417  155.5940 H   0  0  0  0  0  0  0  0  0  0  0  0  # atno 8010 bound_to 7997
  139.5122  144.6374  151.5661 H   0  0  0  0  0  0  0  0  0  0  0  0  # atno 10167 bound_to 10162
  157.6802  131.0753  150.5404 H   0  0  0  0  0  0  0  0  0  0  0  0  # atno 10718 bound_to 10713
  153.0093  135.5360  154.6653 H   0  0  0  0  0  0  0  0  0  0  0  0  # atno 10763 bound_to 10752
  154.5852  135.2853  155.0695 H   0  0  0  0  0  0  0  0  0  0  0  0  # atno 10764 bound_to 10752
  154.1809  135.6516  153.5086 H   0  0  0  0  0  0  0  0  0  0  0  0  # atno 10765 bound_to 10752
  140.9310  133.7338  156.0936 H   0  0  0  0  0  0  0  0  0  0  0  0  # atno 11005 bound_to 11000
  144.9540  139.4051  143.6388 LP  0  0  0  0  0  0  0  0  0  0  0  0  # atno 17320 bound_to 7965
  146.3314  139.8561  142.8864 LP  0  0  0  0  0  0  0  0  0  0  0  0  # atno 17321 bound_to 7965
  140.6127  143.9405  150.6465 LP  0  0  0  0  0  0  0  0  0  0  0  0  # atno 17342 bound_to 10162
  140.2653  143.3494  152.1286 LP  0  0  0  0  0  0  0  0  0  0  0  0  # atno 17343 bound_to 10162
  156.5711  130.4280  149.6019 LP  0  0  0  0  0  0  0  0  0  0  0  0  # atno 17370 bound_to 10713
  156.2740  130.7033  151.1838 LP  0  0  0  0  0  0  0  0  0  0  0  0  # atno 17371 bound_to 10713
  140.7863  134.3668  157.5475 LP  0  0  0  0  0  0  0  0  0  0  0  0  # atno 17394 bound_to 11000
  139.8796  134.9113  156.3033 LP  0  0  0  0  0  0  0  0  0  0  0  0  # atno 17395 bound_to 11000

$$$$
