AV-unprocessed.smi:1007|AV-procd|sdf|4405|dock4
  -GOLD-   22720 2343D 1   1.00000     0.00000
 Structure written by MMmdl.
 57 59  0  0  0  0  0  0  0  0  3 V2000
  142.4179  145.9022  155.7764 C   0  0  0  0  0  0  0  0  0  0  0  0
  142.4940  144.5182  156.0707 O   0  0  0  0  0  0  0  0  0  0  0  0
  143.7469  143.9545  155.7192 C   0  0  0  0  0  0  0  0  0  0  0  0
  143.7011  142.4417  155.9817 C   0  0  0  0  0  0  0  0  0  0  0  0
  144.6284  141.6853  155.1031 N   0  3  0  0  0  0  0  0  0  0  0  0
  145.0585  140.3990  155.7058 C   0  0  0  0  0  0  0  0  0  0  0  0
  145.9369  139.6166  154.7105 C   0  0  0  0  0  0  0  0  0  0  0  0
  147.1313  140.3510  154.2916 N   0  0  0  0  0  0  0  0  0  0  0  0
  148.1322  140.4627  155.3636 C   0  0  0  0  0  0  0  0  0  0  0  0
  149.6011  140.6386  154.9193 C   0  0  1  0  0  0  0  0  0  0  0  0
  149.6328  141.0233  153.5594 O   0  0  0  0  0  0  0  0  0  0  0  0
  150.4692  141.5882  155.7679 C   0  0  0  0  0  0  0  0  0  0  0  0
  151.2802  140.8672  156.7575 N   0  0  0  0  0  0  0  0  0  0  0  0
  151.7349  139.5845  156.7481 C   0  0  0  0  0  0  0  0  0  0  0  0
  152.4324  139.3878  157.9011 N   0  3  0  0  0  0  0  0  0  0  0  0
  152.4223  140.5616  158.6578 C   0  0  0  0  0  0  0  0  0  0  0  0
  152.9854  140.8533  159.8945 C   0  0  0  0  0  0  0  0  0  0  0  0
  152.7876  142.1575  160.4017 C   0  0  0  0  0  0  0  0  0  0  0  0
  153.3853  142.5079  161.7538 C   0  0  0  0  0  0  0  0  0  0  0  0
  152.0462  143.1212  159.6696 C   0  0  0  0  0  0  0  0  0  0  0  0
  151.8395  144.5201  160.2250 C   0  0  0  0  0  0  0  0  0  0  0  0
  151.4831  142.8055  158.4123 C   0  0  0  0  0  0  0  0  0  0  0  0
  151.6857  141.5153  157.9289 C   0  0  0  0  0  0  0  0  0  0  0  0
  146.6975  141.6305  153.7165 C   0  0  0  0  0  0  0  0  0  0  0  0
  145.8099  142.4716  154.6599 C   0  0  0  0  0  0  0  0  0  0  0  0
  141.4377  146.2843  156.0617 H   0  0  0  0  0  0  0  0  0  0  0  0
  142.5530  146.0867  154.7098 H   0  0  0  0  0  0  0  0  0  0  0  0
  143.1723  146.4650  156.3277 H   0  0  0  0  0  0  0  0  0  0  0  0
  143.9917  144.1739  154.6798 H   0  0  0  0  0  0  0  0  0  0  0  0
  144.5306  144.4025  156.3321 H   0  0  0  0  0  0  0  0  0  0  0  0
  143.9291  142.2281  157.0271 H   0  0  0  0  0  0  0  0  0  0  0  0
  142.6782  142.1006  155.8149 H   0  0  0  0  0  0  0  0  0  0  0  0
  145.5944  140.5835  156.6382 H   0  0  0  0  0  0  0  0  0  0  0  0
  144.1815  139.8012  155.9569 H   0  0  0  0  0  0  0  0  0  0  0  0
  146.2231  138.6571  155.1430 H   0  0  0  0  0  0  0  0  0  0  0  0
  145.3412  139.3739  153.8293 H   0  0  0  0  0  0  0  0  0  0  0  0
  147.8643  141.2601  156.0557 H   0  0  0  0  0  0  0  0  0  0  0  0
  148.1061  139.5528  155.9651 H   0  0  0  0  0  0  0  0  0  0  0  0
  150.0558  139.6484  154.9616 H   0  0  0  0  0  0  0  0  0  0  0  0
  149.4621  140.2594  153.0293 H   0  0  0  0  0  0  0  0  0  0  0  0
  151.1660  142.1388  155.1362 H   0  0  0  0  0  0  0  0  0  0  0  0
  149.8575  142.3238  156.2912 H   0  0  0  0  0  0  0  0  0  0  0  0
  151.5669  138.8534  155.9705 H   0  0  0  0  0  0  0  0  0  0  0  0
  153.5476  140.1142  160.4463 H   0  0  0  0  0  0  0  0  0  0  0  0
  154.0795  143.3435  161.6616 H   0  0  0  0  0  0  0  0  0  0  0  0
  153.9322  141.6659  162.1790 H   0  0  0  0  0  0  0  0  0  0  0  0
  152.6006  142.7846  162.4585 H   0  0  0  0  0  0  0  0  0  0  0  0
  151.2384  145.1326  159.5522 H   0  0  0  0  0  0  0  0  0  0  0  0
  152.7974  145.0215  160.3650 H   0  0  0  0  0  0  0  0  0  0  0  0
  151.3256  144.4792  161.1856 H   0  0  0  0  0  0  0  0  0  0  0  0
  150.9170  143.5377  157.8559 H   0  0  0  0  0  0  0  0  0  0  0  0
  147.5492  142.2281  153.4043 H   0  0  0  0  0  0  0  0  0  0  0  0
  146.1366  141.4295  152.8027 H   0  0  0  0  0  0  0  0  0  0  0  0
  145.4858  143.3658  154.1291 H   0  0  0  0  0  0  0  0  0  0  0  0
  146.3757  142.8151  155.5263 H   0  0  0  0  0  0  0  0  0  0  0  0
  144.1044  141.4440  154.2735 H   0  0  0  0  0  0  0  0  0  0  0  0
  152.8774  138.5142  158.1522 H   0  0  0  0  0  0  0  0  0  0  0  0
  1  2  1  0  0  0  0
  1 26  1  0  0  0  0
  1 27  1  0  0  0  0
  1 28  1  0  0  0  0
  2  3  1  0  0  0  0
  3  4  1  0  0  0  0
  3 29  1  0  0  0  0
  3 30  1  0  0  0  0
  4  5  1  0  0  0  0
  4 31  1  0  0  0  0
  4 32  1  0  0  0  0
  5 25  1  0  0  0  0
  5  6  1  0  0  0  0
  5 56  1  0  0  0  0
  6  7  1  0  0  0  0
  6 33  1  0  0  0  0
  6 34  1  0  0  0  0
  7  8  1  0  0  0  0
  7 35  1  0  0  0  0
  7 36  1  0  0  0  0
  8  9  1  0  0  0  0
  8 24  1  0  0  0  0
  9 10  1  0  0  0  0
  9 37  1  0  0  0  0
  9 38  1  0  0  0  0
 10 11  1  0  0  0  0
 10 12  1  0  0  0  0
 10 39  1  0  0  0  0
 11 40  1  0  0  0  0
 12 13  1  0  0  0  0
 12 41  1  0  0  0  0
 12 42  1  0  0  0  0
 13 23  1  0  0  0  0
 13 14  1  0  0  0  0
 14 15  2  0  0  0  0
 14 43  1  0  0  0  0
 15 16  1  0  0  0  0
 15 57  1  0  0  0  0
 16 23  2  0  0  0  0
 16 17  1  0  0  0  0
 17 18  2  0  0  0  0
 17 44  1  0  0  0  0
 18 19  1  0  0  0  0
 18 20  1  0  0  0  0
 19 45  1  0  0  0  0
 19 46  1  0  0  0  0
 19 47  1  0  0  0  0
 20 21  1  0  0  0  0
 20 22  2  0  0  0  0
 21 48  1  0  0  0  0
 21 49  1  0  0  0  0
 21 50  1  0  0  0  0
 22 23  1  0  0  0  0
 22 51  1  0  0  0  0
 24 25  1  0  0  0  0
 24 52  1  0  0  0  0
 24 53  1  0  0  0  0
 25 54  1  0  0  0  0
 25 55  1  0  0  0  0
M  CHG  1   5   1
M  CHG  1  15   1
M  END
> <s_m_source_file>
AV-unprocessed.smi

> <i_m_source_file_index>
1007

> <i_lp_mmshare_version>
43012

> <i_f3d_flags>
0

> <s_epik_input>
W0NIM11PW0NIMl1bQ0gyXU4xW0NIMl1bQ0gyXU4oW0NIMl1bQ0gyXTEpW0NIMl1bQ0BIXShbT0hdKVtDSDJdbihbY0hdbjIpYyhjMjMpW2NIXWMoW0NIM10pYyhbY0hdMylbQ0gzXQ==

> <s_epik_cmdline>
J2VwaWtfcHl0aG9uJywgJy1waCcsICc3LjAnLCAnLXRuJywgJzgnLCAnLW1hJywgJzIwMCcsICctbWV0YWxfYmluZGluZycsICctaW1hZScsICc8aW5maWxlLm1hZT4nLCAnLW9tYWUnLCAnPG91dGZpbGUubWFlPic=

> <r_epik_Ionization_Penalty>
1.34507

> <r_epik_Ionization_Penalty_Charging>
1.29906

> <r_epik_Ionization_Penalty_Neutral>
0.0460038

> <r_epik_State_Penalty>
2.55679

> <r_epik_Charging_Adjusted_Penalty>
3.85586

> <i_epik_Tot_Q>
2

> <i_epik_Tot_abs_Q>
2

> <r_epik_Metal_State_Penalty>
6.56928

> <b_epik_Metal_Only>
0

> <s_lp_Force_Field>
OPLS_2005

> <r_lp_Energy>
47.3521

> <b_lp_Chiralities_Consistent>
1

> <s_lp_Variant>
AV-unprocessed.smi:1007-8

> <Gold.Version>
5.8.1

> <Gold.Id.Protein>
6NUR|6NUR_protein|mol2

> <Gold.PLP.Fitness>
53.9222

> <Gold.PLP.PLP>
-47.0208

> <Gold.PLP.part.hbond>
-3.9978

> <Gold.PLP.part.metal>
0.0000

> <Gold.PLP.part.buried>
-6.3119

> <Gold.PLP.part.nonpolar>
-37.7826

> <Gold.PLP.part.repulsive>
0.2298

> <Gold.PLP.ligand.clash>
0.0000

> <Gold.PLP.ligand.torsion>
2.2664

> <Gold.PLP.Chemscore.Hbond>
3.7276

> <Gold.PLP.Chemscore.CHOScore>
0.0000

> <Gold.PLP.Chemscore.Metal>
0.0000

> <Gold.Chemscore.Hbonds>
donor molecule, donor type, donor heavy atom, donor atom, acceptor molecule, acceptor atom, score
      L1  H     5    56       P1 10175  1.92
      L1  H    11    40       P1  7957  0.58
      P1  H  7989  7998       L1    11  0.14
      P1  H  8011  8017       L1    11  1.00

> <Gold.PLP.Chemscore.Internal.Correction>
0.2514

> <Gold.Rescore>
     Score         DG    S(hbond)    S(metal)    S(lipo)     H(rot)  DE(clash)    DE(int)     intcor
     17.43     -20.07       2.21        0.00     119.36       2.64       0.22       2.42       ----

> <Gold.Chemscore.Fitness>
17.4277

> <Gold.Chemscore.DG>
-20.0699

> <Gold.Chemscore.ZeroCoef>
-5.4800

> <Gold.Chemscore.Hbond>
2.2131

> <Gold.Chemscore.Metal>
0.0000

> <Gold.Chemscore.Lipo>
119.3555

> <Gold.Chemscore.Internal_Hbond>
0.0000

> <Gold.Chemscore.DEClash>
0.2179

> <Gold.Chemscore.DEInternal>
2.4242

> <Gold.Chemscore.Rot>
2.6432

> <Gold.Chemscore.Internal.Correction>
   9.000000E+99

> <Gold.Chemscore.Hbonds>
donor molecule, donor type, donor heavy atom, donor atom, acceptor molecule, acceptor atom, score
      L1  H     5    56       P1 10175  0.31
      L1  H    11    40       P1  7957  0.58
      P1  H  8011  8017       L1    11  0.43

> <Gold.Chemscore.Hbond.Weighted>
-7.3918

> <Gold.Chemscore.Metal.Weighted>
-0.0000

> <Gold.Chemscore.Lipo.Weighted>
-13.9646

> <Gold.Chemscore.Internal_Hbond.Weighted>
0.0000

> <Gold.Chemscore.DEClash.Weighted>
0.2179

> <Gold.Chemscore.DEInternal.Weighted>
2.4242

> <Gold.Chemscore.Rot.Weighted>
6.7665

> <Gold.Chemscore.Internal.Correction.Weighted>
   9.000000E+99

> <Gold.Protein.RotatedTorsions>
[ 6907 6896 6895 6894 ] final   93.12 input  -60.11 | X-H torsion
[ 7974 7965 7964 7962 ] final  118.73 input  175.53 | X-H torsion
[ 8008 7997 7996 7995 ] final -142.76 input   59.86 | X-H torsion
[ 10167 10162 10161 10158 ] final -163.59 input  -65.29 | X-H torsion
[ 10718 10713 10712 10709 ] final  -43.00 input   66.30 | X-H torsion
[ 10763 10752 10751 10750 ] final    4.07 input  -60.55 | X-H torsion
[ 11005 11000 10999 10996 ] final   83.90 input  -57.11 | X-H torsion

> <Gold.Protein.ActiveResidues>
 VAL166  LYS551  ARG553  GLY616  TRP617  ASP618  TYR619  PRO620  LYS621  CYS622 
 ASP623  PHE694  ASN695  SER759  ASP760  ASP761  ALA762  ILE779  LEU786  VAL792 
 PHE793  MET794  SER795  GLU796  ALA797  LYS798  CYS799  TRP800  GLU811  SER814 

> <Gold.Protein.RotatedAtoms>
  152.5453  134.1397  159.8473 H   0  0  0  0  0  0  0  0  0  0  0  0  # atno 6907 bound_to 6896
  151.1434  133.4949  159.2604 H   0  0  0  0  0  0  0  0  0  0  0  0  # atno 6908 bound_to 6896
  151.1549  135.0255  159.8739 H   0  0  0  0  0  0  0  0  0  0  0  0  # atno 6909 bound_to 6896
  145.1517  139.3207  143.4563 H   0  0  0  0  0  0  0  0  0  0  0  0  # atno 7974 bound_to 7965
  155.4995  140.0574  157.2941 H   0  0  0  0  0  0  0  0  0  0  0  0  # atno 8008 bound_to 7997
  154.4592  140.1988  156.0241 H   0  0  0  0  0  0  0  0  0  0  0  0  # atno 8009 bound_to 7997
  156.0859  140.3240  155.7757 H   0  0  0  0  0  0  0  0  0  0  0  0  # atno 8010 bound_to 7997
  139.6310  144.0440  152.2015 H   0  0  0  0  0  0  0  0  0  0  0  0  # atno 10167 bound_to 10162
  156.2536  130.4190  149.8622 H   0  0  0  0  0  0  0  0  0  0  0  0  # atno 10718 bound_to 10713
  153.2757  135.6936  153.7436 H   0  0  0  0  0  0  0  0  0  0  0  0  # atno 10763 bound_to 10752
  153.6442  135.3388  155.3081 H   0  0  0  0  0  0  0  0  0  0  0  0  # atno 10764 bound_to 10752
  154.8479  135.4439  154.1794 H   0  0  0  0  0  0  0  0  0  0  0  0  # atno 10765 bound_to 10752
  139.9017  134.8178  156.2371 H   0  0  0  0  0  0  0  0  0  0  0  0  # atno 11005 bound_to 11000
  146.3494  140.1593  142.8591 LP  0  0  0  0  0  0  0  0  0  0  0  0  # atno 17320 bound_to 7965
  145.0424  140.8956  143.5044 LP  0  0  0  0  0  0  0  0  0  0  0  0  # atno 17321 bound_to 7965
  140.0105  144.6227  150.7651 LP  0  0  0  0  0  0  0  0  0  0  0  0  # atno 17342 bound_to 10162
  140.7439  143.2852  151.3483 LP  0  0  0  0  0  0  0  0  0  0  0  0  # atno 17343 bound_to 10162
  156.6162  130.8607  151.3465 LP  0  0  0  0  0  0  0  0  0  0  0  0  # atno 17370 bound_to 10713
  157.7224  130.9576  150.1492 LP  0  0  0  0  0  0  0  0  0  0  0  0  # atno 17371 bound_to 10713
  141.0308  133.6989  156.1427 LP  0  0  0  0  0  0  0  0  0  0  0  0  # atno 17394 bound_to 11000
  140.7099  134.4473  157.5582 LP  0  0  0  0  0  0  0  0  0  0  0  0  # atno 17395 bound_to 11000

$$$$
