AV-unprocessed.smi:148|AV-procd|sdf|1217|dock3
  -GOLD-   2262018403D 1   1.00000     0.00000
 Structure written by MMmdl.
 63 67  0  0  0  0  0  0  0  0  1 V2000
  148.9555  142.2480  156.0887 O   0  0  0  0  0  0  0  0  0  0  0  0
  150.1529  141.5055  155.9926 C   0  0  0  0  0  0  0  0  0  0  0  0
  150.7038  141.1110  157.3843 C   0  0  1  0  0  0  0  0  0  0  0  0
  151.3579  139.7039  157.3344 C   0  0  0  0  0  0  0  0  0  0  0  0
  150.7138  138.7122  158.1860 N   0  0  0  0  0  0  0  0  0  0  0  0
  151.3392  137.8484  159.0591 C   0  0  0  0  0  0  0  0  0  0  0  0
  150.5480  137.0497  159.7212 N   0  0  0  0  0  0  0  0  0  0  0  0
  149.2817  137.3727  159.2543 C   0  0  0  0  0  0  0  0  0  0  0  0
  147.9769  136.8917  159.5373 C   0  0  0  0  0  0  0  0  0  0  0  0
  147.7578  135.9207  160.4548 N   0  0  0  0  0  0  0  0  0  0  0  0
  147.4738  136.5360  161.7513 C   0  0  0  0  0  0  0  0  0  0  0  0
  147.4409  135.4930  162.8739 C   0  0  0  0  0  0  0  0  0  0  0  0
  146.4282  134.3949  162.5397 C   0  0  0  0  0  0  0  0  0  0  0  0
  146.7760  133.7589  161.1878 C   0  0  0  0  0  0  0  0  0  0  0  0
  146.8715  134.8119  160.0512 C   0  0  2  0  0  0  0  0  0  0  0  0
  147.2811  134.1915  158.6774 C   0  0  1  0  0  0  0  0  0  0  0  0
  148.6386  133.4630  158.6425 C   0  0  0  0  0  0  0  0  0  0  0  0
  148.5282  132.3931  157.5435 C   0  0  0  0  0  0  0  0  0  0  0  0
  147.1200  132.5243  156.9536 C   0  0  0  0  0  0  0  0  0  0  0  0
  146.2998  133.1827  158.0625 C   0  0  2  0  0  0  0  0  0  0  0  0
  145.1428  133.8072  157.5463 O   0  0  0  0  0  0  0  0  0  0  0  0
  146.9321  137.4556  158.8751 N   0  0  0  0  0  0  0  0  0  0  0  0
  147.1561  138.4190  157.9766 C   0  0  0  0  0  0  0  0  0  0  0  0
  148.3185  138.9604  157.6055 N   0  0  0  0  0  0  0  0  0  0  0  0
  149.3659  138.4069  158.2812 C   0  0  0  0  0  0  0  0  0  0  0  0
  151.6659  142.1788  157.9750 C   0  0  2  0  0  0  0  0  0  0  0  0
  152.0697  141.9302  159.4197 C   0  0  0  0  0  0  0  0  0  0  0  0
  152.6183  143.2876  159.8462 C   0  0  0  0  0  0  0  0  0  0  0  0
  151.8997  144.2507  159.0837 O   0  0  0  0  0  0  0  0  0  0  0  0
  151.0929  143.5930  158.1130 C   0  0  0  0  0  0  0  0  0  0  0  0
  149.1616  143.1658  155.9972 H   0  0  0  0  0  0  0  0  0  0  0  0
  149.9187  140.6132  155.4118 H   0  0  0  0  0  0  0  0  0  0  0  0
  150.8904  142.0733  155.4242 H   0  0  0  0  0  0  0  0  0  0  0  0
  149.8498  141.0238  158.0580 H   0  0  0  0  0  0  0  0  0  0  0  0
  151.3839  139.3224  156.3138 H   0  0  0  0  0  0  0  0  0  0  0  0
  152.4014  139.7779  157.6431 H   0  0  0  0  0  0  0  0  0  0  0  0
  152.4105  137.8328  159.1970 H   0  0  0  0  0  0  0  0  0  0  0  0
  148.2292  137.2894  161.9815 H   0  0  0  0  0  0  0  0  0  0  0  0
  146.5144  137.0536  161.7023 H   0  0  0  0  0  0  0  0  0  0  0  0
  148.4326  135.0574  163.0032 H   0  0  0  0  0  0  0  0  0  0  0  0
  147.1817  135.9697  163.8193 H   0  0  0  0  0  0  0  0  0  0  0  0
  146.4230  133.6360  163.3225 H   0  0  0  0  0  0  0  0  0  0  0  0
  145.4226  134.8159  162.5039 H   0  0  0  0  0  0  0  0  0  0  0  0
  147.7161  133.2186  161.2914 H   0  0  0  0  0  0  0  0  0  0  0  0
  146.0148  133.0143  160.9598 H   0  0  0  0  0  0  0  0  0  0  0  0
  145.8728  135.2348  159.9317 H   0  0  0  0  0  0  0  0  0  0  0  0
  147.3554  134.9982  157.9464 H   0  0  0  0  0  0  0  0  0  0  0  0
  149.4506  134.1615  158.4380 H   0  0  0  0  0  0  0  0  0  0  0  0
  148.8681  132.9824  159.5922 H   0  0  0  0  0  0  0  0  0  0  0  0
  149.2944  132.5147  156.7771 H   0  0  0  0  0  0  0  0  0  0  0  0
  148.6591  131.4026  157.9809 H   0  0  0  0  0  0  0  0  0  0  0  0
  147.1564  133.1756  156.0788 H   0  0  0  0  0  0  0  0  0  0  0  0
  146.7061  131.5669  156.6358 H   0  0  0  0  0  0  0  0  0  0  0  0
  146.0103  132.4157  158.7794 H   0  0  0  0  0  0  0  0  0  0  0  0
  144.3827  133.3699  157.8983 H   0  0  0  0  0  0  0  0  0  0  0  0
  146.2790  138.8136  157.4852 H   0  0  0  0  0  0  0  0  0  0  0  0
  152.5661  142.2417  157.3621 H   0  0  0  0  0  0  0  0  0  0  0  0
  151.1937  141.6793  160.0199 H   0  0  0  0  0  0  0  0  0  0  0  0
  152.8001  141.1327  159.5454 H   0  0  0  0  0  0  0  0  0  0  0  0
  152.5084  143.4625  160.9166 H   0  0  0  0  0  0  0  0  0  0  0  0
  153.6770  143.3666  159.5960 H   0  0  0  0  0  0  0  0  0  0  0  0
  151.0948  144.1416  157.1708 H   0  0  0  0  0  0  0  0  0  0  0  0
  150.0686  143.5610  158.4872 H   0  0  0  0  0  0  0  0  0  0  0  0
  1  2  1  0  0  0  0
  1 31  1  0  0  0  0
  2  3  1  0  0  0  0
  2 32  1  0  0  0  0
  2 33  1  0  0  0  0
  3  4  1  0  0  0  0
  3 26  1  0  0  0  0
  3 34  1  0  0  0  0
  4  5  1  0  0  0  0
  4 35  1  0  0  0  0
  4 36  1  0  0  0  0
  5 25  1  0  0  0  0
  5  6  1  0  0  0  0
  6  7  2  0  0  0  0
  6 37  1  0  0  0  0
  7  8  1  0  0  0  0
  8 25  2  0  0  0  0
  8  9  1  0  0  0  0
  9 10  1  0  0  0  0
  9 22  2  0  0  0  0
 10 15  1  0  0  0  0
 10 11  1  0  0  0  0
 11 12  1  0  0  0  0
 11 38  1  0  0  0  0
 11 39  1  0  0  0  0
 12 13  1  0  0  0  0
 12 40  1  0  0  0  0
 12 41  1  0  0  0  0
 13 14  1  0  0  0  0
 13 42  1  0  0  0  0
 13 43  1  0  0  0  0
 14 15  1  0  0  0  0
 14 44  1  0  0  0  0
 14 45  1  0  0  0  0
 15 16  1  0  0  0  0
 15 46  1  0  0  0  0
 16 20  1  0  0  0  0
 16 17  1  0  0  0  0
 16 47  1  0  0  0  0
 17 18  1  0  0  0  0
 17 48  1  0  0  0  0
 17 49  1  0  0  0  0
 18 19  1  0  0  0  0
 18 50  1  0  0  0  0
 18 51  1  0  0  0  0
 19 20  1  0  0  0  0
 19 52  1  0  0  0  0
 19 53  1  0  0  0  0
 20 21  1  0  0  0  0
 20 54  1  0  0  0  0
 21 55  1  0  0  0  0
 22 23  1  0  0  0  0
 23 24  2  0  0  0  0
 23 56  1  0  0  0  0
 24 25  1  0  0  0  0
 26 30  1  0  0  0  0
 26 27  1  0  0  0  0
 26 57  1  0  0  0  0
 27 28  1  0  0  0  0
 27 58  1  0  0  0  0
 27 59  1  0  0  0  0
 28 29  1  0  0  0  0
 28 60  1  0  0  0  0
 28 61  1  0  0  0  0
 29 30  1  0  0  0  0
 30 62  1  0  0  0  0
 30 63  1  0  0  0  0
M  END
> <s_m_source_file>
AV-unprocessed.smi

> <i_m_source_file_index>
148

> <i_lp_mmshare_version>
43012

> <i_f3d_flags>
0

> <s_epik_input>
W0NIMl0xT1tDSDJdW0NIMl1bQ0BIXTFbQ0BIXShbQ0gyXVtPSF0pW0NIMl1uKFtjSF1uMiljKGMyMyluW2NIXW5jM040W0NIMl1bQ0gyXVtDSDJdW0NIMl1bQ0BIXTRbQ0BASF01W0NIMl1bQ0gyXVtDSDJdW0NASF01W09IXQ==

> <s_epik_cmdline>
J2VwaWtfcHl0aG9uJywgJy1waCcsICc3LjAnLCAnLXRuJywgJzgnLCAnLW1hJywgJzIwMCcsICctbWV0YWxfYmluZGluZycsICctaW1hZScsICc8aW5maWxlLm1hZT4nLCAnLW9tYWUnLCAnPG91dGZpbGUubWFlPic=

> <r_lp_tautomer_probability>
1

> <r_epik_Ionization_Penalty>
0.00556303

> <r_epik_Ionization_Penalty_Charging>
0

> <r_epik_Ionization_Penalty_Neutral>
0.00556303

> <r_epik_State_Penalty>
0.00401767

> <r_epik_Charging_Adjusted_Penalty>
0.00401767

> <i_epik_Tot_Q>
0

> <i_epik_Tot_abs_Q>
0

> <r_epik_Metal_State_Penalty>
-0

> <b_epik_Metal_Only>
0

> <s_lp_Force_Field>
OPLS_2005

> <r_lp_Energy>
67.8341

> <b_lp_Chiralities_Consistent>
1

> <s_lp_Variant>
AV-unprocessed.smi:148-16

> <Gold.Version>
5.8.1

> <Gold.Id.Protein>
6NUR|6NUR_protein|mol2

> <Gold.PLP.Fitness>
46.5453

> <Gold.PLP.PLP>
-43.6990

> <Gold.PLP.part.hbond>
-1.8865

> <Gold.PLP.part.metal>
0.0000

> <Gold.PLP.part.buried>
-6.9972

> <Gold.PLP.part.nonpolar>
-35.4580

> <Gold.PLP.part.repulsive>
0.0157

> <Gold.PLP.ligand.clash>
0.0000

> <Gold.PLP.ligand.torsion>
1.8441

> <Gold.PLP.Chemscore.Hbond>
2.0000

> <Gold.PLP.Chemscore.CHOScore>
0.0000

> <Gold.PLP.Chemscore.Metal>
0.0000

> <Gold.Chemscore.Hbonds>
donor molecule, donor type, donor heavy atom, donor atom, acceptor molecule, acceptor atom, score
      L1  H     1    31       P1  8028  1.00
      P1  H  6896  6909       L1     7  0.93

> <Gold.PLP.Chemscore.Internal.Correction>
0.5345

> <Gold.Rescore>
     Score         DG    S(hbond)    S(metal)    S(lipo)     H(rot)  DE(clash)    DE(int)     intcor
     14.49     -16.35       1.93        0.00     110.46       3.32       0.03       1.82       ----

> <Gold.Chemscore.Fitness>
14.4916

> <Gold.Chemscore.DG>
-16.3455

> <Gold.Chemscore.ZeroCoef>
-5.4800

> <Gold.Chemscore.Hbond>
1.9287

> <Gold.Chemscore.Metal>
0.0000

> <Gold.Chemscore.Lipo>
110.4576

> <Gold.Chemscore.Internal_Hbond>
0.0000

> <Gold.Chemscore.DEClash>
0.0331

> <Gold.Chemscore.DEInternal>
1.8209

> <Gold.Chemscore.Rot>
3.3203

> <Gold.Chemscore.Internal.Correction>
   9.000000E+99

> <Gold.Chemscore.Hbonds>
donor molecule, donor type, donor heavy atom, donor atom, acceptor molecule, acceptor atom, score
      L1  H     1    31       P1  8028  0.97
      P1  H  6896  6909       L1     7  0.82

> <Gold.Chemscore.Hbond.Weighted>
-6.4420

> <Gold.Chemscore.Metal.Weighted>
-0.0000

> <Gold.Chemscore.Lipo.Weighted>
-12.9235

> <Gold.Chemscore.Internal_Hbond.Weighted>
0.0000

> <Gold.Chemscore.DEClash.Weighted>
0.0331

> <Gold.Chemscore.DEInternal.Weighted>
1.8209

> <Gold.Chemscore.Rot.Weighted>
8.5000

> <Gold.Chemscore.Internal.Correction.Weighted>
   9.000000E+99

> <Gold.Protein.RotatedTorsions>
[ 6907 6896 6895 6894 ] final   89.31 input  -60.11 | X-H torsion
[ 7974 7965 7964 7962 ] final  -41.54 input  175.53 | X-H torsion
[ 8008 7997 7996 7995 ] final  116.98 input   59.86 | X-H torsion
[ 10167 10162 10161 10158 ] final  171.27 input  -65.29 | X-H torsion
[ 10718 10713 10712 10709 ] final  169.91 input   66.30 | X-H torsion
[ 10763 10752 10751 10750 ] final  -55.28 input  -60.55 | X-H torsion
[ 11005 11000 10999 10996 ] final  -72.54 input  -57.11 | X-H torsion

> <Gold.Protein.ActiveResidues>
 VAL166  LYS551  ARG553  GLY616  TRP617  ASP618  TYR619  PRO620  LYS621  CYS622 
 ASP623  PHE694  ASN695  SER759  ASP760  ASP761  ALA762  ILE779  LEU786  VAL792 
 PHE793  MET794  SER795  GLU796  ALA797  LYS798  CYS799  TRP800  GLU811  SER814 

> <Gold.Protein.RotatedAtoms>
  152.5435  134.1986  159.8702 H   0  0  0  0  0  0  0  0  0  0  0  0  # atno 6907 bound_to 6896
  151.1977  133.4623  159.2603 H   0  0  0  0  0  0  0  0  0  0  0  0  # atno 6908 bound_to 6896
  151.1021  134.9990  159.8509 H   0  0  0  0  0  0  0  0  0  0  0  0  # atno 6909 bound_to 6896
  146.0201  140.6860  142.9182 H   0  0  0  0  0  0  0  0  0  0  0  0  # atno 7974 bound_to 7965
  156.2469  140.2906  156.0606 H   0  0  0  0  0  0  0  0  0  0  0  0  # atno 8008 bound_to 7997
  155.1779  140.0403  157.2893 H   0  0  0  0  0  0  0  0  0  0  0  0  # atno 8009 bound_to 7997
  154.6280  140.2492  155.7475 H   0  0  0  0  0  0  0  0  0  0  0  0  # atno 8010 bound_to 7997
  139.5042  144.3504  151.9928 H   0  0  0  0  0  0  0  0  0  0  0  0  # atno 10167 bound_to 10162
  157.0158  131.0217  151.2789 H   0  0  0  0  0  0  0  0  0  0  0  0  # atno 10718 bound_to 10713
  154.1883  135.6431  153.5053 H   0  0  0  0  0  0  0  0  0  0  0  0  # atno 10763 bound_to 10752
  153.0041  135.5422  154.6442 H   0  0  0  0  0  0  0  0  0  0  0  0  # atno 10764 bound_to 10752
  154.5824  135.2926  155.0692 H   0  0  0  0  0  0  0  0  0  0  0  0  # atno 10765 bound_to 10752
  141.1610  133.6850  156.7075 H   0  0  0  0  0  0  0  0  0  0  0  0  # atno 11005 bound_to 11000
  144.6986  140.3551  143.7174 LP  0  0  0  0  0  0  0  0  0  0  0  0  # atno 17320 bound_to 7965
  145.7206  139.1709  143.2486 LP  0  0  0  0  0  0  0  0  0  0  0  0  # atno 17321 bound_to 7965
  140.2941  144.3720  150.6079 LP  0  0  0  0  0  0  0  0  0  0  0  0  # atno 17342 bound_to 10162
  140.5924  143.2167  151.7228 LP  0  0  0  0  0  0  0  0  0  0  0  0  # atno 17343 bound_to 10162
  157.5286  130.8044  149.7891 LP  0  0  0  0  0  0  0  0  0  0  0  0  # atno 17370 bound_to 10713
  156.0120  130.3829  150.2235 LP  0  0  0  0  0  0  0  0  0  0  0  0  # atno 17371 bound_to 10713
  140.2912  134.8239  157.4018 LP  0  0  0  0  0  0  0  0  0  0  0  0  # atno 17394 bound_to 11000
  140.1345  134.5052  155.8079 LP  0  0  0  0  0  0  0  0  0  0  0  0  # atno 17395 bound_to 11000

$$$$
