AV-unprocessed.smi:1622|AV-procd|sdf|6497|dock2
  -GOLD-   22720 7163D 1   1.00000     0.00000
 Structure written by MMmdl.
 41 42  0  0  0  0  0  0  0  0  2 V2000
  143.7198  135.7403  153.8175 C   0  0  0  0  0  0  0  0  0  0  0  0
  144.2226  136.7734  152.7960 C   0  0  0  0  0  0  0  0  0  0  0  0
  145.7676  136.8801  152.6832 C   0  0  2  0  0  0  0  0  0  0  0  0
  146.2283  138.1133  151.8615 C   0  0  0  0  0  0  0  0  0  0  0  0
  147.5362  138.6120  152.2815 N   0  0  0  0  0  0  0  0  0  0  0  0
  147.8297  139.1013  153.4955 C   0  0  0  0  0  0  0  0  0  0  0  0
  147.0084  139.1916  154.4079 O   0  0  0  0  0  0  0  0  0  0  0  0
  149.1206  139.4698  153.5745 N   0  0  0  0  0  0  0  0  0  0  0  0
  149.8164  139.9934  154.6965 C   0  0  0  0  0  0  0  0  0  0  0  0
  151.1248  139.8033  154.9153 N   0  0  0  0  0  0  0  0  0  0  0  0
  151.5513  140.4282  156.0786 N   0  0  0  0  0  0  0  0  0  0  0  0
  150.5568  141.0693  156.7041 C   0  0  0  0  0  0  0  0  0  0  0  0
  150.7566  141.8216  157.9752 C   0  0  0  0  0  0  0  0  0  0  0  0
  148.9923  140.9628  155.9057 S   0  0  0  0  0  0  0  0  0  0  0  0
  146.3653  135.6163  152.1568 N   0  3  0  0  0  0  0  0  0  0  0  0
  146.3339  134.4617  153.0797 C   0  0  0  0  0  0  0  0  0  0  0  0
  146.5839  133.2290  152.2108 C   0  0  0  0  0  0  0  0  0  0  0  0
  146.1453  133.6326  150.8012 C   0  0  0  0  0  0  0  0  0  0  0  0
  145.7799  135.1176  150.8921 C   0  0  0  0  0  0  0  0  0  0  0  0
  142.6301  135.7182  153.8340 H   0  0  0  0  0  0  0  0  0  0  0  0
  144.0570  135.9755  154.8269 H   0  0  0  0  0  0  0  0  0  0  0  0
  144.0606  134.7342  153.5783 H   0  0  0  0  0  0  0  0  0  0  0  0
  143.7963  136.5371  151.8213 H   0  0  0  0  0  0  0  0  0  0  0  0
  143.7995  137.7467  153.0447 H   0  0  0  0  0  0  0  0  0  0  0  0
  146.1502  137.0126  153.6967 H   0  0  0  0  0  0  0  0  0  0  0  0
  146.3352  137.8510  150.8093 H   0  0  0  0  0  0  0  0  0  0  0  0
  145.4704  138.8973  151.8977 H   0  0  0  0  0  0  0  0  0  0  0  0
  148.2752  138.5807  151.5940 H   0  0  0  0  0  0  0  0  0  0  0  0
  149.6743  139.3545  152.7385 H   0  0  0  0  0  0  0  0  0  0  0  0
  151.6364  141.4528  158.5036 H   0  0  0  0  0  0  0  0  0  0  0  0
  149.8874  141.7029  158.6223 H   0  0  0  0  0  0  0  0  0  0  0  0
  150.8939  142.8817  157.7620 H   0  0  0  0  0  0  0  0  0  0  0  0
  147.0764  134.5489  153.8736 H   0  0  0  0  0  0  0  0  0  0  0  0
  145.3474  134.3912  153.5410 H   0  0  0  0  0  0  0  0  0  0  0  0
  147.6469  132.9840  152.2081 H   0  0  0  0  0  0  0  0  0  0  0  0
  146.0460  132.3551  152.5799 H   0  0  0  0  0  0  0  0  0  0  0  0
  146.9633  133.4791  150.0961 H   0  0  0  0  0  0  0  0  0  0  0  0
  145.2981  133.0399  150.4546 H   0  0  0  0  0  0  0  0  0  0  0  0
  144.6941  135.2216  150.9270 H   0  0  0  0  0  0  0  0  0  0  0  0
  146.1441  135.6752  150.0288 H   0  0  0  0  0  0  0  0  0  0  0  0
  147.3402  135.8013  151.9671 H   0  0  0  0  0  0  0  0  0  0  0  0
  1  2  1  0  0  0  0
  1 20  1  0  0  0  0
  1 21  1  0  0  0  0
  1 22  1  0  0  0  0
  2  3  1  0  0  0  0
  2 23  1  0  0  0  0
  2 24  1  0  0  0  0
  3  4  1  0  0  0  0
  3 15  1  0  0  0  0
  3 25  1  0  0  0  0
  4  5  1  0  0  0  0
  4 26  1  0  0  0  0
  4 27  1  0  0  0  0
  5  6  1  0  0  0  0
  5 28  1  0  0  0  0
  6  7  2  0  0  0  0
  6  8  1  0  0  0  0
  8  9  1  0  0  0  0
  8 29  1  0  0  0  0
  9 14  1  0  0  0  0
  9 10  2  0  0  0  0
 10 11  1  0  0  0  0
 11 12  2  0  0  0  0
 12 13  1  0  0  0  0
 12 14  1  0  0  0  0
 13 30  1  0  0  0  0
 13 31  1  0  0  0  0
 13 32  1  0  0  0  0
 15 19  1  0  0  0  0
 15 16  1  0  0  0  0
 15 41  1  0  0  0  0
 16 17  1  0  0  0  0
 16 33  1  0  0  0  0
 16 34  1  0  0  0  0
 17 18  1  0  0  0  0
 17 35  1  0  0  0  0
 17 36  1  0  0  0  0
 18 19  1  0  0  0  0
 18 37  1  0  0  0  0
 18 38  1  0  0  0  0
 19 39  1  0  0  0  0
 19 40  1  0  0  0  0
M  CHG  1  15   1
M  END
> <s_m_source_file>
AV-unprocessed.smi

> <i_m_source_file_index>
1622

> <i_lp_mmshare_version>
43012

> <i_f3d_flags>
0

> <s_epik_input>
W0NIMl0xW0NIMl1bQ0gyXVtDSDJdTjFbQ0BIXShbQ0gyXVtDSDNdKVtDSDJdW05IXUMoPU8pW05IXWMybm5jKHMyKVtDSDNd

> <s_epik_cmdline>
J2VwaWtfcHl0aG9uJywgJy1waCcsICc3LjAnLCAnLXRuJywgJzgnLCAnLW1hJywgJzIwMCcsICctbWV0YWxfYmluZGluZycsICctaW1hZScsICc8aW5maWxlLm1hZT4nLCAnLW9tYWUnLCAnPG91dGZpbGUubWFlPic=

> <r_lp_tautomer_probability>
1

> <r_epik_Ionization_Penalty>
0.00164835

> <r_epik_Ionization_Penalty_Charging>
0.00115997

> <r_epik_Ionization_Penalty_Neutral>
0.00048838

> <r_epik_State_Penalty>
-0

> <r_epik_Charging_Adjusted_Penalty>
0.00115997

> <i_epik_Tot_Q>
1

> <i_epik_Tot_abs_Q>
1

> <r_epik_Metal_State_Penalty>
0.216651

> <b_epik_Metal_Only>
0

> <s_lp_Force_Field>
OPLS_2005

> <r_lp_Energy>
32.351

> <b_lp_Chiralities_Consistent>
1

> <s_lp_Variant>
AV-unprocessed.smi:1622-1

> <Gold.Version>
5.8.1

> <Gold.Id.Protein>
6NUR|6NUR_protein|mol2

> <Gold.PLP.Fitness>
43.6328

> <Gold.PLP.PLP>
-31.2415

> <Gold.PLP.part.hbond>
-4.9363

> <Gold.PLP.part.metal>
0.0000

> <Gold.PLP.part.buried>
-3.7984

> <Gold.PLP.part.nonpolar>
-22.6881

> <Gold.PLP.part.repulsive>
0.4543

> <Gold.PLP.ligand.clash>
0.0000

> <Gold.PLP.ligand.torsion>
0.7029

> <Gold.PLP.Chemscore.Hbond>
4.5680

> <Gold.PLP.Chemscore.CHOScore>
0.0000

> <Gold.PLP.Chemscore.Metal>
0.0000

> <Gold.Chemscore.Hbonds>
donor molecule, donor type, donor heavy atom, donor atom, acceptor molecule, acceptor atom, score
      L1  H     5    28       P1  7957  0.58
      L1  H     8    29       P1  7957  0.69
      L1  H    15    41       P1  7948  2.00
      P1  H  7989  7998       L1    10  0.70

> <Gold.PLP.Chemscore.Internal.Correction>
0.0930

> <Gold.Rescore>
     Score         DG    S(hbond)    S(metal)    S(lipo)     H(rot)  DE(clash)    DE(int)     intcor
     17.01     -19.86       3.74        0.00      54.83       1.77       0.57       2.28       ----

> <Gold.Chemscore.Fitness>
17.0066

> <Gold.Chemscore.DG>
-19.8603

> <Gold.Chemscore.ZeroCoef>
-5.4800

> <Gold.Chemscore.Hbond>
3.7442

> <Gold.Chemscore.Metal>
0.0000

> <Gold.Chemscore.Lipo>
54.8337

> <Gold.Chemscore.Internal_Hbond>
0.0000

> <Gold.Chemscore.DEClash>
0.5701

> <Gold.Chemscore.DEInternal>
2.2836

> <Gold.Chemscore.Rot>
1.7738

> <Gold.Chemscore.Internal.Correction>
   9.000000E+99

> <Gold.Chemscore.Hbonds>
donor molecule, donor type, donor heavy atom, donor atom, acceptor molecule, acceptor atom, score
      L1  H     5    28       P1  7957  0.25
      L1  H     8    29       P1  7957  0.69
      L1  H    15    41       P1  7948  1.00
      P1  H  7989  7998       L1    10  0.04

> <Gold.Chemscore.Hbond.Weighted>
-12.5058

> <Gold.Chemscore.Metal.Weighted>
-0.0000

> <Gold.Chemscore.Lipo.Weighted>
-6.4155

> <Gold.Chemscore.Internal_Hbond.Weighted>
0.0000

> <Gold.Chemscore.DEClash.Weighted>
0.5701

> <Gold.Chemscore.DEInternal.Weighted>
2.2836

> <Gold.Chemscore.Rot.Weighted>
4.5411

> <Gold.Chemscore.Internal.Correction.Weighted>
   9.000000E+99

> <Gold.Protein.RotatedTorsions>
[ 6907 6896 6895 6894 ] final  177.40 input  -60.11 | X-H torsion
[ 7974 7965 7964 7962 ] final  120.79 input  175.53 | X-H torsion
[ 8008 7997 7996 7995 ] final -173.97 input   59.86 | X-H torsion
[ 10167 10162 10161 10158 ] final  -17.22 input  -65.29 | X-H torsion
[ 10718 10713 10712 10709 ] final -110.90 input   66.30 | X-H torsion
[ 10763 10752 10751 10750 ] final -115.32 input  -60.55 | X-H torsion
[ 11005 11000 10999 10996 ] final  -68.89 input  -57.11 | X-H torsion

> <Gold.Protein.ActiveResidues>
 VAL166  LYS551  ARG553  GLY616  TRP617  ASP618  TYR619  PRO620  LYS621  CYS622 
 ASP623  PHE694  ASN695  SER759  ASP760  ASP761  ALA762  ILE779  LEU786  VAL792 
 PHE793  MET794  SER795  GLU796  ALA797  LYS798  CYS799  TRP800  GLU811  SER814 

> <Gold.Protein.RotatedAtoms>
  151.7047  133.3311  159.3275 H   0  0  0  0  0  0  0  0  0  0  0  0  # atno 6907 bound_to 6896
  150.7720  134.6585  159.6336 H   0  0  0  0  0  0  0  0  0  0  0  0  # atno 6908 bound_to 6896
  152.3748  134.6682  160.0215 H   0  0  0  0  0  0  0  0  0  0  0  0  # atno 6909 bound_to 6896
  145.1270  139.3352  143.4685 H   0  0  0  0  0  0  0  0  0  0  0  0  # atno 7974 bound_to 7965
  155.9642  140.1150  157.0869 H   0  0  0  0  0  0  0  0  0  0  0  0  # atno 8008 bound_to 7997
  154.4139  140.1176  156.5286 H   0  0  0  0  0  0  0  0  0  0  0  0  # atno 8009 bound_to 7997
  155.6681  140.3473  155.4810 H   0  0  0  0  0  0  0  0  0  0  0  0  # atno 8010 bound_to 7997
  140.7244  143.5037  150.9836 H   0  0  0  0  0  0  0  0  0  0  0  0  # atno 10167 bound_to 10162
  156.0616  130.5839  150.8300 H   0  0  0  0  0  0  0  0  0  0  0  0  # atno 10718 bound_to 10713
  154.8476  135.4386  154.1644 H   0  0  0  0  0  0  0  0  0  0  0  0  # atno 10763 bound_to 10752
  153.2773  135.6950  153.7427 H   0  0  0  0  0  0  0  0  0  0  0  0  # atno 10764 bound_to 10752
  153.6644  135.3429  155.3111 H   0  0  0  0  0  0  0  0  0  0  0  0  # atno 10765 bound_to 10752
  141.1542  133.6751  156.6515 H   0  0  0  0  0  0  0  0  0  0  0  0  # atno 11005 bound_to 11000
  146.3517  140.1253  142.8599 LP  0  0  0  0  0  0  0  0  0  0  0  0  # atno 17320 bound_to 7965
  145.0677  140.9133  143.4900 LP  0  0  0  0  0  0  0  0  0  0  0  0  # atno 17321 bound_to 7965
  139.8748  143.7147  152.3163 LP  0  0  0  0  0  0  0  0  0  0  0  0  # atno 17342 bound_to 10162
  139.7408  144.7560  151.0655 LP  0  0  0  0  0  0  0  0  0  0  0  0  # atno 17343 bound_to 10162
  157.5629  131.0946  150.9532 LP  0  0  0  0  0  0  0  0  0  0  0  0  # atno 17370 bound_to 10713
  156.9766  130.5511  149.5293 LP  0  0  0  0  0  0  0  0  0  0  0  0  # atno 17371 bound_to 10713
  140.3316  134.7924  157.4331 LP  0  0  0  0  0  0  0  0  0  0  0  0  # atno 17394 bound_to 11000
  140.1012  134.5471  155.8351 LP  0  0  0  0  0  0  0  0  0  0  0  0  # atno 17395 bound_to 11000

$$$$
