AV-unprocessed.smi:1695|AV-procd|sdf|6798|dock8
  -GOLD-   22720 7563D 1   1.00000     0.00000
 Structure written by MMmdl.
 50 52  0  0  0  0  0  0  0  0  1 V2000
  153.4001  141.9735  160.8437 C   0  0  0  0  0  0  0  0  0  0  0  0
  152.5778  141.7986  159.5791 C   0  0  0  0  0  0  0  0  0  0  0  0
  152.4395  140.5069  159.0227 C   0  0  0  0  0  0  0  0  0  0  0  0
  151.6849  140.3016  157.8469 C   0  0  0  0  0  0  0  0  0  0  0  0
  151.4203  139.1412  157.1396 N   0  0  0  0  0  0  0  0  0  0  0  0
  150.6669  139.6003  156.1442 C   0  0  0  0  0  0  0  0  0  0  0  0
  150.4116  140.9228  156.1240 N   0  0  0  0  0  0  0  0  0  0  0  0
  149.6192  141.6492  155.1480 C   0  0  0  0  0  0  0  0  0  0  0  0
  148.1608  141.1571  155.0891 C   0  0  1  0  0  0  0  0  0  0  0  0
  147.3387  142.0590  155.8041 O   0  0  0  0  0  0  0  0  0  0  0  0
  147.6512  141.0779  153.6360 C   0  0  0  0  0  0  0  0  0  0  0  0
  147.3655  139.7310  153.1355 N   0  0  0  0  0  0  0  0  0  0  0  0
  146.7476  139.7462  151.8052 C   0  0  0  0  0  0  0  0  0  0  0  0
  146.4836  138.3325  151.2590 C   0  0  0  0  0  0  0  0  0  0  0  0
  145.5905  137.5319  152.2274 C   0  0  0  0  0  0  0  0  0  0  0  0
  145.3871  136.0913  151.7393 C   0  0  0  0  0  0  0  0  0  0  0  0
  146.4813  135.3421  151.5808 N   0  0  0  0  0  0  0  0  0  0  0  0
  144.2599  135.6574  151.5083 O   0  0  0  0  0  0  0  0  0  0  0  0
  146.2227  137.5638  153.6326 C   0  0  0  0  0  0  0  0  0  0  0  0
  146.4968  139.0129  154.0688 C   0  0  0  0  0  0  0  0  0  0  0  0
  151.0678  141.4332  157.2382 C   0  0  0  0  0  0  0  0  0  0  0  0
  151.1981  142.7234  157.7817 C   0  0  0  0  0  0  0  0  0  0  0  0
  151.9557  142.9108  158.9569 C   0  0  0  0  0  0  0  0  0  0  0  0
  152.0902  144.3077  159.5368 C   0  0  0  0  0  0  0  0  0  0  0  0
  153.7578  141.0155  161.2219 H   0  0  0  0  0  0  0  0  0  0  0  0
  152.8036  142.4393  161.6281 H   0  0  0  0  0  0  0  0  0  0  0  0
  154.2688  142.6023  160.6484 H   0  0  0  0  0  0  0  0  0  0  0  0
  152.9142  139.6599  159.4956 H   0  0  0  0  0  0  0  0  0  0  0  0
  150.2787  138.9380  155.3842 H   0  0  0  0  0  0  0  0  0  0  0  0
  149.6558  142.7130  155.3874 H   0  0  0  0  0  0  0  0  0  0  0  0
  150.0954  141.5325  154.1736 H   0  0  0  0  0  0  0  0  0  0  0  0
  148.1084  140.1841  155.5749 H   0  0  0  0  0  0  0  0  0  0  0  0
  147.8268  142.8561  155.9457 H   0  0  0  0  0  0  0  0  0  0  0  0
  146.7502  141.6894  153.5654 H   0  0  0  0  0  0  0  0  0  0  0  0
  148.3782  141.5524  152.9748 H   0  0  0  0  0  0  0  0  0  0  0  0
  145.8103  140.3038  151.8389 H   0  0  0  0  0  0  0  0  0  0  0  0
  147.3876  140.2641  151.0933 H   0  0  0  0  0  0  0  0  0  0  0  0
  146.0102  138.4000  150.2786 H   0  0  0  0  0  0  0  0  0  0  0  0
  147.4369  137.8228  151.1089 H   0  0  0  0  0  0  0  0  0  0  0  0
  144.6170  138.0234  152.2799 H   0  0  0  0  0  0  0  0  0  0  0  0
  146.3986  134.3883  151.2603 H   0  0  0  0  0  0  0  0  0  0  0  0
  147.3900  135.7345  151.7816 H   0  0  0  0  0  0  0  0  0  0  0  0
  145.5615  137.0828  154.3542 H   0  0  0  0  0  0  0  0  0  0  0  0
  147.1578  137.0012  153.6447 H   0  0  0  0  0  0  0  0  0  0  0  0
  146.9560  138.9970  155.0579 H   0  0  0  0  0  0  0  0  0  0  0  0
  145.5506  139.5450  154.1776 H   0  0  0  0  0  0  0  0  0  0  0  0
  150.7189  143.5609  157.2967 H   0  0  0  0  0  0  0  0  0  0  0  0
  151.5864  145.0472  158.9138 H   0  0  0  0  0  0  0  0  0  0  0  0
  153.1398  144.5930  159.6111 H   0  0  0  0  0  0  0  0  0  0  0  0
  151.6472  144.3510  160.5321 H   0  0  0  0  0  0  0  0  0  0  0  0
  1  2  1  0  0  0  0
  1 25  1  0  0  0  0
  1 26  1  0  0  0  0
  1 27  1  0  0  0  0
  2 23  1  0  0  0  0
  2  3  2  0  0  0  0
  3  4  1  0  0  0  0
  3 28  1  0  0  0  0
  4 21  2  0  0  0  0
  4  5  1  0  0  0  0
  5  6  2  0  0  0  0
  6  7  1  0  0  0  0
  6 29  1  0  0  0  0
  7  8  1  0  0  0  0
  7 21  1  0  0  0  0
  8  9  1  0  0  0  0
  8 30  1  0  0  0  0
  8 31  1  0  0  0  0
  9 10  1  0  0  0  0
  9 11  1  0  0  0  0
  9 32  1  0  0  0  0
 10 33  1  0  0  0  0
 11 12  1  0  0  0  0
 11 34  1  0  0  0  0
 11 35  1  0  0  0  0
 12 20  1  0  0  0  0
 12 13  1  0  0  0  0
 13 14  1  0  0  0  0
 13 36  1  0  0  0  0
 13 37  1  0  0  0  0
 14 15  1  0  0  0  0
 14 38  1  0  0  0  0
 14 39  1  0  0  0  0
 15 16  1  0  0  0  0
 15 19  1  0  0  0  0
 15 40  1  0  0  0  0
 16 17  1  0  0  0  0
 16 18  2  0  0  0  0
 17 41  1  0  0  0  0
 17 42  1  0  0  0  0
 19 20  1  0  0  0  0
 19 43  1  0  0  0  0
 19 44  1  0  0  0  0
 20 45  1  0  0  0  0
 20 46  1  0  0  0  0
 21 22  1  0  0  0  0
 22 23  2  0  0  0  0
 22 47  1  0  0  0  0
 23 24  1  0  0  0  0
 24 48  1  0  0  0  0
 24 49  1  0  0  0  0
 24 50  1  0  0  0  0
M  END
> <s_m_source_file>
AV-unprocessed.smi

> <i_m_source_file_index>
1695

> <i_lp_mmshare_version>
43012

> <i_f3d_flags>
0

> <s_epik_input>
W0NIM11jKFtjSF0xKWMoW0NIM10pW2NIXWMoYzEyKW4oW2NIXW4yKVtDSDJdW0NASF0oW09IXSlbQ0gyXU4zW0NIMl1bQ0gyXVtDSF0oQyg9TylbTkgyXSlbQ0gyXVtDSDJdMw==

> <s_epik_cmdline>
J2VwaWtfcHl0aG9uJywgJy1waCcsICc3LjAnLCAnLXRuJywgJzgnLCAnLW1hJywgJzIwMCcsICctbWV0YWxfYmluZGluZycsICctaW1hZScsICc8aW5maWxlLm1hZT4nLCAnLW9tYWUnLCAnPG91dGZpbGUubWFlPic=

> <r_epik_Ionization_Penalty>
1.9508

> <r_epik_Ionization_Penalty_Charging>
0

> <r_epik_Ionization_Penalty_Neutral>
1.9508

> <r_epik_State_Penalty>
2.03746

> <r_epik_Charging_Adjusted_Penalty>
2.03746

> <i_epik_Tot_Q>
0

> <i_epik_Tot_abs_Q>
0

> <r_epik_Metal_State_Penalty>
2.03012

> <b_epik_Metal_Only>
0

> <s_lp_Force_Field>
OPLS_2005

> <r_lp_Energy>
30.7191

> <b_lp_Chiralities_Consistent>
1

> <s_lp_Variant>
AV-unprocessed.smi:1695-10

> <Gold.Version>
5.8.1

> <Gold.Id.Protein>
6NUR|6NUR_protein|mol2

> <Gold.PLP.Fitness>
50.7478

> <Gold.PLP.PLP>
-47.4238

> <Gold.PLP.part.hbond>
-2.0000

> <Gold.PLP.part.metal>
0.0000

> <Gold.PLP.part.buried>
0.4066

> <Gold.PLP.part.nonpolar>
-46.6526

> <Gold.PLP.part.repulsive>
1.3453

> <Gold.PLP.ligand.clash>
0.0000

> <Gold.PLP.ligand.torsion>
1.3493

> <Gold.PLP.Chemscore.Hbond>
2.0000

> <Gold.PLP.Chemscore.CHOScore>
0.0000

> <Gold.PLP.Chemscore.Metal>
0.0000

> <Gold.Chemscore.Hbonds>
donor molecule, donor type, donor heavy atom, donor atom, acceptor molecule, acceptor atom, score
      L1  H    10    33       P1  8028  0.73
      L1  H    17    42       P1  7948  1.00

> <Gold.PLP.Chemscore.Internal.Correction>
0.0225

> <Gold.Rescore>
     Score         DG    S(hbond)    S(metal)    S(lipo)     H(rot)  DE(clash)    DE(int)     intcor
     16.89     -18.86       1.54        0.00     131.38       2.78       0.53       1.44       ----

> <Gold.Chemscore.Fitness>
16.8938

> <Gold.Chemscore.DG>
-18.8625

> <Gold.Chemscore.ZeroCoef>
-5.4800

> <Gold.Chemscore.Hbond>
1.5390

> <Gold.Chemscore.Metal>
0.0000

> <Gold.Chemscore.Lipo>
131.3825

> <Gold.Chemscore.Internal_Hbond>
0.0000

> <Gold.Chemscore.DEClash>
0.5314

> <Gold.Chemscore.DEInternal>
1.4373

> <Gold.Chemscore.Rot>
2.7849

> <Gold.Chemscore.Internal.Correction>
   9.000000E+99

> <Gold.Chemscore.Hbonds>
donor molecule, donor type, donor heavy atom, donor atom, acceptor molecule, acceptor atom, score
      L1  H    10    33       P1  8028  0.40
      L1  H    17    42       P1  7948  0.99

> <Gold.Chemscore.Hbond.Weighted>
-5.1402

> <Gold.Chemscore.Metal.Weighted>
-0.0000

> <Gold.Chemscore.Lipo.Weighted>
-15.3717

> <Gold.Chemscore.Internal_Hbond.Weighted>
0.0000

> <Gold.Chemscore.DEClash.Weighted>
0.5314

> <Gold.Chemscore.DEInternal.Weighted>
1.4373

> <Gold.Chemscore.Rot.Weighted>
7.1294

> <Gold.Chemscore.Internal.Correction.Weighted>
   9.000000E+99

> <Gold.Protein.RotatedTorsions>
[ 6907 6896 6895 6894 ] final   40.76 input  -60.11 | X-H torsion
[ 7974 7965 7964 7962 ] final  159.07 input  175.53 | X-H torsion
[ 8008 7997 7996 7995 ] final   22.82 input   59.86 | X-H torsion
[ 10167 10162 10161 10158 ] final -179.71 input  -65.29 | X-H torsion
[ 10718 10713 10712 10709 ] final  -39.53 input   66.30 | X-H torsion
[ 10763 10752 10751 10750 ] final   46.55 input  -60.55 | X-H torsion
[ 11005 11000 10999 10996 ] final   77.75 input  -57.11 | X-H torsion

> <Gold.Protein.ActiveResidues>
 VAL166  LYS551  ARG553  GLY616  TRP617  ASP618  TYR619  PRO620  LYS621  CYS622 
 ASP623  PHE694  ASN695  SER759  ASP760  ASP761  ALA762  ILE779  LEU786  VAL792 
 PHE793  MET794  SER795  GLU796  ALA797  LYS798  CYS799  TRP800  GLU811  SER814 

> <Gold.Protein.RotatedAtoms>
  152.1866  134.8709  160.0521 H   0  0  0  0  0  0  0  0  0  0  0  0  # atno 6907 bound_to 6896
  151.9613  133.3691  159.4044 H   0  0  0  0  0  0  0  0  0  0  0  0  # atno 6908 bound_to 6896
  150.6927  134.4161  159.5227 H   0  0  0  0  0  0  0  0  0  0  0  0  # atno 6909 bound_to 6896
  144.7811  139.7566  143.6259 H   0  0  0  0  0  0  0  0  0  0  0  0  # atno 7974 bound_to 7965
  154.9715  140.3090  155.4986 H   0  0  0  0  0  0  0  0  0  0  0  0  # atno 8008 bound_to 7997
  156.2965  140.2283  156.4747 H   0  0  0  0  0  0  0  0  0  0  0  0  # atno 8009 bound_to 7997
  154.7872  140.0442  157.1161 H   0  0  0  0  0  0  0  0  0  0  0  0  # atno 8010 bound_to 7997
  139.5374  144.2459  152.0823 H   0  0  0  0  0  0  0  0  0  0  0  0  # atno 10167 bound_to 10162
  156.2914  130.4229  149.8235 H   0  0  0  0  0  0  0  0  0  0  0  0  # atno 10718 bound_to 10713
  152.9809  135.6004  154.3618 H   0  0  0  0  0  0  0  0  0  0  0  0  # atno 10763 bound_to 10752
  154.3299  135.2768  155.2479 H   0  0  0  0  0  0  0  0  0  0  0  0  # atno 10764 bound_to 10752
  154.4608  135.5966  153.6309 H   0  0  0  0  0  0  0  0  0  0  0  0  # atno 10765 bound_to 10752
  139.9241  134.7708  156.1562 H   0  0  0  0  0  0  0  0  0  0  0  0  # atno 11005 bound_to 11000
  146.2019  139.5318  142.9738 LP  0  0  0  0  0  0  0  0  0  0  0  0  # atno 17320 bound_to 7965
  145.6049  141.0349  143.1998 LP  0  0  0  0  0  0  0  0  0  0  0  0  # atno 17321 bound_to 7965
  140.1932  144.4731  150.6468 LP  0  0  0  0  0  0  0  0  0  0  0  0  # atno 17342 bound_to 10162
  140.6587  143.2245  151.5907 LP  0  0  0  0  0  0  0  0  0  0  0  0  # atno 17343 bound_to 10162
  156.5646  130.8398  151.3339 LP  0  0  0  0  0  0  0  0  0  0  0  0  # atno 17370 bound_to 10713
  157.7343  130.9744  150.2024 LP  0  0  0  0  0  0  0  0  0  0  0  0  # atno 17371 bound_to 10713
  141.0785  133.6764  156.2287 LP  0  0  0  0  0  0  0  0  0  0  0  0  # atno 17394 bound_to 11000
  140.6387  134.5188  157.5567 LP  0  0  0  0  0  0  0  0  0  0  0  0  # atno 17395 bound_to 11000

$$$$
