AV-unprocessed.smi:3265|AV-procd|sdf|12498|dock8
  -GOLD-   2272018403D 1   1.00000     0.00000
 Structure written by MMmdl.
 41 42  0  0  0  0  0  0  0  0  2 V2000
  147.7420  133.1604  152.6288 C   0  0  0  0  0  0  0  0  0  0  0  0
  146.2318  133.4062  152.7786 C   0  0  2  0  0  0  0  0  0  0  0  0
  145.4585  133.1942  151.4630 C   0  0  0  0  0  0  0  0  0  0  0  0
  145.6915  134.3532  150.4829 C   0  0  0  0  0  0  0  0  0  0  0  0
  145.3826  135.7050  151.1446 C   0  0  0  0  0  0  0  0  0  0  0  0
  146.1829  135.8827  152.3819 N   0  3  1  0  0  0  0  0  0  0  0  0
  146.0452  137.2398  152.9691 C   0  0  0  0  0  0  0  0  0  0  0  0
  146.6183  138.3390  152.0500 C   0  0  0  0  0  0  0  0  0  0  0  0
  147.7610  139.0244  152.6475 N   0  0  0  0  0  0  0  0  0  0  0  0
  147.8623  139.3639  153.9422 C   0  0  0  0  0  0  0  0  0  0  0  0
  147.0093  139.0863  154.7842 O   0  0  0  0  0  0  0  0  0  0  0  0
  149.1013  140.1626  154.3440 C   0  0  0  0  0  0  0  0  0  0  0  0
  150.2214  139.2761  154.6072 N   0  0  0  0  0  0  0  0  0  0  0  0
  150.2815  137.9049  154.4663 C   0  0  0  0  0  0  0  0  0  0  0  0
  151.5361  137.5125  154.8355 C   0  0  0  0  0  0  0  0  0  0  0  0
  152.1815  138.7307  155.1867 C   0  0  0  0  0  0  0  0  0  0  0  0
  151.3902  139.7835  155.0560 N   0  0  0  0  0  0  0  0  0  0  0  0
  145.9280  134.7989  153.3676 C   0  0  0  0  0  0  0  0  0  0  0  0
  148.2011  133.8827  151.9563 H   0  0  0  0  0  0  0  0  0  0  0  0
  147.9417  132.1638  152.2343 H   0  0  0  0  0  0  0  0  0  0  0  0
  148.2495  133.2401  153.5905 H   0  0  0  0  0  0  0  0  0  0  0  0
  145.8698  132.6633  153.4908 H   0  0  0  0  0  0  0  0  0  0  0  0
  145.7373  132.2461  151.0020 H   0  0  0  0  0  0  0  0  0  0  0  0
  144.3919  133.1244  151.6820 H   0  0  0  0  0  0  0  0  0  0  0  0
  146.7238  134.3433  150.1320 H   0  0  0  0  0  0  0  0  0  0  0  0
  145.0676  134.2220  149.5986 H   0  0  0  0  0  0  0  0  0  0  0  0
  145.6108  136.5046  150.4389 H   0  0  0  0  0  0  0  0  0  0  0  0
  144.3198  135.7794  151.3810 H   0  0  0  0  0  0  0  0  0  0  0  0
  144.9890  137.4565  153.1330 H   0  0  0  0  0  0  0  0  0  0  0  0
  146.5114  137.2764  153.9548 H   0  0  0  0  0  0  0  0  0  0  0  0
  146.9018  137.9144  151.0858 H   0  0  0  0  0  0  0  0  0  0  0  0
  145.8551  139.0875  151.8383 H   0  0  0  0  0  0  0  0  0  0  0  0
  148.5177  139.2829  152.0298 H   0  0  0  0  0  0  0  0  0  0  0  0
  149.3792  140.8497  153.5437 H   0  0  0  0  0  0  0  0  0  0  0  0
  148.8911  140.7667  155.2284 H   0  0  0  0  0  0  0  0  0  0  0  0
  149.4352  137.3300  154.1198 H   0  0  0  0  0  0  0  0  0  0  0  0
  151.9339  136.5087  154.8495 H   0  0  0  0  0  0  0  0  0  0  0  0
  153.1922  138.8801  155.5372 H   0  0  0  0  0  0  0  0  0  0  0  0
  144.8842  134.8449  153.6826 H   0  0  0  0  0  0  0  0  0  0  0  0
  146.5290  134.9556  154.2637 H   0  0  0  0  0  0  0  0  0  0  0  0
  147.1487  135.7997  152.0971 H   0  0  0  0  0  0  0  0  0  0  0  0
  1  2  1  0  0  0  0
  1 19  1  0  0  0  0
  1 20  1  0  0  0  0
  1 21  1  0  0  0  0
  2 18  1  0  0  0  0
  2  3  1  0  0  0  0
  2 22  1  0  0  0  0
  3  4  1  0  0  0  0
  3 23  1  0  0  0  0
  3 24  1  0  0  0  0
  4  5  1  0  0  0  0
  4 25  1  0  0  0  0
  4 26  1  0  0  0  0
  5  6  1  0  0  0  0
  5 27  1  0  0  0  0
  5 28  1  0  0  0  0
  6  7  1  0  0  0  0
  6 18  1  0  0  0  0
  6 41  1  0  0  0  0
  7  8  1  0  0  0  0
  7 29  1  0  0  0  0
  7 30  1  0  0  0  0
  8  9  1  0  0  0  0
  8 31  1  0  0  0  0
  8 32  1  0  0  0  0
  9 10  1  0  0  0  0
  9 33  1  0  0  0  0
 10 11  2  0  0  0  0
 10 12  1  0  0  0  0
 12 13  1  0  0  0  0
 12 34  1  0  0  0  0
 12 35  1  0  0  0  0
 13 17  1  0  0  0  0
 13 14  1  0  0  0  0
 14 15  2  0  0  0  0
 14 36  1  0  0  0  0
 15 16  1  0  0  0  0
 15 37  1  0  0  0  0
 16 17  2  0  0  0  0
 16 38  1  0  0  0  0
 18 39  1  0  0  0  0
 18 40  1  0  0  0  0
M  CHG  1   6   1
M  END
> <s_m_source_file>
AV-unprocessed.smi

> <i_m_source_file_index>
3265

> <i_lp_mmshare_version>
43012

> <i_f3d_flags>
0

> <s_epik_input>
W0NIM11bQ0BASF0xW0NIMl1bQ0gyXVtDSDJdTihbQ0gyXTEpW0NIMl1bQ0gyXVtOSF1DKD1PKVtDSDJdbjJbY0hdW2NIXVtjSF1uMg==

> <s_epik_cmdline>
J2VwaWtfcHl0aG9uJywgJy1waCcsICc3LjAnLCAnLXRuJywgJzgnLCAnLW1hJywgJzIwMCcsICctbWV0YWxfYmluZGluZycsICctaW1hZScsICc8aW5maWxlLm1hZT4nLCAnLW9tYWUnLCAnPG91dGZpbGUubWFlPic=

> <r_lp_tautomer_probability>
1

> <r_epik_Ionization_Penalty>
0.00231455

> <r_epik_Ionization_Penalty_Charging>
0.00230623

> <r_epik_Ionization_Penalty_Neutral>
8.31727e-06

> <r_epik_State_Penalty>
0.00159065

> <r_epik_Charging_Adjusted_Penalty>
0.00389688

> <i_epik_Tot_Q>
1

> <i_epik_Tot_abs_Q>
1

> <r_epik_Metal_State_Penalty>
-0

> <b_epik_Metal_Only>
0

> <s_lp_Force_Field>
OPLS_2005

> <r_lp_Energy>
23.6627

> <b_lp_Chiralities_Consistent>
1

> <s_lp_Variant>
AV-unprocessed.smi:3265-3

> <Gold.Version>
5.8.1

> <Gold.Id.Protein>
6NUR|6NUR_protein|mol2

> <Gold.PLP.Fitness>
48.8118

> <Gold.PLP.PLP>
-35.6112

> <Gold.PLP.part.hbond>
-3.4237

> <Gold.PLP.part.metal>
0.0000

> <Gold.PLP.part.buried>
-0.5552

> <Gold.PLP.part.nonpolar>
-31.4291

> <Gold.PLP.part.repulsive>
0.2293

> <Gold.PLP.ligand.clash>
0.0000

> <Gold.PLP.ligand.torsion>
0.9155

> <Gold.PLP.Chemscore.Hbond>
4.0000

> <Gold.PLP.Chemscore.CHOScore>
0.9989

> <Gold.PLP.Chemscore.Metal>
0.0000

> <Gold.Chemscore.Hbonds>
donor molecule, donor type, donor heavy atom, donor atom, acceptor molecule, acceptor atom, score
      L1  H     6    41       P1  7948  2.00
      L1  H     9    33       P1  7957  1.00
      P1  H  7989  7998       L1    17  0.70
      L1  C    14    36       P1  7948  0.99

> <Gold.PLP.Chemscore.Internal.Correction>
0.0348

> <Gold.Rescore>
     Score         DG    S(hbond)    S(metal)    S(lipo)     H(rot)  DE(clash)    DE(int)     intcor
     15.99     -18.62       2.78        0.00      73.29       1.84       0.26       2.37       ----

> <Gold.Chemscore.Fitness>
15.9867

> <Gold.Chemscore.DG>
-18.6175

> <Gold.Chemscore.ZeroCoef>
-5.4800

> <Gold.Chemscore.Hbond>
2.7754

> <Gold.Chemscore.Metal>
0.0000

> <Gold.Chemscore.Lipo>
73.2866

> <Gold.Chemscore.Internal_Hbond>
0.0000

> <Gold.Chemscore.DEClash>
0.2641

> <Gold.Chemscore.DEInternal>
2.3667

> <Gold.Chemscore.Rot>
1.8386

> <Gold.Chemscore.Internal.Correction>
   9.000000E+99

> <Gold.Chemscore.Hbonds>
donor molecule, donor type, donor heavy atom, donor atom, acceptor molecule, acceptor atom, score
      L1  H     6    41       P1  7948  1.00
      L1  H     9    33       P1  7957  0.97
      P1  H  7989  7998       L1    17  0.07

> <Gold.Chemscore.Hbond.Weighted>
-9.2698

> <Gold.Chemscore.Metal.Weighted>
-0.0000

> <Gold.Chemscore.Lipo.Weighted>
-8.5745

> <Gold.Chemscore.Internal_Hbond.Weighted>
0.0000

> <Gold.Chemscore.DEClash.Weighted>
0.2641

> <Gold.Chemscore.DEInternal.Weighted>
2.3667

> <Gold.Chemscore.Rot.Weighted>
4.7069

> <Gold.Chemscore.Internal.Correction.Weighted>
   9.000000E+99

> <Gold.Protein.RotatedTorsions>
[ 6907 6896 6895 6894 ] final   62.87 input  -60.11 | X-H torsion
[ 7974 7965 7964 7962 ] final  -90.67 input  175.53 | X-H torsion
[ 8008 7997 7996 7995 ] final   12.17 input   59.86 | X-H torsion
[ 10167 10162 10161 10158 ] final  -77.53 input  -65.29 | X-H torsion
[ 10718 10713 10712 10709 ] final  -44.96 input   66.30 | X-H torsion
[ 10763 10752 10751 10750 ] final   57.27 input  -60.55 | X-H torsion
[ 11005 11000 10999 10996 ] final -150.34 input  -57.11 | X-H torsion

> <Gold.Protein.ActiveResidues>
 VAL166  LYS551  ARG553  GLY616  TRP617  ASP618  TYR619  PRO620  LYS621  CYS622 
 ASP623  PHE694  ASN695  SER759  ASP760  ASP761  ALA762  ILE779  LEU786  VAL792 
 PHE793  MET794  SER795  GLU796  ALA797  LYS798  CYS799  TRP800  GLU811  SER814 

> <Gold.Protein.RotatedAtoms>
  152.4207  134.5960  159.9986 H   0  0  0  0  0  0  0  0  0  0  0  0  # atno 6907 bound_to 6896
  151.6110  133.3341  159.3075 H   0  0  0  0  0  0  0  0  0  0  0  0  # atno 6908 bound_to 6896
  150.8096  134.7280  159.6741 H   0  0  0  0  0  0  0  0  0  0  0  0  # atno 6909 bound_to 6896
  145.4234  140.9552  143.2168 H   0  0  0  0  0  0  0  0  0  0  0  0  # atno 7974 bound_to 7965
  154.8169  140.2877  155.5814 H   0  0  0  0  0  0  0  0  0  0  0  0  # atno 8008 bound_to 7997
  156.2994  140.2557  156.2999 H   0  0  0  0  0  0  0  0  0  0  0  0  # atno 8009 bound_to 7997
  154.9383  140.0382  157.2073 H   0  0  0  0  0  0  0  0  0  0  0  0  # atno 8010 bound_to 7997
  140.4762  143.2413  151.8129 H   0  0  0  0  0  0  0  0  0  0  0  0  # atno 10167 bound_to 10162
  156.2332  130.4174  149.8849 H   0  0  0  0  0  0  0  0  0  0  0  0  # atno 10718 bound_to 10713
  152.9847  135.5647  154.5364 H   0  0  0  0  0  0  0  0  0  0  0  0  # atno 10763 bound_to 10752
  154.4826  135.2789  155.1561 H   0  0  0  0  0  0  0  0  0  0  0  0  # atno 10764 bound_to 10752
  154.3063  135.6297  153.5499 H   0  0  0  0  0  0  0  0  0  0  0  0  # atno 10765 bound_to 10752
  140.7412  134.3512  157.5147 H   0  0  0  0  0  0  0  0  0  0  0  0  # atno 11005 bound_to 11000
  144.8230  139.5758  143.6978 LP  0  0  0  0  0  0  0  0  0  0  0  0  # atno 17320 bound_to 7965
  146.2645  139.6487  142.9339 LP  0  0  0  0  0  0  0  0  0  0  0  0  # atno 17321 bound_to 7965
  139.4826  144.4830  151.9283 LP  0  0  0  0  0  0  0  0  0  0  0  0  # atno 17342 bound_to 10162
  140.3915  144.2609  150.5899 LP  0  0  0  0  0  0  0  0  0  0  0  0  # atno 17343 bound_to 10162
  156.6456  130.8723  151.3522 LP  0  0  0  0  0  0  0  0  0  0  0  0  # atno 17370 bound_to 10713
  157.7142  130.9477  150.1197 LP  0  0  0  0  0  0  0  0  0  0  0  0  # atno 17371 bound_to 10713
  139.8805  134.9082  156.2963 LP  0  0  0  0  0  0  0  0  0  0  0  0  # atno 17394 bound_to 11000
  140.9835  133.7253  156.0706 LP  0  0  0  0  0  0  0  0  0  0  0  0  # atno 17395 bound_to 11000

$$$$
