AV-unprocessed.smi:3345|AV-procd|sdf|12906|dock7
  -GOLD-   2272019323D 1   1.00000     0.00000
 Structure written by MMmdl.
 41 42  0  0  0  0  0  0  0  0  2 V2000
  147.3707  140.6513  153.2097 C   0  0  0  0  0  0  0  0  0  0  0  0
  147.3596  139.1316  153.4215 C   0  0  1  0  0  0  0  0  0  0  0  0
  146.4620  138.4179  152.3848 C   0  0  0  0  0  0  0  0  0  0  0  0
  146.5637  136.9367  152.4453 N   0  3  0  0  0  0  0  0  0  0  0  0
  146.3380  136.3795  153.8005 C   0  0  0  0  0  0  0  0  0  0  0  0
  146.5522  134.8574  153.7857 C   0  0  0  0  0  0  0  0  0  0  0  0
  145.6690  134.2655  152.8407 O   0  0  0  0  0  0  0  0  0  0  0  0
  145.9094  134.7325  151.5187 C   0  0  0  0  0  0  0  0  0  0  0  0
  145.6975  136.2549  151.4554 C   0  0  0  0  0  0  0  0  0  0  0  0
  148.7287  138.6206  153.3538 N   0  0  0  0  0  0  0  0  0  0  0  0
  149.5958  138.5533  154.3774 C   0  0  0  0  0  0  0  0  0  0  0  0
  149.3577  139.0083  155.4963 O   0  0  0  0  0  0  0  0  0  0  0  0
  150.9101  137.8106  154.0998 C   0  0  1  0  0  0  0  0  0  0  0  0
  152.1539  138.6486  154.4581 C   0  0  0  0  0  0  0  0  0  0  0  0
  150.8925  136.5233  154.7844 N   0  0  0  0  0  0  0  0  0  0  0  0
  149.9813  135.5482  154.7535 C   0  0  0  0  0  0  0  0  0  0  0  0
  150.2545  134.5300  155.5570 N   0  0  0  0  0  0  0  0  0  0  0  0
  151.4322  134.9696  156.0910 C   0  0  0  0  0  0  0  0  0  0  0  0
  151.8450  136.1692  155.6834 N   0  0  0  0  0  0  0  0  0  0  0  0
  146.3631  141.0629  153.2769 H   0  0  0  0  0  0  0  0  0  0  0  0
  147.7734  140.9157  152.2313 H   0  0  0  0  0  0  0  0  0  0  0  0
  147.9795  141.1487  153.9655 H   0  0  0  0  0  0  0  0  0  0  0  0
  146.9495  138.9562  154.4170 H   0  0  0  0  0  0  0  0  0  0  0  0
  145.4210  138.7247  152.4966 H   0  0  0  0  0  0  0  0  0  0  0  0
  146.7706  138.7460  151.3909 H   0  0  0  0  0  0  0  0  0  0  0  0
  147.0182  136.8342  154.5194 H   0  0  0  0  0  0  0  0  0  0  0  0
  145.3245  136.6118  154.1305 H   0  0  0  0  0  0  0  0  0  0  0  0
  147.5874  134.6118  153.5419 H   0  0  0  0  0  0  0  0  0  0  0  0
  146.3478  134.4389  154.7713 H   0  0  0  0  0  0  0  0  0  0  0  0
  146.9201  134.4679  151.2081 H   0  0  0  0  0  0  0  0  0  0  0  0
  145.2256  134.2289  150.8354 H   0  0  0  0  0  0  0  0  0  0  0  0
  144.6522  136.4974  151.6539 H   0  0  0  0  0  0  0  0  0  0  0  0
  145.9271  136.6130  150.4512 H   0  0  0  0  0  0  0  0  0  0  0  0
  149.0219  138.2367  152.4669 H   0  0  0  0  0  0  0  0  0  0  0  0
  150.9552  137.6055  153.0288 H   0  0  0  0  0  0  0  0  0  0  0  0
  152.1697  139.5852  153.8999 H   0  0  0  0  0  0  0  0  0  0  0  0
  153.0687  138.1083  154.2137 H   0  0  0  0  0  0  0  0  0  0  0  0
  152.1924  138.8977  155.5195 H   0  0  0  0  0  0  0  0  0  0  0  0
  149.0949  135.5880  154.1374 H   0  0  0  0  0  0  0  0  0  0  0  0
  151.9901  134.3989  156.8189 H   0  0  0  0  0  0  0  0  0  0  0  0
  147.5141  136.7075  152.1912 H   0  0  0  0  0  0  0  0  0  0  0  0
  1  2  1  0  0  0  0
  1 20  1  0  0  0  0
  1 21  1  0  0  0  0
  1 22  1  0  0  0  0
  2  3  1  0  0  0  0
  2 10  1  0  0  0  0
  2 23  1  0  0  0  0
  3  4  1  0  0  0  0
  3 24  1  0  0  0  0
  3 25  1  0  0  0  0
  4  9  1  0  0  0  0
  4  5  1  0  0  0  0
  4 41  1  0  0  0  0
  5  6  1  0  0  0  0
  5 26  1  0  0  0  0
  5 27  1  0  0  0  0
  6  7  1  0  0  0  0
  6 28  1  0  0  0  0
  6 29  1  0  0  0  0
  7  8  1  0  0  0  0
  8  9  1  0  0  0  0
  8 30  1  0  0  0  0
  8 31  1  0  0  0  0
  9 32  1  0  0  0  0
  9 33  1  0  0  0  0
 10 11  1  0  0  0  0
 10 34  1  0  0  0  0
 11 12  2  0  0  0  0
 11 13  1  0  0  0  0
 13 14  1  0  0  0  0
 13 15  1  0  0  0  0
 13 35  1  0  0  0  0
 14 36  1  0  0  0  0
 14 37  1  0  0  0  0
 14 38  1  0  0  0  0
 15 19  1  0  0  0  0
 15 16  1  0  0  0  0
 16 17  2  0  0  0  0
 16 39  1  0  0  0  0
 17 18  1  0  0  0  0
 18 19  2  0  0  0  0
 18 40  1  0  0  0  0
M  CHG  1   4   1
M  END
> <s_m_source_file>
AV-unprocessed.smi

> <i_m_source_file_index>
3345

> <i_lp_mmshare_version>
43012

> <i_f3d_flags>
0

> <s_epik_input>
W0NIMl0xW0NIMl1PW0NIMl1bQ0gyXU4xW0NIMl1bQ0BASF0oW0NIM10pW05IXUMoPU8pW0NASF0oW0NIM10pbjJbY0hdbltjSF1uMg==

> <s_epik_cmdline>
J2VwaWtfcHl0aG9uJywgJy1waCcsICc3LjAnLCAnLXRuJywgJzgnLCAnLW1hJywgJzIwMCcsICctbWV0YWxfYmluZGluZycsICctaW1hZScsICc8aW5maWxlLm1hZT4nLCAnLW9tYWUnLCAnPG91dGZpbGUubWFlPic=

> <r_lp_tautomer_probability>
1

> <r_epik_Ionization_Penalty>
0.71326

> <r_epik_Ionization_Penalty_Charging>
0.713252

> <r_epik_Ionization_Penalty_Neutral>
8.27671e-06

> <r_epik_State_Penalty>
0.737017

> <r_epik_Charging_Adjusted_Penalty>
1.45027

> <i_epik_Tot_Q>
1

> <i_epik_Tot_abs_Q>
1

> <r_epik_Metal_State_Penalty>
0.73702

> <b_epik_Metal_Only>
0

> <s_lp_Force_Field>
OPLS_2005

> <r_lp_Energy>
25.9196

> <b_lp_Chiralities_Consistent>
1

> <s_lp_Variant>
AV-unprocessed.smi:3345-8

> <Gold.Version>
5.8.1

> <Gold.Id.Protein>
6NUR|6NUR_protein|mol2

> <Gold.PLP.Fitness>
42.7572

> <Gold.PLP.PLP>
-30.0780

> <Gold.PLP.part.hbond>
-4.0000

> <Gold.PLP.part.metal>
0.0000

> <Gold.PLP.part.buried>
-3.7650

> <Gold.PLP.part.nonpolar>
-24.8460

> <Gold.PLP.part.repulsive>
0.2889

> <Gold.PLP.ligand.clash>
0.0000

> <Gold.PLP.ligand.torsion>
0.6168

> <Gold.PLP.Chemscore.Hbond>
3.6880

> <Gold.PLP.Chemscore.CHOScore>
0.8972

> <Gold.PLP.Chemscore.Metal>
0.0000

> <Gold.Chemscore.Hbonds>
donor molecule, donor type, donor heavy atom, donor atom, acceptor molecule, acceptor atom, score
      L1  H     4    41       P1  7948  2.00
      L1  H    10    34       P1  7948  0.54
      P1  H 10752 10763       L1    19  0.50
      L1  C    16    39       P1  7948  0.93

> <Gold.PLP.Chemscore.Internal.Correction>
0.1572

> <Gold.Rescore>
     Score         DG    S(hbond)    S(metal)    S(lipo)     H(rot)  DE(clash)    DE(int)     intcor
     12.34     -13.56       2.65        0.00      50.69       2.61       0.38       0.84       ----

> <Gold.Chemscore.Fitness>
12.3433

> <Gold.Chemscore.DG>
-13.5604

> <Gold.Chemscore.ZeroCoef>
-5.4800

> <Gold.Chemscore.Hbond>
2.6470

> <Gold.Chemscore.Metal>
0.0000

> <Gold.Chemscore.Lipo>
50.6889

> <Gold.Chemscore.Internal_Hbond>
0.0000

> <Gold.Chemscore.DEClash>
0.3821

> <Gold.Chemscore.DEInternal>
0.8351

> <Gold.Chemscore.Rot>
2.6138

> <Gold.Chemscore.Internal.Correction>
   9.000000E+99

> <Gold.Chemscore.Hbonds>
donor molecule, donor type, donor heavy atom, donor atom, acceptor molecule, acceptor atom, score
      L1  H     4    41       P1  7948  0.93
      L1  H    10    34       P1  7948  0.51
      P1  H 10752 10763       L1    19  0.02

> <Gold.Chemscore.Hbond.Weighted>
-8.8411

> <Gold.Chemscore.Metal.Weighted>
-0.0000

> <Gold.Chemscore.Lipo.Weighted>
-5.9306

> <Gold.Chemscore.Internal_Hbond.Weighted>
0.0000

> <Gold.Chemscore.DEClash.Weighted>
0.3821

> <Gold.Chemscore.DEInternal.Weighted>
0.8351

> <Gold.Chemscore.Rot.Weighted>
6.6912

> <Gold.Chemscore.Internal.Correction.Weighted>
   9.000000E+99

> <Gold.Protein.RotatedTorsions>
[ 6907 6896 6895 6894 ] final -172.50 input  -60.11 | X-H torsion
[ 7974 7965 7964 7962 ] final -138.60 input  175.53 | X-H torsion
[ 8008 7997 7996 7995 ] final  -36.87 input   59.86 | X-H torsion
[ 10167 10162 10161 10158 ] final  151.64 input  -65.29 | X-H torsion
[ 10718 10713 10712 10709 ] final  121.68 input   66.30 | X-H torsion
[ 10763 10752 10751 10750 ] final   80.52 input  -60.55 | X-H torsion
[ 11005 11000 10999 10996 ] final   31.33 input  -57.11 | X-H torsion

> <Gold.Protein.ActiveResidues>
 VAL166  LYS551  ARG553  GLY616  TRP617  ASP618  TYR619  PRO620  LYS621  CYS622 
 ASP623  PHE694  ASN695  SER759  ASP760  ASP761  ALA762  ILE779  LEU786  VAL792 
 PHE793  MET794  SER795  GLU796  ALA797  LYS798  CYS799  TRP800  GLU811  SER814 

> <Gold.Protein.RotatedAtoms>
  151.5410  133.3433  159.2935 H   0  0  0  0  0  0  0  0  0  0  0  0  # atno 6907 bound_to 6896
  150.8536  134.7870  159.7039 H   0  0  0  0  0  0  0  0  0  0  0  0  # atno 6908 bound_to 6896
  152.4575  134.5267  159.9850 H   0  0  0  0  0  0  0  0  0  0  0  0  # atno 6909 bound_to 6896
  144.8745  140.6417  143.5245 H   0  0  0  0  0  0  0  0  0  0  0  0  # atno 7974 bound_to 7965
  154.4064  140.1619  156.2445 H   0  0  0  0  0  0  0  0  0  0  0  0  # atno 8008 bound_to 7997
  155.9173  140.3423  155.6122 H   0  0  0  0  0  0  0  0  0  0  0  0  # atno 8009 bound_to 7997
  155.7265  140.0775  157.2298 H   0  0  0  0  0  0  0  0  0  0  0  0  # atno 8010 bound_to 7997
  139.4839  144.5424  151.7542 H   0  0  0  0  0  0  0  0  0  0  0  0  # atno 10167 bound_to 10162
  157.5799  131.1076  150.8207 H   0  0  0  0  0  0  0  0  0  0  0  0  # atno 10718 bound_to 10713
  153.1040  135.4799  154.8919 H   0  0  0  0  0  0  0  0  0  0  0  0  # atno 10763 bound_to 10752
  154.7410  135.3082  154.8730 H   0  0  0  0  0  0  0  0  0  0  0  0  # atno 10764 bound_to 10752
  153.9338  135.6841  153.4798 H   0  0  0  0  0  0  0  0  0  0  0  0  # atno 10765 bound_to 10752
  140.2850  134.2930  155.7790 H   0  0  0  0  0  0  0  0  0  0  0  0  # atno 11005 bound_to 11000
  145.4068  139.1587  143.4148 LP  0  0  0  0  0  0  0  0  0  0  0  0  # atno 17320 bound_to 7965
  146.2953  140.4169  142.8724 LP  0  0  0  0  0  0  0  0  0  0  0  0  # atno 17321 bound_to 7965
  140.4965  144.1232  150.5961 LP  0  0  0  0  0  0  0  0  0  0  0  0  # atno 17342 bound_to 10162
  140.4111  143.2656  151.9831 LP  0  0  0  0  0  0  0  0  0  0  0  0  # atno 17343 bound_to 10162
  156.8656  130.5128  149.5300 LP  0  0  0  0  0  0  0  0  0  0  0  0  # atno 17370 bound_to 10713
  156.0845  130.5847  150.9622 LP  0  0  0  0  0  0  0  0  0  0  0  0  # atno 17371 bound_to 10713
  141.2156  133.7549  156.9538 LP  0  0  0  0  0  0  0  0  0  0  0  0  # atno 17394 bound_to 11000
  140.1248  134.9394  157.2255 LP  0  0  0  0  0  0  0  0  0  0  0  0  # atno 17395 bound_to 11000

$$$$
