AV-unprocessed.smi:2032|AV-procd|sdf|8243|dock10
  -GOLD-   2272010513D 1   1.00000     0.00000
 Structure written by MMmdl.
 43 44  0  0  0  0  0  0  0  0  2 V2000
  152.7583  138.6589  154.6331 C   0  0  0  0  0  0  0  0  0  0  0  0
  151.5198  137.7984  154.3589 C   0  0  2  0  0  0  0  0  0  0  0  0
  150.2096  138.5732  154.5932 C   0  0  0  0  0  0  0  0  0  0  0  0
  149.0129  137.7069  154.3973 N   0  3  2  0  0  0  0  0  0  0  0  0
  147.7113  138.4315  154.5968 C   0  0  1  0  0  0  0  0  0  0  0  0
  147.6929  139.7819  153.8383 C   0  0  0  0  0  0  0  0  0  0  0  0
  146.4855  137.5604  154.2005 C   0  0  0  0  0  0  0  0  0  0  0  0
  146.7897  136.5603  153.1790 N   0  0  0  0  0  0  0  0  0  0  0  0
  145.9095  135.6960  152.6517 C   0  0  0  0  0  0  0  0  0  0  0  0
  144.7290  135.6349  152.9967 O   0  0  0  0  0  0  0  0  0  0  0  0
  146.4892  134.9180  151.7211 N   0  0  0  0  0  0  0  0  0  0  0  0
  145.8974  133.8835  150.9497 C   0  0  0  0  0  0  0  0  0  0  0  0
  146.5865  132.9832  150.2387 N   0  0  0  0  0  0  0  0  0  0  0  0
  145.7469  132.0809  149.5806 C   0  0  0  0  0  0  0  0  0  0  0  0
  144.4118  132.3120  149.8016 C   0  0  0  0  0  0  0  0  0  0  0  0
  144.1544  133.6795  150.8520 S   0  0  0  0  0  0  0  0  0  0  0  0
  149.1539  136.4703  155.2175 C   0  0  0  0  0  0  0  0  0  0  0  0
  150.5029  135.7691  154.9689 C   0  0  2  0  0  0  0  0  0  0  0  0
  150.6931  134.5460  155.8730 C   0  0  0  0  0  0  0  0  0  0  0  0
  151.5593  136.6799  155.2320 O   0  0  0  0  0  0  0  0  0  0  0  0
  152.7865  139.5281  153.9755 H   0  0  0  0  0  0  0  0  0  0  0  0
  153.6727  138.0887  154.4677 H   0  0  0  0  0  0  0  0  0  0  0  0
  152.7721  139.0174  155.6628 H   0  0  0  0  0  0  0  0  0  0  0  0
  151.5637  137.4529  153.3242 H   0  0  0  0  0  0  0  0  0  0  0  0
  150.1937  138.9904  155.6015 H   0  0  0  0  0  0  0  0  0  0  0  0
  150.2040  139.4096  153.8972 H   0  0  0  0  0  0  0  0  0  0  0  0
  147.6223  138.6514  155.6619 H   0  0  0  0  0  0  0  0  0  0  0  0
  146.7430  140.3026  153.9507 H   0  0  0  0  0  0  0  0  0  0  0  0
  147.8638  139.6389  152.7710 H   0  0  0  0  0  0  0  0  0  0  0  0
  148.4363  140.4842  154.2113 H   0  0  0  0  0  0  0  0  0  0  0  0
  146.0480  137.0985  155.0874 H   0  0  0  0  0  0  0  0  0  0  0  0
  145.7041  138.1732  153.7536 H   0  0  0  0  0  0  0  0  0  0  0  0
  147.7397  136.5346  152.8379 H   0  0  0  0  0  0  0  0  0  0  0  0
  147.4687  135.0834  151.5425 H   0  0  0  0  0  0  0  0  0  0  0  0
  146.1855  131.3027  148.9737 H   0  0  0  0  0  0  0  0  0  0  0  0
  143.5679  131.7625  149.4119 H   0  0  0  0  0  0  0  0  0  0  0  0
  149.0464  136.7221  156.2741 H   0  0  0  0  0  0  0  0  0  0  0  0
  148.3751  135.7507  154.9712 H   0  0  0  0  0  0  0  0  0  0  0  0
  150.5609  135.4400  153.9298 H   0  0  0  0  0  0  0  0  0  0  0  0
  149.9148  133.8029  155.6974 H   0  0  0  0  0  0  0  0  0  0  0  0
  150.6590  134.8238  156.9270 H   0  0  0  0  0  0  0  0  0  0  0  0
  151.6552  134.0684  155.6856 H   0  0  0  0  0  0  0  0  0  0  0  0
  149.0292  137.4084  153.4322 H   0  0  0  0  0  0  0  0  0  0  0  0
  1  2  1  0  0  0  0
  1 21  1  0  0  0  0
  1 22  1  0  0  0  0
  1 23  1  0  0  0  0
  2 20  1  0  0  0  0
  2  3  1  0  0  0  0
  2 24  1  0  0  0  0
  3  4  1  0  0  0  0
  3 25  1  0  0  0  0
  3 26  1  0  0  0  0
  4  5  1  0  0  0  0
  4 17  1  0  0  0  0
  4 43  1  0  0  0  0
  5  6  1  0  0  0  0
  5  7  1  0  0  0  0
  5 27  1  0  0  0  0
  6 28  1  0  0  0  0
  6 29  1  0  0  0  0
  6 30  1  0  0  0  0
  7  8  1  0  0  0  0
  7 31  1  0  0  0  0
  7 32  1  0  0  0  0
  8  9  1  0  0  0  0
  8 33  1  0  0  0  0
  9 10  2  0  0  0  0
  9 11  1  0  0  0  0
 11 12  1  0  0  0  0
 11 34  1  0  0  0  0
 12 16  1  0  0  0  0
 12 13  2  0  0  0  0
 13 14  1  0  0  0  0
 14 15  2  0  0  0  0
 14 35  1  0  0  0  0
 15 16  1  0  0  0  0
 15 36  1  0  0  0  0
 17 18  1  0  0  0  0
 17 37  1  0  0  0  0
 17 38  1  0  0  0  0
 18 19  1  0  0  0  0
 18 20  1  0  0  0  0
 18 39  1  0  0  0  0
 19 40  1  0  0  0  0
 19 41  1  0  0  0  0
 19 42  1  0  0  0  0
M  CHG  1   4   1
M  END
> <s_m_source_file>
AV-unprocessed.smi

> <i_m_source_file_index>
2032

> <i_lp_mmshare_version>
43012

> <i_f3d_flags>
0

> <s_epik_input>
W0NIM11bQ0BASF0xW0NIMl1OKFtDSDJdW0NASF0oTzEpW0NIM10pW0NASF0oW0NIM10pW0NIMl1bTkhdQyg9TylbTkhdYzJuW2NIXVtjSF1zMg==

> <s_epik_cmdline>
J2VwaWtfcHl0aG9uJywgJy1waCcsICc3LjAnLCAnLXRuJywgJzgnLCAnLW1hJywgJzIwMCcsICctbWV0YWxfYmluZGluZycsICctaW1hZScsICc8aW5maWxlLm1hZT4nLCAnLW9tYWUnLCAnPG91dGZpbGUubWFlPic=

> <r_lp_tautomer_probability>
0.999

> <r_epik_Ionization_Penalty>
0.695838

> <r_epik_Ionization_Penalty_Charging>
0.695697

> <r_epik_Ionization_Penalty_Neutral>
0.000141198

> <r_epik_State_Penalty>
0.717972

> <r_epik_Charging_Adjusted_Penalty>
1.41367

> <i_epik_Tot_Q>
1

> <i_epik_Tot_abs_Q>
1

> <r_epik_Metal_State_Penalty>
0.756405

> <b_epik_Metal_Only>
0

> <s_lp_Force_Field>
OPLS_2005

> <r_lp_Energy>
18.3762

> <b_lp_Chiralities_Consistent>
1

> <s_lp_Variant>
AV-unprocessed.smi:2032-13

> <Gold.Version>
5.8.1

> <Gold.Id.Protein>
6NUR|6NUR_protein|mol2

> <Gold.PLP.Fitness>
48.4597

> <Gold.PLP.PLP>
-34.6935

> <Gold.PLP.part.hbond>
-4.1929

> <Gold.PLP.part.metal>
0.0000

> <Gold.PLP.part.buried>
-5.6990

> <Gold.PLP.part.nonpolar>
-25.7874

> <Gold.PLP.part.repulsive>
0.4691

> <Gold.PLP.ligand.clash>
0.0000

> <Gold.PLP.ligand.torsion>
0.5791

> <Gold.PLP.Chemscore.Hbond>
4.9600

> <Gold.PLP.Chemscore.CHOScore>
0.0000

> <Gold.PLP.Chemscore.Metal>
0.0000

> <Gold.Chemscore.Hbonds>
donor molecule, donor type, donor heavy atom, donor atom, acceptor molecule, acceptor atom, score
      L1  H     4    43       P1  7948  2.00
      L1  H     8    33       P1  7948  1.00
      L1  H    11    34       P1  7948  0.94
      P1  H 10752 10765       L1    20  0.95

> <Gold.PLP.Chemscore.Internal.Correction>
0.0443

> <Gold.Rescore>
     Score         DG    S(hbond)    S(metal)    S(lipo)     H(rot)  DE(clash)    DE(int)     intcor
     19.57     -21.68       3.42        0.00      75.99       1.61       0.40       1.71       ----

> <Gold.Chemscore.Fitness>
19.5687

> <Gold.Chemscore.DG>
-21.6827

> <Gold.Chemscore.ZeroCoef>
-5.4800

> <Gold.Chemscore.Hbond>
3.4240

> <Gold.Chemscore.Metal>
0.0000

> <Gold.Chemscore.Lipo>
75.9890

> <Gold.Chemscore.Internal_Hbond>
0.0000

> <Gold.Chemscore.DEClash>
0.4032

> <Gold.Chemscore.DEInternal>
1.7108

> <Gold.Chemscore.Rot>
1.6110

> <Gold.Chemscore.Internal.Correction>
   9.000000E+99

> <Gold.Chemscore.Hbonds>
donor molecule, donor type, donor heavy atom, donor atom, acceptor molecule, acceptor atom, score
      L1  H     4    43       P1  7948  0.99
      L1  H     8    33       P1  7948  0.97
      L1  H    11    34       P1  7948  0.65
      P1  H 10752 10765       L1    20  0.17

> <Gold.Chemscore.Hbond.Weighted>
-11.4362

> <Gold.Chemscore.Metal.Weighted>
-0.0000

> <Gold.Chemscore.Lipo.Weighted>
-8.8907

> <Gold.Chemscore.Internal_Hbond.Weighted>
0.0000

> <Gold.Chemscore.DEClash.Weighted>
0.4032

> <Gold.Chemscore.DEInternal.Weighted>
1.7108

> <Gold.Chemscore.Rot.Weighted>
4.1242

> <Gold.Chemscore.Internal.Correction.Weighted>
   9.000000E+99

> <Gold.Protein.RotatedTorsions>
[ 6907 6896 6895 6894 ] final -124.36 input  -60.11 | X-H torsion
[ 7974 7965 7964 7962 ] final -154.65 input  175.53 | X-H torsion
[ 8008 7997 7996 7995 ] final  -55.77 input   59.86 | X-H torsion
[ 10167 10162 10161 10158 ] final -177.65 input  -65.29 | X-H torsion
[ 10718 10713 10712 10709 ] final  171.99 input   66.30 | X-H torsion
[ 10763 10752 10751 10750 ] final -165.00 input  -60.55 | X-H torsion
[ 11005 11000 10999 10996 ] final  -21.49 input  -57.11 | X-H torsion

> <Gold.Protein.ActiveResidues>
 VAL166  LYS551  ARG553  GLY616  TRP617  ASP618  TYR619  PRO620  LYS621  CYS622 
 ASP623  PHE694  ASN695  SER759  ASP760  ASP761  ALA762  ILE779  LEU786  VAL792 
 PHE793  MET794  SER795  GLU796  ALA797  LYS798  CYS799  TRP800  GLU811  SER814 

> <Gold.Protein.RotatedAtoms>
  150.8760  133.7438  159.2946 H   0  0  0  0  0  0  0  0  0  0  0  0  # atno 6907 bound_to 6896
  151.5034  135.1061  159.9844 H   0  0  0  0  0  0  0  0  0  0  0  0  # atno 6908 bound_to 6896
  152.4728  133.8023  159.7015 H   0  0  0  0  0  0  0  0  0  0  0  0  # atno 6909 bound_to 6896
  144.7678  140.4358  143.5929 H   0  0  0  0  0  0  0  0  0  0  0  0  # atno 7974 bound_to 7965
  154.4206  140.1145  156.5529 H   0  0  0  0  0  0  0  0  0  0  0  0  # atno 8008 bound_to 7997
  155.6391  140.3496  155.4689 H   0  0  0  0  0  0  0  0  0  0  0  0  # atno 8009 bound_to 7997
  155.9886  140.1175  157.0649 H   0  0  0  0  0  0  0  0  0  0  0  0  # atno 8010 bound_to 7997
  139.5470  144.2209  152.1006 H   0  0  0  0  0  0  0  0  0  0  0  0  # atno 10167 bound_to 10162
  156.9854  131.0132  151.2870 H   0  0  0  0  0  0  0  0  0  0  0  0  # atno 10718 bound_to 10713
  154.6974  135.2981  154.9391 H   0  0  0  0  0  0  0  0  0  0  0  0  # atno 10763 bound_to 10752
  154.0335  135.6667  153.4787 H   0  0  0  0  0  0  0  0  0  0  0  0  # atno 10764 bound_to 10752
  153.0656  135.5090  154.8099 H   0  0  0  0  0  0  0  0  0  0  0  0  # atno 10765 bound_to 10752
  140.8566  133.7818  156.0026 H   0  0  0  0  0  0  0  0  0  0  0  0  # atno 11005 bound_to 11000
  145.6415  139.1550  143.2913 LP  0  0  0  0  0  0  0  0  0  0  0  0  # atno 17320 bound_to 7965
  146.1801  140.6511  142.9193 LP  0  0  0  0  0  0  0  0  0  0  0  0  # atno 17321 bound_to 7965
  140.1697  144.4947  150.6586 LP  0  0  0  0  0  0  0  0  0  0  0  0  # atno 17342 bound_to 10162
  140.6721  143.2290  151.5598 LP  0  0  0  0  0  0  0  0  0  0  0  0  # atno 17343 bound_to 10162
  157.5496  130.8174  149.8129 LP  0  0  0  0  0  0  0  0  0  0  0  0  # atno 17370 bound_to 10713
  156.0228  130.3790  150.1912 LP  0  0  0  0  0  0  0  0  0  0  0  0  # atno 17371 bound_to 10713
  140.8730  134.2703  157.5181 LP  0  0  0  0  0  0  0  0  0  0  0  0  # atno 17394 bound_to 11000
  139.8705  134.9577  156.4276 LP  0  0  0  0  0  0  0  0  0  0  0  0  # atno 17395 bound_to 11000

$$$$
