AV-unprocessed.smi:132|AV-procd|sdf|1163|dock6
  -GOLD-   2262018303D 1   1.00000     0.00000
 Structure written by MMmdl.
 41 44  0  0  0  0  0  0  0  0  1 V2000
  147.9068  139.6055  154.6862 O   0  0  0  0  0  0  0  0  0  0  0  0
  148.3519  138.4622  154.7989 C   0  0  0  0  0  0  0  0  0  0  0  0
  147.5050  137.2833  154.9464 C   0  0  0  0  0  0  0  0  0  0  0  0
  146.1692  137.4245  154.9822 F   0  0  0  0  0  0  0  0  0  0  0  0
  148.0415  136.0482  155.0470 C   0  0  0  0  0  0  0  0  0  0  0  0
  149.4046  135.8112  155.0172 N   0  0  0  0  0  0  0  0  0  0  0  0
  149.9363  134.4017  155.1207 C   0  0  2  0  0  0  0  0  0  0  0  0
  149.4476  133.5534  153.9388 C   0  0  0  0  0  0  0  0  0  0  0  0
  148.3736  132.6949  154.5755 C   0  0  0  0  0  0  0  0  0  0  0  0
  148.8904  132.5551  156.0016 C   0  0  0  0  0  0  0  0  0  0  0  0
  149.4466  133.8294  156.2981 O   0  0  0  0  0  0  0  0  0  0  0  0
  150.3018  136.8911  154.8651 C   0  0  0  0  0  0  0  0  0  0  0  0
  151.5187  136.7045  154.7923 O   0  0  0  0  0  0  0  0  0  0  0  0
  149.7422  138.1883  154.7805 N   0  0  0  0  0  0  0  0  0  0  0  0
  150.6562  139.3087  154.6201 C   0  0  0  0  0  0  0  0  0  0  0  0
  151.5519  139.4845  155.8115 C   0  0  0  0  0  0  0  0  0  0  0  0
  152.6238  138.7685  156.1643 N   0  0  0  0  0  0  0  0  0  0  0  0
  153.0908  139.3384  157.3258 N   0  0  0  0  0  0  0  0  0  0  0  0
  152.2731  140.3621  157.5941 C   0  0  0  0  0  0  0  0  0  0  0  0
  152.3307  141.3024  158.7128 C   0  0  0  0  0  0  0  0  0  0  0  0
  151.6379  142.5341  158.6618 C   0  0  0  0  0  0  0  0  0  0  0  0
  151.7030  143.4341  159.7434 C   0  0  0  0  0  0  0  0  0  0  0  0
  152.4603  143.1114  160.8856 C   0  0  0  0  0  0  0  0  0  0  0  0
  152.5407  144.2154  162.2090 Cl  0  0  0  0  0  0  0  0  0  0  0  0
  153.1521  141.8867  160.9450 C   0  0  0  0  0  0  0  0  0  0  0  0
  153.0874  140.9864  159.8638 C   0  0  0  0  0  0  0  0  0  0  0  0
  151.2827  140.4999  156.6713 O   0  0  0  0  0  0  0  0  0  0  0  0
  147.3676  135.2111  155.1524 H   0  0  0  0  0  0  0  0  0  0  0  0
  151.0230  134.4653  155.1852 H   0  0  0  0  0  0  0  0  0  0  0  0
  149.0896  134.1646  153.1090 H   0  0  0  0  0  0  0  0  0  0  0  0
  150.2756  132.9352  153.5900 H   0  0  0  0  0  0  0  0  0  0  0  0
  147.4170  133.2186  154.5693 H   0  0  0  0  0  0  0  0  0  0  0  0
  148.2399  131.7358  154.0748 H   0  0  0  0  0  0  0  0  0  0  0  0
  148.1082  132.2842  156.7109 H   0  0  0  0  0  0  0  0  0  0  0  0
  149.6768  131.8005  156.0519 H   0  0  0  0  0  0  0  0  0  0  0  0
  151.2466  139.1574  153.7158 H   0  0  0  0  0  0  0  0  0  0  0  0
  150.0644  140.2085  154.4444 H   0  0  0  0  0  0  0  0  0  0  0  0
  151.0515  142.8030  157.7956 H   0  0  0  0  0  0  0  0  0  0  0  0
  151.1711  144.3728  159.6943 H   0  0  0  0  0  0  0  0  0  0  0  0
  153.7342  141.6356  161.8194 H   0  0  0  0  0  0  0  0  0  0  0  0
  153.6249  140.0513  159.9257 H   0  0  0  0  0  0  0  0  0  0  0  0
  1  2  2  0  0  0  0
  2 14  1  0  0  0  0
  2  3  1  0  0  0  0
  3  4  1  0  0  0  0
  3  5  2  0  0  0  0
  5  6  1  0  0  0  0
  5 28  1  0  0  0  0
  6  7  1  0  0  0  0
  6 12  1  0  0  0  0
  7 11  1  0  0  0  0
  7  8  1  0  0  0  0
  7 29  1  0  0  0  0
  8  9  1  0  0  0  0
  8 30  1  0  0  0  0
  8 31  1  0  0  0  0
  9 10  1  0  0  0  0
  9 32  1  0  0  0  0
  9 33  1  0  0  0  0
 10 11  1  0  0  0  0
 10 34  1  0  0  0  0
 10 35  1  0  0  0  0
 12 13  2  0  0  0  0
 12 14  1  0  0  0  0
 14 15  1  0  0  0  0
 15 16  1  0  0  0  0
 15 36  1  0  0  0  0
 15 37  1  0  0  0  0
 16 27  1  0  0  0  0
 16 17  2  0  0  0  0
 17 18  1  0  0  0  0
 18 19  2  0  0  0  0
 19 20  1  0  0  0  0
 19 27  1  0  0  0  0
 20 26  1  0  0  0  0
 20 21  2  0  0  0  0
 21 22  1  0  0  0  0
 21 38  1  0  0  0  0
 22 23  2  0  0  0  0
 22 39  1  0  0  0  0
 23 24  1  0  0  0  0
 23 25  1  0  0  0  0
 25 26  2  0  0  0  0
 25 40  1  0  0  0  0
 26 41  1  0  0  0  0
M  END
> <s_m_source_file>
AV-unprocessed.smi

> <i_m_source_file_index>
132

> <i_lp_mmshare_version>
43012

> <i_f3d_flags>
0

> <s_epik_input>
TzFbQ0gyXVtDSDJdW0NIMl1bQ0BIXTFuKFtjSF1jKEYpYzI9TyljKD1PKW4yW0NIMl1jM25uYyhvMyktYzRbY0hdW2NIXWMoQ2wpW2NIXVtjSF00

> <s_epik_cmdline>
J2VwaWtfcHl0aG9uJywgJy1waCcsICc3LjAnLCAnLXRuJywgJzgnLCAnLW1hJywgJzIwMCcsICctbWV0YWxfYmluZGluZycsICctaW1hZScsICc8aW5maWxlLm1hZT4nLCAnLW9tYWUnLCAnPG91dGZpbGUubWFlPic=

> <r_lp_tautomer_probability>
1

> <r_epik_Ionization_Penalty>
2.5553e-09

> <r_epik_Ionization_Penalty_Charging>
2.54231e-09

> <r_epik_Ionization_Penalty_Neutral>
1.29923e-11

> <r_epik_State_Penalty>
-0

> <r_epik_Charging_Adjusted_Penalty>
2.54231e-09

> <i_epik_Tot_Q>
0

> <i_epik_Tot_abs_Q>
0

> <r_epik_Metal_State_Penalty>
-0

> <b_epik_Metal_Only>
0

> <s_epik_Chemistry_Notes>
This compound contains an acetal/aminal-like group ( X-CH(R)-Y where X, Y are N, S, or O) that may be acid/base labile, releasing an aldehyde.

> <s_lp_Force_Field>
OPLS_2005

> <r_lp_Energy>
32.6339

> <b_lp_Chiralities_Consistent>
1

> <s_lp_Variant>
AV-unprocessed.smi:132-1

> <Gold.Version>
5.8.1

> <Gold.Id.Protein>
6NUR|6NUR_protein|mol2

> <Gold.PLP.Fitness>
48.4790

> <Gold.PLP.PLP>
-43.2051

> <Gold.PLP.part.hbond>
-2.6143

> <Gold.PLP.part.metal>
0.0000

> <Gold.PLP.part.buried>
-4.6494

> <Gold.PLP.part.nonpolar>
-35.9831

> <Gold.PLP.part.repulsive>
0.2192

> <Gold.PLP.ligand.clash>
0.0000

> <Gold.PLP.ligand.torsion>
0.3801

> <Gold.PLP.Chemscore.Hbond>
2.0000

> <Gold.PLP.Chemscore.CHOScore>
0.0000

> <Gold.PLP.Chemscore.Metal>
0.0000

> <Gold.Chemscore.Hbonds>
donor molecule, donor type, donor heavy atom, donor atom, acceptor molecule, acceptor atom, score
      P1  H  7997  8008       L1    18  0.75
      P1  H 10752 10763       L1    13  1.00

> <Gold.PLP.Chemscore.Internal.Correction>
0.0341

> <Gold.Rescore>
     Score         DG    S(hbond)    S(metal)    S(lipo)     H(rot)  DE(clash)    DE(int)     intcor
     15.81     -18.64       1.95        0.00      94.01       1.70       0.10       2.74       ----

> <Gold.Chemscore.Fitness>
15.8096

> <Gold.Chemscore.DG>
-18.6442

> <Gold.Chemscore.ZeroCoef>
-5.4800

> <Gold.Chemscore.Hbond>
1.9497

> <Gold.Chemscore.Metal>
0.0000

> <Gold.Chemscore.Lipo>
94.0102

> <Gold.Chemscore.Internal_Hbond>
0.0000

> <Gold.Chemscore.DEClash>
0.0978

> <Gold.Chemscore.DEInternal>
2.7368

> <Gold.Chemscore.Rot>
1.6980

> <Gold.Chemscore.Internal.Correction>
   9.000000E+99

> <Gold.Chemscore.Hbonds>
donor molecule, donor type, donor heavy atom, donor atom, acceptor molecule, acceptor atom, score
      P1  H  7997  8008       L1    18  0.04
      P1  H 10752 10763       L1    13  0.99

> <Gold.Chemscore.Hbond.Weighted>
-6.5119

> <Gold.Chemscore.Metal.Weighted>
-0.0000

> <Gold.Chemscore.Lipo.Weighted>
-10.9992

> <Gold.Chemscore.Internal_Hbond.Weighted>
0.0000

> <Gold.Chemscore.DEClash.Weighted>
0.0978

> <Gold.Chemscore.DEInternal.Weighted>
2.7368

> <Gold.Chemscore.Rot.Weighted>
4.3469

> <Gold.Chemscore.Internal.Correction.Weighted>
   9.000000E+99

> <Gold.Protein.RotatedTorsions>
[ 6907 6896 6895 6894 ] final -153.27 input  -60.11 | X-H torsion
[ 7974 7965 7964 7962 ] final  141.37 input  175.53 | X-H torsion
[ 8008 7997 7996 7995 ] final  -58.81 input   59.86 | X-H torsion
[ 10167 10162 10161 10158 ] final   17.94 input  -65.29 | X-H torsion
[ 10718 10713 10712 10709 ] final  145.15 input   66.30 | X-H torsion
[ 10763 10752 10751 10750 ] final   40.28 input  -60.55 | X-H torsion
[ 11005 11000 10999 10996 ] final -139.08 input  -57.11 | X-H torsion

> <Gold.Protein.ActiveResidues>
 VAL166  LYS551  ARG553  GLY616  TRP617  ASP618  TYR619  PRO620  LYS621  CYS622 
 ASP623  PHE694  ASN695  SER759  ASP760  ASP761  ALA762  ILE779  LEU786  VAL792 
 PHE793  MET794  SER795  GLU796  ALA797  LYS798  CYS799  TRP800  GLU811  SER814 

> <Gold.Protein.RotatedAtoms>
  151.2402  133.4404  159.2606 H   0  0  0  0  0  0  0  0  0  0  0  0  # atno 6907 bound_to 6896
  151.0713  134.9800  159.8320 H   0  0  0  0  0  0  0  0  0  0  0  0  # atno 6908 bound_to 6896
  152.5412  134.2347  159.8891 H   0  0  0  0  0  0  0  0  0  0  0  0  # atno 6909 bound_to 6896
  144.9103  139.5302  143.5712 H   0  0  0  0  0  0  0  0  0  0  0  0  # atno 7974 bound_to 7965
  154.4325  140.1075  156.6016 H   0  0  0  0  0  0  0  0  0  0  0  0  # atno 8008 bound_to 7997
  155.5904  140.3492  155.4546 H   0  0  0  0  0  0  0  0  0  0  0  0  # atno 8009 bound_to 7997
  156.0250  140.1248  157.0307 H   0  0  0  0  0  0  0  0  0  0  0  0  # atno 8010 bound_to 7997
  140.5689  143.9198  150.6698 H   0  0  0  0  0  0  0  0  0  0  0  0  # atno 10167 bound_to 10162
  157.3487  131.0947  151.1019 H   0  0  0  0  0  0  0  0  0  0  0  0  # atno 10718 bound_to 10713
  152.9941  135.6196  154.2600 H   0  0  0  0  0  0  0  0  0  0  0  0  # atno 10763 bound_to 10752
  154.2337  135.2791  155.2882 H   0  0  0  0  0  0  0  0  0  0  0  0  # atno 10764 bound_to 10752
  154.5428  135.5756  153.6912 H   0  0  0  0  0  0  0  0  0  0  0  0  # atno 10765 bound_to 10752
  140.8554  134.2234  157.4737 H   0  0  0  0  0  0  0  0  0  0  0  0  # atno 11005 bound_to 11000
  146.3155  139.7903  142.8987 LP  0  0  0  0  0  0  0  0  0  0  0  0  # atno 17320 bound_to 7965
  145.3466  141.0299  143.3362 LP  0  0  0  0  0  0  0  0  0  0  0  0  # atno 17321 bound_to 7965
  140.2668  143.3484  152.1274 LP  0  0  0  0  0  0  0  0  0  0  0  0  # atno 17342 bound_to 10162
  139.5107  144.6889  151.5813 LP  0  0  0  0  0  0  0  0  0  0  0  0  # atno 17343 bound_to 10162
  157.2204  130.6478  149.5809 LP  0  0  0  0  0  0  0  0  0  0  0  0  # atno 17370 bound_to 10713
  155.9718  130.4631  150.6170 LP  0  0  0  0  0  0  0  0  0  0  0  0  # atno 17371 bound_to 10713
  139.8705  134.9704  156.4700 LP  0  0  0  0  0  0  0  0  0  0  0  0  # atno 17394 bound_to 11000
  140.8743  133.7965  155.9397 LP  0  0  0  0  0  0  0  0  0  0  0  0  # atno 17395 bound_to 11000

$$$$
