AV-unprocessed.smi:229|AV-procd|sdf|1748|dock10
  -GOLD-   2262020263D 1   1.00000     0.00000
 Structure written by MMmdl.
 58 62  0  0  0  0  0  0  0  0  1 V2000
  147.3986  135.1075  159.7108 C   0  0  0  0  0  0  0  0  0  0  0  0
  148.2121  133.9773  159.0680 C   0  0  0  0  0  0  0  0  0  0  0  0
  148.6180  134.2837  157.6188 C   0  0  1  0  0  0  0  0  0  0  0  0
  149.3312  135.6408  157.4983 C   0  0  0  0  0  0  0  0  0  0  0  0
  149.8027  135.8356  156.1316 N   0  0  0  0  0  0  0  0  0  0  0  0
  150.1945  137.0806  155.7615 C   0  0  0  0  0  0  0  0  0  0  0  0
  150.3214  137.3915  154.4433 N   0  0  0  0  0  0  0  0  0  0  0  0
  150.6961  138.6194  154.0720 C   0  0  0  0  0  0  0  0  0  0  0  0
  150.9922  139.6693  154.8404 N   0  0  0  0  0  0  0  0  0  0  0  0
  150.8755  139.3617  156.1636 C   0  0  0  0  0  0  0  0  0  0  0  0
  150.4848  138.1049  156.7064 C   0  0  0  0  0  0  0  0  0  0  0  0
  150.4869  138.1693  158.0953 N   0  0  0  0  0  0  0  0  0  0  0  0
  150.8483  139.3957  158.3578 C   0  0  0  0  0  0  0  0  0  0  0  0
  151.1002  140.1806  157.2559 N   0  0  0  0  0  0  0  0  0  0  0  0
  151.5134  141.5730  157.2597 C   0  0  0  0  0  0  0  0  0  0  0  0
  150.4887  142.4856  157.9612 C   0  0  2  0  0  0  0  0  0  0  0  0
  149.3123  142.6084  157.1833 O   0  0  0  0  0  0  0  0  0  0  0  0
  151.0586  143.8779  158.3026 C   0  0  2  0  0  0  0  0  0  0  0  0
  152.4567  143.8921  158.9450 C   0  0  0  0  0  0  0  0  0  0  0  0
  152.2342  144.5923  160.2735 C   0  0  0  0  0  0  0  0  0  0  0  0
  150.9897  145.4286  160.0055 C   0  0  0  0  0  0  0  0  0  0  0  0
  150.1967  144.5734  159.1995 O   0  0  0  0  0  0  0  0  0  0  0  0
  150.6781  134.7613  155.6783 C   0  0  0  0  0  0  0  0  0  0  0  0
  149.9886  133.3895  155.8332 C   0  0  1  0  0  0  0  0  0  0  0  0
  148.9181  133.1044  154.7841 C   0  0  0  0  0  0  0  0  0  0  0  0
  148.8743  131.5842  154.7804 C   0  0  0  0  0  0  0  0  0  0  0  0
  150.2376  131.2072  154.8954 O   0  0  0  0  0  0  0  0  0  0  0  0
  150.9564  132.2179  155.5995 C   0  0  0  0  0  0  0  0  0  0  0  0
  149.4947  133.2484  157.1707 O   0  0  0  0  0  0  0  0  0  0  0  0
  147.1417  134.8626  160.7414 H   0  0  0  0  0  0  0  0  0  0  0  0
  146.4685  135.2832  159.1698 H   0  0  0  0  0  0  0  0  0  0  0  0
  147.9615  136.0412  159.7211 H   0  0  0  0  0  0  0  0  0  0  0  0
  149.1087  133.8081  159.6655 H   0  0  0  0  0  0  0  0  0  0  0  0
  147.6399  133.0494  159.1033 H   0  0  0  0  0  0  0  0  0  0  0  0
  147.7143  134.3013  157.0103 H   0  0  0  0  0  0  0  0  0  0  0  0
  148.6454  136.4422  157.7774 H   0  0  0  0  0  0  0  0  0  0  0  0
  150.1794  135.6836  158.1835 H   0  0  0  0  0  0  0  0  0  0  0  0
  150.7682  138.7845  153.0072 H   0  0  0  0  0  0  0  0  0  0  0  0
  150.9414  139.7646  159.3690 H   0  0  0  0  0  0  0  0  0  0  0  0
  152.4807  141.6403  157.7590 H   0  0  0  0  0  0  0  0  0  0  0  0
  151.6735  141.8929  156.2292 H   0  0  0  0  0  0  0  0  0  0  0  0
  150.1907  142.0103  158.8966 H   0  0  0  0  0  0  0  0  0  0  0  0
  149.2555  143.4959  156.8637 H   0  0  0  0  0  0  0  0  0  0  0  0
  151.1002  144.4688  157.3862 H   0  0  0  0  0  0  0  0  0  0  0  0
  152.8909  142.9007  159.0758 H   0  0  0  0  0  0  0  0  0  0  0  0
  153.1430  144.4700  158.3251 H   0  0  0  0  0  0  0  0  0  0  0  0
  152.0232  143.8556  161.0497 H   0  0  0  0  0  0  0  0  0  0  0  0
  153.0892  145.1886  160.5926 H   0  0  0  0  0  0  0  0  0  0  0  0
  150.4698  145.7176  160.9189 H   0  0  0  0  0  0  0  0  0  0  0  0
  151.2382  146.3322  159.4466 H   0  0  0  0  0  0  0  0  0  0  0  0
  150.9915  134.9046  154.6444 H   0  0  0  0  0  0  0  0  0  0  0  0
  151.5862  134.7859  156.2827 H   0  0  0  0  0  0  0  0  0  0  0  0
  147.9474  133.5563  154.9798 H   0  0  0  0  0  0  0  0  0  0  0  0
  149.2488  133.4573  153.8061 H   0  0  0  0  0  0  0  0  0  0  0  0
  148.3222  131.2118  155.6445 H   0  0  0  0  0  0  0  0  0  0  0  0
  148.4193  131.1754  153.8783 H   0  0  0  0  0  0  0  0  0  0  0  0
  151.7986  132.5191  154.9754 H   0  0  0  0  0  0  0  0  0  0  0  0
  151.3641  131.8276  156.5328 H   0  0  0  0  0  0  0  0  0  0  0  0
  1  2  1  0  0  0  0
  1 30  1  0  0  0  0
  1 31  1  0  0  0  0
  1 32  1  0  0  0  0
  2  3  1  0  0  0  0
  2 33  1  0  0  0  0
  2 34  1  0  0  0  0
  3 29  1  0  0  0  0
  3  4  1  0  0  0  0
  3 35  1  0  0  0  0
  4  5  1  0  0  0  0
  4 36  1  0  0  0  0
  4 37  1  0  0  0  0
  5  6  1  0  0  0  0
  5 23  1  0  0  0  0
  6 11  1  0  0  0  0
  6  7  2  0  0  0  0
  7  8  1  0  0  0  0
  8  9  2  0  0  0  0
  8 38  1  0  0  0  0
  9 10  1  0  0  0  0
 10 14  1  0  0  0  0
 10 11  2  0  0  0  0
 11 12  1  0  0  0  0
 12 13  2  0  0  0  0
 13 14  1  0  0  0  0
 13 39  1  0  0  0  0
 14 15  1  0  0  0  0
 15 16  1  0  0  0  0
 15 40  1  0  0  0  0
 15 41  1  0  0  0  0
 16 17  1  0  0  0  0
 16 18  1  0  0  0  0
 16 42  1  0  0  0  0
 17 43  1  0  0  0  0
 18 22  1  0  0  0  0
 18 19  1  0  0  0  0
 18 44  1  0  0  0  0
 19 20  1  0  0  0  0
 19 45  1  0  0  0  0
 19 46  1  0  0  0  0
 20 21  1  0  0  0  0
 20 47  1  0  0  0  0
 20 48  1  0  0  0  0
 21 22  1  0  0  0  0
 21 49  1  0  0  0  0
 21 50  1  0  0  0  0
 23 24  1  0  0  0  0
 23 51  1  0  0  0  0
 23 52  1  0  0  0  0
 24 28  1  0  0  0  0
 24 25  1  0  0  0  0
 24 29  1  0  0  0  0
 25 26  1  0  0  0  0
 25 53  1  0  0  0  0
 25 54  1  0  0  0  0
 26 27  1  0  0  0  0
 26 55  1  0  0  0  0
 26 56  1  0  0  0  0
 27 28  1  0  0  0  0
 28 57  1  0  0  0  0
 28 58  1  0  0  0  0
M  END
> <s_m_source_file>
AV-unprocessed.smi

> <i_m_source_file_index>
229

> <i_lp_mmshare_version>
43012

> <i_f3d_flags>
0

> <s_epik_input>
W0NIMl0xT1tDSDJdW0NIMl1bQ0BdMTJbQ0gyXU4oW0NIMl1bQ0BIXShPMilbQ0gyXVtDSDNdKWMobltjSF1uMyljKGMzNCluW2NIXW40W0NIMl1bQ0BIXShbT0hdKVtDQEBIXTVbQ0gyXVtDSDJdW0NIMl1PNQ==

> <s_epik_cmdline>
J2VwaWtfcHl0aG9uJywgJy1waCcsICc3LjAnLCAnLXRuJywgJzgnLCAnLW1hJywgJzIwMCcsICctbWV0YWxfYmluZGluZycsICctaW1hZScsICc8aW5maWxlLm1hZT4nLCAnLW9tYWUnLCAnPG91dGZpbGUubWFlPic=

> <r_lp_tautomer_probability>
1

> <r_epik_Ionization_Penalty>
0.00318402

> <r_epik_Ionization_Penalty_Charging>
0

> <r_epik_Ionization_Penalty_Neutral>
0.00318402

> <r_epik_State_Penalty>
0.00215642

> <r_epik_Charging_Adjusted_Penalty>
0.00215642

> <i_epik_Tot_Q>
0

> <i_epik_Tot_abs_Q>
0

> <r_epik_Metal_State_Penalty>
-0

> <b_epik_Metal_Only>
0

> <s_lp_Force_Field>
OPLS_2005

> <r_lp_Energy>
56.2374

> <b_lp_Chiralities_Consistent>
1

> <s_lp_Variant>
AV-unprocessed.smi:229-2

> <Gold.Version>
5.8.1

> <Gold.Id.Protein>
6NUR|6NUR_protein|mol2

> <Gold.PLP.Fitness>
49.1523

> <Gold.PLP.PLP>
-40.8176

> <Gold.PLP.part.hbond>
-2.0000

> <Gold.PLP.part.metal>
0.0000

> <Gold.PLP.part.buried>
-8.5782

> <Gold.PLP.part.nonpolar>
-31.7356

> <Gold.PLP.part.repulsive>
0.6344

> <Gold.PLP.ligand.clash>
0.0000

> <Gold.PLP.ligand.torsion>
0.4522

> <Gold.PLP.Chemscore.Hbond>
2.0000

> <Gold.PLP.Chemscore.CHOScore>
0.9792

> <Gold.PLP.Chemscore.Metal>
0.0000

> <Gold.Chemscore.Hbonds>
donor molecule, donor type, donor heavy atom, donor atom, acceptor molecule, acceptor atom, score
      L1  H    17    43       P1  8028  1.00
      P1  H  7989  7998       L1     9  0.95
      L1  C     8    38       P1  7957  0.98

> <Gold.PLP.Chemscore.Internal.Correction>
0.3014

> <Gold.Rescore>
     Score         DG    S(hbond)    S(metal)    S(lipo)     H(rot)  DE(clash)    DE(int)     intcor
     14.16     -16.94       1.72        0.00     102.73       2.46       1.01       1.77       ----

> <Gold.Chemscore.Fitness>
14.1639

> <Gold.Chemscore.DG>
-16.9402

> <Gold.Chemscore.ZeroCoef>
-5.4800

> <Gold.Chemscore.Hbond>
1.7174

> <Gold.Chemscore.Metal>
0.0000

> <Gold.Chemscore.Lipo>
102.7310

> <Gold.Chemscore.Internal_Hbond>
0.0000

> <Gold.Chemscore.DEClash>
1.0057

> <Gold.Chemscore.DEInternal>
1.7707

> <Gold.Chemscore.Rot>
2.4591

> <Gold.Chemscore.Internal.Correction>
   9.000000E+99

> <Gold.Chemscore.Hbonds>
donor molecule, donor type, donor heavy atom, donor atom, acceptor molecule, acceptor atom, score
      L1  H    17    43       P1  8028  0.89
      P1  H  7989  7998       L1     9  0.21

> <Gold.Chemscore.Hbond.Weighted>
-5.7360

> <Gold.Chemscore.Metal.Weighted>
-0.0000

> <Gold.Chemscore.Lipo.Weighted>
-12.0195

> <Gold.Chemscore.Internal_Hbond.Weighted>
0.0000

> <Gold.Chemscore.DEClash.Weighted>
1.0057

> <Gold.Chemscore.DEInternal.Weighted>
1.7707

> <Gold.Chemscore.Rot.Weighted>
6.2953

> <Gold.Chemscore.Internal.Correction.Weighted>
   9.000000E+99

> <Gold.Protein.RotatedTorsions>
[ 6907 6896 6895 6894 ] final  -74.09 input  -60.11 | X-H torsion
[ 7974 7965 7964 7962 ] final  -85.81 input  175.53 | X-H torsion
[ 8008 7997 7996 7995 ] final -110.42 input   59.86 | X-H torsion
[ 10167 10162 10161 10158 ] final  141.48 input  -65.29 | X-H torsion
[ 10718 10713 10712 10709 ] final   63.06 input   66.30 | X-H torsion
[ 10763 10752 10751 10750 ] final -114.05 input  -60.55 | X-H torsion
[ 11005 11000 10999 10996 ] final  -63.27 input  -57.11 | X-H torsion

> <Gold.Protein.ActiveResidues>
 VAL166  LYS551  ARG553  GLY616  TRP617  ASP618  TYR619  PRO620  LYS621  CYS622 
 ASP623  PHE694  ASN695  SER759  ASP760  ASP761  ALA762  ILE779  LEU786  VAL792 
 PHE793  MET794  SER795  GLU796  ALA797  LYS798  CYS799  TRP800  GLU811  SER814 

> <Gold.Protein.RotatedAtoms>
  150.7106  134.4920  159.5519 H   0  0  0  0  0  0  0  0  0  0  0  0  # atno 6907 bound_to 6896
  152.2536  134.8105  160.0451 H   0  0  0  0  0  0  0  0  0  0  0  0  # atno 6908 bound_to 6896
  151.8843  133.3467  159.3814 H   0  0  0  0  0  0  0  0  0  0  0  0  # atno 6909 bound_to 6896
  145.4882  140.9554  143.1826 H   0  0  0  0  0  0  0  0  0  0  0  0  # atno 7974 bound_to 7965
  154.9743  140.0397  157.2249 H   0  0  0  0  0  0  0  0  0  0  0  0  # atno 8008 bound_to 7997
  154.7772  140.2812  155.6069 H   0  0  0  0  0  0  0  0  0  0  0  0  # atno 8009 bound_to 7997
  156.2930  140.2598  156.2589 H   0  0  0  0  0  0  0  0  0  0  0  0  # atno 8010 bound_to 7997
  139.5019  144.6169  151.6144 H   0  0  0  0  0  0  0  0  0  0  0  0  # atno 10167 bound_to 10162
  157.5944  130.9084  149.9667 H   0  0  0  0  0  0  0  0  0  0  0  0  # atno 10718 bound_to 10713
  154.8423  135.4432  154.1446 H   0  0  0  0  0  0  0  0  0  0  0  0  # atno 10763 bound_to 10752
  153.2622  135.6937  153.7573 H   0  0  0  0  0  0  0  0  0  0  0  0  # atno 10764 bound_to 10752
  153.6845  135.3397  155.3162 H   0  0  0  0  0  0  0  0  0  0  0  0  # atno 10765 bound_to 10752
  141.1387  133.6650  156.5654 H   0  0  0  0  0  0  0  0  0  0  0  0  # atno 11005 bound_to 11000
  144.7849  139.6448  143.7138 LP  0  0  0  0  0  0  0  0  0  0  0  0  # atno 17320 bound_to 7965
  146.2300  139.5795  142.9562 LP  0  0  0  0  0  0  0  0  0  0  0  0  # atno 17321 bound_to 7965
  140.5859  143.9865  150.6295 LP  0  0  0  0  0  0  0  0  0  0  0  0  # atno 17342 bound_to 10162
  140.3029  143.3248  152.0954 LP  0  0  0  0  0  0  0  0  0  0  0  0  # atno 17343 bound_to 10162
  156.1004  130.3656  150.0228 LP  0  0  0  0  0  0  0  0  0  0  0  0  # atno 17370 bound_to 10713
  156.8344  130.9403  151.3635 LP  0  0  0  0  0  0  0  0  0  0  0  0  # atno 17371 bound_to 10713
  140.3955  134.7403  157.4748 LP  0  0  0  0  0  0  0  0  0  0  0  0  # atno 17394 bound_to 11000
  140.0535  134.6097  155.8833 LP  0  0  0  0  0  0  0  0  0  0  0  0  # atno 17395 bound_to 11000

$$$$
