AV-unprocessed.smi:1809|AV-procd|sdf|7313|dock3
  -GOLD-   22720 8573D 1   1.00000     0.00000
 Structure written by MMmdl.
 40 42  0  0  0  0  0  0  0  0  2 V2000
  151.0475  140.2686  155.1315 C   0  0  0  0  0  0  0  0  0  0  0  0
  149.6604  140.2721  154.5865 C   0  0  0  0  0  0  0  0  0  0  0  0
  149.1486  141.3136  153.9192 N   0  0  0  0  0  0  0  0  0  0  0  0
  147.8430  141.0848  153.5077 N   0  0  0  0  0  0  0  0  0  0  0  0
  147.4075  139.8726  153.8777 C   0  0  0  0  0  0  0  0  0  0  0  0
  146.1102  139.3766  153.5817 N   0  0  0  0  0  0  0  0  0  0  0  0
  145.6543  138.1172  153.6988 C   0  0  0  0  0  0  0  0  0  0  0  0
  146.3199  137.1499  154.0695 O   0  0  0  0  0  0  0  0  0  0  0  0
  144.3590  138.0347  153.3620 N   0  0  0  0  0  0  0  0  0  0  0  0
  143.5661  136.8084  153.3546 C   0  0  0  0  0  0  0  0  0  0  0  0
  143.7051  136.0189  152.0386 C   0  0  2  0  0  0  0  0  0  0  0  0
  143.3196  134.5322  152.1649 C   0  0  0  0  0  0  0  0  0  0  0  0
  143.5543  133.7914  150.8999 N   0  3  2  0  0  0  0  0  0  0  0  0
  143.4880  132.3258  151.0907 C   0  0  0  0  0  0  0  0  0  0  0  0
  144.9382  131.8394  151.2666 C   0  0  0  0  0  0  0  0  0  0  0  0
  145.8217  133.0685  151.0202 C   0  0  0  0  0  0  0  0  0  0  0  0
  144.8865  134.0497  150.3129 C   0  0  2  0  0  0  0  0  0  0  0  0
  145.2962  135.5344  150.3665 C   0  0  0  0  0  0  0  0  0  0  0  0
  145.0737  136.0804  151.6582 O   0  0  0  0  0  0  0  0  0  0  0  0
  148.5711  138.9014  154.7632 S   0  0  0  0  0  0  0  0  0  0  0  0
  151.3428  141.2758  155.4269 H   0  0  0  0  0  0  0  0  0  0  0  0
  151.7432  139.9058  154.3748 H   0  0  0  0  0  0  0  0  0  0  0  0
  151.1082  139.6184  156.0044 H   0  0  0  0  0  0  0  0  0  0  0  0
  145.4516  140.0638  153.2456 H   0  0  0  0  0  0  0  0  0  0  0  0
  143.8899  138.8792  153.0683 H   0  0  0  0  0  0  0  0  0  0  0  0
  143.9188  136.1919  154.1820 H   0  0  0  0  0  0  0  0  0  0  0  0
  142.5162  137.0203  153.5645 H   0  0  0  0  0  0  0  0  0  0  0  0
  143.0926  136.5010  151.2742 H   0  0  0  0  0  0  0  0  0  0  0  0
  143.8959  134.0784  152.9732 H   0  0  0  0  0  0  0  0  0  0  0  0
  142.2673  134.4265  152.4286 H   0  0  0  0  0  0  0  0  0  0  0  0
  142.8452  132.0397  151.9250 H   0  0  0  0  0  0  0  0  0  0  0  0
  143.0616  131.8836  150.1894 H   0  0  0  0  0  0  0  0  0  0  0  0
  145.1072  131.4344  152.2650 H   0  0  0  0  0  0  0  0  0  0  0  0
  145.1607  131.0486  150.5492 H   0  0  0  0  0  0  0  0  0  0  0  0
  146.1531  133.4827  151.9737 H   0  0  0  0  0  0  0  0  0  0  0  0
  146.7103  132.8379  150.4316 H   0  0  0  0  0  0  0  0  0  0  0  0
  144.8363  133.7511  149.2642 H   0  0  0  0  0  0  0  0  0  0  0  0
  146.3492  135.6455  150.1067 H   0  0  0  0  0  0  0  0  0  0  0  0
  144.7324  136.1094  149.6302 H   0  0  0  0  0  0  0  0  0  0  0  0
  142.8442  134.0808  150.2424 H   0  0  0  0  0  0  0  0  0  0  0  0
  1  2  1  0  0  0  0
  1 21  1  0  0  0  0
  1 22  1  0  0  0  0
  1 23  1  0  0  0  0
  2 20  1  0  0  0  0
  2  3  2  0  0  0  0
  3  4  1  0  0  0  0
  4  5  2  0  0  0  0
  5  6  1  0  0  0  0
  5 20  1  0  0  0  0
  6  7  1  0  0  0  0
  6 24  1  0  0  0  0
  7  8  2  0  0  0  0
  7  9  1  0  0  0  0
  9 10  1  0  0  0  0
  9 25  1  0  0  0  0
 10 11  1  0  0  0  0
 10 26  1  0  0  0  0
 10 27  1  0  0  0  0
 11 19  1  0  0  0  0
 11 12  1  0  0  0  0
 11 28  1  0  0  0  0
 12 13  1  0  0  0  0
 12 29  1  0  0  0  0
 12 30  1  0  0  0  0
 13 17  1  0  0  0  0
 13 14  1  0  0  0  0
 13 40  1  0  0  0  0
 14 15  1  0  0  0  0
 14 31  1  0  0  0  0
 14 32  1  0  0  0  0
 15 16  1  0  0  0  0
 15 33  1  0  0  0  0
 15 34  1  0  0  0  0
 16 17  1  0  0  0  0
 16 35  1  0  0  0  0
 16 36  1  0  0  0  0
 17 18  1  0  0  0  0
 17 37  1  0  0  0  0
 18 19  1  0  0  0  0
 18 38  1  0  0  0  0
 18 39  1  0  0  0  0
M  CHG  1  13   1
M  END
> <s_m_source_file>
AV-unprocessed.smi

> <i_m_source_file_index>
1809

> <i_lp_mmshare_version>
43012

> <i_f3d_flags>
0

> <s_epik_input>
W0NIM11jMW5uYyhzMSlbTkhdQyg9TylbTkhdW0NIMl1bQ0BIXShbQ0gyXTIpT1tDSDJdW0NAQEhdKE4yMylbQ0gyXVtDSDJdW0NIMl0z

> <s_epik_cmdline>
J2VwaWtfcHl0aG9uJywgJy1waCcsICc3LjAnLCAnLXRuJywgJzgnLCAnLW1hJywgJzIwMCcsICctbWV0YWxfYmluZGluZycsICctaW1hZScsICc8aW5maWxlLm1hZT4nLCAnLW9tYWUnLCAnPG91dGZpbGUubWFlPic=

> <r_lp_tautomer_probability>
1

> <r_epik_Ionization_Penalty>
0.112474

> <r_epik_Ionization_Penalty_Charging>
0.108916

> <r_epik_Ionization_Penalty_Neutral>
0.00355844

> <r_epik_State_Penalty>
0.0565397

> <r_epik_Charging_Adjusted_Penalty>
0.165456

> <i_epik_Tot_Q>
1

> <i_epik_Tot_abs_Q>
1

> <r_epik_Metal_State_Penalty>
0.422831

> <b_epik_Metal_Only>
0

> <s_lp_Force_Field>
OPLS_2005

> <r_lp_Energy>
35.4297

> <b_lp_Chiralities_Consistent>
1

> <s_lp_Variant>
AV-unprocessed.smi:1809-5

> <Gold.Version>
5.8.1

> <Gold.Id.Protein>
6NUR|6NUR_protein|mol2

> <Gold.PLP.Fitness>
43.5759

> <Gold.PLP.PLP>
-30.0140

> <Gold.PLP.part.hbond>
-4.8073

> <Gold.PLP.part.metal>
0.0000

> <Gold.PLP.part.buried>
-0.4123

> <Gold.PLP.part.nonpolar>
-25.1924

> <Gold.PLP.part.repulsive>
1.0772

> <Gold.PLP.ligand.clash>
0.0000

> <Gold.PLP.ligand.torsion>
0.3969

> <Gold.PLP.Chemscore.Hbond>
4.7850

> <Gold.PLP.Chemscore.CHOScore>
0.0000

> <Gold.PLP.Chemscore.Metal>
0.0000

> <Gold.Chemscore.Hbonds>
donor molecule, donor type, donor heavy atom, donor atom, acceptor molecule, acceptor atom, score
      L1  H     6    24       P1 10175  0.99
      L1  H     9    25       P1 10175  1.00
      L1  H    13    40       P1 10186  2.00
      P1  H  8011  8017       L1     3  0.75

> <Gold.PLP.Chemscore.Internal.Correction>
0.0006

> <Gold.Rescore>
     Score         DG    S(hbond)    S(metal)    S(lipo)     H(rot)  DE(clash)    DE(int)     intcor
     18.59     -20.21       3.14        0.00      65.57       1.34       0.15       1.48       ----

> <Gold.Chemscore.Fitness>
18.5880

> <Gold.Chemscore.DG>
-20.2146

> <Gold.Chemscore.ZeroCoef>
-5.4800

> <Gold.Chemscore.Hbond>
3.1409

> <Gold.Chemscore.Metal>
0.0000

> <Gold.Chemscore.Lipo>
65.5735

> <Gold.Chemscore.Internal_Hbond>
0.0000

> <Gold.Chemscore.DEClash>
0.1469

> <Gold.Chemscore.DEInternal>
1.4797

> <Gold.Chemscore.Rot>
1.3391

> <Gold.Chemscore.Internal.Correction>
   9.000000E+99

> <Gold.Chemscore.Hbonds>
donor molecule, donor type, donor heavy atom, donor atom, acceptor molecule, acceptor atom, score
      L1  H     6    24       P1 10175  0.91
      L1  H     9    25       P1 10175  1.00
      L1  H    13    40       P1 10186  0.92
      P1  H  8011  8017       L1     3  0.16

> <Gold.Chemscore.Hbond.Weighted>
-10.4906

> <Gold.Chemscore.Metal.Weighted>
-0.0000

> <Gold.Chemscore.Lipo.Weighted>
-7.6721

> <Gold.Chemscore.Internal_Hbond.Weighted>
0.0000

> <Gold.Chemscore.DEClash.Weighted>
0.1469

> <Gold.Chemscore.DEInternal.Weighted>
1.4797

> <Gold.Chemscore.Rot.Weighted>
3.4281

> <Gold.Chemscore.Internal.Correction.Weighted>
   9.000000E+99

> <Gold.Protein.RotatedTorsions>
[ 6907 6896 6895 6894 ] final  -77.18 input  -60.11 | X-H torsion
[ 7974 7965 7964 7962 ] final -176.93 input  175.53 | X-H torsion
[ 8008 7997 7996 7995 ] final   58.66 input   59.86 | X-H torsion
[ 10167 10162 10161 10158 ] final   -7.02 input  -65.29 | X-H torsion
[ 10718 10713 10712 10709 ] final  109.98 input   66.30 | X-H torsion
[ 10763 10752 10751 10750 ] final  136.38 input  -60.55 | X-H torsion
[ 11005 11000 10999 10996 ] final   51.22 input  -57.11 | X-H torsion

> <Gold.Protein.ActiveResidues>
 VAL166  LYS551  ARG553  GLY616  TRP617  ASP618  TYR619  PRO620  LYS621  CYS622 
 ASP623  PHE694  ASN695  SER759  ASP760  ASP761  ALA762  ILE779  LEU786  VAL792 
 PHE793  MET794  SER795  GLU796  ALA797  LYS798  CYS799  TRP800  GLU811  SER814 

> <Gold.Protein.RotatedAtoms>
  150.7006  134.4461  159.5314 H   0  0  0  0  0  0  0  0  0  0  0  0  # atno 6907 bound_to 6896
  152.2162  134.8452  160.0500 H   0  0  0  0  0  0  0  0  0  0  0  0  # atno 6908 bound_to 6896
  151.9319  133.3578  159.3971 H   0  0  0  0  0  0  0  0  0  0  0  0  # atno 6909 bound_to 6896
  144.7127  140.1096  143.6412 H   0  0  0  0  0  0  0  0  0  0  0  0  # atno 7974 bound_to 7965
  155.5536  140.3487  155.4474 H   0  0  0  0  0  0  0  0  0  0  0  0  # atno 8008 bound_to 7997
  156.0565  140.1330  157.0016 H   0  0  0  0  0  0  0  0  0  0  0  0  # atno 8009 bound_to 7997
  154.4459  140.0994  156.6439 H   0  0  0  0  0  0  0  0  0  0  0  0  # atno 8010 bound_to 7997
  140.7016  143.6128  150.8688 H   0  0  0  0  0  0  0  0  0  0  0  0  # atno 10167 bound_to 10162
  157.6516  131.0924  150.6535 H   0  0  0  0  0  0  0  0  0  0  0  0  # atno 10718 bound_to 10713
  153.8556  135.3074  155.3435 H   0  0  0  0  0  0  0  0  0  0  0  0  # atno 10763 bound_to 10752
  154.7872  135.4803  153.9974 H   0  0  0  0  0  0  0  0  0  0  0  0  # atno 10764 bound_to 10752
  153.1492  135.6839  153.9002 H   0  0  0  0  0  0  0  0  0  0  0  0  # atno 10765 bound_to 10752
  140.0951  134.5157  155.8815 H   0  0  0  0  0  0  0  0  0  0  0  0  # atno 11005 bound_to 11000
  145.9467  139.2705  143.1237 LP  0  0  0  0  0  0  0  0  0  0  0  0  # atno 17320 bound_to 7965
  145.9367  140.9009  143.0329 LP  0  0  0  0  0  0  0  0  0  0  0  0  # atno 17321 bound_to 7965
  139.9850  143.5909  152.2930 LP  0  0  0  0  0  0  0  0  0  0  0  0  # atno 17342 bound_to 10162
  139.6544  144.7662  151.2085 LP  0  0  0  0  0  0  0  0  0  0  0  0  # atno 17343 bound_to 10162
  156.6845  130.4577  149.5618 LP  0  0  0  0  0  0  0  0  0  0  0  0  # atno 17370 bound_to 10713
  156.1905  130.6557  151.1056 LP  0  0  0  0  0  0  0  0  0  0  0  0  # atno 17371 bound_to 10713
  141.2089  133.6679  156.6405 LP  0  0  0  0  0  0  0  0  0  0  0  0  # atno 17394 bound_to 11000
  140.3298  134.7938  157.4317 LP  0  0  0  0  0  0  0  0  0  0  0  0  # atno 17395 bound_to 11000

$$$$
