AV-unprocessed.smi:3183|AV-procd|sdf|12155|dock9
  -GOLD-   2272017593D 1   1.00000     0.00000
 Structure written by MMmdl.
 43 44  0  0  0  0  0  0  0  0  2 V2000
  152.5195  138.7011  156.0479 C   0  0  0  0  0  0  0  0  0  0  0  0
  151.3054  139.5182  156.5245 C   0  0  2  0  0  0  0  0  0  0  0  0
  150.9178  140.5519  155.4479 C   0  0  0  0  0  0  0  0  0  0  0  0
  149.6980  141.3900  155.8609 C   0  0  0  0  0  0  0  0  0  0  0  0
  149.9092  142.0869  157.2150 C   0  0  2  0  0  0  0  0  0  0  0  0
  150.9081  143.1739  157.1008 N   0  3  0  0  0  0  0  0  0  0  0  0
  151.3437  143.7580  158.3847 C   0  0  0  0  0  0  0  0  0  0  0  0
  152.5387  142.9862  158.9636 C   0  0  0  0  0  0  0  0  0  0  0  0
  152.6937  143.1142  160.4491 C   0  0  0  0  0  0  0  0  0  0  0  0
  152.1157  143.9791  161.3384 C   0  0  0  0  0  0  0  0  0  0  0  0
  152.6602  143.6034  162.5967 C   0  0  0  0  0  0  0  0  0  0  0  0
  153.5041  142.5919  162.5008 N   0  0  0  0  0  0  0  0  0  0  0  0
  153.5276  142.2890  161.1861 N   0  0  0  0  0  0  0  0  0  0  0  0
  154.3776  141.1990  160.7457 C   0  0  0  0  0  0  0  0  0  0  0  0
  150.3232  141.0706  158.2947 C   0  0  0  0  0  0  0  0  0  0  0  0
  151.5437  140.2127  157.8918 C   0  0  1  0  0  0  0  0  0  0  0  0
  151.8718  139.2161  159.0182 C   0  0  0  0  0  0  0  0  0  0  0  0
  153.4154  139.3199  155.9864 H   0  0  0  0  0  0  0  0  0  0  0  0
  152.3425  138.2770  155.0591 H   0  0  0  0  0  0  0  0  0  0  0  0
  152.7330  137.8657  156.7141 H   0  0  0  0  0  0  0  0  0  0  0  0
  150.4685  138.8269  156.6356 H   0  0  0  0  0  0  0  0  0  0  0  0
  151.7645  141.2095  155.2459 H   0  0  0  0  0  0  0  0  0  0  0  0
  150.6992  140.0432  154.5081 H   0  0  0  0  0  0  0  0  0  0  0  0
  149.4672  142.1243  155.0880 H   0  0  0  0  0  0  0  0  0  0  0  0
  148.8268  140.7367  155.9269 H   0  0  0  0  0  0  0  0  0  0  0  0
  148.9551  142.5226  157.5162 H   0  0  0  0  0  0  0  0  0  0  0  0
  151.7198  142.8079  156.6240 H   0  0  0  0  0  0  0  0  0  0  0  0
  151.6142  144.8031  158.2265 H   0  0  0  0  0  0  0  0  0  0  0  0
  150.5090  143.7375  159.0867 H   0  0  0  0  0  0  0  0  0  0  0  0
  152.4381  141.9305  158.7077 H   0  0  0  0  0  0  0  0  0  0  0  0
  153.4538  143.3321  158.4811 H   0  0  0  0  0  0  0  0  0  0  0  0
  151.4077  144.7666  161.1267 H   0  0  0  0  0  0  0  0  0  0  0  0
  152.4689  144.0322  163.5694 H   0  0  0  0  0  0  0  0  0  0  0  0
  154.3028  141.0559  159.6684 H   0  0  0  0  0  0  0  0  0  0  0  0
  154.0780  140.2761  161.2431 H   0  0  0  0  0  0  0  0  0  0  0  0
  155.4154  141.4177  160.9988 H   0  0  0  0  0  0  0  0  0  0  0  0
  150.5241  141.5930  159.2313 H   0  0  0  0  0  0  0  0  0  0  0  0
  149.4779  140.4108  158.4965 H   0  0  0  0  0  0  0  0  0  0  0  0
  152.4020  140.8783  157.7882 H   0  0  0  0  0  0  0  0  0  0  0  0
  151.0894  138.4638  159.1235 H   0  0  0  0  0  0  0  0  0  0  0  0
  151.9705  139.7262  159.9766 H   0  0  0  0  0  0  0  0  0  0  0  0
  152.8136  138.6976  158.8393 H   0  0  0  0  0  0  0  0  0  0  0  0
  150.5105  143.9095  156.5341 H   0  0  0  0  0  0  0  0  0  0  0  0
  1  2  1  0  0  0  0
  1 18  1  0  0  0  0
  1 19  1  0  0  0  0
  1 20  1  0  0  0  0
  2 16  1  0  0  0  0
  2  3  1  0  0  0  0
  2 21  1  0  0  0  0
  3  4  1  0  0  0  0
  3 22  1  0  0  0  0
  3 23  1  0  0  0  0
  4  5  1  0  0  0  0
  4 24  1  0  0  0  0
  4 25  1  0  0  0  0
  5  6  1  0  0  0  0
  5 15  1  0  0  0  0
  5 26  1  0  0  0  0
  6  7  1  0  0  0  0
  6 27  1  0  0  0  0
  6 43  1  0  0  0  0
  7  8  1  0  0  0  0
  7 28  1  0  0  0  0
  7 29  1  0  0  0  0
  8  9  1  0  0  0  0
  8 30  1  0  0  0  0
  8 31  1  0  0  0  0
  9 13  1  0  0  0  0
  9 10  2  0  0  0  0
 10 11  1  0  0  0  0
 10 32  1  0  0  0  0
 11 12  2  0  0  0  0
 11 33  1  0  0  0  0
 12 13  1  0  0  0  0
 13 14  1  0  0  0  0
 14 34  1  0  0  0  0
 14 35  1  0  0  0  0
 14 36  1  0  0  0  0
 15 16  1  0  0  0  0
 15 37  1  0  0  0  0
 15 38  1  0  0  0  0
 16 17  1  0  0  0  0
 16 39  1  0  0  0  0
 17 40  1  0  0  0  0
 17 41  1  0  0  0  0
 17 42  1  0  0  0  0
M  CHG  1   6   1
M  END
> <s_m_source_file>
AV-unprocessed.smi

> <i_m_source_file_index>
3183

> <i_lp_mmshare_version>
43012

> <i_f3d_flags>
0

> <s_epik_input>
W0NIM11bQ0BASF0xW0NIMl1bQ0gyXVtDQEhdKFtDSDJdW0NASF0xW0NIM10pW05IXVtDSDJdW0NIMl1jMltjSF1bY0hdbm4yW0NIM10=

> <s_epik_cmdline>
J2VwaWtfcHl0aG9uJywgJy1waCcsICc3LjAnLCAnLXRuJywgJzgnLCAnLW1hJywgJzIwMCcsICctbWV0YWxfYmluZGluZycsICctaW1hZScsICc8aW5maWxlLm1hZT4nLCAnLW9tYWUnLCAnPG91dGZpbGUubWFlPic=

> <r_lp_tautomer_probability>
1

> <r_epik_Ionization_Penalty>
0.000327718

> <r_epik_Ionization_Penalty_Charging>
0.000294043

> <r_epik_Ionization_Penalty_Neutral>
3.36755e-05

> <r_epik_State_Penalty>
-0

> <r_epik_Charging_Adjusted_Penalty>
0.000294043

> <i_epik_Tot_Q>
1

> <i_epik_Tot_abs_Q>
1

> <r_epik_Metal_State_Penalty>
-0

> <b_epik_Metal_Only>
0

> <s_lp_Force_Field>
OPLS_2005

> <r_lp_Energy>
17.888

> <b_lp_Chiralities_Consistent>
1

> <s_lp_Variant>
AV-unprocessed.smi:3183-3

> <Gold.Version>
5.8.1

> <Gold.Id.Protein>
6NUR|6NUR_protein|mol2

> <Gold.PLP.Fitness>
46.3420

> <Gold.PLP.PLP>
-41.3779

> <Gold.PLP.part.hbond>
-1.4017

> <Gold.PLP.part.metal>
0.0000

> <Gold.PLP.part.buried>
-2.9384

> <Gold.PLP.part.nonpolar>
-37.6716

> <Gold.PLP.part.repulsive>
0.0518

> <Gold.PLP.ligand.clash>
0.0000

> <Gold.PLP.ligand.torsion>
0.5245

> <Gold.PLP.Chemscore.Hbond>
2.0000

> <Gold.PLP.Chemscore.CHOScore>
0.0000

> <Gold.PLP.Chemscore.Metal>
0.0000

> <Gold.Chemscore.Hbonds>
donor molecule, donor type, donor heavy atom, donor atom, acceptor molecule, acceptor atom, score
      L1  H     6    43       P1  8028  1.98

> <Gold.PLP.Chemscore.Internal.Correction>
0.0132

> <Gold.Rescore>
     Score         DG    S(hbond)    S(metal)    S(lipo)     H(rot)  DE(clash)    DE(int)     intcor
     16.62     -18.29       0.94        0.00     112.79       1.38       0.13       1.54       ----

> <Gold.Chemscore.Fitness>
16.6210

> <Gold.Chemscore.DG>
-18.2904

> <Gold.Chemscore.ZeroCoef>
-5.4800

> <Gold.Chemscore.Hbond>
0.9399

> <Gold.Chemscore.Metal>
0.0000

> <Gold.Chemscore.Lipo>
112.7852

> <Gold.Chemscore.Internal_Hbond>
0.0000

> <Gold.Chemscore.DEClash>
0.1307

> <Gold.Chemscore.DEInternal>
1.5387

> <Gold.Chemscore.Rot>
1.3768

> <Gold.Chemscore.Internal.Correction>
   9.000000E+99

> <Gold.Chemscore.Hbonds>
donor molecule, donor type, donor heavy atom, donor atom, acceptor molecule, acceptor atom, score
      L1  H     6    43       P1  8028  0.91

> <Gold.Chemscore.Hbond.Weighted>
-3.1393

> <Gold.Chemscore.Metal.Weighted>
-0.0000

> <Gold.Chemscore.Lipo.Weighted>
-13.1959

> <Gold.Chemscore.Internal_Hbond.Weighted>
0.0000

> <Gold.Chemscore.DEClash.Weighted>
0.1307

> <Gold.Chemscore.DEInternal.Weighted>
1.5387

> <Gold.Chemscore.Rot.Weighted>
3.5247

> <Gold.Chemscore.Internal.Correction.Weighted>
   9.000000E+99

> <Gold.Protein.RotatedTorsions>
[ 6907 6896 6895 6894 ] final  -75.73 input  -60.11 | X-H torsion
[ 7974 7965 7964 7962 ] final    9.24 input  175.53 | X-H torsion
[ 8008 7997 7996 7995 ] final   13.44 input   59.86 | X-H torsion
[ 10167 10162 10161 10158 ] final -117.50 input  -65.29 | X-H torsion
[ 10718 10713 10712 10709 ] final -123.14 input   66.30 | X-H torsion
[ 10763 10752 10751 10750 ] final   28.65 input  -60.55 | X-H torsion
[ 11005 11000 10999 10996 ] final  107.77 input  -57.11 | X-H torsion

> <Gold.Protein.ActiveResidues>
 VAL166  LYS551  ARG553  GLY616  TRP617  ASP618  TYR619  PRO620  LYS621  CYS622 
 ASP623  PHE694  ASN695  SER759  ASP760  ASP761  ALA762  ILE779  LEU786  VAL792 
 PHE793  MET794  SER795  GLU796  ALA797  LYS798  CYS799  TRP800  GLU811  SER814 

> <Gold.Protein.RotatedAtoms>
  150.7049  134.4677  159.5410 H   0  0  0  0  0  0  0  0  0  0  0  0  # atno 6907 bound_to 6896
  152.2339  134.8292  160.0479 H   0  0  0  0  0  0  0  0  0  0  0  0  # atno 6908 bound_to 6896
  151.9098  133.3523  159.3896 H   0  0  0  0  0  0  0  0  0  0  0  0  # atno 6909 bound_to 6896
  146.2406  139.9813  142.8436 H   0  0  0  0  0  0  0  0  0  0  0  0  # atno 7974 bound_to 7965
  154.8345  140.2905  155.5700 H   0  0  0  0  0  0  0  0  0  0  0  0  # atno 8008 bound_to 7997
  156.3008  140.2525  156.3208 H   0  0  0  0  0  0  0  0  0  0  0  0  # atno 8009 bound_to 7997
  154.9194  140.0386  157.1979 H   0  0  0  0  0  0  0  0  0  0  0  0  # atno 8010 bound_to 7997
  140.0676  143.4907  152.1997 H   0  0  0  0  0  0  0  0  0  0  0  0  # atno 10167 bound_to 10162
  156.1477  130.6512  150.9866 H   0  0  0  0  0  0  0  0  0  0  0  0  # atno 10718 bound_to 10713
  153.0479  135.6508  154.0770 H   0  0  0  0  0  0  0  0  0  0  0  0  # atno 10763 bound_to 10752
  154.0464  135.2899  155.3349 H   0  0  0  0  0  0  0  0  0  0  0  0  # atno 10764 bound_to 10752
  154.6748  135.5342  153.8251 H   0  0  0  0  0  0  0  0  0  0  0  0  # atno 10765 bound_to 10752
  139.8833  134.9411  156.5870 H   0  0  0  0  0  0  0  0  0  0  0  0  # atno 11005 bound_to 11000
  145.1589  140.9662  143.4389 LP  0  0  0  0  0  0  0  0  0  0  0  0  # atno 17320 bound_to 7965
  145.0135  139.3489  143.6108 LP  0  0  0  0  0  0  0  0  0  0  0  0  # atno 17321 bound_to 7965
  139.5855  144.7529  151.3531 LP  0  0  0  0  0  0  0  0  0  0  0  0  # atno 17342 bound_to 10162
  140.7141  143.7313  150.7622 LP  0  0  0  0  0  0  0  0  0  0  0  0  # atno 17343 bound_to 10162
  157.6630  131.0877  150.7794 LP  0  0  0  0  0  0  0  0  0  0  0  0  # atno 17370 bound_to 10713
  156.7864  130.4876  149.5392 LP  0  0  0  0  0  0  0  0  0  0  0  0  # atno 17371 bound_to 10713
  140.7984  133.8525  155.8705 LP  0  0  0  0  0  0  0  0  0  0  0  0  # atno 17394 bound_to 11000
  140.9614  134.1650  157.4650 LP  0  0  0  0  0  0  0  0  0  0  0  0  # atno 17395 bound_to 11000

$$$$
