AV-unprocessed.smi:513|AV-procd|sdf|2773|dock7
  -GOLD-   2262023243D 1   1.00000     0.00000
 Structure written by MMmdl.
 42 44  0  0  0  0  0  0  0  0  1 V2000
  143.9268  132.3206  150.3640 C   0  0  0  0  0  0  0  0  0  0  0  0
  145.3273  132.3060  150.1575 O   0  0  0  0  0  0  0  0  0  0  0  0
  146.0213  133.1592  151.0533 C   0  0  0  0  0  0  0  0  0  0  0  0
  145.8610  132.6356  152.4869 C   0  0  0  0  0  0  0  0  0  0  0  0
  146.8323  133.2403  153.3967 N   0  0  0  0  0  0  0  0  0  0  0  0
  146.9356  134.5340  153.8133 C   0  0  0  0  0  0  0  0  0  0  0  0
  146.0252  135.5205  153.4318 N   0  0  0  0  0  0  0  0  0  0  0  0
  146.2137  136.9501  153.6614 C   0  0  0  0  0  0  0  0  0  0  0  0
  145.9072  137.7585  152.3841 C   0  0  0  0  0  0  0  0  0  0  0  0
  144.5221  137.5403  151.9795 N   0  0  0  0  0  0  0  0  0  0  0  0
  144.3276  136.1156  151.7330 C   0  0  0  0  0  0  0  0  0  0  0  0
  144.6362  135.3270  153.0213 C   0  0  0  0  0  0  0  0  0  0  0  0
  148.0019  134.7874  154.5783 N   0  0  0  0  0  0  0  0  0  0  0  0
  148.6129  133.5486  154.6846 C   0  0  0  0  0  0  0  0  0  0  0  0
  147.9317  132.6099  153.9819 C   0  0  0  0  0  0  0  0  0  0  0  0
  148.3825  131.2148  153.8936 C   0  0  0  0  0  0  0  0  0  0  0  0
  147.7913  130.3497  153.2509 O   0  0  0  0  0  0  0  0  0  0  0  0
  149.5220  130.9798  154.5887 N   0  0  0  0  0  0  0  0  0  0  0  0
  150.2528  131.8776  155.3182 C   0  0  0  0  0  0  0  0  0  0  0  0
  151.2754  131.5062  155.8931 O   0  0  0  0  0  0  0  0  0  0  0  0
  149.8006  133.1730  155.3712 N   0  0  0  0  0  0  0  0  0  0  0  0
  150.5113  134.2122  156.1186 C   0  0  0  0  0  0  0  0  0  0  0  0
  149.8749  130.0341  154.5621 H   0  0  0  0  0  0  0  0  0  0  0  0
  143.4460  131.6488  149.6529 H   0  0  0  0  0  0  0  0  0  0  0  0
  143.5168  133.3202  150.2141 H   0  0  0  0  0  0  0  0  0  0  0  0
  143.6731  131.9835  151.3699 H   0  0  0  0  0  0  0  0  0  0  0  0
  147.0792  133.1966  150.7896 H   0  0  0  0  0  0  0  0  0  0  0  0
  145.6308  134.1753  150.9794 H   0  0  0  0  0  0  0  0  0  0  0  0
  144.8485  132.8252  152.8273 H   0  0  0  0  0  0  0  0  0  0  0  0
  145.9717  131.5525  152.5135 H   0  0  0  0  0  0  0  0  0  0  0  0
  145.5791  137.2774  154.4865 H   0  0  0  0  0  0  0  0  0  0  0  0
  147.2439  137.1348  153.9677 H   0  0  0  0  0  0  0  0  0  0  0  0
  146.0589  138.8223  152.5674 H   0  0  0  0  0  0  0  0  0  0  0  0
  146.5807  137.4731  151.5748 H   0  0  0  0  0  0  0  0  0  0  0  0
  144.3279  138.0611  151.1362 H   0  0  0  0  0  0  0  0  0  0  0  0
  143.2945  135.9486  151.4274 H   0  0  0  0  0  0  0  0  0  0  0  0
  144.9652  135.7883  150.9106 H   0  0  0  0  0  0  0  0  0  0  0  0
  144.4224  134.2675  152.8878 H   0  0  0  0  0  0  0  0  0  0  0  0
  143.9783  135.6574  153.8265 H   0  0  0  0  0  0  0  0  0  0  0  0
  151.3802  133.8492  156.6685 H   0  0  0  0  0  0  0  0  0  0  0  0
  149.8399  134.6751  156.8426 H   0  0  0  0  0  0  0  0  0  0  0  0
  150.8557  134.9902  155.4366 H   0  0  0  0  0  0  0  0  0  0  0  0
  1  2  1  0  0  0  0
  1 24  1  0  0  0  0
  1 25  1  0  0  0  0
  1 26  1  0  0  0  0
  2  3  1  0  0  0  0
  3  4  1  0  0  0  0
  3 27  1  0  0  0  0
  3 28  1  0  0  0  0
  4  5  1  0  0  0  0
  4 29  1  0  0  0  0
  4 30  1  0  0  0  0
  5 15  1  0  0  0  0
  5  6  1  0  0  0  0
  6  7  1  0  0  0  0
  6 13  2  0  0  0  0
  7 12  1  0  0  0  0
  7  8  1  0  0  0  0
  8  9  1  0  0  0  0
  8 31  1  0  0  0  0
  8 32  1  0  0  0  0
  9 10  1  0  0  0  0
  9 33  1  0  0  0  0
  9 34  1  0  0  0  0
 10 11  1  0  0  0  0
 10 35  1  0  0  0  0
 11 12  1  0  0  0  0
 11 36  1  0  0  0  0
 11 37  1  0  0  0  0
 12 38  1  0  0  0  0
 12 39  1  0  0  0  0
 13 14  1  0  0  0  0
 14 21  1  0  0  0  0
 14 15  2  0  0  0  0
 15 16  1  0  0  0  0
 16 17  2  0  0  0  0
 16 18  1  0  0  0  0
 18 23  1  0  0  0  0
 18 19  1  0  0  0  0
 19 20  2  0  0  0  0
 19 21  1  0  0  0  0
 21 22  1  0  0  0  0
 22 40  1  0  0  0  0
 22 41  1  0  0  0  0
 22 42  1  0  0  0  0
M  END
> <s_m_source_file>
AV-unprocessed.smi

> <i_m_source_file_index>
513

> <i_lp_mmshare_version>
43012

> <i_f3d_flags>
0

> <s_epik_input>
W0NIM11uMWMoPU8pW25IXWMoPU8pYyhjMTIpbihbQ0gyXVtDSDJdT1tDSDNdKWMobjIpTjNbQ0gyXVtDSDJdW05IXVtDSDJdW0NIMl0z

> <s_epik_cmdline>
J2VwaWtfcHl0aG9uJywgJy1waCcsICc3LjAnLCAnLXRuJywgJzgnLCAnLW1hJywgJzIwMCcsICctbWV0YWxfYmluZGluZycsICctaW1hZScsICc8aW5maWxlLm1hZT4nLCAnLW9tYWUnLCAnPG91dGZpbGUubWFlPic=

> <r_epik_Ionization_Penalty>
2.51416

> <r_epik_Ionization_Penalty_Charging>
1.6225e-05

> <r_epik_Ionization_Penalty_Neutral>
2.51414

> <r_epik_State_Penalty>
2.67993

> <r_epik_Charging_Adjusted_Penalty>
2.67995

> <i_epik_Tot_Q>
0

> <i_epik_Tot_abs_Q>
0

> <r_epik_Metal_State_Penalty>
2.70812

> <b_epik_Metal_Only>
0

> <s_lp_Force_Field>
OPLS_2005

> <r_lp_Energy>
48.0947

> <b_lp_Chiralities_Consistent>
1

> <s_lp_Variant>
AV-unprocessed.smi:513-2

> <Gold.Version>
5.8.1

> <Gold.Id.Protein>
6NUR|6NUR_protein|mol2

> <Gold.PLP.Fitness>
33.6228

> <Gold.PLP.PLP>
-30.8983

> <Gold.PLP.part.hbond>
-1.3332

> <Gold.PLP.part.metal>
0.0000

> <Gold.PLP.part.buried>
-5.6095

> <Gold.PLP.part.nonpolar>
-24.9160

> <Gold.PLP.part.repulsive>
0.9209

> <Gold.PLP.ligand.clash>
0.0000

> <Gold.PLP.ligand.torsion>
0.2921

> <Gold.PLP.Chemscore.Hbond>
1.0000

> <Gold.PLP.Chemscore.CHOScore>
0.0000

> <Gold.PLP.Chemscore.Metal>
0.0000

> <Gold.Chemscore.Hbonds>
donor molecule, donor type, donor heavy atom, donor atom, acceptor molecule, acceptor atom, score
      L1  H    10    35       P1 10171  0.91

> <Gold.PLP.Chemscore.Internal.Correction>
0.3086

> <Gold.Rescore>
     Score         DG    S(hbond)    S(metal)    S(lipo)     H(rot)  DE(clash)    DE(int)     intcor
      9.94     -10.34       0.99        0.00      47.24       1.55       0.01       0.39       ----

> <Gold.Chemscore.Fitness>
9.9429

> <Gold.Chemscore.DG>
-10.3379

> <Gold.Chemscore.ZeroCoef>
-5.4800

> <Gold.Chemscore.Hbond>
0.9896

> <Gold.Chemscore.Metal>
0.0000

> <Gold.Chemscore.Lipo>
47.2399

> <Gold.Chemscore.Internal_Hbond>
0.0000

> <Gold.Chemscore.DEClash>
0.0085

> <Gold.Chemscore.DEInternal>
0.3864

> <Gold.Chemscore.Rot>
1.5526

> <Gold.Chemscore.Internal.Correction>
   9.000000E+99

> <Gold.Chemscore.Hbonds>
donor molecule, donor type, donor heavy atom, donor atom, acceptor molecule, acceptor atom, score
      L1  H    10    35       P1 10171  0.87

> <Gold.Chemscore.Hbond.Weighted>
-3.3053

> <Gold.Chemscore.Metal.Weighted>
-0.0000

> <Gold.Chemscore.Lipo.Weighted>
-5.5271

> <Gold.Chemscore.Internal_Hbond.Weighted>
0.0000

> <Gold.Chemscore.DEClash.Weighted>
0.0085

> <Gold.Chemscore.DEInternal.Weighted>
0.3864

> <Gold.Chemscore.Rot.Weighted>
3.9745

> <Gold.Chemscore.Internal.Correction.Weighted>
   9.000000E+99

> <Gold.Protein.RotatedTorsions>
[ 6907 6896 6895 6894 ] final  -27.11 input  -60.11 | X-H torsion
[ 7974 7965 7964 7962 ] final   74.52 input  175.53 | X-H torsion
[ 8008 7997 7996 7995 ] final  178.23 input   59.86 | X-H torsion
[ 10167 10162 10161 10158 ] final   54.60 input  -65.29 | X-H torsion
[ 10718 10713 10712 10709 ] final  145.25 input   66.30 | X-H torsion
[ 10763 10752 10751 10750 ] final  175.97 input  -60.55 | X-H torsion
[ 11005 11000 10999 10996 ] final   19.54 input  -57.11 | X-H torsion

> <Gold.Protein.ActiveResidues>
 VAL166  LYS551  ARG553  GLY616  TRP617  ASP618  TYR619  PRO620  LYS621  CYS622 
 ASP623  PHE694  ASN695  SER759  ASP760  ASP761  ALA762  ILE779  LEU786  VAL792 
 PHE793  MET794  SER795  GLU796  ALA797  LYS798  CYS799  TRP800  GLU811  SER814 

> <Gold.Protein.RotatedAtoms>
  151.1515  135.0229  159.8670 H   0  0  0  0  0  0  0  0  0  0  0  0  # atno 6907 bound_to 6896
  152.5452  134.1383  159.8478 H   0  0  0  0  0  0  0  0  0  0  0  0  # atno 6908 bound_to 6896
  151.1469  133.4888  159.2628 H   0  0  0  0  0  0  0  0  0  0  0  0  # atno 6909 bound_to 6896
  145.7273  139.2670  143.1561 H   0  0  0  0  0  0  0  0  0  0  0  0  # atno 7974 bound_to 7965
  156.0570  140.1338  156.9985 H   0  0  0  0  0  0  0  0  0  0  0  0  # atno 8008 bound_to 7997
  154.4462  140.0999  156.6530 H   0  0  0  0  0  0  0  0  0  0  0  0  # atno 8009 bound_to 7997
  155.5437  140.3461  155.4455 H   0  0  0  0  0  0  0  0  0  0  0  0  # atno 8010 bound_to 7997
  140.2284  144.3713  150.6424 H   0  0  0  0  0  0  0  0  0  0  0  0  # atno 10167 bound_to 10162
  157.3475  131.0945  151.1029 H   0  0  0  0  0  0  0  0  0  0  0  0  # atno 10718 bound_to 10713
  154.4749  135.2772  155.1615 H   0  0  0  0  0  0  0  0  0  0  0  0  # atno 10763 bound_to 10752
  154.3349  135.6182  153.5572 H   0  0  0  0  0  0  0  0  0  0  0  0  # atno 10764 bound_to 10752
  152.9868  135.5774  154.5137 H   0  0  0  0  0  0  0  0  0  0  0  0  # atno 10765 bound_to 10752
  140.4126  134.1602  155.7668 H   0  0  0  0  0  0  0  0  0  0  0  0  # atno 11005 bound_to 11000
  146.0570  140.8010  142.9753 LP  0  0  0  0  0  0  0  0  0  0  0  0  # atno 17320 bound_to 7965
  144.6901  140.3139  143.7243 LP  0  0  0  0  0  0  0  0  0  0  0  0  # atno 17321 bound_to 7965
  140.6203  143.2176  151.6707 LP  0  0  0  0  0  0  0  0  0  0  0  0  # atno 17342 bound_to 10162
  139.5119  144.3494  152.0666 LP  0  0  0  0  0  0  0  0  0  0  0  0  # atno 17343 bound_to 10162
  157.2217  130.6484  149.5814 LP  0  0  0  0  0  0  0  0  0  0  0  0  # atno 17370 bound_to 10713
  155.9716  130.4627  150.6155 LP  0  0  0  0  0  0  0  0  0  0  0  0  # atno 17371 bound_to 10713
  141.1815  133.8403  157.1240 LP  0  0  0  0  0  0  0  0  0  0  0  0  # atno 17394 bound_to 11000
  140.0257  134.9925  157.0680 LP  0  0  0  0  0  0  0  0  0  0  0  0  # atno 17395 bound_to 11000

$$$$
