AV-unprocessed.smi:83|AV-procd|sdf|803|dock6
  -GOLD-   2262017193D 1   1.00000     0.00000
 Structure written by MMmdl.
 56 59  0  0  0  0  0  0  0  0  1 V2000
  147.3707  143.7652  160.2841 C   0  0  0  0  0  0  0  0  0  0  0  0
  148.6126  144.6528  160.1950 C   0  0  0  0  0  0  0  0  0  0  0  0
  148.6456  145.7001  160.8414 O   0  0  0  0  0  0  0  0  0  0  0  0
  149.6281  144.2574  159.4010 N   0  0  0  0  0  0  0  0  0  0  0  0
  150.8545  145.0072  159.1388 C   0  0  0  0  0  0  0  0  0  0  0  0
  151.5273  144.2871  157.9685 C   0  0  0  0  0  0  0  0  0  0  0  0
  151.0418  142.8456  158.0840 C   0  0  2  0  0  0  0  0  0  0  0  0
  151.1365  142.0505  156.7611 C   0  0  0  0  0  0  0  0  0  0  0  0
  151.7612  140.7344  156.9119 N   0  0  0  0  0  0  0  0  0  0  0  0
  152.3950  140.4229  158.1864 C   0  0  0  0  0  0  0  0  0  0  0  0
  151.2219  139.7215  156.1858 C   0  0  0  0  0  0  0  0  0  0  0  0
  150.7652  140.0160  154.9402 N   0  0  0  0  0  0  0  0  0  0  0  0
  150.1385  139.0892  154.2108 C   0  0  0  0  0  0  0  0  0  0  0  0
  149.8507  137.8284  154.5351 N   0  0  0  0  0  0  0  0  0  0  0  0
  150.3161  137.5211  155.7790 C   0  0  0  0  0  0  0  0  0  0  0  0
  151.0262  138.3888  156.6574 C   0  0  0  0  0  0  0  0  0  0  0  0
  151.3268  137.7125  157.8360 N   0  0  0  0  0  0  0  0  0  0  0  0
  150.8136  136.5252  157.6697 C   0  0  0  0  0  0  0  0  0  0  0  0
  150.1593  136.3372  156.4748 N   0  0  0  0  0  0  0  0  0  0  0  0
  149.4279  135.1568  156.0572 C   0  0  0  0  0  0  0  0  0  0  0  0
  150.2951  133.8796  156.1134 C   0  0  1  0  0  0  0  0  0  0  0  0
  150.4272  133.5205  157.4739 O   0  0  0  0  0  0  0  0  0  0  0  0
  149.7138  132.6785  155.3324 C   0  0  2  0  0  0  0  0  0  0  0  0
  150.6291  131.4519  155.2738 C   0  0  0  0  0  0  0  0  0  0  0  0
  150.1934  130.7262  154.0081 C   0  0  0  0  0  0  0  0  0  0  0  0
  149.3009  131.7392  153.2898 C   0  0  0  0  0  0  0  0  0  0  0  0
  149.5623  132.9670  153.9499 O   0  0  0  0  0  0  0  0  0  0  0  0
  149.6216  143.0091  158.6463 C   0  0  0  0  0  0  0  0  0  0  0  0
  146.9665  143.5639  159.2919 H   0  0  0  0  0  0  0  0  0  0  0  0
  146.5913  144.2525  160.8707 H   0  0  0  0  0  0  0  0  0  0  0  0
  147.6105  142.8164  160.7645 H   0  0  0  0  0  0  0  0  0  0  0  0
  150.6599  146.0527  158.8959 H   0  0  0  0  0  0  0  0  0  0  0  0
  151.4893  144.9730  160.0254 H   0  0  0  0  0  0  0  0  0  0  0  0
  151.1825  144.7211  157.0287 H   0  0  0  0  0  0  0  0  0  0  0  0
  152.6142  144.3696  157.9943 H   0  0  0  0  0  0  0  0  0  0  0  0
  151.6560  142.3583  158.8430 H   0  0  0  0  0  0  0  0  0  0  0  0
  150.1530  141.9609  156.2986 H   0  0  0  0  0  0  0  0  0  0  0  0
  151.7387  142.6191  156.0517 H   0  0  0  0  0  0  0  0  0  0  0  0
  152.9925  139.5133  158.1153 H   0  0  0  0  0  0  0  0  0  0  0  0
  151.6504  140.2936  158.9722 H   0  0  0  0  0  0  0  0  0  0  0  0
  153.0611  141.2331  158.4837 H   0  0  0  0  0  0  0  0  0  0  0  0
  149.8044  139.4094  153.2351 H   0  0  0  0  0  0  0  0  0  0  0  0
  150.8630  135.7639  158.4346 H   0  0  0  0  0  0  0  0  0  0  0  0
  148.5555  135.0537  156.7038 H   0  0  0  0  0  0  0  0  0  0  0  0
  149.0524  135.3192  155.0459 H   0  0  0  0  0  0  0  0  0  0  0  0
  151.2939  134.1025  155.7355 H   0  0  0  0  0  0  0  0  0  0  0  0
  150.0494  132.6627  157.5947 H   0  0  0  0  0  0  0  0  0  0  0  0
  148.7425  132.3967  155.7440 H   0  0  0  0  0  0  0  0  0  0  0  0
  151.6697  131.7635  155.1728 H   0  0  0  0  0  0  0  0  0  0  0  0
  150.5507  130.8293  156.1657 H   0  0  0  0  0  0  0  0  0  0  0  0
  151.0589  130.4562  153.4025 H   0  0  0  0  0  0  0  0  0  0  0  0
  149.6411  129.8134  154.2326 H   0  0  0  0  0  0  0  0  0  0  0  0
  149.5085  131.8073  152.2221 H   0  0  0  0  0  0  0  0  0  0  0  0
  148.2481  131.4823  153.4149 H   0  0  0  0  0  0  0  0  0  0  0  0
  149.3429  142.1649  159.2786 H   0  0  0  0  0  0  0  0  0  0  0  0
  148.8870  143.0921  157.8443 H   0  0  0  0  0  0  0  0  0  0  0  0
  1  2  1  0  0  0  0
  1 29  1  0  0  0  0
  1 30  1  0  0  0  0
  1 31  1  0  0  0  0
  2  3  2  0  0  0  0
  2  4  1  0  0  0  0
  4 28  1  0  0  0  0
  4  5  1  0  0  0  0
  5  6  1  0  0  0  0
  5 32  1  0  0  0  0
  5 33  1  0  0  0  0
  6  7  1  0  0  0  0
  6 34  1  0  0  0  0
  6 35  1  0  0  0  0
  7  8  1  0  0  0  0
  7 28  1  0  0  0  0
  7 36  1  0  0  0  0
  8  9  1  0  0  0  0
  8 37  1  0  0  0  0
  8 38  1  0  0  0  0
  9 10  1  0  0  0  0
  9 11  1  0  0  0  0
 10 39  1  0  0  0  0
 10 40  1  0  0  0  0
 10 41  1  0  0  0  0
 11 16  1  0  0  0  0
 11 12  2  0  0  0  0
 12 13  1  0  0  0  0
 13 14  2  0  0  0  0
 13 42  1  0  0  0  0
 14 15  1  0  0  0  0
 15 19  1  0  0  0  0
 15 16  2  0  0  0  0
 16 17  1  0  0  0  0
 17 18  2  0  0  0  0
 18 19  1  0  0  0  0
 18 43  1  0  0  0  0
 19 20  1  0  0  0  0
 20 21  1  0  0  0  0
 20 44  1  0  0  0  0
 20 45  1  0  0  0  0
 21 22  1  0  0  0  0
 21 23  1  0  0  0  0
 21 46  1  0  0  0  0
 22 47  1  0  0  0  0
 23 27  1  0  0  0  0
 23 24  1  0  0  0  0
 23 48  1  0  0  0  0
 24 25  1  0  0  0  0
 24 49  1  0  0  0  0
 24 50  1  0  0  0  0
 25 26  1  0  0  0  0
 25 51  1  0  0  0  0
 25 52  1  0  0  0  0
 26 27  1  0  0  0  0
 26 53  1  0  0  0  0
 26 54  1  0  0  0  0
 28 55  1  0  0  0  0
 28 56  1  0  0  0  0
M  END
> <s_m_source_file>
AV-unprocessed.smi

> <i_m_source_file_index>
83

> <i_lp_mmshare_version>
43012

> <i_f3d_flags>
0

> <s_epik_input>
W0NIM11DKD1PKU4xW0NIMl1bQ0gyXVtDQEhdKFtDSDJdMSlbQ0gyXU4oW0NIM10pYyhuW2NIXW4yKWMoYzIzKW5bY0hdbjNbQ0gyXVtDQEhdKFtPSF0pW0NAQEhdNFtDSDJdW0NIMl1bQ0gyXU80

> <s_epik_cmdline>
J2VwaWtfcHl0aG9uJywgJy1waCcsICc3LjAnLCAnLXRuJywgJzgnLCAnLW1hJywgJzIwMCcsICctbWV0YWxfYmluZGluZycsICctaW1hZScsICc8aW5maWxlLm1hZT4nLCAnLW9tYWUnLCAnPG91dGZpbGUubWFlPic=

> <r_lp_tautomer_probability>
1

> <r_epik_Ionization_Penalty>
0.00109752

> <r_epik_Ionization_Penalty_Charging>
0

> <r_epik_Ionization_Penalty_Neutral>
0.00109752

> <r_epik_State_Penalty>
0.000634803

> <r_epik_Charging_Adjusted_Penalty>
0.000634803

> <i_epik_Tot_Q>
0

> <i_epik_Tot_abs_Q>
0

> <r_epik_Metal_State_Penalty>
-0

> <b_epik_Metal_Only>
0

> <s_lp_Force_Field>
OPLS_2005

> <r_lp_Energy>
52.1505

> <b_lp_Chiralities_Consistent>
1

> <s_lp_Variant>
AV-unprocessed.smi:83-4

> <Gold.Version>
5.8.1

> <Gold.Id.Protein>
6NUR|6NUR_protein|mol2

> <Gold.PLP.Fitness>
48.4206

> <Gold.PLP.PLP>
-41.7542

> <Gold.PLP.part.hbond>
-3.0000

> <Gold.PLP.part.metal>
0.0000

> <Gold.PLP.part.buried>
-7.0002

> <Gold.PLP.part.nonpolar>
-33.4962

> <Gold.PLP.part.repulsive>
0.6549

> <Gold.PLP.ligand.clash>
0.0000

> <Gold.PLP.ligand.torsion>
1.3477

> <Gold.PLP.Chemscore.Hbond>
1.9000

> <Gold.PLP.Chemscore.CHOScore>
1.0000

> <Gold.PLP.Chemscore.Metal>
0.0000

> <Gold.Chemscore.Hbonds>
donor molecule, donor type, donor heavy atom, donor atom, acceptor molecule, acceptor atom, score
      P1  H  6896  6908       L1    22  0.72
      P1  H  7989  7998       L1    12  0.85
      L1  C    13    42       P1  7957  1.00

> <Gold.PLP.Chemscore.Internal.Correction>
0.6617

> <Gold.Rescore>
     Score         DG    S(hbond)    S(metal)    S(lipo)     H(rot)  DE(clash)    DE(int)     intcor
     10.98     -13.97       1.59        0.00      84.45       2.62       0.26       2.73       ----

> <Gold.Chemscore.Fitness>
10.9794

> <Gold.Chemscore.DG>
-13.9706

> <Gold.Chemscore.ZeroCoef>
-5.4800

> <Gold.Chemscore.Hbond>
1.5881

> <Gold.Chemscore.Metal>
0.0000

> <Gold.Chemscore.Lipo>
84.4548

> <Gold.Chemscore.Internal_Hbond>
0.0000

> <Gold.Chemscore.DEClash>
0.2649

> <Gold.Chemscore.DEInternal>
2.7264

> <Gold.Chemscore.Rot>
2.6152

> <Gold.Chemscore.Internal.Correction>
   9.000000E+99

> <Gold.Chemscore.Hbonds>
donor molecule, donor type, donor heavy atom, donor atom, acceptor molecule, acceptor atom, score
      P1  H  6896  6908       L1    22  0.14
      P1  H  7989  7998       L1    12  0.15

> <Gold.Chemscore.Hbond.Weighted>
-5.3043

> <Gold.Chemscore.Metal.Weighted>
-0.0000

> <Gold.Chemscore.Lipo.Weighted>
-9.8812

> <Gold.Chemscore.Internal_Hbond.Weighted>
0.0000

> <Gold.Chemscore.DEClash.Weighted>
0.2649

> <Gold.Chemscore.DEInternal.Weighted>
2.7264

> <Gold.Chemscore.Rot.Weighted>
6.6949

> <Gold.Chemscore.Internal.Correction.Weighted>
   9.000000E+99

> <Gold.Protein.RotatedTorsions>
[ 6907 6896 6895 6894 ] final  128.10 input  -60.11 | X-H torsion
[ 7974 7965 7964 7962 ] final  136.03 input  175.53 | X-H torsion
[ 8008 7997 7996 7995 ] final  -15.39 input   59.86 | X-H torsion
[ 10167 10162 10161 10158 ] final   92.08 input  -65.29 | X-H torsion
[ 10718 10713 10712 10709 ] final   70.64 input   66.30 | X-H torsion
[ 10763 10752 10751 10750 ] final -141.18 input  -60.55 | X-H torsion
[ 11005 11000 10999 10996 ] final -105.64 input  -57.11 | X-H torsion

> <Gold.Protein.ActiveResidues>
 VAL166  LYS551  ARG553  GLY616  TRP617  ASP618  TYR619  PRO620  LYS621  CYS622 
 ASP623  PHE694  ASN695  SER759  ASP760  ASP761  ALA762  ILE779  LEU786  VAL792 
 PHE793  MET794  SER795  GLU796  ALA797  LYS798  CYS799  TRP800  GLU811  SER814 

> <Gold.Protein.RotatedAtoms>
  152.3751  133.6470  159.6116 H   0  0  0  0  0  0  0  0  0  0  0  0  # atno 6907 bound_to 6896
  150.7697  133.9207  159.3406 H   0  0  0  0  0  0  0  0  0  0  0  0  # atno 6908 bound_to 6896
  151.7023  135.0929  160.0304 H   0  0  0  0  0  0  0  0  0  0  0  0  # atno 6909 bound_to 6896
  144.9605  139.4716  143.5482 H   0  0  0  0  0  0  0  0  0  0  0  0  # atno 7974 bound_to 7965
  154.5134  140.2197  155.9112 H   0  0  0  0  0  0  0  0  0  0  0  0  # atno 8008 bound_to 7997
  156.1579  140.3148  155.8723 H   0  0  0  0  0  0  0  0  0  0  0  0  # atno 8009 bound_to 7997
  155.3810  140.0472  157.3034 H   0  0  0  0  0  0  0  0  0  0  0  0  # atno 8010 bound_to 7997
  139.8312  144.6686  150.9398 H   0  0  0  0  0  0  0  0  0  0  0  0  # atno 10167 bound_to 10162
  157.6411  130.9488  150.0679 H   0  0  0  0  0  0  0  0  0  0  0  0  # atno 10718 bound_to 10713
  154.8554  135.3532  154.5826 H   0  0  0  0  0  0  0  0  0  0  0  0  # atno 10763 bound_to 10752
  153.6437  135.6997  153.5237 H   0  0  0  0  0  0  0  0  0  0  0  0  # atno 10764 bound_to 10752
  153.2950  135.4223  155.1160 H   0  0  0  0  0  0  0  0  0  0  0  0  # atno 10765 bound_to 10752
  141.1043  133.8825  157.1759 H   0  0  0  0  0  0  0  0  0  0  0  0  # atno 11005 bound_to 11000
  146.3351  139.8751  142.8833 LP  0  0  0  0  0  0  0  0  0  0  0  0  # atno 17320 bound_to 7965
  145.2707  141.0108  143.3773 LP  0  0  0  0  0  0  0  0  0  0  0  0  # atno 17321 bound_to 7965
  140.7806  143.3999  151.1166 LP  0  0  0  0  0  0  0  0  0  0  0  0  # atno 17342 bound_to 10162
  139.7653  143.8575  152.3109 LP  0  0  0  0  0  0  0  0  0  0  0  0  # atno 17343 bound_to 10162
  156.1692  130.3646  149.9189 LP  0  0  0  0  0  0  0  0  0  0  0  0  # atno 17370 bound_to 10713
  156.7168  130.8991  151.3614 LP  0  0  0  0  0  0  0  0  0  0  0  0  # atno 17371 bound_to 10713
  139.9907  135.0065  156.9968 LP  0  0  0  0  0  0  0  0  0  0  0  0  # atno 17394 bound_to 11000
  140.4942  134.1163  155.7238 LP  0  0  0  0  0  0  0  0  0  0  0  0  # atno 17395 bound_to 11000

$$$$
