AV-unprocessed.smi:1130|AV-procd|sdf|4848|dock1
  -GOLD-   22720 3413D 1   1.00000     0.00000
 Structure written by MMmdl.
 36 37  0  0  0  0  0  0  0  0  1 V2000
  146.5689  135.6817  162.4436 C   0  0  0  0  0  0  0  0  0  0  0  0
  147.3621  135.8181  161.1888 C   0  0  0  0  0  0  0  0  0  0  0  0
  147.8877  134.7584  160.5864 N   0  0  0  0  0  0  0  0  0  0  0  0
  148.5346  135.3087  159.4704 O   0  0  0  0  0  0  0  0  0  0  0  0
  148.3346  136.6463  159.5497 C   0  0  0  0  0  0  0  0  0  0  0  0
  148.8645  137.5216  158.4640 C   0  0  0  0  0  0  0  0  0  0  0  0
  150.3968  137.6320  158.4999 C   0  0  0  0  0  0  0  0  0  0  0  0
  150.8762  138.7587  157.7079 N   0  0  0  0  0  0  0  0  0  0  0  0
  150.4502  140.0228  157.8346 C   0  0  0  0  0  0  0  0  0  0  0  0
  149.5871  140.3834  158.6351 O   0  0  0  0  0  0  0  0  0  0  0  0
  151.0771  140.8459  156.9834 N   0  0  0  0  0  0  0  0  0  0  0  0
  150.8380  142.2810  156.8800 C   0  0  0  0  0  0  0  0  0  0  0  0
  151.0692  143.0057  158.2173 C   0  0  2  0  0  0  0  0  0  0  0  0
  151.1653  144.5307  158.1146 C   0  0  0  0  0  0  0  0  0  0  0  0
  152.1254  144.9183  159.2314 C   0  0  0  0  0  0  0  0  0  0  0  0
  152.6169  143.5808  159.7877 C   0  0  0  0  0  0  0  0  0  0  0  0
  152.3273  142.6433  158.7629 O   0  0  0  0  0  0  0  0  0  0  0  0
  147.5957  137.0191  160.5920 N   0  0  0  0  0  0  0  0  0  0  0  0
  146.1233  134.6888  162.5141 H   0  0  0  0  0  0  0  0  0  0  0  0
  145.7666  136.4196  162.4690 H   0  0  0  0  0  0  0  0  0  0  0  0
  147.2104  135.8364  163.3114 H   0  0  0  0  0  0  0  0  0  0  0  0
  148.5383  137.1200  157.5038 H   0  0  0  0  0  0  0  0  0  0  0  0
  148.4084  138.5074  158.5619 H   0  0  0  0  0  0  0  0  0  0  0  0
  150.7502  137.7197  159.5288 H   0  0  0  0  0  0  0  0  0  0  0  0
  150.8430  136.7231  158.0952 H   0  0  0  0  0  0  0  0  0  0  0  0
  151.5894  138.5625  157.0207 H   0  0  0  0  0  0  0  0  0  0  0  0
  151.7715  140.4545  156.3640 H   0  0  0  0  0  0  0  0  0  0  0  0
  151.4724  142.7107  156.1032 H   0  0  0  0  0  0  0  0  0  0  0  0
  149.8086  142.4280  156.5519 H   0  0  0  0  0  0  0  0  0  0  0  0
  150.2940  142.7327  158.9360 H   0  0  0  0  0  0  0  0  0  0  0  0
  151.5862  144.8259  157.1525 H   0  0  0  0  0  0  0  0  0  0  0  0
  150.1903  145.0086  158.2131 H   0  0  0  0  0  0  0  0  0  0  0  0
  152.9549  145.5007  158.8291 H   0  0  0  0  0  0  0  0  0  0  0  0
  151.6409  145.5148  160.0051 H   0  0  0  0  0  0  0  0  0  0  0  0
  153.6794  143.5906  160.0323 H   0  0  0  0  0  0  0  0  0  0  0  0
  152.0623  143.3105  160.6877 H   0  0  0  0  0  0  0  0  0  0  0  0
  1  2  1  0  0  0  0
  1 19  1  0  0  0  0
  1 20  1  0  0  0  0
  1 21  1  0  0  0  0
  2 18  1  0  0  0  0
  2  3  2  0  0  0  0
  3  4  1  0  0  0  0
  4  5  1  0  0  0  0
  5  6  1  0  0  0  0
  5 18  2  0  0  0  0
  6  7  1  0  0  0  0
  6 22  1  0  0  0  0
  6 23  1  0  0  0  0
  7  8  1  0  0  0  0
  7 24  1  0  0  0  0
  7 25  1  0  0  0  0
  8  9  1  0  0  0  0
  8 26  1  0  0  0  0
  9 10  2  0  0  0  0
  9 11  1  0  0  0  0
 11 12  1  0  0  0  0
 11 27  1  0  0  0  0
 12 13  1  0  0  0  0
 12 28  1  0  0  0  0
 12 29  1  0  0  0  0
 13 17  1  0  0  0  0
 13 14  1  0  0  0  0
 13 30  1  0  0  0  0
 14 15  1  0  0  0  0
 14 31  1  0  0  0  0
 14 32  1  0  0  0  0
 15 16  1  0  0  0  0
 15 33  1  0  0  0  0
 15 34  1  0  0  0  0
 16 17  1  0  0  0  0
 16 35  1  0  0  0  0
 16 36  1  0  0  0  0
M  END
> <s_m_source_file>
AV-unprocessed.smi

> <i_m_source_file_index>
1130

> <i_lp_mmshare_version>
43012

> <i_f3d_flags>
0

> <s_epik_input>
W0NIM11jMW5vYyhuMSlbQ0gyXVtDSDJdW05IXUMoPU8pW05IXVtDSDJdW0NAQEhdMltDSDJdW0NIMl1bQ0gyXU8y

> <s_epik_cmdline>
J2VwaWtfcHl0aG9uJywgJy1waCcsICc3LjAnLCAnLXRuJywgJzgnLCAnLW1hJywgJzIwMCcsICctbWV0YWxfYmluZGluZycsICctaW1hZScsICc8aW5maWxlLm1hZT4nLCAnLW9tYWUnLCAnPG91dGZpbGUubWFlPic=

> <r_lp_tautomer_probability>
1

> <r_epik_Ionization_Penalty>
4.67036e-05

> <r_epik_Ionization_Penalty_Charging>
0

> <r_epik_Ionization_Penalty_Neutral>
4.67036e-05

> <r_epik_State_Penalty>
-0

> <r_epik_Charging_Adjusted_Penalty>
0

> <i_epik_Tot_Q>
0

> <i_epik_Tot_abs_Q>
0

> <r_epik_Metal_State_Penalty>
-0

> <b_epik_Metal_Only>
0

> <s_lp_Force_Field>
OPLS_2005

> <r_lp_Energy>
8.95109

> <b_lp_Chiralities_Consistent>
1

> <s_lp_Variant>
AV-unprocessed.smi:1130-1

> <Gold.Version>
5.8.1

> <Gold.Id.Protein>
6NUR|6NUR_protein|mol2

> <Gold.PLP.Fitness>
39.9232

> <Gold.PLP.PLP>
-32.3335

> <Gold.PLP.part.hbond>
-3.4522

> <Gold.PLP.part.metal>
0.0000

> <Gold.PLP.part.buried>
-3.6480

> <Gold.PLP.part.nonpolar>
-26.8804

> <Gold.PLP.part.repulsive>
0.1180

> <Gold.PLP.ligand.clash>
0.0000

> <Gold.PLP.ligand.torsion>
0.2475

> <Gold.PLP.Chemscore.Hbond>
2.6789

> <Gold.PLP.Chemscore.CHOScore>
0.0000

> <Gold.PLP.Chemscore.Metal>
0.0000

> <Gold.Chemscore.Hbonds>
donor molecule, donor type, donor heavy atom, donor atom, acceptor molecule, acceptor atom, score
      P1  H  6896  6908       L1     4  0.42
      P1  H  6931  6943       L1    18  0.27
      P1  H  6934  6947       L1    18  0.89

> <Gold.PLP.Chemscore.Internal.Correction>
0.0478

> <Gold.Rescore>
     Score         DG    S(hbond)    S(metal)    S(lipo)     H(rot)  DE(clash)    DE(int)     intcor
     11.83     -14.13       1.78        0.00      74.12       2.33       0.10       2.20       ----

> <Gold.Chemscore.Fitness>
11.8269

> <Gold.Chemscore.DG>
-14.1281

> <Gold.Chemscore.ZeroCoef>
-5.4800

> <Gold.Chemscore.Hbond>
1.7779

> <Gold.Chemscore.Metal>
0.0000

> <Gold.Chemscore.Lipo>
74.1152

> <Gold.Chemscore.Internal_Hbond>
0.0000

> <Gold.Chemscore.DEClash>
0.1049

> <Gold.Chemscore.DEInternal>
2.1963

> <Gold.Chemscore.Rot>
2.3288

> <Gold.Chemscore.Internal.Correction>
   9.000000E+99

> <Gold.Chemscore.Hbonds>
donor molecule, donor type, donor heavy atom, donor atom, acceptor molecule, acceptor atom, score
      P1  H  6896  6908       L1     4  0.20
      P1  H  6931  6943       L1    18  0.09
      P1  H  6934  6947       L1    18  0.80

> <Gold.Chemscore.Hbond.Weighted>
-5.9383

> <Gold.Chemscore.Metal.Weighted>
-0.0000

> <Gold.Chemscore.Lipo.Weighted>
-8.6715

> <Gold.Chemscore.Internal_Hbond.Weighted>
0.0000

> <Gold.Chemscore.DEClash.Weighted>
0.1049

> <Gold.Chemscore.DEInternal.Weighted>
2.1963

> <Gold.Chemscore.Rot.Weighted>
5.9617

> <Gold.Chemscore.Internal.Correction.Weighted>
   9.000000E+99

> <Gold.Protein.RotatedTorsions>
[ 6907 6896 6895 6894 ] final  175.86 input  -60.11 | X-H torsion
[ 7974 7965 7964 7962 ] final   57.82 input  175.53 | X-H torsion
[ 8008 7997 7996 7995 ] final  164.18 input   59.86 | X-H torsion
[ 10167 10162 10161 10158 ] final  107.33 input  -65.29 | X-H torsion
[ 10718 10713 10712 10709 ] final   18.14 input   66.30 | X-H torsion
[ 10763 10752 10751 10750 ] final  -49.92 input  -60.55 | X-H torsion
[ 11005 11000 10999 10996 ] final  -26.77 input  -57.11 | X-H torsion

> <Gold.Protein.ActiveResidues>
 VAL166  LYS551  ARG553  GLY616  TRP617  ASP618  TYR619  PRO620  LYS621  CYS622 
 ASP623  PHE694  ASN695  SER759  ASP760  ASP761  ALA762  ILE779  LEU786  VAL792 
 PHE793  MET794  SER795  GLU796  ALA797  LYS798  CYS799  TRP800  GLU811  SER814 

> <Gold.Protein.RotatedAtoms>
  151.7295  133.3317  159.3336 H   0  0  0  0  0  0  0  0  0  0  0  0  # atno 6907 bound_to 6896
  150.7619  134.6376  159.6229 H   0  0  0  0  0  0  0  0  0  0  0  0  # atno 6908 bound_to 6896
  152.3601  134.6887  160.0261 H   0  0  0  0  0  0  0  0  0  0  0  0  # atno 6909 bound_to 6896
  145.9249  139.3759  143.0456 H   0  0  0  0  0  0  0  0  0  0  0  0  # atno 7974 bound_to 7965
  156.1900  140.1703  156.8110 H   0  0  0  0  0  0  0  0  0  0  0  0  # atno 8008 bound_to 7997
  154.5460  140.0727  156.8621 H   0  0  0  0  0  0  0  0  0  0  0  0  # atno 8009 bound_to 7997
  155.3122  140.3368  155.4246 H   0  0  0  0  0  0  0  0  0  0  0  0  # atno 8010 bound_to 7997
  139.6936  144.7104  151.1306 H   0  0  0  0  0  0  0  0  0  0  0  0  # atno 10167 bound_to 10162
  157.0921  130.6432  149.5851 H   0  0  0  0  0  0  0  0  0  0  0  0  # atno 10718 bound_to 10713
  154.1020  135.6562  153.4870 H   0  0  0  0  0  0  0  0  0  0  0  0  # atno 10763 bound_to 10752
  153.0285  135.5227  154.7277 H   0  0  0  0  0  0  0  0  0  0  0  0  # atno 10764 bound_to 10752
  154.6432  135.2991  155.0047 H   0  0  0  0  0  0  0  0  0  0  0  0  # atno 10765 bound_to 10752
  140.9059  133.7493  156.0605 H   0  0  0  0  0  0  0  0  0  0  0  0  # atno 11005 bound_to 11000
  145.8502  140.9533  143.0753 LP  0  0  0  0  0  0  0  0  0  0  0  0  # atno 17320 bound_to 7965
  144.6757  140.0397  143.7481 LP  0  0  0  0  0  0  0  0  0  0  0  0  # atno 17321 bound_to 7965
  140.7690  143.5524  150.9190 LP  0  0  0  0  0  0  0  0  0  0  0  0  # atno 17342 bound_to 10162
  139.9202  143.6615  152.3098 LP  0  0  0  0  0  0  0  0  0  0  0  0  # atno 17343 bound_to 10162
  155.9895  130.4943  150.7217 LP  0  0  0  0  0  0  0  0  0  0  0  0  # atno 17370 bound_to 10713
  157.4712  131.0893  151.0640 LP  0  0  0  0  0  0  0  0  0  0  0  0  # atno 17371 bound_to 10713
  140.8171  134.3332  157.5393 LP  0  0  0  0  0  0  0  0  0  0  0  0  # atno 17394 bound_to 11000
  139.8749  134.9288  156.3460 LP  0  0  0  0  0  0  0  0  0  0  0  0  # atno 17395 bound_to 11000

$$$$
