AV-unprocessed.smi:668|AV-procd|sdf|3262|dock10
  -GOLD-   22720 0213D 1   1.00000     0.00000
 Structure written by MMmdl.
 38 39  0  0  0  0  0  0  0  0  1 V2000
  150.3492  142.1365  157.3727 C   0  0  0  0  0  0  0  0  0  0  0  0
  150.8325  141.5980  156.1469 O   0  0  0  0  0  0  0  0  0  0  0  0
  150.0446  140.6850  155.4766 C   0  0  0  0  0  0  0  0  0  0  0  0
  148.6449  140.7753  155.6110 C   0  0  0  0  0  0  0  0  0  0  0  0
  147.8332  139.8462  154.9323 C   0  0  0  0  0  0  0  0  0  0  0  0
  148.4507  138.8466  154.1426 C   0  0  0  0  0  0  0  0  0  0  0  0
  147.7472  137.8617  153.3972 N   0  0  0  0  0  0  0  0  0  0  0  0
  146.4200  137.6887  153.2748 C   0  0  0  0  0  0  0  0  0  0  0  0
  145.5576  138.3720  153.8259 O   0  0  0  0  0  0  0  0  0  0  0  0
  146.1403  136.6460  152.4799 N   0  0  0  0  0  0  0  0  0  0  0  0
  144.7975  136.1782  152.1392 C   0  0  1  0  0  0  0  0  0  0  0  0
  144.7645  135.6256  150.7042 C   0  0  0  0  0  0  0  0  0  0  0  0
  144.6929  134.1072  150.8460 C   0  0  0  0  0  0  0  0  0  0  0  0
  143.8868  133.8908  152.1229 C   0  0  0  0  0  0  0  0  0  0  0  0
  144.3337  135.0213  153.0663 C   0  0  2  0  0  0  0  0  0  0  0  0
  143.2294  135.4483  154.0461 C   0  0  0  0  0  0  0  0  0  0  0  0
  142.6766  134.4900  154.7938 N   0  0  0  0  0  0  0  0  0  0  0  0
  142.8810  136.6246  154.1303 O   0  0  0  0  0  0  0  0  0  0  0  0
  149.8587  138.8522  154.0623 C   0  0  0  0  0  0  0  0  0  0  0  0
  150.6424  139.7389  154.7109 N   0  0  0  0  0  0  0  0  0  0  0  0
  151.0814  142.8381  157.7717 H   0  0  0  0  0  0  0  0  0  0  0  0
  150.1979  141.3561  158.1202 H   0  0  0  0  0  0  0  0  0  0  0  0
  149.4146  142.6807  157.2281 H   0  0  0  0  0  0  0  0  0  0  0  0
  148.2003  141.5471  156.2219 H   0  0  0  0  0  0  0  0  0  0  0  0
  146.7617  139.9297  155.0224 H   0  0  0  0  0  0  0  0  0  0  0  0
  148.3268  137.1723  152.9410 H   0  0  0  0  0  0  0  0  0  0  0  0
  146.9126  136.1380  152.0743 H   0  0  0  0  0  0  0  0  0  0  0  0
  144.1195  137.0334  152.1874 H   0  0  0  0  0  0  0  0  0  0  0  0
  143.8608  135.9790  150.2056 H   0  0  0  0  0  0  0  0  0  0  0  0
  145.6114  135.9450  150.0950 H   0  0  0  0  0  0  0  0  0  0  0  0
  144.2430  133.6245  149.9777 H   0  0  0  0  0  0  0  0  0  0  0  0
  145.6975  133.7013  150.9718 H   0  0  0  0  0  0  0  0  0  0  0  0
  142.8225  133.9601  151.8921 H   0  0  0  0  0  0  0  0  0  0  0  0
  144.0646  132.9036  152.5506 H   0  0  0  0  0  0  0  0  0  0  0  0
  145.1894  134.6512  153.6350 H   0  0  0  0  0  0  0  0  0  0  0  0
  141.9373  134.7184  155.4422 H   0  0  0  0  0  0  0  0  0  0  0  0
  142.9918  133.5358  154.6967 H   0  0  0  0  0  0  0  0  0  0  0  0
  150.3760  138.1188  153.4612 H   0  0  0  0  0  0  0  0  0  0  0  0
  1  2  1  0  0  0  0
  1 21  1  0  0  0  0
  1 22  1  0  0  0  0
  1 23  1  0  0  0  0
  2  3  1  0  0  0  0
  3 20  1  0  0  0  0
  3  4  2  0  0  0  0
  4  5  1  0  0  0  0
  4 24  1  0  0  0  0
  5  6  2  0  0  0  0
  5 25  1  0  0  0  0
  6  7  1  0  0  0  0
  6 19  1  0  0  0  0
  7  8  1  0  0  0  0
  7 26  1  0  0  0  0
  8  9  2  0  0  0  0
  8 10  1  0  0  0  0
 10 11  1  0  0  0  0
 10 27  1  0  0  0  0
 11 15  1  0  0  0  0
 11 12  1  0  0  0  0
 11 28  1  0  0  0  0
 12 13  1  0  0  0  0
 12 29  1  0  0  0  0
 12 30  1  0  0  0  0
 13 14  1  0  0  0  0
 13 31  1  0  0  0  0
 13 32  1  0  0  0  0
 14 15  1  0  0  0  0
 14 33  1  0  0  0  0
 14 34  1  0  0  0  0
 15 16  1  0  0  0  0
 15 35  1  0  0  0  0
 16 17  1  0  0  0  0
 16 18  2  0  0  0  0
 17 36  1  0  0  0  0
 17 37  1  0  0  0  0
 19 20  2  0  0  0  0
 19 38  1  0  0  0  0
M  END
> <s_m_source_file>
AV-unprocessed.smi

> <i_m_source_file_index>
668

> <i_lp_mmshare_version>
43012

> <i_f3d_flags>
0

> <s_epik_input>
W0NIM11PYzFbY0hdW2NIXWMoW2NIXW4xKVtOSF1DKD1PKVtOSF1bQ0BASF0yW0NIMl1bQ0gyXVtDSDJdW0NASF0yQyg9TylbTkgyXQ==

> <s_epik_cmdline>
J2VwaWtfcHl0aG9uJywgJy1waCcsICc3LjAnLCAnLXRuJywgJzgnLCAnLW1hJywgJzIwMCcsICctbWV0YWxfYmluZGluZycsICctaW1hZScsICc8aW5maWxlLm1hZT4nLCAnLW9tYWUnLCAnPG91dGZpbGUubWFlPic=

> <r_lp_tautomer_probability>
1

> <r_epik_Ionization_Penalty>
9.0916e-05

> <r_epik_Ionization_Penalty_Charging>
0

> <r_epik_Ionization_Penalty_Neutral>
9.0916e-05

> <r_epik_State_Penalty>
-0

> <r_epik_Charging_Adjusted_Penalty>
0

> <i_epik_Tot_Q>
0

> <i_epik_Tot_abs_Q>
0

> <r_epik_Metal_State_Penalty>
-0

> <b_epik_Metal_Only>
0

> <s_lp_Force_Field>
OPLS_2005

> <r_lp_Energy>
17.404

> <b_lp_Chiralities_Consistent>
1

> <s_lp_Variant>
AV-unprocessed.smi:668-4

> <Gold.Version>
5.8.1

> <Gold.Id.Protein>
6NUR|6NUR_protein|mol2

> <Gold.PLP.Fitness>
40.8490

> <Gold.PLP.PLP>
-27.4481

> <Gold.PLP.part.hbond>
-5.0000

> <Gold.PLP.part.metal>
0.0000

> <Gold.PLP.part.buried>
-5.4204

> <Gold.PLP.part.nonpolar>
-19.1900

> <Gold.PLP.part.repulsive>
0.5222

> <Gold.PLP.ligand.clash>
0.0000

> <Gold.PLP.ligand.torsion>
0.8040

> <Gold.PLP.Chemscore.Hbond>
4.7272

> <Gold.PLP.Chemscore.CHOScore>
0.2748

> <Gold.PLP.Chemscore.Metal>
0.0000

> <Gold.Chemscore.Hbonds>
donor molecule, donor type, donor heavy atom, donor atom, acceptor molecule, acceptor atom, score
      L1  H     7    26       P1  7948  1.00
      L1  H    10    27       P1  7948  0.84
      L1  H    17    36       P1 11000  0.88
      L1  H    17    37       P1 10957  0.99
      P1  H  7989  7998       L1    20  1.00
      L1  C    19    38       P1  7948  0.27

> <Gold.PLP.Chemscore.Internal.Correction>
0.0031

> <Gold.Rescore>
     Score         DG    S(hbond)    S(metal)    S(lipo)     H(rot)  DE(clash)    DE(int)     intcor
     16.99     -19.07       3.78        0.00      49.08       1.86       0.01       2.07       ----

> <Gold.Chemscore.Fitness>
16.9894

> <Gold.Chemscore.DG>
-19.0691

> <Gold.Chemscore.ZeroCoef>
-5.4800

> <Gold.Chemscore.Hbond>
3.7785

> <Gold.Chemscore.Metal>
0.0000

> <Gold.Chemscore.Lipo>
49.0824

> <Gold.Chemscore.Internal_Hbond>
0.0000

> <Gold.Chemscore.DEClash>
0.0050

> <Gold.Chemscore.DEInternal>
2.0746

> <Gold.Chemscore.Rot>
1.8648

> <Gold.Chemscore.Internal.Correction>
   9.000000E+99

> <Gold.Chemscore.Hbonds>
donor molecule, donor type, donor heavy atom, donor atom, acceptor molecule, acceptor atom, score
      L1  H     7    26       P1  7948  0.96
      L1  H    10    27       P1  7948  0.77
      L1  H    17    36       P1 11000  0.32
      L1  H    17    37       P1 10957  0.93
      P1  H  7989  7998       L1    20  0.21

> <Gold.Chemscore.Hbond.Weighted>
-12.6203

> <Gold.Chemscore.Metal.Weighted>
-0.0000

> <Gold.Chemscore.Lipo.Weighted>
-5.7426

> <Gold.Chemscore.Internal_Hbond.Weighted>
0.0000

> <Gold.Chemscore.DEClash.Weighted>
0.0050

> <Gold.Chemscore.DEInternal.Weighted>
2.0746

> <Gold.Chemscore.Rot.Weighted>
4.7739

> <Gold.Chemscore.Internal.Correction.Weighted>
   9.000000E+99

> <Gold.Protein.RotatedTorsions>
[ 6907 6896 6895 6894 ] final -173.06 input  -60.11 | X-H torsion
[ 7974 7965 7964 7962 ] final -179.67 input  175.53 | X-H torsion
[ 8008 7997 7996 7995 ] final  -17.30 input   59.86 | X-H torsion
[ 10167 10162 10161 10158 ] final  148.33 input  -65.29 | X-H torsion
[ 10718 10713 10712 10709 ] final  177.12 input   66.30 | X-H torsion
[ 10763 10752 10751 10750 ] final  155.06 input  -60.55 | X-H torsion
[ 11005 11000 10999 10996 ] final  154.43 input  -57.11 | X-H torsion

> <Gold.Protein.ActiveResidues>
 VAL166  LYS551  ARG553  GLY616  TRP617  ASP618  TYR619  PRO620  LYS621  CYS622 
 ASP623  PHE694  ASN695  SER759  ASP760  ASP761  ALA762  ILE779  LEU786  VAL792 
 PHE793  MET794  SER795  GLU796  ALA797  LYS798  CYS799  TRP800  GLU811  SER814 

> <Gold.Protein.RotatedAtoms>
  151.5500  133.3419  159.2950 H   0  0  0  0  0  0  0  0  0  0  0  0  # atno 6907 bound_to 6896
  150.8484  134.7804  159.7000 H   0  0  0  0  0  0  0  0  0  0  0  0  # atno 6908 bound_to 6896
  152.4536  134.5347  159.9873 H   0  0  0  0  0  0  0  0  0  0  0  0  # atno 6909 bound_to 6896
  144.7138  140.0682  143.6430 H   0  0  0  0  0  0  0  0  0  0  0  0  # atno 7974 bound_to 7965
  154.4989  140.2146  155.9389 H   0  0  0  0  0  0  0  0  0  0  0  0  # atno 8008 bound_to 7997
  156.1407  140.3180  155.8458 H   0  0  0  0  0  0  0  0  0  0  0  0  # atno 8009 bound_to 7997
  155.4126  140.0491  157.3021 H   0  0  0  0  0  0  0  0  0  0  0  0  # atno 8010 bound_to 7997
  139.4876  144.5687  151.7095 H   0  0  0  0  0  0  0  0  0  0  0  0  # atno 10167 bound_to 10162
  156.9101  130.9907  151.3022 H   0  0  0  0  0  0  0  0  0  0  0  0  # atno 10718 bound_to 10713
  154.1623  135.2809  155.3105 H   0  0  0  0  0  0  0  0  0  0  0  0  # atno 10763 bound_to 10752
  154.6138  135.5490  153.7504 H   0  0  0  0  0  0  0  0  0  0  0  0  # atno 10764 bound_to 10752
  153.0189  135.6422  154.1764 H   0  0  0  0  0  0  0  0  0  0  0  0  # atno 10765 bound_to 10752
  140.1488  134.8689  157.2428 H   0  0  0  0  0  0  0  0  0  0  0  0  # atno 11005 bound_to 11000
  145.9806  139.2938  143.1044 LP  0  0  0  0  0  0  0  0  0  0  0  0  # atno 17320 bound_to 7965
  145.9015  140.9240  143.0500 LP  0  0  0  0  0  0  0  0  0  0  0  0  # atno 17321 bound_to 7965
  140.5271  144.0789  150.6041 LP  0  0  0  0  0  0  0  0  0  0  0  0  # atno 17342 bound_to 10162
  140.3767  143.2825  152.0217 LP  0  0  0  0  0  0  0  0  0  0  0  0  # atno 17343 bound_to 10162
  157.5973  130.8486  149.8748 LP  0  0  0  0  0  0  0  0  0  0  0  0  # atno 17370 bound_to 10713
  156.0540  130.3712  150.1134 LP  0  0  0  0  0  0  0  0  0  0  0  0  # atno 17371 bound_to 10713
  140.2630  134.3549  155.7400 LP  0  0  0  0  0  0  0  0  0  0  0  0  # atno 17394 bound_to 11000
  141.2196  133.7380  156.9108 LP  0  0  0  0  0  0  0  0  0  0  0  0  # atno 17395 bound_to 11000

$$$$
