AV-unprocessed.smi:558|AV-procd|sdf|2923|dock6
  -GOLD-   2262023413D 1   1.00000     0.00000
 Structure written by MMmdl.
 36 37  0  0  0  0  0  0  0  0  1 V2000
  152.1368  144.1802  160.8615 C   0  0  0  0  0  0  0  0  0  0  0  0
  152.6426  142.8198  160.4824 C   0  0  0  0  0  0  0  0  0  0  0  0
  153.8851  142.2143  160.8197 C   0  0  0  0  0  0  0  0  0  0  0  0
  153.8351  140.9852  160.2247 C   0  0  0  0  0  0  0  0  0  0  0  0
  154.8436  139.8831  160.2165 C   0  0  0  0  0  0  0  0  0  0  0  0
  152.6128  140.9009  159.5793 N   0  0  0  0  0  0  0  0  0  0  0  0
  152.0543  139.8076  158.7989 C   0  0  0  0  0  0  0  0  0  0  0  0
  151.8341  140.2192  157.3420 C   0  0  0  0  0  0  0  0  0  0  0  0
  152.5772  139.7869  156.4615 O   0  0  0  0  0  0  0  0  0  0  0  0
  150.8087  141.0516  157.1037 N   0  0  0  0  0  0  0  0  0  0  0  0
  150.4230  141.5719  155.7962 C   0  0  0  0  0  0  0  0  0  0  0  0
  149.1360  140.9068  155.2748 C   0  0  1  0  0  0  0  0  0  0  0  0
  148.4712  141.6633  154.1432 C   0  0  0  0  0  0  0  0  0  0  0  0
  147.5527  140.5997  153.5489 C   0  0  0  0  0  0  0  0  0  0  0  0
  148.2085  139.3534  153.7653 O   0  0  0  0  0  0  0  0  0  0  0  0
  149.3274  139.5332  154.6287 C   0  0  0  0  0  0  0  0  0  0  0  0
  151.8864  142.0289  159.7399 N   0  0  0  0  0  0  0  0  0  0  0  0
  152.8883  144.7385  161.4200 H   0  0  0  0  0  0  0  0  0  0  0  0
  151.2460  144.1072  161.4858 H   0  0  0  0  0  0  0  0  0  0  0  0
  151.8790  144.7642  159.9777 H   0  0  0  0  0  0  0  0  0  0  0  0
  154.6923  142.6217  161.4105 H   0  0  0  0  0  0  0  0  0  0  0  0
  155.7925  140.2230  160.6315 H   0  0  0  0  0  0  0  0  0  0  0  0
  155.0329  139.5286  159.2034 H   0  0  0  0  0  0  0  0  0  0  0  0
  154.5008  139.0396  160.8157 H   0  0  0  0  0  0  0  0  0  0  0  0
  152.7330  138.9538  158.8369 H   0  0  0  0  0  0  0  0  0  0  0  0
  151.1179  139.4828  159.2537 H   0  0  0  0  0  0  0  0  0  0  0  0
  150.2534  141.3519  157.8916 H   0  0  0  0  0  0  0  0  0  0  0  0
  150.2594  142.6443  155.9045 H   0  0  0  0  0  0  0  0  0  0  0  0
  151.2350  141.4602  155.0756 H   0  0  0  0  0  0  0  0  0  0  0  0
  148.4193  140.8125  156.0926 H   0  0  0  0  0  0  0  0  0  0  0  0
  147.9320  142.5499  154.4777 H   0  0  0  0  0  0  0  0  0  0  0  0
  149.2119  141.9721  153.4040 H   0  0  0  0  0  0  0  0  0  0  0  0
  146.5983  140.5847  154.0765 H   0  0  0  0  0  0  0  0  0  0  0  0
  147.3518  140.7672  152.4905 H   0  0  0  0  0  0  0  0  0  0  0  0
  150.2343  139.5141  154.0227 H   0  0  0  0  0  0  0  0  0  0  0  0
  149.3954  138.7302  155.3631 H   0  0  0  0  0  0  0  0  0  0  0  0
  1  2  1  0  0  0  0
  1 18  1  0  0  0  0
  1 19  1  0  0  0  0
  1 20  1  0  0  0  0
  2 17  2  0  0  0  0
  2  3  1  0  0  0  0
  3  4  2  0  0  0  0
  3 21  1  0  0  0  0
  4  5  1  0  0  0  0
  4  6  1  0  0  0  0
  5 22  1  0  0  0  0
  5 23  1  0  0  0  0
  5 24  1  0  0  0  0
  6  7  1  0  0  0  0
  6 17  1  0  0  0  0
  7  8  1  0  0  0  0
  7 25  1  0  0  0  0
  7 26  1  0  0  0  0
  8  9  2  0  0  0  0
  8 10  1  0  0  0  0
 10 11  1  0  0  0  0
 10 27  1  0  0  0  0
 11 12  1  0  0  0  0
 11 28  1  0  0  0  0
 11 29  1  0  0  0  0
 12 16  1  0  0  0  0
 12 13  1  0  0  0  0
 12 30  1  0  0  0  0
 13 14  1  0  0  0  0
 13 31  1  0  0  0  0
 13 32  1  0  0  0  0
 14 15  1  0  0  0  0
 14 33  1  0  0  0  0
 14 34  1  0  0  0  0
 15 16  1  0  0  0  0
 16 35  1  0  0  0  0
 16 36  1  0  0  0  0
M  END
> <s_m_source_file>
AV-unprocessed.smi

> <i_m_source_file_index>
558

> <i_lp_mmshare_version>
43012

> <i_f3d_flags>
0

> <s_epik_input>
W0NIM11jMVtjSF1jKFtDSDNdKW4objEpW0NIMl1DKD1PKVtOSF1bQ0gyXVtDQEBIXTJbQ0gyXVtDSDJdT1tDSDJdMg==

> <s_epik_cmdline>
J2VwaWtfcHl0aG9uJywgJy1waCcsICc3LjAnLCAnLXRuJywgJzgnLCAnLW1hJywgJzIwMCcsICctbWV0YWxfYmluZGluZycsICctaW1hZScsICc8aW5maWxlLm1hZT4nLCAnLW9tYWUnLCAnPG91dGZpbGUubWFlPic=

> <r_lp_tautomer_probability>
1

> <r_epik_Ionization_Penalty>
0.000376629

> <r_epik_Ionization_Penalty_Charging>
0

> <r_epik_Ionization_Penalty_Neutral>
0.000376629

> <r_epik_State_Penalty>
-0

> <r_epik_Charging_Adjusted_Penalty>
0

> <i_epik_Tot_Q>
0

> <i_epik_Tot_abs_Q>
0

> <r_epik_Metal_State_Penalty>
-0

> <b_epik_Metal_Only>
0

> <s_lp_Force_Field>
OPLS_2005

> <r_lp_Energy>
17.6381

> <b_lp_Chiralities_Consistent>
1

> <s_lp_Variant>
AV-unprocessed.smi:558-2

> <Gold.Version>
5.8.1

> <Gold.Id.Protein>
6NUR|6NUR_protein|mol2

> <Gold.PLP.Fitness>
39.1634

> <Gold.PLP.PLP>
-36.9682

> <Gold.PLP.part.hbond>
-1.3556

> <Gold.PLP.part.metal>
0.0000

> <Gold.PLP.part.buried>
-4.0418

> <Gold.PLP.part.nonpolar>
-31.2665

> <Gold.PLP.part.repulsive>
0.7489

> <Gold.PLP.ligand.clash>
0.0000

> <Gold.PLP.ligand.torsion>
0.4117

> <Gold.PLP.Chemscore.Hbond>
1.0000

> <Gold.PLP.Chemscore.CHOScore>
0.0000

> <Gold.PLP.Chemscore.Metal>
0.0000

> <Gold.Chemscore.Hbonds>
donor molecule, donor type, donor heavy atom, donor atom, acceptor molecule, acceptor atom, score
      P1  H  7997  8010       L1     9  1.00

> <Gold.PLP.Chemscore.Internal.Correction>
0.0186

> <Gold.Rescore>
     Score         DG    S(hbond)    S(metal)    S(lipo)     H(rot)  DE(clash)    DE(int)     intcor
     15.25     -15.78       1.00        0.00      93.25       1.54       0.09       0.45       ----

> <Gold.Chemscore.Fitness>
15.2454

> <Gold.Chemscore.DG>
-15.7777

> <Gold.Chemscore.ZeroCoef>
-5.4800

> <Gold.Chemscore.Hbond>
0.9960

> <Gold.Chemscore.Metal>
0.0000

> <Gold.Chemscore.Lipo>
93.2508

> <Gold.Chemscore.Internal_Hbond>
0.0000

> <Gold.Chemscore.DEClash>
0.0853

> <Gold.Chemscore.DEInternal>
0.4470

> <Gold.Chemscore.Rot>
1.5387

> <Gold.Chemscore.Internal.Correction>
   9.000000E+99

> <Gold.Chemscore.Hbonds>
donor molecule, donor type, donor heavy atom, donor atom, acceptor molecule, acceptor atom, score
      P1  H  7997  8010       L1     9  0.98

> <Gold.Chemscore.Hbond.Weighted>
-3.3266

> <Gold.Chemscore.Metal.Weighted>
-0.0000

> <Gold.Chemscore.Lipo.Weighted>
-10.9103

> <Gold.Chemscore.Internal_Hbond.Weighted>
0.0000

> <Gold.Chemscore.DEClash.Weighted>
0.0853

> <Gold.Chemscore.DEInternal.Weighted>
0.4470

> <Gold.Chemscore.Rot.Weighted>
3.9392

> <Gold.Chemscore.Internal.Correction.Weighted>
   9.000000E+99

> <Gold.Protein.RotatedTorsions>
[ 6907 6896 6895 6894 ] final -147.22 input  -60.11 | X-H torsion
[ 7974 7965 7964 7962 ] final -161.45 input  175.53 | X-H torsion
[ 8008 7997 7996 7995 ] final   88.09 input   59.86 | X-H torsion
[ 10167 10162 10161 10158 ] final   73.28 input  -65.29 | X-H torsion
[ 10718 10713 10712 10709 ] final  -67.36 input   66.30 | X-H torsion
[ 10763 10752 10751 10750 ] final  -79.98 input  -60.55 | X-H torsion
[ 11005 11000 10999 10996 ] final -101.63 input  -57.11 | X-H torsion

> <Gold.Protein.ActiveResidues>
 VAL166  LYS551  ARG553  GLY616  TRP617  ASP618  TYR619  PRO620  LYS621  CYS622 
 ASP623  PHE694  ASN695  SER759  ASP760  ASP761  ALA762  ILE779  LEU786  VAL792 
 PHE793  MET794  SER795  GLU796  ALA797  LYS798  CYS799  TRP800  GLU811  SER814 

> <Gold.Protein.RotatedAtoms>
  151.1527  133.4897  159.2594 H   0  0  0  0  0  0  0  0  0  0  0  0  # atno 6907 bound_to 6896
  151.1537  135.0239  159.8690 H   0  0  0  0  0  0  0  0  0  0  0  0  # atno 6908 bound_to 6896
  152.5463  134.1408  159.8531 H   0  0  0  0  0  0  0  0  0  0  0  0  # atno 6909 bound_to 6896
  144.7391  140.3396  143.6137 H   0  0  0  0  0  0  0  0  0  0  0  0  # atno 7974 bound_to 7965
  155.9835  140.3375  155.6685 H   0  0  0  0  0  0  0  0  0  0  0  0  # atno 8008 bound_to 7997
  155.6516  140.0706  157.2603 H   0  0  0  0  0  0  0  0  0  0  0  0  # atno 8009 bound_to 7997
  154.4198  140.1724  156.1668 H   0  0  0  0  0  0  0  0  0  0  0  0  # atno 8010 bound_to 7997
  140.0262  144.5502  150.7543 H   0  0  0  0  0  0  0  0  0  0  0  0  # atno 10167 bound_to 10162
  156.0562  130.4276  150.1843 H   0  0  0  0  0  0  0  0  0  0  0  0  # atno 10718 bound_to 10713
  154.5454  135.5677  153.6876 H   0  0  0  0  0  0  0  0  0  0  0  0  # atno 10763 bound_to 10752
  152.9975  135.6238  154.2445 H   0  0  0  0  0  0  0  0  0  0  0  0  # atno 10764 bound_to 10752
  154.2378  135.2863  155.2845 H   0  0  0  0  0  0  0  0  0  0  0  0  # atno 10765 bound_to 10752
  141.1223  133.8493  157.1256 H   0  0  0  0  0  0  0  0  0  0  0  0  # atno 11005 bound_to 11000
  145.7388  139.1758  143.2388 LP  0  0  0  0  0  0  0  0  0  0  0  0  # atno 17320 bound_to 7965
  146.1150  140.7381  142.9485 LP  0  0  0  0  0  0  0  0  0  0  0  0  # atno 17321 bound_to 7965
  140.7321  143.2702  151.3912 LP  0  0  0  0  0  0  0  0  0  0  0  0  # atno 17342 bound_to 10162
  139.6106  144.1105  152.2295 LP  0  0  0  0  0  0  0  0  0  0  0  0  # atno 17343 bound_to 10162
  156.9919  130.9896  151.3412 LP  0  0  0  0  0  0  0  0  0  0  0  0  # atno 17370 bound_to 10713
  157.5533  130.8197  149.8173 LP  0  0  0  0  0  0  0  0  0  0  0  0  # atno 17371 bound_to 10713
  140.0190  134.9954  157.0554 LP  0  0  0  0  0  0  0  0  0  0  0  0  # atno 17394 bound_to 11000
  140.4471  134.1621  155.7178 LP  0  0  0  0  0  0  0  0  0  0  0  0  # atno 17395 bound_to 11000

$$$$
