AV-unprocessed.smi:1920|AV-procd|sdf|7782|dock1
  -GOLD-   22720 9523D 1   1.00000     0.00000
 Structure written by MMmdl.
 36 37  0  0  0  0  0  0  0  0  1 V2000
  150.5407  138.4849  158.2451 C   0  0  0  0  0  0  0  0  0  0  0  0
  152.0645  138.6370  158.3724 C   0  0  1  0  0  0  0  0  0  0  0  0
  152.7694  138.3933  157.0245 C   0  0  0  0  0  0  0  0  0  0  0  0
  151.9170  138.7065  155.8922 N   0  0  0  0  0  0  0  0  0  0  0  0
  151.5522  137.8548  154.8579 C   0  0  0  0  0  0  0  0  0  0  0  0
  150.7425  138.5831  154.0160 C   0  0  0  0  0  0  0  0  0  0  0  0
  150.5941  139.8766  154.5112 N   0  0  0  0  0  0  0  0  0  0  0  0
  151.3162  139.8740  155.6242 C   0  0  0  0  0  0  0  0  0  0  0  0
  152.3892  139.9701  158.8755 N   0  0  0  0  0  0  0  0  0  0  0  0
  153.6113  140.3877  159.2392 C   0  0  0  0  0  0  0  0  0  0  0  0
  154.6159  139.6788  159.1776 O   0  0  0  0  0  0  0  0  0  0  0  0
  153.7152  141.8261  159.7563 C   0  0  0  0  0  0  0  0  0  0  0  0
  152.3842  142.6047  159.6718 C   0  0  2  0  0  0  0  0  0  0  0  0
  152.1685  143.3006  158.3489 C   0  0  0  0  0  0  0  0  0  0  0  0
  151.8702  144.5900  158.4900 C   0  0  0  0  0  0  0  0  0  0  0  0
  151.8262  145.0157  159.9313 C   0  0  0  0  0  0  0  0  0  0  0  0
  152.2828  143.7576  160.7029 C   0  0  0  0  0  0  0  0  0  0  0  0
  150.2750  137.4884  157.8914 H   0  0  0  0  0  0  0  0  0  0  0  0
  150.1267  139.2091  157.5429 H   0  0  0  0  0  0  0  0  0  0  0  0
  150.0462  138.6325  159.2057 H   0  0  0  0  0  0  0  0  0  0  0  0
  152.4217  137.8867  159.0806 H   0  0  0  0  0  0  0  0  0  0  0  0
  153.6635  139.0138  156.9504 H   0  0  0  0  0  0  0  0  0  0  0  0
  153.1010  137.3568  156.9433 H   0  0  0  0  0  0  0  0  0  0  0  0
  151.8920  136.8309  154.8067 H   0  0  0  0  0  0  0  0  0  0  0  0
  150.2588  138.2777  153.0999 H   0  0  0  0  0  0  0  0  0  0  0  0
  151.4136  140.7434  156.2579 H   0  0  0  0  0  0  0  0  0  0  0  0
  151.6240  140.6236  158.9592 H   0  0  0  0  0  0  0  0  0  0  0  0
  154.0503  141.7870  160.7933 H   0  0  0  0  0  0  0  0  0  0  0  0
  154.4903  142.3593  159.2031 H   0  0  0  0  0  0  0  0  0  0  0  0
  151.5475  141.9197  159.8173 H   0  0  0  0  0  0  0  0  0  0  0  0
  152.2358  142.7817  157.4038 H   0  0  0  0  0  0  0  0  0  0  0  0
  151.6619  145.2734  157.6801 H   0  0  0  0  0  0  0  0  0  0  0  0
  152.4890  145.8636  160.1059 H   0  0  0  0  0  0  0  0  0  0  0  0
  150.8096  145.3053  160.1983 H   0  0  0  0  0  0  0  0  0  0  0  0
  151.5913  143.5110  161.5093 H   0  0  0  0  0  0  0  0  0  0  0  0
  153.2526  143.9486  161.1645 H   0  0  0  0  0  0  0  0  0  0  0  0
  1  2  1  0  0  0  0
  1 18  1  0  0  0  0
  1 19  1  0  0  0  0
  1 20  1  0  0  0  0
  2  3  1  0  0  0  0
  2  9  1  0  0  0  0
  2 21  1  0  0  0  0
  3  4  1  0  0  0  0
  3 22  1  0  0  0  0
  3 23  1  0  0  0  0
  4  8  1  0  0  0  0
  4  5  1  0  0  0  0
  5  6  2  0  0  0  0
  5 24  1  0  0  0  0
  6  7  1  0  0  0  0
  6 25  1  0  0  0  0
  7  8  2  0  0  0  0
  8 26  1  0  0  0  0
  9 10  1  0  0  0  0
  9 27  1  0  0  0  0
 10 11  2  0  0  0  0
 10 12  1  0  0  0  0
 12 13  1  0  0  0  0
 12 28  1  0  0  0  0
 12 29  1  0  0  0  0
 13 17  1  0  0  0  0
 13 14  1  0  0  0  0
 13 30  1  0  0  0  0
 14 15  2  0  0  0  0
 14 31  1  0  0  0  0
 15 16  1  0  0  0  0
 15 32  1  0  0  0  0
 16 17  1  0  0  0  0
 16 33  1  0  0  0  0
 16 34  1  0  0  0  0
 17 35  1  0  0  0  0
 17 36  1  0  0  0  0
M  END
> <s_m_source_file>
AV-unprocessed.smi

> <i_m_source_file_index>
1920

> <i_lp_mmshare_version>
43012

> <i_f3d_flags>
0

> <s_epik_input>
W2NIXTFuW2NIXVtjSF1uMVtDSDJdW0NAQEhdKFtDSDNdKVtOSF1DKD1PKVtDSDJdW0NAQEhdMltDSF09W0NIXVtDSDJdW0NIMl0y

> <s_epik_cmdline>
J2VwaWtfcHl0aG9uJywgJy1waCcsICc3LjAnLCAnLXRuJywgJzgnLCAnLW1hJywgJzIwMCcsICctbWV0YWxfYmluZGluZycsICctaW1hZScsICc8aW5maWxlLm1hZT4nLCAnLW9tYWUnLCAnPG91dGZpbGUubWFlPic=

> <r_lp_tautomer_probability>
1

> <r_epik_Ionization_Penalty>
0.635367

> <r_epik_Ionization_Penalty_Charging>
0.635367

> <r_epik_Ionization_Penalty_Neutral>
2.1249e-08

> <r_epik_State_Penalty>
0.65258

> <r_epik_Charging_Adjusted_Penalty>
1.28795

> <i_epik_Tot_Q>
0

> <i_epik_Tot_abs_Q>
0

> <r_epik_Metal_State_Penalty>
0.310403

> <b_epik_Metal_Only>
0

> <s_lp_Force_Field>
OPLS_2005

> <r_lp_Energy>
19.6981

> <b_lp_Chiralities_Consistent>
1

> <s_lp_Variant>
AV-unprocessed.smi:1920-6

> <Gold.Version>
5.8.1

> <Gold.Id.Protein>
6NUR|6NUR_protein|mol2

> <Gold.PLP.Fitness>
49.8763

> <Gold.PLP.PLP>
-41.0720

> <Gold.PLP.part.hbond>
-2.0000

> <Gold.PLP.part.metal>
0.0000

> <Gold.PLP.part.buried>
-4.9686

> <Gold.PLP.part.nonpolar>
-34.3778

> <Gold.PLP.part.repulsive>
0.2207

> <Gold.PLP.ligand.clash>
0.0000

> <Gold.PLP.ligand.torsion>
0.8212

> <Gold.PLP.Chemscore.Hbond>
2.0000

> <Gold.PLP.Chemscore.CHOScore>
1.4370

> <Gold.PLP.Chemscore.Metal>
0.0000

> <Gold.Chemscore.Hbonds>
donor molecule, donor type, donor heavy atom, donor atom, acceptor molecule, acceptor atom, score
      P1  H  7989  7998       L1     7  1.00
      P1  H  7997  8010       L1    11  1.00
      L1  C     6    25       P1  7948  0.63
      L1  C     6    25       P1  7957  0.54

> <Gold.PLP.Chemscore.Internal.Correction>
0.1357

> <Gold.Rescore>
     Score         DG    S(hbond)    S(metal)    S(lipo)     H(rot)  DE(clash)    DE(int)     intcor
     14.03     -14.83       0.76        0.00     100.52       1.93       0.26       0.54       ----

> <Gold.Chemscore.Fitness>
14.0289

> <Gold.Chemscore.DG>
-14.8311

> <Gold.Chemscore.ZeroCoef>
-5.4800

> <Gold.Chemscore.Hbond>
0.7584

> <Gold.Chemscore.Metal>
0.0000

> <Gold.Chemscore.Lipo>
100.5175

> <Gold.Chemscore.Internal_Hbond>
0.0000

> <Gold.Chemscore.DEClash>
0.2608

> <Gold.Chemscore.DEInternal>
0.5414

> <Gold.Chemscore.Rot>
1.9306

> <Gold.Chemscore.Internal.Correction>
   9.000000E+99

> <Gold.Chemscore.Hbonds>
donor molecule, donor type, donor heavy atom, donor atom, acceptor molecule, acceptor atom, score
      P1  H  7989  7998       L1     7  0.13
      P1  H  7997  8010       L1    11  0.38

> <Gold.Chemscore.Hbond.Weighted>
-2.5330

> <Gold.Chemscore.Metal.Weighted>
-0.0000

> <Gold.Chemscore.Lipo.Weighted>
-11.7605

> <Gold.Chemscore.Internal_Hbond.Weighted>
0.0000

> <Gold.Chemscore.DEClash.Weighted>
0.2608

> <Gold.Chemscore.DEInternal.Weighted>
0.5414

> <Gold.Chemscore.Rot.Weighted>
4.9424

> <Gold.Chemscore.Internal.Correction.Weighted>
   9.000000E+99

> <Gold.Protein.RotatedTorsions>
[ 6907 6896 6895 6894 ] final -106.76 input  -60.11 | X-H torsion
[ 7974 7965 7964 7962 ] final   41.87 input  175.53 | X-H torsion
[ 8008 7997 7996 7995 ] final  -12.22 input   59.86 | X-H torsion
[ 10167 10162 10161 10158 ] final  178.27 input  -65.29 | X-H torsion
[ 10718 10713 10712 10709 ] final   -4.09 input   66.30 | X-H torsion
[ 10763 10752 10751 10750 ] final  -79.07 input  -60.55 | X-H torsion
[ 11005 11000 10999 10996 ] final    3.97 input  -57.11 | X-H torsion

> <Gold.Protein.ActiveResidues>
 VAL166  LYS551  ARG553  GLY616  TRP617  ASP618  TYR619  PRO620  LYS621  CYS622 
 ASP623  PHE694  ASN695  SER759  ASP760  ASP761  ALA762  ILE779  LEU786  VAL792 
 PHE793  MET794  SER795  GLU796  ALA797  LYS798  CYS799  TRP800  GLU811  SER814 

> <Gold.Protein.RotatedAtoms>
  150.7407  133.9927  159.3612 H   0  0  0  0  0  0  0  0  0  0  0  0  # atno 6907 bound_to 6896
  151.7876  135.0742  160.0392 H   0  0  0  0  0  0  0  0  0  0  0  0  # atno 6908 bound_to 6896
  152.3230  133.5838  159.5794 H   0  0  0  0  0  0  0  0  0  0  0  0  # atno 6909 bound_to 6896
  146.0787  139.5365  142.9551 H   0  0  0  0  0  0  0  0  0  0  0  0  # atno 7974 bound_to 7965
  154.5396  140.2282  155.8663 H   0  0  0  0  0  0  0  0  0  0  0  0  # atno 8008 bound_to 7997
  156.1846  140.3092  155.9175 H   0  0  0  0  0  0  0  0  0  0  0  0  # atno 8009 bound_to 7997
  155.3284  140.0444  157.3032 H   0  0  0  0  0  0  0  0  0  0  0  0  # atno 8010 bound_to 7997
  139.5287  144.2700  152.0636 H   0  0  0  0  0  0  0  0  0  0  0  0  # atno 10167 bound_to 10162
  156.7665  130.5286  149.5775 H   0  0  0  0  0  0  0  0  0  0  0  0  # atno 10718 bound_to 10713
  154.5339  135.5708  153.6782 H   0  0  0  0  0  0  0  0  0  0  0  0  # atno 10763 bound_to 10752
  152.9946  135.6211  154.2592 H   0  0  0  0  0  0  0  0  0  0  0  0  # atno 10764 bound_to 10752
  154.2519  135.2859  155.2792 H   0  0  0  0  0  0  0  0  0  0  0  0  # atno 10765 bound_to 10752
  140.5871  133.9958  155.8072 H   0  0  0  0  0  0  0  0  0  0  0  0  # atno 11005 bound_to 11000
  145.6258  141.0314  143.1890 LP  0  0  0  0  0  0  0  0  0  0  0  0  # atno 17320 bound_to 7965
  144.7279  139.7818  143.7358 LP  0  0  0  0  0  0  0  0  0  0  0  0  # atno 17321 bound_to 7965
  140.2160  144.4514  150.6363 LP  0  0  0  0  0  0  0  0  0  0  0  0  # atno 17342 bound_to 10162
  140.6449  143.2211  151.6207 LP  0  0  0  0  0  0  0  0  0  0  0  0  # atno 17343 bound_to 10162
  156.1305  130.6175  151.0327 LP  0  0  0  0  0  0  0  0  0  0  0  0  # atno 17370 bound_to 10713
  157.6711  131.0861  150.7610 LP  0  0  0  0  0  0  0  0  0  0  0  0  # atno 17371 bound_to 10713
  141.0959  133.9844  157.3161 LP  0  0  0  0  0  0  0  0  0  0  0  0  # atno 17394 bound_to 11000
  139.9291  135.0200  156.8337 LP  0  0  0  0  0  0  0  0  0  0  0  0  # atno 17395 bound_to 11000

$$$$
