AV-unprocessed.smi:69|AV-procd|sdf|649|dock5
  -GOLD-   2262016543D 1   1.00000     0.00000
 Structure written by MMmdl.
 32 34  0  0  0  0  0  0  0  0  1 V2000
  143.7579  140.3507  155.2562 N   0  0  0  0  0  0  0  0  0  0  0  0
  144.9378  140.6693  155.8058 C   0  0  0  0  0  0  0  0  0  0  0  0
  144.9976  140.8323  157.1474 N   0  0  0  0  0  0  0  0  0  0  0  0
  146.1641  141.1451  157.7183 C   0  0  0  0  0  0  0  0  0  0  0  0
  147.3513  141.3353  157.1386 N   0  0  0  0  0  0  0  0  0  0  0  0
  147.2965  141.1724  155.7832 C   0  0  0  0  0  0  0  0  0  0  0  0
  146.1237  140.8390  155.0473 C   0  0  0  0  0  0  0  0  0  0  0  0
  146.4199  140.7474  153.6963 N   0  0  0  0  0  0  0  0  0  0  0  0
  147.6982  141.0029  153.6405 C   0  0  0  0  0  0  0  0  0  0  0  0
  148.3105  141.2845  154.8439 N   0  0  0  0  0  0  0  0  0  0  0  0
  149.7764  141.5740  155.0374 C   0  0  2  0  0  0  0  0  0  0  0  0
  150.5062  140.5223  154.4919 O   0  0  0  0  0  0  0  0  0  0  0  0
  150.8317  139.5852  155.5081 C   0  0  1  0  0  0  0  0  0  0  0  0
  152.0600  138.7665  155.0837 C   0  0  0  0  0  0  0  0  0  0  0  0
  153.1117  139.6288  154.7055 O   0  0  0  0  0  0  0  0  0  0  0  0
  151.0888  140.4793  156.7311 C   0  0  2  0  0  0  0  0  0  0  0  0
  150.7297  139.8023  157.9188 O   0  0  0  0  0  0  0  0  0  0  0  0
  150.1962  141.7052  156.5130 C   0  0  1  0  0  0  0  0  0  0  0  0
  150.9373  142.8890  156.7338 O   0  0  0  0  0  0  0  0  0  0  0  0
  149.9426  142.4830  154.4569 H   0  0  0  0  0  0  0  0  0  0  0  0
  149.9798  138.9279  155.6824 H   0  0  0  0  0  0  0  0  0  0  0  0
  152.1408  140.7669  156.7724 H   0  0  0  0  0  0  0  0  0  0  0  0
  149.3230  141.7296  157.1639 H   0  0  0  0  0  0  0  0  0  0  0  0
  143.6883  140.2208  154.2571 H   0  0  0  0  0  0  0  0  0  0  0  0
  142.9445  140.2326  155.8424 H   0  0  0  0  0  0  0  0  0  0  0  0
  146.1449  141.2584  158.7921 H   0  0  0  0  0  0  0  0  0  0  0  0
  148.2378  140.9903  152.7046 H   0  0  0  0  0  0  0  0  0  0  0  0
  152.3846  138.0946  155.8786 H   0  0  0  0  0  0  0  0  0  0  0  0
  151.8167  138.1507  154.2175 H   0  0  0  0  0  0  0  0  0  0  0  0
  152.9945  139.8663  153.7985 H   0  0  0  0  0  0  0  0  0  0  0  0
  149.8848  140.1193  158.1996 H   0  0  0  0  0  0  0  0  0  0  0  0
  150.4003  143.6282  156.4923 H   0  0  0  0  0  0  0  0  0  0  0  0
  1  2  1  0  0  0  0
  1 24  1  0  0  0  0
  1 25  1  0  0  0  0
  2  7  1  0  0  0  0
  2  3  2  0  0  0  0
  3  4  1  0  0  0  0
  4  5  2  0  0  0  0
  4 26  1  0  0  0  0
  5  6  1  0  0  0  0
  6 10  1  0  0  0  0
  6  7  2  0  0  0  0
  7  8  1  0  0  0  0
  8  9  2  0  0  0  0
  9 10  1  0  0  0  0
  9 27  1  0  0  0  0
 10 11  1  0  0  0  0
 11 20  1  0  0  0  0
 11 18  1  0  0  0  0
 11 12  1  0  0  0  0
 12 13  1  0  0  0  0
 13 21  1  0  0  0  0
 13 14  1  0  0  0  0
 13 16  1  0  0  0  0
 14 15  1  0  0  0  0
 14 28  1  0  0  0  0
 14 29  1  0  0  0  0
 15 30  1  0  0  0  0
 16 22  1  0  0  0  0
 16 17  1  0  0  0  0
 16 18  1  0  0  0  0
 17 31  1  0  0  0  0
 18 23  1  0  0  0  0
 18 19  1  0  0  0  0
 19 32  1  0  0  0  0
M  END
> <s_m_source_file>
AV-unprocessed.smi

> <i_m_source_file_index>
69

> <i_lp_mmshare_version>
43012

> <i_f3d_flags>
0

> <s_epik_input>
bjFbY0hdbmMoW05IMl0pYyhjMTIpbltjSF1uMltDQEBIXTNPW0NASF0oW0NIMl1bT0hdKVtDQEBIXShbT0hdKVtDQEhdM1tPSF0=

> <s_epik_cmdline>
J2VwaWtfcHl0aG9uJywgJy1waCcsICc3LjAnLCAnLXRuJywgJzgnLCAnLW1hJywgJzIwMCcsICctbWV0YWxfYmluZGluZycsICctaW1hZScsICc8aW5maWxlLm1hZT4nLCAnLW9tYWUnLCAnPG91dGZpbGUubWFlPic=

> <r_lp_tautomer_probability>
1

> <r_epik_Ionization_Penalty>
0.000428445

> <r_epik_Ionization_Penalty_Charging>
0

> <r_epik_Ionization_Penalty_Neutral>
0.000428445

> <r_epik_State_Penalty>
-0

> <r_epik_Charging_Adjusted_Penalty>
0

> <i_epik_Tot_Q>
0

> <i_epik_Tot_abs_Q>
0

> <r_epik_Metal_State_Penalty>
-0

> <b_epik_Metal_Only>
0

> <s_epik_Chemistry_Notes>
This compound contains an acetal/aminal-like group ( X-CH(R)-Y where X, Y are N, S, or O) that may be acid/base labile, releasing an aldehyde.

> <s_lp_Force_Field>
OPLS_2005

> <r_lp_Energy>
31.8637

> <b_lp_Chiralities_Consistent>
1

> <s_lp_Variant>
AV-unprocessed.smi:69-7

> <Gold.Version>
5.8.1

> <Gold.Id.Protein>
6NUR|6NUR_protein|mol2

> <Gold.PLP.Fitness>
40.5589

> <Gold.PLP.PLP>
-25.6758

> <Gold.PLP.part.hbond>
-4.7487

> <Gold.PLP.part.metal>
0.0000

> <Gold.PLP.part.buried>
-3.3936

> <Gold.PLP.part.nonpolar>
-18.8444

> <Gold.PLP.part.repulsive>
1.2155

> <Gold.PLP.ligand.clash>
0.0000

> <Gold.PLP.ligand.torsion>
0.0567

> <Gold.PLP.Chemscore.Hbond>
3.9920

> <Gold.PLP.Chemscore.CHOScore>
1.0000

> <Gold.PLP.Chemscore.Metal>
0.0000

> <Gold.Chemscore.Hbonds>
donor molecule, donor type, donor heavy atom, donor atom, acceptor molecule, acceptor atom, score
      L1  H     1    24       P1 10175  1.00
      L1  H    19    32       P1  8028  0.99
      P1  H  7989  7998       L1    12  0.99
      P1  H  7997  8009       L1    15  1.00
      L1  C     9    27       P1  7957  1.00

> <Gold.PLP.Chemscore.Internal.Correction>
0.0206

> <Gold.Rescore>
     Score         DG    S(hbond)    S(metal)    S(lipo)     H(rot)  DE(clash)    DE(int)     intcor
     10.01     -11.41       3.84        0.00      29.08       4.03       0.10       1.30       ----

> <Gold.Chemscore.Fitness>
10.0095

> <Gold.Chemscore.DG>
-11.4067

> <Gold.Chemscore.ZeroCoef>
-5.4800

> <Gold.Chemscore.Hbond>
3.8429

> <Gold.Chemscore.Metal>
0.0000

> <Gold.Chemscore.Lipo>
29.0809

> <Gold.Chemscore.Internal_Hbond>
0.0000

> <Gold.Chemscore.DEClash>
0.0956

> <Gold.Chemscore.DEInternal>
1.3015

> <Gold.Chemscore.Rot>
4.0277

> <Gold.Chemscore.Internal.Correction>
   9.000000E+99

> <Gold.Chemscore.Hbonds>
donor molecule, donor type, donor heavy atom, donor atom, acceptor molecule, acceptor atom, score
      L1  H     1    24       P1 10175  1.00
      L1  H    19    32       P1  8028  0.92
      P1  H  7989  7998       L1    12  0.79
      P1  H  7997  8009       L1    15  0.95

> <Gold.Chemscore.Hbond.Weighted>
-12.8352

> <Gold.Chemscore.Metal.Weighted>
-0.0000

> <Gold.Chemscore.Lipo.Weighted>
-3.4025

> <Gold.Chemscore.Internal_Hbond.Weighted>
0.0000

> <Gold.Chemscore.DEClash.Weighted>
0.0956

> <Gold.Chemscore.DEInternal.Weighted>
1.3015

> <Gold.Chemscore.Rot.Weighted>
10.3110

> <Gold.Chemscore.Internal.Correction.Weighted>
   9.000000E+99

> <Gold.Protein.RotatedTorsions>
[ 6907 6896 6895 6894 ] final  -57.22 input  -60.11 | X-H torsion
[ 7974 7965 7964 7962 ] final  -44.53 input  175.53 | X-H torsion
[ 8008 7997 7996 7995 ] final -113.84 input   59.86 | X-H torsion
[ 10167 10162 10161 10158 ] final  -87.67 input  -65.29 | X-H torsion
[ 10718 10713 10712 10709 ] final  170.74 input   66.30 | X-H torsion
[ 10763 10752 10751 10750 ] final   81.98 input  -60.55 | X-H torsion
[ 11005 11000 10999 10996 ] final   -0.37 input  -57.11 | X-H torsion

> <Gold.Protein.ActiveResidues>
 VAL166  LYS551  ARG553  GLY616  TRP617  ASP618  TYR619  PRO620  LYS621  CYS622 
 ASP623  PHE694  ASN695  SER759  ASP760  ASP761  ALA762  ILE779  LEU786  VAL792 
 PHE793  MET794  SER795  GLU796  ALA797  LYS798  CYS799  TRP800  GLU811  SER814 

> <Gold.Protein.RotatedAtoms>
  150.8103  134.7254  159.6681 H   0  0  0  0  0  0  0  0  0  0  0  0  # atno 6907 bound_to 6896
  152.4223  134.5929  159.9989 H   0  0  0  0  0  0  0  0  0  0  0  0  # atno 6908 bound_to 6896
  151.6141  133.3307  159.3110 H   0  0  0  0  0  0  0  0  0  0  0  0  # atno 6909 bound_to 6896
  145.9911  140.7179  142.9316 H   0  0  0  0  0  0  0  0  0  0  0  0  # atno 7974 bound_to 7965
  155.0270  140.0393  157.2459 H   0  0  0  0  0  0  0  0  0  0  0  0  # atno 8008 bound_to 7997
  154.7329  140.2734  155.6417 H   0  0  0  0  0  0  0  0  0  0  0  0  # atno 8009 bound_to 7997
  156.2846  140.2680  156.2034 H   0  0  0  0  0  0  0  0  0  0  0  0  # atno 8010 bound_to 7997
  140.3822  143.2743  151.9369 H   0  0  0  0  0  0  0  0  0  0  0  0  # atno 10167 bound_to 10162
  157.0037  131.0184  151.2823 H   0  0  0  0  0  0  0  0  0  0  0  0  # atno 10718 bound_to 10713
  153.1163  135.4745  154.9120 H   0  0  0  0  0  0  0  0  0  0  0  0  # atno 10763 bound_to 10752
  154.7531  135.3111  154.8522 H   0  0  0  0  0  0  0  0  0  0  0  0  # atno 10764 bound_to 10752
  153.9098  135.6866  153.4805 H   0  0  0  0  0  0  0  0  0  0  0  0  # atno 10765 bound_to 10752
  140.6355  133.9537  155.8297 H   0  0  0  0  0  0  0  0  0  0  0  0  # atno 11005 bound_to 11000
  144.6889  140.3071  143.7254 LP  0  0  0  0  0  0  0  0  0  0  0  0  # atno 17320 bound_to 7965
  145.7628  139.1830  143.2257 LP  0  0  0  0  0  0  0  0  0  0  0  0  # atno 17321 bound_to 7965
  139.4794  144.5807  151.7936 LP  0  0  0  0  0  0  0  0  0  0  0  0  # atno 17342 bound_to 10162
  140.4926  144.1288  150.5953 LP  0  0  0  0  0  0  0  0  0  0  0  0  # atno 17343 bound_to 10162
  157.5371  130.8096  149.7985 LP  0  0  0  0  0  0  0  0  0  0  0  0  # atno 17370 bound_to 10713
  156.0161  130.3813  150.2106 LP  0  0  0  0  0  0  0  0  0  0  0  0  # atno 17371 bound_to 10713
  141.0645  134.0297  157.3613 LP  0  0  0  0  0  0  0  0  0  0  0  0  # atno 17394 bound_to 11000
  139.9100  135.0188  156.7650 LP  0  0  0  0  0  0  0  0  0  0  0  0  # atno 17395 bound_to 11000

$$$$
