AV-unprocessed.smi:44|AV-procd|sdf|400|dock8
  -GOLD-   2262016253D 1   1.00000     0.00000
 Structure written by MMmdl.
 29 31  0  0  0  0  0  0  0  0  3 V2000
  152.3071  137.6179  154.7855 O   0  0  0  0  0  0  0  0  0  0  0  0
  151.6867  138.6704  154.9202 C   0  0  0  0  0  0  0  0  0  0  0  0
  150.8461  139.2759  154.0206 N   0  5  0  0  0  0  0  0  0  0  0  0
  150.2069  140.4768  154.3095 C   0  0  0  0  0  0  0  0  0  0  0  0
  150.2929  141.1678  155.3907 N   0  0  0  0  0  0  0  0  0  0  0  0
  151.1323  140.6274  156.3764 C   0  0  0  0  0  0  0  0  0  0  0  0
  151.8142  139.4462  156.1984 C   0  0  0  0  0  0  0  0  0  0  0  0
  152.5519  139.1682  157.3178 N   0  3  0  0  0  0  0  0  0  0  0  0
  152.2839  140.1949  158.1247 C   0  0  0  0  0  0  0  0  0  0  0  0
  151.4244  141.1296  157.6191 N   0  0  0  0  0  0  0  0  0  0  0  0
  150.9443  142.3745  158.2878 C   0  0  2  0  0  0  0  0  0  0  0  0
  151.6386  143.6030  157.6887 C   0  0  0  0  0  0  0  0  0  0  0  0
  151.9497  144.4119  158.9288 C   0  0  0  0  0  0  0  0  0  0  0  0
  152.2652  143.3073  159.9358 C   0  0  1  0  0  0  0  0  0  0  0  0
  152.1591  143.7352  161.4061 C   0  0  0  0  0  0  0  0  0  0  0  0
  151.7727  142.6373  162.2044 O   0  0  0  0  0  0  0  0  0  0  0  0
  151.2894  142.3129  159.6418 O   0  0  0  0  0  0  0  0  0  0  0  0
  153.1547  138.3743  157.4916 H   0  0  0  0  0  0  0  0  0  0  0  0
  149.8603  142.3725  158.1674 H   0  0  0  0  0  0  0  0  0  0  0  0
  153.2529  142.8892  159.7335 H   0  0  0  0  0  0  0  0  0  0  0  0
  149.5775  140.8128  153.4817 H   0  0  0  0  0  0  0  0  0  0  0  0
  152.7126  140.2844  159.1061 H   0  0  0  0  0  0  0  0  0  0  0  0
  152.5607  143.3121  157.1825 H   0  0  0  0  0  0  0  0  0  0  0  0
  150.9889  144.1167  156.9797 H   0  0  0  0  0  0  0  0  0  0  0  0
  152.7762  145.1086  158.7871 H   0  0  0  0  0  0  0  0  0  0  0  0
  151.0707  144.9791  159.2389 H   0  0  0  0  0  0  0  0  0  0  0  0
  153.1061  144.1369  161.7676 H   0  0  0  0  0  0  0  0  0  0  0  0
  151.4111  144.5208  161.5157 H   0  0  0  0  0  0  0  0  0  0  0  0
  152.4964  142.0313  162.2524 H   0  0  0  0  0  0  0  0  0  0  0  0
  1  2  2  0  0  0  0
  2  7  1  0  0  0  0
  2  3  1  0  0  0  0
  3  4  1  0  0  0  0
  4 21  1  0  0  0  0
  4  5  2  0  0  0  0
  5  6  1  0  0  0  0
  6 10  1  0  0  0  0
  6  7  2  0  0  0  0
  7  8  1  0  0  0  0
  8  9  2  0  0  0  0
  8 18  1  0  0  0  0
  9 10  1  0  0  0  0
  9 22  1  0  0  0  0
 10 11  1  0  0  0  0
 11 19  1  0  0  0  0
 11 17  1  0  0  0  0
 11 12  1  0  0  0  0
 12 13  1  0  0  0  0
 12 23  1  0  0  0  0
 12 24  1  0  0  0  0
 13 14  1  0  0  0  0
 13 25  1  0  0  0  0
 13 26  1  0  0  0  0
 14 20  1  0  0  0  0
 14 15  1  0  0  0  0
 14 17  1  0  0  0  0
 15 16  1  0  0  0  0
 15 27  1  0  0  0  0
 15 28  1  0  0  0  0
 16 29  1  0  0  0  0
M  CHG  1   3  -1
M  CHG  1   8   1
M  END
> <s_m_source_file>
AV-unprocessed.smi

> <i_m_source_file_index>
44

> <i_lp_mmshare_version>
43012

> <i_f3d_flags>
0

> <s_epik_input>
bjFbY0hdW25IXWMoPU8pYyhjMTIpbltjSF1uMltDQEhdM1tDSDJdW0NIMl1bQ0BIXShPMylbQ0gyXVtPSF0=

> <s_epik_cmdline>
J2VwaWtfcHl0aG9uJywgJy1waCcsICc3LjAnLCAnLXRuJywgJzgnLCAnLW1hJywgJzIwMCcsICctbWV0YWxfYmluZGluZycsICctaW1hZScsICc8aW5maWxlLm1hZT4nLCAnLW9tYWUnLCAnPG91dGZpbGUubWFlPic=

> <r_lp_tautomer_probability>
0.144281

> <r_epik_Ionization_Penalty>
5.63685

> <r_epik_Ionization_Penalty_Charging>
5.58669

> <r_epik_Ionization_Penalty_Neutral>
0.0501585

> <r_epik_State_Penalty>
1.20809

> <r_epik_Charging_Adjusted_Penalty>
6.79478

> <i_epik_Tot_Q>
0

> <i_epik_Tot_abs_Q>
2

> <r_epik_Metal_State_Penalty>
1.52487

> <b_epik_Metal_Only>
0

> <s_epik_Chemistry_Notes>
This compound contains an acetal/aminal-like group ( X-CH(R)-Y where X, Y are N, S, or O) that may be acid/base labile, releasing an aldehyde.

> <s_lp_Force_Field>
OPLS_2005

> <r_lp_Energy>
45.8443

> <b_lp_Chiralities_Consistent>
1

> <s_lp_Variant>
AV-unprocessed.smi:44-6

> <Gold.Version>
5.8.1

> <Gold.Id.Protein>
6NUR|6NUR_protein|mol2

> <Gold.PLP.Fitness>
42.5129

> <Gold.PLP.PLP>
-36.5158

> <Gold.PLP.part.hbond>
-5.1455

> <Gold.PLP.part.metal>
0.0000

> <Gold.PLP.part.buried>
-2.5320

> <Gold.PLP.part.nonpolar>
-29.8095

> <Gold.PLP.part.repulsive>
0.4604

> <Gold.PLP.ligand.clash>
0.0000

> <Gold.PLP.ligand.torsion>
0.6635

> <Gold.PLP.Chemscore.Hbond>
1.5271

> <Gold.PLP.Chemscore.CHOScore>
0.9108

> <Gold.PLP.Chemscore.Metal>
0.0000

> <Gold.Chemscore.Hbonds>
donor molecule, donor type, donor heavy atom, donor atom, acceptor molecule, acceptor atom, score
      P1  H  6933  6945       L1    16  0.98
      P1  H 10752 10765       L1     1  0.49
      L1  C     4    21       P1  7957  0.96

> <Gold.PLP.Chemscore.Internal.Correction>
0.0106

> <Gold.Rescore>
     Score         DG    S(hbond)    S(metal)    S(lipo)     H(rot)  DE(clash)    DE(int)     intcor
      8.76      -9.20       0.87        0.00      56.61       2.27       0.10       0.34       ----

> <Gold.Chemscore.Fitness>
8.7553

> <Gold.Chemscore.DG>
-9.1965

> <Gold.Chemscore.ZeroCoef>
-5.4800

> <Gold.Chemscore.Hbond>
0.8713

> <Gold.Chemscore.Metal>
0.0000

> <Gold.Chemscore.Lipo>
56.6050

> <Gold.Chemscore.Internal_Hbond>
0.0000

> <Gold.Chemscore.DEClash>
0.1041

> <Gold.Chemscore.DEInternal>
0.3370

> <Gold.Chemscore.Rot>
2.2720

> <Gold.Chemscore.Internal.Correction>
   9.000000E+99

> <Gold.Chemscore.Hbonds>
donor molecule, donor type, donor heavy atom, donor atom, acceptor molecule, acceptor atom, score
      P1  H  6933  6945       L1    16  0.79
      P1  H 10752 10765       L1     1  0.49

> <Gold.Chemscore.Hbond.Weighted>
-2.9101

> <Gold.Chemscore.Metal.Weighted>
-0.0000

> <Gold.Chemscore.Lipo.Weighted>
-6.6228

> <Gold.Chemscore.Internal_Hbond.Weighted>
0.0000

> <Gold.Chemscore.DEClash.Weighted>
0.1041

> <Gold.Chemscore.DEInternal.Weighted>
0.3370

> <Gold.Chemscore.Rot.Weighted>
5.8164

> <Gold.Chemscore.Internal.Correction.Weighted>
   9.000000E+99

> <Gold.Protein.RotatedTorsions>
[ 6907 6896 6895 6894 ] final   12.94 input  -60.11 | X-H torsion
[ 7974 7965 7964 7962 ] final  101.39 input  175.53 | X-H torsion
[ 8008 7997 7996 7995 ] final -114.05 input   59.86 | X-H torsion
[ 10167 10162 10161 10158 ] final  100.09 input  -65.29 | X-H torsion
[ 10718 10713 10712 10709 ] final   45.92 input   66.30 | X-H torsion
[ 10763 10752 10751 10750 ] final  155.19 input  -60.55 | X-H torsion
[ 11005 11000 10999 10996 ] final  -77.87 input  -57.11 | X-H torsion

> <Gold.Protein.ActiveResidues>
 VAL166  LYS551  ARG553  GLY616  TRP617  ASP618  TYR619  PRO620  LYS621  CYS622 
 ASP623  PHE694  ASN695  SER759  ASP760  ASP761  ALA762  ILE779  LEU786  VAL792 
 PHE793  MET794  SER795  GLU796  ALA797  LYS798  CYS799  TRP800  GLU811  SER814 

> <Gold.Protein.RotatedAtoms>
  151.7784  135.0768  160.0369 H   0  0  0  0  0  0  0  0  0  0  0  0  # atno 6907 bound_to 6896
  152.3240  133.5880  159.5772 H   0  0  0  0  0  0  0  0  0  0  0  0  # atno 6908 bound_to 6896
  150.7385  133.9884  159.3641 H   0  0  0  0  0  0  0  0  0  0  0  0  # atno 6909 bound_to 6896
  145.3729  139.2394  143.3445 H   0  0  0  0  0  0  0  0  0  0  0  0  # atno 7974 bound_to 7965
  155.0303  140.0393  157.2471 H   0  0  0  0  0  0  0  0  0  0  0  0  # atno 8008 bound_to 7997
  154.7302  140.2729  155.6439 H   0  0  0  0  0  0  0  0  0  0  0  0  # atno 8009 bound_to 7997
  156.2839  140.2685  156.2000 H   0  0  0  0  0  0  0  0  0  0  0  0  # atno 8010 bound_to 7997
  139.7558  144.6970  151.0364 H   0  0  0  0  0  0  0  0  0  0  0  0  # atno 10167 bound_to 10162
  157.4426  130.8090  149.7709 H   0  0  0  0  0  0  0  0  0  0  0  0  # atno 10718 bound_to 10713
  154.1644  135.2808  155.3099 H   0  0  0  0  0  0  0  0  0  0  0  0  # atno 10763 bound_to 10752
  154.6122  135.5495  153.7489 H   0  0  0  0  0  0  0  0  0  0  0  0  # atno 10764 bound_to 10752
  153.0183  135.6418  154.1785 H   0  0  0  0  0  0  0  0  0  0  0  0  # atno 10765 bound_to 10752
  141.1662  133.7040  156.7885 H   0  0  0  0  0  0  0  0  0  0  0  0  # atno 11005 bound_to 11000
  146.2877  140.4383  142.8751 LP  0  0  0  0  0  0  0  0  0  0  0  0  # atno 17320 bound_to 7965
  144.8563  140.7075  143.6136 LP  0  0  0  0  0  0  0  0  0  0  0  0  # atno 17321 bound_to 7965
  140.7802  143.4754  151.0089 LP  0  0  0  0  0  0  0  0  0  0  0  0  # atno 17342 bound_to 10162
  139.8441  143.7524  152.3179 LP  0  0  0  0  0  0  0  0  0  0  0  0  # atno 17343 bound_to 10162
  155.9955  130.3911  150.2818 LP  0  0  0  0  0  0  0  0  0  0  0  0  # atno 17370 bound_to 10713
  157.0983  131.0189  151.3095 LP  0  0  0  0  0  0  0  0  0  0  0  0  # atno 17371 bound_to 10713
  140.2342  134.8662  157.3508 LP  0  0  0  0  0  0  0  0  0  0  0  0  # atno 17394 bound_to 11000
  140.1860  134.4431  155.7743 LP  0  0  0  0  0  0  0  0  0  0  0  0  # atno 17395 bound_to 11000

$$$$
