#       Name:                AV-unprocessed.smi:1610
#       Creating user name   scv26
#       Creation time:       Fri Mar 27 07:13:03 2020


#       File generated by GOLD software.
#

@<TRIPOS>MOLECULE
AV-unprocessed.smi:1610
    47    48     1
SMALL
NO_CHARGES


@<TRIPOS>ATOM
      1 ****        -4.9966  -0.3570   0.3168 C.3            1 S1                 0.0000
      2 ****        -4.0536   1.0772  -0.3364 S.o2           1 S1                 0.0000
      3 ****        -4.7305   1.4672  -1.5837 O.2            1 S1                 0.0000
      4 ****        -4.0261   2.0664   0.7528 O.2            1 S1                 0.0000
      5 ****        -2.6106   0.3857  -0.5960 N.pl3          1 S1                -1.0000
      6 ****        -1.5223   1.1578  -1.1788 C.3            1 S1                 0.0000
      7 ****        -0.4516   0.1948  -1.7621 C.3            1 S1                 0.0000
      8 ****         0.8771   0.9005  -2.1517 C.3            1 S1                 0.0000
      9 ****         1.4311   1.6199  -0.9860 N.am           1 S1                 0.0000
     10 ****         2.4268   1.1946  -0.1698 C.2            1 S1                 0.0000
     11 ****         2.7482   1.7868   0.8615 O.2            1 S1                 0.0000
     12 ****         3.0000   0.0372  -0.5443 N.am           1 S1                 0.0000
     13 ****         3.8822  -0.7802   0.2865 C.3            1 S1                 0.0000
     14 ****         3.2352  -2.1356   0.6404 C.3            1 S1                 0.0000
     15 ****         1.7861  -2.0439   1.1002 C.ar           1 S1                 0.0000
     16 ****         1.4067  -1.2023   2.1677 C.ar           1 S1                 0.0000
     17 ****         0.0460  -1.1221   2.5208 C.ar           1 S1                 0.0000
     18 ****        -0.8814  -1.9006   1.8007 C.ar           1 S1                 0.0000
     19 ****        -0.5287  -2.7287   0.7945 N.ar           1 S1                 0.0000
     20 ****         0.7767  -2.7907   0.4550 C.ar           1 S1                 0.0000
     21 ****         0.4981   2.6885  -0.5886 C.3            1 S1                 0.0000
     22 ****        -0.8482   2.0701  -0.1136 C.3            1 S1                 0.0000
     23 ****        -6.0180  -0.0477   0.5356 H              1 S1                 0.0000
     24 ****        -4.5224  -0.7178   1.2291 H              1 S1                 0.0000
     25 ****        -5.0089  -1.1530  -0.4272 H              1 S1                 0.0000
     26 ****        -1.8700   1.7915  -1.9955 H              1 S1                 0.0000
     27 ****        -0.2204  -0.5773  -1.0289 H              1 S1                 0.0000
     28 ****        -0.8588  -0.3254  -2.6297 H              1 S1                 0.0000
     29 ****         1.5704   0.1705  -2.5693 H              1 S1                 0.0000
     30 ****         0.7095   1.6123  -2.9628 H              1 S1                 0.0000
     31 ****         2.6887  -0.3751  -1.4117 H              1 S1                 0.0000
     32 ****         4.8220  -0.9420  -0.2417 H              1 S1                 0.0000
     33 ****         4.1425  -0.2579   1.2081 H              1 S1                 0.0000
     34 ****         3.2810  -2.7847  -0.2349 H              1 S1                 0.0000
     35 ****         3.8189  -2.6326   1.4156 H              1 S1                 0.0000
     36 ****         2.1409  -0.6106   2.6939 H              1 S1                 0.0000
     37 ****        -0.2811  -0.4733   3.3194 H              1 S1                 0.0000
     38 ****        -1.9335  -1.8593   2.0410 H              1 S1                 0.0000
     39 ****         1.0186  -3.4500  -0.3653 H              1 S1                 0.0000
     40 ****         0.9082   3.3165   0.2034 H              1 S1                 0.0000
     41 ****         0.3397   3.3653  -1.4310 H              1 S1                 0.0000
     42 ****        -1.5288   2.8721   0.1722 H              1 S1                 0.0000
     43 ****        -0.6613   1.4939   0.7944 H              1 S1                 0.0000
     44 ****        -2.4674  -0.5743  -0.3551 LP             1 S1                 0.0000
     45 ****         2.2670   2.6215   1.1294 LP             1 S1                 0.0000
     46 ****         3.4902   1.4328   1.4308 LP             1 S1                 0.0000
     47 ****        -1.2128  -3.2789   0.3156 LP             1 S1                 0.0000
@<TRIPOS>BOND
    1    1    2 1     
    2    1   23 1     
    3    1   24 1     
    4    1   25 1     
    5    2    3 2     
    6    2    4 2     
    7    2    5 1     
    8    5    6 1     
    9    6   22 1     
   10    6    7 1     
   11    6   26 1     
   12    7    8 1     
   13    7   27 1     
   14    7   28 1     
   15    8    9 1     
   16    8   29 1     
   17    8   30 1     
   18    9   10 am    
   19    9   21 1     
   20   10   11 2     
   21   10   12 am    
   22   12   13 1     
   23   12   31 1     
   24   13   14 1     
   25   13   32 1     
   26   13   33 1     
   27   14   15 1     
   28   14   34 1     
   29   14   35 1     
   30   15   20 ar    
   31   15   16 ar    
   32   16   17 ar    
   33   16   36 1     
   34   17   18 ar    
   35   17   37 1     
   36   18   19 ar    
   37   18   38 1     
   38   19   20 ar    
   39   20   39 1     
   40   21   22 1     
   41   21   40 1     
   42   21   41 1     
   43   22   42 1     
   44   22   43 1     
   45    5   44 1     
   46   11   45 1     
   47   11   46 1     
   48   19   47 1     
@<TRIPOS>SUBSTRUCTURE
      1 S1             1
@<TRIPOS>SET
LONE_PAIRS      STATIC     ATOMS    <user>   **** ""
6 3 4 44 45 46 47
DONOR_HYDROGENS      STATIC     ATOMS    <user>   **** ""
1 31
ATOM$BLUE        STATIC     ATOMS    COLORGROUP SYSTEM
6 3 4 44 45 46 47
ATOM$RED        STATIC     ATOMS    COLORGROUP SYSTEM
1 31
