AV-unprocessed.smi:3273|AV-procd|sdf|12521|dock5
  -GOLD-   2272018433D 1   1.00000     0.00000
 Structure written by MMmdl.
 41 42  0  0  0  0  0  0  0  0  1 V2000
  152.7767  144.7104  158.3891 C   0  0  0  0  0  0  0  0  0  0  0  0
  151.3001  144.3634  158.6674 C   0  0  0  0  0  0  0  0  0  0  0  0
  150.7922  145.2389  159.8288 C   0  0  0  0  0  0  0  0  0  0  0  0
  151.0949  142.8381  158.9160 C   0  0  1  0  0  0  0  0  0  0  0  0
  150.5901  142.0696  157.6667 C   0  0  0  0  0  0  0  0  0  0  0  0
  149.2510  142.4839  157.2537 N   0  0  0  0  0  0  0  0  0  0  0  0
  148.1738  141.6856  157.1966 C   0  0  0  0  0  0  0  0  0  0  0  0
  148.1819  140.5076  157.5542 O   0  0  0  0  0  0  0  0  0  0  0  0
  146.8959  142.3059  156.6323 C   0  0  0  0  0  0  0  0  0  0  0  0
  146.6159  141.8309  155.2171 C   0  0  0  0  0  0  0  0  0  0  0  0
  147.5838  142.1217  154.0933 C   0  0  0  0  0  0  0  0  0  0  0  0
  146.2387  142.8046  154.1223 C   0  0  0  0  0  0  0  0  0  0  0  0
  152.3130  142.1677  159.5033 C   0  0  0  0  0  0  0  0  0  0  0  0
  153.0899  141.1486  159.0201 C   0  0  0  0  0  0  0  0  0  0  0  0
  154.0534  140.9249  160.0400 C   0  0  0  0  0  0  0  0  0  0  0  0
  153.8920  141.7315  161.0729 N   0  0  0  0  0  0  0  0  0  0  0  0
  152.8223  142.4897  160.7508 N   0  0  0  0  0  0  0  0  0  0  0  0
  152.3641  143.4916  161.6951 C   0  0  0  0  0  0  0  0  0  0  0  0
  153.4129  144.4252  159.2275 H   0  0  0  0  0  0  0  0  0  0  0  0
  152.9044  145.7811  158.2282 H   0  0  0  0  0  0  0  0  0  0  0  0
  153.1599  144.2119  157.4995 H   0  0  0  0  0  0  0  0  0  0  0  0
  150.7308  144.6477  157.7814 H   0  0  0  0  0  0  0  0  0  0  0  0
  151.2512  144.9496  160.7747 H   0  0  0  0  0  0  0  0  0  0  0  0
  149.7106  145.1759  159.9436 H   0  0  0  0  0  0  0  0  0  0  0  0
  151.0240  146.2905  159.6575 H   0  0  0  0  0  0  0  0  0  0  0  0
  150.2953  142.7655  159.6540 H   0  0  0  0  0  0  0  0  0  0  0  0
  151.2955  142.1922  156.8439 H   0  0  0  0  0  0  0  0  0  0  0  0
  150.5696  140.9969  157.8532 H   0  0  0  0  0  0  0  0  0  0  0  0
  149.1467  143.4395  156.9446 H   0  0  0  0  0  0  0  0  0  0  0  0
  146.0626  142.0326  157.2808 H   0  0  0  0  0  0  0  0  0  0  0  0
  146.9580  143.3949  156.6368 H   0  0  0  0  0  0  0  0  0  0  0  0
  146.1172  140.8641  155.1757 H   0  0  0  0  0  0  0  0  0  0  0  0
  148.4581  142.7292  154.3179 H   0  0  0  0  0  0  0  0  0  0  0  0
  147.7366  141.3425  153.3495 H   0  0  0  0  0  0  0  0  0  0  0  0
  145.4910  142.4807  153.4011 H   0  0  0  0  0  0  0  0  0  0  0  0
  146.2205  143.8647  154.3680 H   0  0  0  0  0  0  0  0  0  0  0  0
  152.9795  140.6306  158.0790 H   0  0  0  0  0  0  0  0  0  0  0  0
  154.8559  140.2028  160.0620 H   0  0  0  0  0  0  0  0  0  0  0  0
  151.3477  143.2616  162.0137 H   0  0  0  0  0  0  0  0  0  0  0  0
  152.3795  144.4752  161.2254 H   0  0  0  0  0  0  0  0  0  0  0  0
  153.0085  143.5150  162.5749 H   0  0  0  0  0  0  0  0  0  0  0  0
  1  2  1  0  0  0  0
  1 19  1  0  0  0  0
  1 20  1  0  0  0  0
  1 21  1  0  0  0  0
  2  3  1  0  0  0  0
  2  4  1  0  0  0  0
  2 22  1  0  0  0  0
  3 23  1  0  0  0  0
  3 24  1  0  0  0  0
  3 25  1  0  0  0  0
  4  5  1  0  0  0  0
  4 13  1  0  0  0  0
  4 26  1  0  0  0  0
  5  6  1  0  0  0  0
  5 27  1  0  0  0  0
  5 28  1  0  0  0  0
  6  7  1  0  0  0  0
  6 29  1  0  0  0  0
  7  8  2  0  0  0  0
  7  9  1  0  0  0  0
  9 10  1  0  0  0  0
  9 30  1  0  0  0  0
  9 31  1  0  0  0  0
 10 12  1  0  0  0  0
 10 11  1  0  0  0  0
 10 32  1  0  0  0  0
 11 12  1  0  0  0  0
 11 33  1  0  0  0  0
 11 34  1  0  0  0  0
 12 35  1  0  0  0  0
 12 36  1  0  0  0  0
 13 17  1  0  0  0  0
 13 14  2  0  0  0  0
 14 15  1  0  0  0  0
 14 37  1  0  0  0  0
 15 16  2  0  0  0  0
 15 38  1  0  0  0  0
 16 17  1  0  0  0  0
 17 18  1  0  0  0  0
 18 39  1  0  0  0  0
 18 40  1  0  0  0  0
 18 41  1  0  0  0  0
M  END
> <s_m_source_file>
AV-unprocessed.smi

> <i_m_source_file_index>
3273

> <i_lp_mmshare_version>
43012

> <i_f3d_flags>
0

> <s_epik_input>
W0NIM11uMW5bY0hdW2NIXWMxW0NASF0oW0NIXShbQ0gzXSlbQ0gzXSlbQ0gyXVtOSF1DKD1PKVtDSDJdW0NIXTJbQ0gyXVtDSDJdMg==

> <s_epik_cmdline>
J2VwaWtfcHl0aG9uJywgJy1waCcsICc3LjAnLCAnLXRuJywgJzgnLCAnLW1hJywgJzIwMCcsICctbWV0YWxfYmluZGluZycsICctaW1hZScsICc8aW5maWxlLm1hZT4nLCAnLW9tYWUnLCAnPG91dGZpbGUubWFlPic=

> <r_lp_tautomer_probability>
1

> <r_epik_Ionization_Penalty>
0.00116261

> <r_epik_Ionization_Penalty_Charging>
0

> <r_epik_Ionization_Penalty_Neutral>
0.00116261

> <r_epik_State_Penalty>
-0

> <r_epik_Charging_Adjusted_Penalty>
0

> <i_epik_Tot_Q>
0

> <i_epik_Tot_abs_Q>
0

> <r_epik_Metal_State_Penalty>
-0

> <b_epik_Metal_Only>
0

> <s_lp_Force_Field>
OPLS_2005

> <r_lp_Energy>
15.0656

> <b_lp_Chiralities_Consistent>
1

> <s_lp_Variant>
AV-unprocessed.smi:3273-2

> <Gold.Version>
5.8.1

> <Gold.Id.Protein>
6NUR|6NUR_protein|mol2

> <Gold.PLP.Fitness>
46.6525

> <Gold.PLP.PLP>
-46.3136

> <Gold.PLP.part.hbond>
-1.0000

> <Gold.PLP.part.metal>
0.0000

> <Gold.PLP.part.buried>
-6.8525

> <Gold.PLP.part.nonpolar>
-38.5521

> <Gold.PLP.part.repulsive>
0.0414

> <Gold.PLP.ligand.clash>
0.0000

> <Gold.PLP.ligand.torsion>
1.6899

> <Gold.PLP.Chemscore.Hbond>
1.0000

> <Gold.PLP.Chemscore.CHOScore>
0.0000

> <Gold.PLP.Chemscore.Metal>
0.0000

> <Gold.Chemscore.Hbonds>
donor molecule, donor type, donor heavy atom, donor atom, acceptor molecule, acceptor atom, score
      L1  H     6    29       P1  8028  1.00

> <Gold.PLP.Chemscore.Internal.Correction>
0.7187

> <Gold.Rescore>
     Score         DG    S(hbond)    S(metal)    S(lipo)     H(rot)  DE(clash)    DE(int)     intcor
     16.55     -18.34       1.00        0.00     117.42       1.64       0.05       1.74       ----

> <Gold.Chemscore.Fitness>
16.5527

> <Gold.Chemscore.DG>
-18.3432

> <Gold.Chemscore.ZeroCoef>
-5.4800

> <Gold.Chemscore.Hbond>
0.9974

> <Gold.Chemscore.Metal>
0.0000

> <Gold.Chemscore.Lipo>
117.4194

> <Gold.Chemscore.Internal_Hbond>
0.0000

> <Gold.Chemscore.DEClash>
0.0486

> <Gold.Chemscore.DEInternal>
1.7419

> <Gold.Chemscore.Rot>
1.6430

> <Gold.Chemscore.Internal.Correction>
   9.000000E+99

> <Gold.Chemscore.Hbonds>
donor molecule, donor type, donor heavy atom, donor atom, acceptor molecule, acceptor atom, score
      L1  H     6    29       P1  8028  0.80

> <Gold.Chemscore.Hbond.Weighted>
-3.3313

> <Gold.Chemscore.Metal.Weighted>
-0.0000

> <Gold.Chemscore.Lipo.Weighted>
-13.7381

> <Gold.Chemscore.Internal_Hbond.Weighted>
0.0000

> <Gold.Chemscore.DEClash.Weighted>
0.0486

> <Gold.Chemscore.DEInternal.Weighted>
1.7419

> <Gold.Chemscore.Rot.Weighted>
4.2062

> <Gold.Chemscore.Internal.Correction.Weighted>
   9.000000E+99

> <Gold.Protein.RotatedTorsions>
[ 6907 6896 6895 6894 ] final   82.85 input  -60.11 | X-H torsion
[ 7974 7965 7964 7962 ] final  126.32 input  175.53 | X-H torsion
[ 8008 7997 7996 7995 ] final  -31.98 input   59.86 | X-H torsion
[ 10167 10162 10161 10158 ] final  -52.08 input  -65.29 | X-H torsion
[ 10718 10713 10712 10709 ] final -154.48 input   66.30 | X-H torsion
[ 10763 10752 10751 10750 ] final  128.14 input  -60.55 | X-H torsion
[ 11005 11000 10999 10996 ] final  148.25 input  -57.11 | X-H torsion

> <Gold.Protein.ActiveResidues>
 VAL166  LYS551  ARG553  GLY616  TRP617  ASP618  TYR619  PRO620  LYS621  CYS622 
 ASP623  PHE694  ASN695  SER759  ASP760  ASP761  ALA762  ILE779  LEU786  VAL792 
 PHE793  MET794  SER795  GLU796  ALA797  LYS798  CYS799  TRP800  GLU811  SER814 

> <Gold.Protein.RotatedAtoms>
  152.5311  134.2986  159.9069 H   0  0  0  0  0  0  0  0  0  0  0  0  # atno 6907 bound_to 6896
  151.2937  133.4147  159.2642 H   0  0  0  0  0  0  0  0  0  0  0  0  # atno 6908 bound_to 6896
  151.0179  134.9463  159.8100 H   0  0  0  0  0  0  0  0  0  0  0  0  # atno 6909 bound_to 6896
  145.0631  139.3789  143.4996 H   0  0  0  0  0  0  0  0  0  0  0  0  # atno 7974 bound_to 7965
  154.4195  140.1750  156.1654 H   0  0  0  0  0  0  0  0  0  0  0  0  # atno 8008 bound_to 7997
  155.9804  140.3378  155.6633 H   0  0  0  0  0  0  0  0  0  0  0  0  # atno 8009 bound_to 7997
  155.6508  140.0690  157.2578 H   0  0  0  0  0  0  0  0  0  0  0  0  # atno 8010 bound_to 7997
  140.6556  143.2596  151.4596 H   0  0  0  0  0  0  0  0  0  0  0  0  # atno 10167 bound_to 10162
  156.4998  130.8386  151.2604 H   0  0  0  0  0  0  0  0  0  0  0  0  # atno 10718 bound_to 10713
  153.7207  135.3254  155.3266 H   0  0  0  0  0  0  0  0  0  0  0  0  # atno 10763 bound_to 10752
  154.8357  135.4499  154.1220 H   0  0  0  0  0  0  0  0  0  0  0  0  # atno 10764 bound_to 10752
  153.2340  135.6963  153.7938 H   0  0  0  0  0  0  0  0  0  0  0  0  # atno 10765 bound_to 10752
  140.0944  134.9021  157.1700 H   0  0  0  0  0  0  0  0  0  0  0  0  # atno 11005 bound_to 11000
  146.3525  140.0338  142.8648 LP  0  0  0  0  0  0  0  0  0  0  0  0  # atno 17320 bound_to 7965
  145.1385  140.9558  143.4503 LP  0  0  0  0  0  0  0  0  0  0  0  0  # atno 17321 bound_to 7965
  139.5778  144.1779  152.1927 LP  0  0  0  0  0  0  0  0  0  0  0  0  # atno 17342 bound_to 10162
  140.1095  144.5469  150.6934 LP  0  0  0  0  0  0  0  0  0  0  0  0  # atno 17343 bound_to 10162
  157.7464  130.9985  150.2856 LP  0  0  0  0  0  0  0  0  0  0  0  0  # atno 17370 bound_to 10713
  156.3344  130.3805  149.7463 LP  0  0  0  0  0  0  0  0  0  0  0  0  # atno 17371 bound_to 10713
  140.3307  134.2813  155.7228 LP  0  0  0  0  0  0  0  0  0  0  0  0  # atno 17394 bound_to 11000
  141.2087  133.7769  157.0040 LP  0  0  0  0  0  0  0  0  0  0  0  0  # atno 17395 bound_to 11000

$$$$
