AV-unprocessed.smi:109|AV-procd|sdf|1038|dock1
  -GOLD-   2262018 63D 1   1.00000     0.00000
 Structure written by MMmdl.
 58 61  0  0  0  0  0  0  0  0  1 V2000
  143.0022  133.9343  157.6685 O   0  0  0  0  0  0  0  0  0  0  0  0
  143.4199  134.8938  158.6152 C   0  0  0  0  0  0  0  0  0  0  0  0
  144.4594  135.8354  157.9823 C   0  0  0  0  0  0  0  0  0  0  0  0
  145.8349  135.1734  157.7233 C   0  0  1  0  0  0  0  0  0  0  0  0
  146.5290  135.9007  156.6578 N   0  0  0  0  0  0  0  0  0  0  0  0
  146.0097  136.0292  155.4160 C   0  0  0  0  0  0  0  0  0  0  0  0
  145.2188  137.0820  155.0816 N   0  0  0  0  0  0  0  0  0  0  0  0
  144.7254  137.1838  153.8437 C   0  0  0  0  0  0  0  0  0  0  0  0
  144.8957  136.3606  152.8066 N   0  0  0  0  0  0  0  0  0  0  0  0
  145.6889  135.3017  153.1397 C   0  0  0  0  0  0  0  0  0  0  0  0
  146.2795  135.0648  154.4112 C   0  0  0  0  0  0  0  0  0  0  0  0
  147.0255  133.8937  154.3709 N   0  0  0  0  0  0  0  0  0  0  0  0
  146.8827  133.4695  153.1432 C   0  0  0  0  0  0  0  0  0  0  0  0
  146.0837  134.2541  152.3383 N   0  0  0  0  0  0  0  0  0  0  0  0
  145.7144  134.0764  150.8990 C   0  0  1  0  0  0  0  0  0  0  0  0
  146.3618  132.9375  150.4018 O   0  0  0  0  0  0  0  0  0  0  0  0
  145.4286  131.9699  149.9176 C   0  0  1  0  0  0  0  0  0  0  0  0
  145.2108  130.8877  150.9977 C   0  0  0  0  0  0  0  0  0  0  0  0
  146.4583  130.4153  151.4591 O   0  0  0  0  0  0  0  0  0  0  0  0
  144.2005  132.8306  149.5909 C   0  0  1  0  0  0  0  0  0  0  0  0
  142.9791  132.1260  149.4626 O   0  0  0  0  0  0  0  0  0  0  0  0
  144.1990  133.8850  150.6857 C   0  0  1  0  0  0  0  0  0  0  0  0
  143.5008  133.4635  151.8477 O   0  0  0  0  0  0  0  0  0  0  0  0
  146.7463  135.1059  158.9820 C   0  0  0  0  0  0  0  0  0  0  0  0
  146.1339  134.1755  160.0604 C   0  0  0  0  0  0  0  0  0  0  0  0
  147.0042  134.0830  161.3232 C   0  0  0  0  0  0  0  0  0  0  0  0
  147.2580  135.4705  161.9243 C   0  0  0  0  0  0  0  0  0  0  0  0
  147.8871  136.4018  160.8815 C   0  0  0  0  0  0  0  0  0  0  0  0
  147.0233  136.4938  159.6126 C   0  0  0  0  0  0  0  0  0  0  0  0
  146.1091  134.9630  150.4009 H   0  0  0  0  0  0  0  0  0  0  0  0
  145.8056  131.5060  149.0048 H   0  0  0  0  0  0  0  0  0  0  0  0
  144.3869  133.3322  148.6400 H   0  0  0  0  0  0  0  0  0  0  0  0
  143.7571  134.8212  150.3430 H   0  0  0  0  0  0  0  0  0  0  0  0
  142.1047  134.1145  157.4339 H   0  0  0  0  0  0  0  0  0  0  0  0
  142.5506  135.4558  158.9578 H   0  0  0  0  0  0  0  0  0  0  0  0
  143.8322  134.3695  159.4774 H   0  0  0  0  0  0  0  0  0  0  0  0
  144.0667  136.2456  157.0509 H   0  0  0  0  0  0  0  0  0  0  0  0
  144.5762  136.6758  158.6645 H   0  0  0  0  0  0  0  0  0  0  0  0
  145.6449  134.1420  157.4284 H   0  0  0  0  0  0  0  0  0  0  0  0
  147.3691  136.3834  156.9430 H   0  0  0  0  0  0  0  0  0  0  0  0
  144.1058  138.0487  153.6582 H   0  0  0  0  0  0  0  0  0  0  0  0
  147.3642  132.5678  152.7941 H   0  0  0  0  0  0  0  0  0  0  0  0
  144.6163  131.2510  151.8346 H   0  0  0  0  0  0  0  0  0  0  0  0
  144.6839  130.0291  150.5826 H   0  0  0  0  0  0  0  0  0  0  0  0
  147.1168  130.6283  150.8155 H   0  0  0  0  0  0  0  0  0  0  0  0
  142.2694  132.7500  149.4854 H   0  0  0  0  0  0  0  0  0  0  0  0
  143.1805  132.5868  151.6990 H   0  0  0  0  0  0  0  0  0  0  0  0
  147.7067  134.6845  158.6803 H   0  0  0  0  0  0  0  0  0  0  0  0
  145.1402  134.5354  160.3315 H   0  0  0  0  0  0  0  0  0  0  0  0
  145.9944  133.1683  159.6676 H   0  0  0  0  0  0  0  0  0  0  0  0
  146.5205  133.4423  162.0610 H   0  0  0  0  0  0  0  0  0  0  0  0
  147.9554  133.6094  161.0777 H   0  0  0  0  0  0  0  0  0  0  0  0
  146.3186  135.8959  162.2798 H   0  0  0  0  0  0  0  0  0  0  0  0
  147.9113  135.3876  162.7934 H   0  0  0  0  0  0  0  0  0  0  0  0
  148.0257  137.3957  161.3083 H   0  0  0  0  0  0  0  0  0  0  0  0
  148.8813  136.0373  160.6195 H   0  0  0  0  0  0  0  0  0  0  0  0
  147.5463  137.1412  158.9106 H   0  0  0  0  0  0  0  0  0  0  0  0
  146.0790  136.9867  159.8482 H   0  0  0  0  0  0  0  0  0  0  0  0
  1  2  1  0  0  0  0
  1 34  1  0  0  0  0
  2  3  1  0  0  0  0
  2 35  1  0  0  0  0
  2 36  1  0  0  0  0
  3  4  1  0  0  0  0
  3 37  1  0  0  0  0
  3 38  1  0  0  0  0
  4  5  1  0  0  0  0
  4 24  1  0  0  0  0
  4 39  1  0  0  0  0
  5  6  1  0  0  0  0
  5 40  1  0  0  0  0
  6 11  1  0  0  0  0
  6  7  2  0  0  0  0
  7  8  1  0  0  0  0
  8  9  2  0  0  0  0
  8 41  1  0  0  0  0
  9 10  1  0  0  0  0
 10 14  1  0  0  0  0
 10 11  2  0  0  0  0
 11 12  1  0  0  0  0
 12 13  2  0  0  0  0
 13 14  1  0  0  0  0
 13 42  1  0  0  0  0
 14 15  1  0  0  0  0
 15 30  1  0  0  0  0
 15 22  1  0  0  0  0
 15 16  1  0  0  0  0
 16 17  1  0  0  0  0
 17 31  1  0  0  0  0
 17 18  1  0  0  0  0
 17 20  1  0  0  0  0
 18 19  1  0  0  0  0
 18 43  1  0  0  0  0
 18 44  1  0  0  0  0
 19 45  1  0  0  0  0
 20 32  1  0  0  0  0
 20 21  1  0  0  0  0
 20 22  1  0  0  0  0
 21 46  1  0  0  0  0
 22 33  1  0  0  0  0
 22 23  1  0  0  0  0
 23 47  1  0  0  0  0
 24 29  1  0  0  0  0
 24 25  1  0  0  0  0
 24 48  1  0  0  0  0
 25 26  1  0  0  0  0
 25 49  1  0  0  0  0
 25 50  1  0  0  0  0
 26 27  1  0  0  0  0
 26 51  1  0  0  0  0
 26 52  1  0  0  0  0
 27 28  1  0  0  0  0
 27 53  1  0  0  0  0
 27 54  1  0  0  0  0
 28 29  1  0  0  0  0
 28 55  1  0  0  0  0
 28 56  1  0  0  0  0
 29 57  1  0  0  0  0
 29 58  1  0  0  0  0
M  END
> <s_m_source_file>
AV-unprocessed.smi

> <i_m_source_file_index>
109

> <i_lp_mmshare_version>
43012

> <i_f3d_flags>
0

> <s_epik_input>
W0NIMl0xW0NIMl1bQ0gyXVtDSDJdW0NIMl1bQ0hdMVtDQEhdKFtDSDJdW0NIMl1bT0hdKVtOSF1jKG5bY0hdbjIpYyhjMjMpbltjSF1uM1tDQEBIXTRPW0NASF0oW0NIMl1bT0hdKVtDQEBIXShbT0hdKVtDQEhdNFtPSF0=

> <s_epik_cmdline>
J2VwaWtfcHl0aG9uJywgJy1waCcsICc3LjAnLCAnLXRuJywgJzgnLCAnLW1hJywgJzIwMCcsICctbWV0YWxfYmluZGluZycsICctaW1hZScsICc8aW5maWxlLm1hZT4nLCAnLW9tYWUnLCAnPG91dGZpbGUubWFlPic=

> <r_lp_tautomer_probability>
1

> <r_epik_Ionization_Penalty>
0.000793976

> <r_epik_Ionization_Penalty_Charging>
0

> <r_epik_Ionization_Penalty_Neutral>
0.000793976

> <r_epik_State_Penalty>
-0

> <r_epik_Charging_Adjusted_Penalty>
0

> <i_epik_Tot_Q>
0

> <i_epik_Tot_abs_Q>
0

> <r_epik_Metal_State_Penalty>
-0

> <b_epik_Metal_Only>
0

> <s_epik_Chemistry_Notes>
This compound contains an acetal/aminal-like group ( X-CH(R)-Y where X, Y are N, S, or O) that may be acid/base labile, releasing an aldehyde.

> <s_lp_Force_Field>
OPLS_2005

> <r_lp_Energy>
62.3675

> <b_lp_Chiralities_Consistent>
1

> <s_lp_Variant>
AV-unprocessed.smi:109-8

> <Gold.Version>
5.8.1

> <Gold.Id.Protein>
6NUR|6NUR_protein|mol2

> <Gold.PLP.Fitness>
46.5346

> <Gold.PLP.PLP>
-35.6784

> <Gold.PLP.part.hbond>
-4.6378

> <Gold.PLP.part.metal>
0.0000

> <Gold.PLP.part.buried>
-8.3977

> <Gold.PLP.part.nonpolar>
-23.6943

> <Gold.PLP.part.repulsive>
0.4433

> <Gold.PLP.ligand.clash>
0.0000

> <Gold.PLP.ligand.torsion>
1.1560

> <Gold.PLP.Chemscore.Hbond>
3.6820

> <Gold.PLP.Chemscore.CHOScore>
0.6251

> <Gold.PLP.Chemscore.Metal>
0.0000

> <Gold.Chemscore.Hbonds>
donor molecule, donor type, donor heavy atom, donor atom, acceptor molecule, acceptor atom, score
      L1  H     1    34       P1 11000  1.00
      L1  H    19    45       P1 10747  1.00
      L1  H    21    46       P1 10186  0.86
      P1  H 10785 10796       L1    21  0.76
      L1  C     8    41       P1 10175  0.55

> <Gold.PLP.Chemscore.Internal.Correction>
0.2470

> <Gold.Rescore>
     Score         DG    S(hbond)    S(metal)    S(lipo)     H(rot)  DE(clash)    DE(int)     intcor
      9.71     -11.42       3.41        0.00      73.00       5.47       0.02       1.69       ----

> <Gold.Chemscore.Fitness>
9.7071

> <Gold.Chemscore.DG>
-11.4215

> <Gold.Chemscore.ZeroCoef>
-5.4800

> <Gold.Chemscore.Hbond>
3.4114

> <Gold.Chemscore.Metal>
0.0000

> <Gold.Chemscore.Lipo>
72.9987

> <Gold.Chemscore.Internal_Hbond>
0.0000

> <Gold.Chemscore.DEClash>
0.0202

> <Gold.Chemscore.DEInternal>
1.6941

> <Gold.Chemscore.Rot>
5.4662

> <Gold.Chemscore.Internal.Correction>
   9.000000E+99

> <Gold.Chemscore.Hbonds>
donor molecule, donor type, donor heavy atom, donor atom, acceptor molecule, acceptor atom, score
      L1  H     1    34       P1 11000  0.65
      L1  H    19    45       P1 10747  0.95
      L1  H    21    46       P1 10186  0.84
      P1  H 10785 10796       L1    21  0.68

> <Gold.Chemscore.Hbond.Weighted>
-11.3941

> <Gold.Chemscore.Metal.Weighted>
-0.0000

> <Gold.Chemscore.Lipo.Weighted>
-8.5408

> <Gold.Chemscore.Internal_Hbond.Weighted>
0.0000

> <Gold.Chemscore.DEClash.Weighted>
0.0202

> <Gold.Chemscore.DEInternal.Weighted>
1.6941

> <Gold.Chemscore.Rot.Weighted>
13.9935

> <Gold.Chemscore.Internal.Correction.Weighted>
   9.000000E+99

> <Gold.Protein.RotatedTorsions>
[ 6907 6896 6895 6894 ] final  152.65 input  -60.11 | X-H torsion
[ 7974 7965 7964 7962 ] final -145.10 input  175.53 | X-H torsion
[ 8008 7997 7996 7995 ] final  127.83 input   59.86 | X-H torsion
[ 10167 10162 10161 10158 ] final   88.11 input  -65.29 | X-H torsion
[ 10718 10713 10712 10709 ] final -145.18 input   66.30 | X-H torsion
[ 10763 10752 10751 10750 ] final   36.65 input  -60.55 | X-H torsion
[ 11005 11000 10999 10996 ] final   22.33 input  -57.11 | X-H torsion

> <Gold.Protein.ActiveResidues>
 VAL166  LYS551  ARG553  GLY616  TRP617  ASP618  TYR619  PRO620  LYS621  CYS622 
 ASP623  PHE694  ASN695  SER759  ASP760  ASP761  ALA762  ILE779  LEU786  VAL792 
 PHE793  MET794  SER795  GLU796  ALA797  LYS798  CYS799  TRP800  GLU811  SER814 

> <Gold.Protein.RotatedAtoms>
  152.0837  133.4165  159.4512 H   0  0  0  0  0  0  0  0  0  0  0  0  # atno 6907 bound_to 6896
  150.6862  134.2952  159.4692 H   0  0  0  0  0  0  0  0  0  0  0  0  # atno 6908 bound_to 6896
  152.0796  134.9479  160.0624 H   0  0  0  0  0  0  0  0  0  0  0  0  # atno 6909 bound_to 6896
  144.8251  140.5626  143.5552 H   0  0  0  0  0  0  0  0  0  0  0  0  # atno 7974 bound_to 7965
  156.2900  140.2659  156.2337 H   0  0  0  0  0  0  0  0  0  0  0  0  # atno 8008 bound_to 7997
  155.0047  140.0387  157.2393 H   0  0  0  0  0  0  0  0  0  0  0  0  # atno 8009 bound_to 7997
  154.7571  140.2754  155.6250 H   0  0  0  0  0  0  0  0  0  0  0  0  # atno 8010 bound_to 7997
  139.8706  144.6495  150.8954 H   0  0  0  0  0  0  0  0  0  0  0  0  # atno 10167 bound_to 10162
  156.3793  130.7828  151.2019 H   0  0  0  0  0  0  0  0  0  0  0  0  # atno 10718 bound_to 10713
  153.0068  135.6299  154.2020 H   0  0  0  0  0  0  0  0  0  0  0  0  # atno 10763 bound_to 10752
  154.1763  135.2815  155.3067 H   0  0  0  0  0  0  0  0  0  0  0  0  # atno 10764 bound_to 10752
  154.5869  135.5630  153.7300 H   0  0  0  0  0  0  0  0  0  0  0  0  # atno 10765 bound_to 10752
  140.3817  134.1913  155.7663 H   0  0  0  0  0  0  0  0  0  0  0  0  # atno 11005 bound_to 11000
  145.5019  139.1483  143.3652 LP  0  0  0  0  0  0  0  0  0  0  0  0  # atno 17320 bound_to 7965
  146.2556  140.5159  142.8875 LP  0  0  0  0  0  0  0  0  0  0  0  0  # atno 17321 bound_to 7965
  140.7761  143.3667  151.1726 LP  0  0  0  0  0  0  0  0  0  0  0  0  # atno 17342 bound_to 10162
  139.7287  143.9106  152.3012 LP  0  0  0  0  0  0  0  0  0  0  0  0  # atno 17343 bound_to 10162
  157.7491  131.0349  150.4338 LP  0  0  0  0  0  0  0  0  0  0  0  0  # atno 17370 bound_to 10713
  156.4579  130.4025  149.6594 LP  0  0  0  0  0  0  0  0  0  0  0  0  # atno 17371 bound_to 10713
  141.1921  133.8180  157.0853 LP  0  0  0  0  0  0  0  0  0  0  0  0  # atno 17394 bound_to 11000
  140.0473  134.9824  157.1072 LP  0  0  0  0  0  0  0  0  0  0  0  0  # atno 17395 bound_to 11000

$$$$
