AV-unprocessed.smi:1244|AV-procd|sdf|5238|dock7
  -GOLD-   22720 4343D 1   1.00000     0.00000
 Structure written by MMmdl.
 55 57  0  0  0  0  0  0  0  0  4 V2000
  154.1848  135.8281  164.1067 C   0  0  0  0  0  0  0  0  0  0  0  0
  155.0018  136.8847  163.3548 C   0  0  1  0  0  0  0  0  0  0  0  0
  154.2301  137.4622  162.1549 C   0  0  0  0  0  0  0  0  0  0  0  0
  155.0098  138.5438  161.5085 N   0  3  1  0  0  0  0  0  0  0  0  0
  154.3694  139.0564  160.2679 C   0  0  0  0  0  0  0  0  0  0  0  0
  154.1482  137.9431  159.2237 C   0  0  0  0  0  0  0  0  0  0  0  0
  153.8973  138.5356  157.9105 N   0  5  0  0  0  0  0  0  0  0  0  0
  152.6685  138.7037  157.3531 C   0  0  0  0  0  0  0  0  0  0  0  0
  151.8128  137.8386  157.1356 O   0  0  0  0  0  0  0  0  0  0  0  0
  152.4447  139.9852  157.0154 N   0  0  0  0  0  0  0  0  0  0  0  0
  151.3083  140.5720  156.3895 C   0  0  0  0  0  0  0  0  0  0  0  0
  150.5031  139.8363  155.4824 C   0  0  0  0  0  0  0  0  0  0  0  0
  149.3971  140.4497  154.8652 C   0  0  0  0  0  0  0  0  0  0  0  0
  149.1062  141.7898  155.1700 C   0  0  0  0  0  0  0  0  0  0  0  0
  149.8752  142.4555  156.0558 N   0  3  0  0  0  0  0  0  0  0  0  0
  150.9447  141.9169  156.6943 C   0  0  0  0  0  0  0  0  0  0  0  0
  151.6421  142.7414  157.6084 N   0  0  0  0  0  0  0  0  0  0  0  0
  151.3611  144.1705  157.6785 C   0  0  0  0  0  0  0  0  0  0  0  0
  152.0462  144.6479  158.9561 C   0  0  0  0  0  0  0  0  0  0  0  0
  151.8811  143.4491  159.8848 C   0  0  0  0  0  0  0  0  0  0  0  0
  151.9668  142.2444  158.9419 C   0  0  0  0  0  0  0  0  0  0  0  0
  155.3343  139.6007  162.5024 C   0  0  0  0  0  0  0  0  0  0  0  0
  156.0698  139.0080  163.7192 C   0  0  2  0  0  0  0  0  0  0  0  0
  157.5266  138.6092  163.4218 C   0  0  0  0  0  0  0  0  0  0  0  0
  155.3139  137.9304  164.2719 O   0  0  0  0  0  0  0  0  0  0  0  0
  153.9275  134.9931  163.4548 H   0  0  0  0  0  0  0  0  0  0  0  0
  153.2564  136.2489  164.4939 H   0  0  0  0  0  0  0  0  0  0  0  0
  154.7470  135.4289  164.9511 H   0  0  0  0  0  0  0  0  0  0  0  0
  155.9217  136.4146  163.0064 H   0  0  0  0  0  0  0  0  0  0  0  0
  154.0352  136.6668  161.4340 H   0  0  0  0  0  0  0  0  0  0  0  0
  153.2619  137.8524  162.4733 H   0  0  0  0  0  0  0  0  0  0  0  0
  153.3957  139.4841  160.5127 H   0  0  0  0  0  0  0  0  0  0  0  0
  154.9601  139.8743  159.8518 H   0  0  0  0  0  0  0  0  0  0  0  0
  155.0295  137.3021  159.1981 H   0  0  0  0  0  0  0  0  0  0  0  0
  153.3335  137.2981  159.5565 H   0  0  0  0  0  0  0  0  0  0  0  0
  153.2362  140.5994  157.1369 H   0  0  0  0  0  0  0  0  0  0  0  0
  150.7130  138.8029  155.2530 H   0  0  0  0  0  0  0  0  0  0  0  0
  148.7829  139.8987  154.1681 H   0  0  0  0  0  0  0  0  0  0  0  0
  148.2824  142.3437  154.7441 H   0  0  0  0  0  0  0  0  0  0  0  0
  151.7334  144.6956  156.7985 H   0  0  0  0  0  0  0  0  0  0  0  0
  150.2863  144.3401  157.7536 H   0  0  0  0  0  0  0  0  0  0  0  0
  153.1053  144.8291  158.7674 H   0  0  0  0  0  0  0  0  0  0  0  0
  151.6101  145.5634  159.3567 H   0  0  0  0  0  0  0  0  0  0  0  0
  152.6273  143.4189  160.6789 H   0  0  0  0  0  0  0  0  0  0  0  0
  150.8955  143.4804  160.3509 H   0  0  0  0  0  0  0  0  0  0  0  0
  151.2954  141.4453  159.2592 H   0  0  0  0  0  0  0  0  0  0  0  0
  152.9841  141.8526  158.9307 H   0  0  0  0  0  0  0  0  0  0  0  0
  155.9420  140.3851  162.0502 H   0  0  0  0  0  0  0  0  0  0  0  0
  154.4081  140.0748  162.8314 H   0  0  0  0  0  0  0  0  0  0  0  0
  156.1061  139.7771  164.4913 H   0  0  0  0  0  0  0  0  0  0  0  0
  158.1128  139.4802  163.1278 H   0  0  0  0  0  0  0  0  0  0  0  0
  157.6014  137.8830  162.6128 H   0  0  0  0  0  0  0  0  0  0  0  0
  157.9993  138.1778  164.3043 H   0  0  0  0  0  0  0  0  0  0  0  0
  155.8831  138.1272  161.2180 H   0  0  0  0  0  0  0  0  0  0  0  0
  149.6316  143.4234  156.2655 H   0  0  0  0  0  0  0  0  0  0  0  0
  1  2  1  0  0  0  0
  1 26  1  0  0  0  0
  1 27  1  0  0  0  0
  1 28  1  0  0  0  0
  2 25  1  0  0  0  0
  2  3  1  0  0  0  0
  2 29  1  0  0  0  0
  3  4  1  0  0  0  0
  3 30  1  0  0  0  0
  3 31  1  0  0  0  0
  4  5  1  0  0  0  0
  4 22  1  0  0  0  0
  4 54  1  0  0  0  0
  5  6  1  0  0  0  0
  5 32  1  0  0  0  0
  5 33  1  0  0  0  0
  6  7  1  0  0  0  0
  6 34  1  0  0  0  0
  6 35  1  0  0  0  0
  7  8  1  0  0  0  0
  8  9  2  0  0  0  0
  8 10  1  0  0  0  0
 10 11  1  0  0  0  0
 10 36  1  0  0  0  0
 11 16  1  0  0  0  0
 11 12  2  0  0  0  0
 12 13  1  0  0  0  0
 12 37  1  0  0  0  0
 13 14  2  0  0  0  0
 13 38  1  0  0  0  0
 14 15  1  0  0  0  0
 14 39  1  0  0  0  0
 15 16  2  0  0  0  0
 15 55  1  0  0  0  0
 16 17  1  0  0  0  0
 17 21  1  0  0  0  0
 17 18  1  0  0  0  0
 18 19  1  0  0  0  0
 18 40  1  0  0  0  0
 18 41  1  0  0  0  0
 19 20  1  0  0  0  0
 19 42  1  0  0  0  0
 19 43  1  0  0  0  0
 20 21  1  0  0  0  0
 20 44  1  0  0  0  0
 20 45  1  0  0  0  0
 21 46  1  0  0  0  0
 21 47  1  0  0  0  0
 22 23  1  0  0  0  0
 22 48  1  0  0  0  0
 22 49  1  0  0  0  0
 23 24  1  0  0  0  0
 23 25  1  0  0  0  0
 23 50  1  0  0  0  0
 24 51  1  0  0  0  0
 24 52  1  0  0  0  0
 24 53  1  0  0  0  0
M  CHG  1   4   1
M  CHG  1   7  -1
M  CHG  1  15   1
M  END
> <s_m_source_file>
AV-unprocessed.smi

> <i_m_source_file_index>
1244

> <i_lp_mmshare_version>
43012

> <i_f3d_flags>
0

> <s_epik_input>
W0NIM11bQ0BASF0xW0NIMl1OKFtDSDJdW0NASF0oTzEpW0NIM10pW0NIMl1bQ0gyXVtOSF1DKD1PKVtOSF1jMltjSF1bY0hdW2NIXW5jMk4zW0NIMl1bQ0gyXVtDSDJdW0NIMl0z

> <s_epik_cmdline>
J2VwaWtfcHl0aG9uJywgJy1waCcsICc3LjAnLCAnLXRuJywgJzgnLCAnLW1hJywgJzIwMCcsICctbWV0YWxfYmluZGluZycsICctaW1hZScsICc8aW5maWxlLm1hZT4nLCAnLW9tYWUnLCAnPG91dGZpbGUubWFlPic=

> <r_lp_tautomer_probability>
0.999994

> <r_epik_Ionization_Penalty>
8.60539

> <r_epik_Ionization_Penalty_Charging>
8.60539

> <r_epik_Ionization_Penalty_Neutral>
3.60441e-06

> <r_epik_State_Penalty>
8.59967

> <r_epik_Charging_Adjusted_Penalty>
17.2051

> <i_epik_Tot_Q>
1

> <i_epik_Tot_abs_Q>
3

> <r_epik_Metal_State_Penalty>
4.59489

> <b_epik_Metal_Only>
1

> <s_lp_Force_Field>
OPLS_2005

> <r_lp_Energy>
46.9431

> <b_lp_Chiralities_Consistent>
1

> <s_lp_Variant>
AV-unprocessed.smi:1244-18

> <Gold.Version>
5.8.1

> <Gold.Id.Protein>
6NUR|6NUR_protein|mol2

> <Gold.PLP.Fitness>
55.0097

> <Gold.PLP.PLP>
-44.7384

> <Gold.PLP.part.hbond>
-2.0000

> <Gold.PLP.part.metal>
0.0000

> <Gold.PLP.part.buried>
-4.2180

> <Gold.PLP.part.nonpolar>
-40.1530

> <Gold.PLP.part.repulsive>
1.7292

> <Gold.PLP.ligand.clash>
0.0000

> <Gold.PLP.ligand.torsion>
1.3910

> <Gold.PLP.Chemscore.Hbond>
4.0000

> <Gold.PLP.Chemscore.CHOScore>
0.0000

> <Gold.PLP.Chemscore.Metal>
0.0000

> <Gold.Chemscore.Hbonds>
donor molecule, donor type, donor heavy atom, donor atom, acceptor molecule, acceptor atom, score
      L1  H    15    55       P1  8028  1.73
      P1  H  7997  8009       L1     7  2.00

> <Gold.PLP.Chemscore.Internal.Correction>
1.0533

> <Gold.Rescore>
     Score         DG    S(hbond)    S(metal)    S(lipo)     H(rot)  DE(clash)    DE(int)     intcor
     17.57     -20.62       1.52        0.00     116.94       1.42       0.18       2.87       ----

> <Gold.Chemscore.Fitness>
17.5692

> <Gold.Chemscore.DG>
-20.6205

> <Gold.Chemscore.ZeroCoef>
-5.4800

> <Gold.Chemscore.Hbond>
1.5239

> <Gold.Chemscore.Metal>
0.0000

> <Gold.Chemscore.Lipo>
116.9387

> <Gold.Chemscore.Internal_Hbond>
0.0000

> <Gold.Chemscore.DEClash>
0.1793

> <Gold.Chemscore.DEInternal>
2.8720

> <Gold.Chemscore.Rot>
1.4185

> <Gold.Chemscore.Internal.Correction>
   9.000000E+99

> <Gold.Chemscore.Hbonds>
donor molecule, donor type, donor heavy atom, donor atom, acceptor molecule, acceptor atom, score
      L1  H    15    55       P1  8028  0.84
      P1  H  7997  8009       L1     7  0.29

> <Gold.Chemscore.Hbond.Weighted>
-5.0900

> <Gold.Chemscore.Metal.Weighted>
-0.0000

> <Gold.Chemscore.Lipo.Weighted>
-13.6818

> <Gold.Chemscore.Internal_Hbond.Weighted>
0.0000

> <Gold.Chemscore.DEClash.Weighted>
0.1793

> <Gold.Chemscore.DEInternal.Weighted>
2.8720

> <Gold.Chemscore.Rot.Weighted>
3.6313

> <Gold.Chemscore.Internal.Correction.Weighted>
   9.000000E+99

> <Gold.Protein.RotatedTorsions>
[ 6907 6896 6895 6894 ] final  123.38 input  -60.11 | X-H torsion
[ 7974 7965 7964 7962 ] final -113.72 input  175.53 | X-H torsion
[ 8008 7997 7996 7995 ] final  138.06 input   59.86 | X-H torsion
[ 10167 10162 10161 10158 ] final   68.32 input  -65.29 | X-H torsion
[ 10718 10713 10712 10709 ] final   -4.76 input   66.30 | X-H torsion
[ 10763 10752 10751 10750 ] final  -26.23 input  -60.55 | X-H torsion
[ 11005 11000 10999 10996 ] final  -51.19 input  -57.11 | X-H torsion

> <Gold.Protein.ActiveResidues>
 VAL166  LYS551  ARG553  GLY616  TRP617  ASP618  TYR619  PRO620  LYS621  CYS622 
 ASP623  PHE694  ASN695  SER759  ASP760  ASP761  ALA762  ILE779  LEU786  VAL792 
 PHE793  MET794  SER795  GLU796  ALA797  LYS798  CYS799  TRP800  GLU811  SER814 

> <Gold.Protein.RotatedAtoms>
  152.4167  133.7049  159.6444 H   0  0  0  0  0  0  0  0  0  0  0  0  # atno 6907 bound_to 6896
  150.8044  133.8528  159.3219 H   0  0  0  0  0  0  0  0  0  0  0  0  # atno 6908 bound_to 6896
  151.6256  135.1030  160.0162 H   0  0  0  0  0  0  0  0  0  0  0  0  # atno 6909 bound_to 6896
  145.1287  140.8712  143.3771 H   0  0  0  0  0  0  0  0  0  0  0  0  # atno 7974 bound_to 7965
  156.2999  140.2403  156.4012 H   0  0  0  0  0  0  0  0  0  0  0  0  # atno 8008 bound_to 7997
  154.8525  140.0423  157.1633 H   0  0  0  0  0  0  0  0  0  0  0  0  # atno 8009 bound_to 7997
  154.8983  140.2973  155.5335 H   0  0  0  0  0  0  0  0  0  0  0  0  # atno 8010 bound_to 7997
  140.0799  144.5080  150.7169 H   0  0  0  0  0  0  0  0  0  0  0  0  # atno 10167 bound_to 10162
  156.7566  130.5256  149.5793 H   0  0  0  0  0  0  0  0  0  0  0  0  # atno 10718 bound_to 10713
  153.7126  135.6950  153.5033 H   0  0  0  0  0  0  0  0  0  0  0  0  # atno 10763 bound_to 10752
  153.2261  135.4353  155.0543 H   0  0  0  0  0  0  0  0  0  0  0  0  # atno 10764 bound_to 10752
  154.8310  135.3472  154.6663 H   0  0  0  0  0  0  0  0  0  0  0  0  # atno 10765 bound_to 10752
  141.0857  133.6643  156.3841 H   0  0  0  0  0  0  0  0  0  0  0  0  # atno 11005 bound_to 11000
  145.0659  139.3069  143.5856 LP  0  0  0  0  0  0  0  0  0  0  0  0  # atno 17320 bound_to 7965
  146.3515  140.0117  142.8666 LP  0  0  0  0  0  0  0  0  0  0  0  0  # atno 17321 bound_to 7965
  140.7083  143.2485  151.4659 LP  0  0  0  0  0  0  0  0  0  0  0  0  # atno 17342 bound_to 10162
  139.5786  144.1762  152.1937 LP  0  0  0  0  0  0  0  0  0  0  0  0  # atno 17343 bound_to 10162
  156.1367  130.6216  151.0409 LP  0  0  0  0  0  0  0  0  0  0  0  0  # atno 17370 bound_to 10713
  157.6753  131.0852  150.7509 LP  0  0  0  0  0  0  0  0  0  0  0  0  # atno 17371 bound_to 10713
  140.5367  134.6160  157.5367 LP  0  0  0  0  0  0  0  0  0  0  0  0  # atno 17394 bound_to 11000
  139.9675  134.7348  156.0108 LP  0  0  0  0  0  0  0  0  0  0  0  0  # atno 17395 bound_to 11000

$$$$
