AV-unprocessed.smi:3240|AV-procd|sdf|12382|dock3
  -GOLD-   2272018243D 1   1.00000     0.00000
 Structure written by MMmdl.
 44 45  0  0  0  0  0  0  0  0  2 V2000
  138.7883  139.5554  153.2024 C   0  0  0  0  0  0  0  0  0  0  0  0
  139.6778  138.3961  153.5482 C   0  0  0  0  0  0  0  0  0  0  0  0
  139.3345  137.2092  154.2559 C   0  0  0  0  0  0  0  0  0  0  0  0
  140.3568  136.3809  154.3959 N   0  0  0  0  0  0  0  0  0  0  0  0
  141.3852  137.0072  153.7865 N   0  0  0  0  0  0  0  0  0  0  0  0
  142.6939  136.3810  153.7407 C   0  0  0  0  0  0  0  0  0  0  0  0
  143.7286  137.2354  152.9673 C   0  0  1  0  0  0  0  0  0  0  0  0
  145.0023  137.4511  153.7973 C   0  0  0  0  0  0  0  0  0  0  0  0
  144.0913  136.6154  151.6731 N   0  3  0  0  0  0  0  0  0  0  0  0
  143.8559  135.1580  151.5772 C   0  0  0  0  0  0  0  0  0  0  0  0
  144.6306  134.5139  150.4020 C   0  0  0  0  0  0  0  0  0  0  0  0
  144.4442  135.3485  149.2742 O   0  0  0  0  0  0  0  0  0  0  0  0
  146.1514  134.3822  150.6648 C   0  0  0  0  0  0  0  0  0  0  0  0
  146.4727  133.3149  151.7259 C   0  0  0  0  0  0  0  0  0  0  0  0
  145.8756  131.9518  151.3423 C   0  0  0  0  0  0  0  0  0  0  0  0
  144.3642  132.0524  151.0843 C   0  0  0  0  0  0  0  0  0  0  0  0
  144.0460  133.1302  150.0317 C   0  0  0  0  0  0  0  0  0  0  0  0
  141.0031  138.2248  153.2649 C   0  0  0  0  0  0  0  0  0  0  0  0
  137.7562  139.3811  153.5075 H   0  0  0  0  0  0  0  0  0  0  0  0
  138.7774  139.7479  152.1293 H   0  0  0  0  0  0  0  0  0  0  0  0
  139.1162  140.4727  153.6915 H   0  0  0  0  0  0  0  0  0  0  0  0
  138.3775  136.9273  154.6700 H   0  0  0  0  0  0  0  0  0  0  0  0
  143.0161  136.2223  154.7708 H   0  0  0  0  0  0  0  0  0  0  0  0
  142.5927  135.3829  153.3102 H   0  0  0  0  0  0  0  0  0  0  0  0
  143.3154  138.2242  152.7583 H   0  0  0  0  0  0  0  0  0  0  0  0
  144.7761  137.9532  154.7387 H   0  0  0  0  0  0  0  0  0  0  0  0
  145.7220  138.0708  153.2613 H   0  0  0  0  0  0  0  0  0  0  0  0
  145.4892  136.5041  154.0337 H   0  0  0  0  0  0  0  0  0  0  0  0
  143.5322  137.0503  150.9528 H   0  0  0  0  0  0  0  0  0  0  0  0
  144.1497  134.6922  152.5151 H   0  0  0  0  0  0  0  0  0  0  0  0
  142.7856  134.9802  151.4621 H   0  0  0  0  0  0  0  0  0  0  0  0
  145.2322  135.3290  148.7520 H   0  0  0  0  0  0  0  0  0  0  0  0
  146.6552  134.1056  149.7373 H   0  0  0  0  0  0  0  0  0  0  0  0
  146.5828  135.3392  150.9597 H   0  0  0  0  0  0  0  0  0  0  0  0
  147.5533  133.2228  151.8402 H   0  0  0  0  0  0  0  0  0  0  0  0
  146.0901  133.6254  152.6986 H   0  0  0  0  0  0  0  0  0  0  0  0
  146.3724  131.5768  150.4465 H   0  0  0  0  0  0  0  0  0  0  0  0
  146.0711  131.2241  152.1306 H   0  0  0  0  0  0  0  0  0  0  0  0
  143.9838  131.0871  150.7485 H   0  0  0  0  0  0  0  0  0  0  0  0
  143.8446  132.2721  152.0172 H   0  0  0  0  0  0  0  0  0  0  0  0
  142.9669  133.1979  149.8876 H   0  0  0  0  0  0  0  0  0  0  0  0
  144.4566  132.8051  149.0741 H   0  0  0  0  0  0  0  0  0  0  0  0
  141.6988  138.8635  152.7406 H   0  0  0  0  0  0  0  0  0  0  0  0
  145.0640  136.8056  151.4799 H   0  0  0  0  0  0  0  0  0  0  0  0
  1  2  1  0  0  0  0
  1 19  1  0  0  0  0
  1 20  1  0  0  0  0
  1 21  1  0  0  0  0
  2 18  2  0  0  0  0
  2  3  1  0  0  0  0
  3  4  2  0  0  0  0
  3 22  1  0  0  0  0
  4  5  1  0  0  0  0
  5  6  1  0  0  0  0
  5 18  1  0  0  0  0
  6  7  1  0  0  0  0
  6 23  1  0  0  0  0
  6 24  1  0  0  0  0
  7  8  1  0  0  0  0
  7  9  1  0  0  0  0
  7 25  1  0  0  0  0
  8 26  1  0  0  0  0
  8 27  1  0  0  0  0
  8 28  1  0  0  0  0
  9 10  1  0  0  0  0
  9 29  1  0  0  0  0
  9 44  1  0  0  0  0
 10 11  1  0  0  0  0
 10 30  1  0  0  0  0
 10 31  1  0  0  0  0
 11 17  1  0  0  0  0
 11 12  1  0  0  0  0
 11 13  1  0  0  0  0
 12 32  1  0  0  0  0
 13 14  1  0  0  0  0
 13 33  1  0  0  0  0
 13 34  1  0  0  0  0
 14 15  1  0  0  0  0
 14 35  1  0  0  0  0
 14 36  1  0  0  0  0
 15 16  1  0  0  0  0
 15 37  1  0  0  0  0
 15 38  1  0  0  0  0
 16 17  1  0  0  0  0
 16 39  1  0  0  0  0
 16 40  1  0  0  0  0
 17 41  1  0  0  0  0
 17 42  1  0  0  0  0
 18 43  1  0  0  0  0
M  CHG  1   9   1
M  END
> <s_m_source_file>
AV-unprocessed.smi

> <i_m_source_file_index>
3240

> <i_lp_mmshare_version>
43012

> <i_f3d_flags>
0

> <s_epik_input>
W0NIM11jMVtjSF1ubihbY0hdMSlbQ0gyXVtDQEhdKFtDSDNdKVtOSF1bQ0gyXUMyKFtPSF0pW0NIMl1bQ0gyXVtDSDJdW0NIMl1bQ0gyXTI=

> <s_epik_cmdline>
J2VwaWtfcHl0aG9uJywgJy1waCcsICc3LjAnLCAnLXRuJywgJzgnLCAnLW1hJywgJzIwMCcsICctbWV0YWxfYmluZGluZycsICctaW1hZScsICc8aW5maWxlLm1hZT4nLCAnLW9tYWUnLCAnPG91dGZpbGUubWFlPic=

> <r_lp_tautomer_probability>
1

> <r_epik_Ionization_Penalty>
0.0111573

> <r_epik_Ionization_Penalty_Charging>
0.0111472

> <r_epik_Ionization_Penalty_Neutral>
1.01652e-05

> <r_epik_State_Penalty>
0.00856328

> <r_epik_Charging_Adjusted_Penalty>
0.0197104

> <i_epik_Tot_Q>
1

> <i_epik_Tot_abs_Q>
1

> <r_epik_Metal_State_Penalty>
0.00856448

> <b_epik_Metal_Only>
0

> <s_lp_Force_Field>
OPLS_2005

> <r_lp_Energy>
18.8853

> <b_lp_Chiralities_Consistent>
1

> <s_lp_Variant>
AV-unprocessed.smi:3240-2

> <Gold.Version>
5.8.1

> <Gold.Id.Protein>
6NUR|6NUR_protein|mol2

> <Gold.PLP.Fitness>
44.0362

> <Gold.PLP.PLP>
-37.7071

> <Gold.PLP.part.hbond>
-2.3307

> <Gold.PLP.part.metal>
0.0000

> <Gold.PLP.part.buried>
-5.7473

> <Gold.PLP.part.nonpolar>
-27.7660

> <Gold.PLP.part.repulsive>
0.1108

> <Gold.PLP.ligand.clash>
0.2367

> <Gold.PLP.ligand.torsion>
1.5077

> <Gold.PLP.Chemscore.Hbond>
2.1268

> <Gold.PLP.Chemscore.CHOScore>
1.0559

> <Gold.PLP.Chemscore.Metal>
0.0000

> <Gold.Chemscore.Hbonds>
donor molecule, donor type, donor heavy atom, donor atom, acceptor molecule, acceptor atom, score
      L1  H     9    29       P1 10171  0.66
      L1  H    12    32       P1  7921  0.98
      P1  H 11000 11005       L1     4  0.25
      L1  C    18    43       P1 10160  0.27
      L1  C    18    43       P1 10175  1.00

> <Gold.PLP.Chemscore.Internal.Correction>
0.0331

> <Gold.Rescore>
     Score         DG    S(hbond)    S(metal)    S(lipo)     H(rot)  DE(clash)    DE(int)     intcor
     16.58     -18.34       2.21        0.00      93.18       2.12       0.24       1.53       ----

> <Gold.Chemscore.Fitness>
16.5778

> <Gold.Chemscore.DG>
-18.3418

> <Gold.Chemscore.ZeroCoef>
-5.4800

> <Gold.Chemscore.Hbond>
2.2110

> <Gold.Chemscore.Metal>
0.0000

> <Gold.Chemscore.Lipo>
93.1832

> <Gold.Chemscore.Internal_Hbond>
0.0000

> <Gold.Chemscore.DEClash>
0.2357

> <Gold.Chemscore.DEInternal>
1.5283

> <Gold.Chemscore.Rot>
2.1193

> <Gold.Chemscore.Internal.Correction>
   9.000000E+99

> <Gold.Chemscore.Hbonds>
donor molecule, donor type, donor heavy atom, donor atom, acceptor molecule, acceptor atom, score
      L1  H     9    29       P1 10171  0.65
      L1  H    12    32       P1  7921  0.89
      P1  H 11000 11005       L1     4  0.24

> <Gold.Chemscore.Hbond.Weighted>
-7.3847

> <Gold.Chemscore.Metal.Weighted>
-0.0000

> <Gold.Chemscore.Lipo.Weighted>
-10.9024

> <Gold.Chemscore.Internal_Hbond.Weighted>
0.0000

> <Gold.Chemscore.DEClash.Weighted>
0.2357

> <Gold.Chemscore.DEInternal.Weighted>
1.5283

> <Gold.Chemscore.Rot.Weighted>
5.4254

> <Gold.Chemscore.Internal.Correction.Weighted>
   9.000000E+99

> <Gold.Protein.RotatedTorsions>
[ 6907 6896 6895 6894 ] final   17.50 input  -60.11 | X-H torsion
[ 7974 7965 7964 7962 ] final -104.79 input  175.53 | X-H torsion
[ 8008 7997 7996 7995 ] final  -64.48 input   59.86 | X-H torsion
[ 10167 10162 10161 10158 ] final    4.10 input  -65.29 | X-H torsion
[ 10718 10713 10712 10709 ] final  122.86 input   66.30 | X-H torsion
[ 10763 10752 10751 10750 ] final   48.62 input  -60.55 | X-H torsion
[ 11005 11000 10999 10996 ] final   51.92 input  -57.11 | X-H torsion

> <Gold.Protein.ActiveResidues>
 VAL166  LYS551  ARG553  GLY616  TRP617  ASP618  TYR619  PRO620  LYS621  CYS622 
 ASP623  PHE694  ASN695  SER759  ASP760  ASP761  ALA762  ILE779  LEU786  VAL792 
 PHE793  MET794  SER795  GLU796  ALA797  LYS798  CYS799  TRP800  GLU811  SER814 

> <Gold.Protein.RotatedAtoms>
  151.8506  135.0559  160.0458 H   0  0  0  0  0  0  0  0  0  0  0  0  # atno 6907 bound_to 6896
  152.2739  133.5403  159.5464 H   0  0  0  0  0  0  0  0  0  0  0  0  # atno 6908 bound_to 6896
  150.7162  134.0575  159.3862 H   0  0  0  0  0  0  0  0  0  0  0  0  # atno 6909 bound_to 6896
  145.2386  140.9197  143.3163 H   0  0  0  0  0  0  0  0  0  0  0  0  # atno 7974 bound_to 7965
  154.4614  140.0953  156.6904 H   0  0  0  0  0  0  0  0  0  0  0  0  # atno 8008 bound_to 7997
  155.4982  140.3473  155.4348 H   0  0  0  0  0  0  0  0  0  0  0  0  # atno 8009 bound_to 7997
  156.0878  140.1389  156.9620 H   0  0  0  0  0  0  0  0  0  0  0  0  # atno 8010 bound_to 7997
  140.6552  143.7445  150.7642 H   0  0  0  0  0  0  0  0  0  0  0  0  # atno 10167 bound_to 10162
  157.5709  131.1083  150.8368 H   0  0  0  0  0  0  0  0  0  0  0  0  # atno 10718 bound_to 10713
  152.9791  135.5938  154.3955 H   0  0  0  0  0  0  0  0  0  0  0  0  # atno 10763 bound_to 10752
  154.3606  135.2767  155.2324 H   0  0  0  0  0  0  0  0  0  0  0  0  # atno 10764 bound_to 10752
  154.4323  135.6033  153.6131 H   0  0  0  0  0  0  0  0  0  0  0  0  # atno 10765 bound_to 10752
  140.0892  134.5232  155.8869 H   0  0  0  0  0  0  0  0  0  0  0  0  # atno 11005 bound_to 11000
  144.9610  139.3980  143.6356 LP  0  0  0  0  0  0  0  0  0  0  0  0  # atno 17320 bound_to 7965
  146.3334  139.8662  142.8847 LP  0  0  0  0  0  0  0  0  0  0  0  0  # atno 17321 bound_to 7965
  140.1103  143.4705  152.2374 LP  0  0  0  0  0  0  0  0  0  0  0  0  # atno 17342 bound_to 10162
  139.5773  144.7494  151.3730 LP  0  0  0  0  0  0  0  0  0  0  0  0  # atno 17343 bound_to 10162
  156.8839  130.5189  149.5289 LP  0  0  0  0  0  0  0  0  0  0  0  0  # atno 17370 bound_to 10713
  156.0755  130.5778  150.9465 LP  0  0  0  0  0  0  0  0  0  0  0  0  # atno 17371 bound_to 10713
  141.2072  133.6662  156.6293 LP  0  0  0  0  0  0  0  0  0  0  0  0  # atno 17394 bound_to 11000
  140.3377  134.7876  157.4374 LP  0  0  0  0  0  0  0  0  0  0  0  0  # atno 17395 bound_to 11000

$$$$
