AV-unprocessed.smi:9|AV-procd|sdf|49|dock10
  -GOLD-   2262015163D 1   1.00000     0.00000
 Structure written by MMmdl.
 34 36  0  0  0  0  0  0  0  0  2 V2000
  151.1213  132.1765  156.8905 O   0  0  0  0  0  0  0  0  0  0  0  0
  150.1422  132.8973  156.7076 C   0  0  0  0  0  0  0  0  0  0  0  0
  149.6003  133.7463  157.6365 N   0  5  0  0  0  0  0  0  0  0  0  0
  148.4820  134.5281  157.3261 C   0  0  0  0  0  0  0  0  0  0  0  0
  147.9746  135.4365  158.4411 C   0  0  0  0  0  0  0  0  0  0  0  0
  148.8548  136.3968  158.7344 F   0  0  0  0  0  0  0  0  0  0  0  0
  146.8327  136.0251  158.0822 F   0  0  0  0  0  0  0  0  0  0  0  0
  147.7522  134.7317  159.5512 F   0  0  0  0  0  0  0  0  0  0  0  0
  147.8646  134.5364  156.1884 N   0  0  0  0  0  0  0  0  0  0  0  0
  148.3853  133.6935  155.2312 C   0  0  0  0  0  0  0  0  0  0  0  0
  149.4660  132.8717  155.3837 C   0  0  0  0  0  0  0  0  0  0  0  0
  149.7173  132.1493  154.2228 N   0  0  0  0  0  0  0  0  0  0  0  0
  148.7535  132.5828  153.4101 C   0  0  0  0  0  0  0  0  0  0  0  0
  147.9257  133.5098  153.9333 N   0  0  0  0  0  0  0  0  0  0  0  0
  146.7944  134.1533  153.2810 C   0  0  0  0  0  0  0  0  0  0  0  0
  145.7192  133.1705  152.7495 C   0  0  1  0  0  0  0  0  0  0  0  0
  145.3445  132.3310  153.8258 O   0  0  0  0  0  0  0  0  0  0  0  0
  144.4690  133.9073  152.2193 C   0  0  0  0  0  0  0  0  0  0  0  0
  143.5331  132.9641  151.4569 C   0  0  0  0  0  0  0  0  0  0  0  0
  144.3155  132.1962  150.3860 C   0  0  0  0  0  0  0  0  0  0  0  0
  145.3542  131.4550  151.0105 O   0  0  0  0  0  0  0  0  0  0  0  0
  146.3341  132.2649  151.6557 C   0  0  0  0  0  0  0  0  0  0  0  0
  148.6489  132.2183  152.3988 H   0  0  0  0  0  0  0  0  0  0  0  0
  146.3442  134.8378  154.0013 H   0  0  0  0  0  0  0  0  0  0  0  0
  147.1741  134.7777  152.4710 H   0  0  0  0  0  0  0  0  0  0  0  0
  144.4140  132.4202  153.9648 H   0  0  0  0  0  0  0  0  0  0  0  0
  143.9241  134.3897  153.0317 H   0  0  0  0  0  0  0  0  0  0  0  0
  144.7829  134.7042  151.5439 H   0  0  0  0  0  0  0  0  0  0  0  0
  143.0689  132.2599  152.1482 H   0  0  0  0  0  0  0  0  0  0  0  0
  142.7230  133.5315  150.9981 H   0  0  0  0  0  0  0  0  0  0  0  0
  143.6550  131.5043  149.8632 H   0  0  0  0  0  0  0  0  0  0  0  0
  144.7292  132.8731  149.6369 H   0  0  0  0  0  0  0  0  0  0  0  0
  146.8270  132.8745  150.8968 H   0  0  0  0  0  0  0  0  0  0  0  0
  147.1049  131.6186  152.0778 H   0  0  0  0  0  0  0  0  0  0  0  0
  1  2  2  0  0  0  0
  2 11  1  0  0  0  0
  2  3  1  0  0  0  0
  3  4  1  0  0  0  0
  4  5  1  0  0  0  0
  4  9  2  0  0  0  0
  5  6  1  0  0  0  0
  5  7  1  0  0  0  0
  5  8  1  0  0  0  0
  9 10  1  0  0  0  0
 10 14  1  0  0  0  0
 10 11  2  0  0  0  0
 11 12  1  0  0  0  0
 12 13  2  0  0  0  0
 13 14  1  0  0  0  0
 13 23  1  0  0  0  0
 14 15  1  0  0  0  0
 15 16  1  0  0  0  0
 15 24  1  0  0  0  0
 15 25  1  0  0  0  0
 16 22  1  0  0  0  0
 16 17  1  0  0  0  0
 16 18  1  0  0  0  0
 17 26  1  0  0  0  0
 18 19  1  0  0  0  0
 18 27  1  0  0  0  0
 18 28  1  0  0  0  0
 19 20  1  0  0  0  0
 19 29  1  0  0  0  0
 19 30  1  0  0  0  0
 20 21  1  0  0  0  0
 20 31  1  0  0  0  0
 20 32  1  0  0  0  0
 21 22  1  0  0  0  0
 22 33  1  0  0  0  0
 22 34  1  0  0  0  0
M  CHG  1   3  -1
M  END
> <s_m_source_file>
AV-unprocessed.smi

> <i_m_source_file_index>
9

> <i_lp_mmshare_version>
43012

> <i_f3d_flags>
0

> <s_epik_input>
RkMoRikoRiljKG4xKVtuSF1jKD1PKWMoYzEyKW5bY0hdbjJbQ0gyXVtDQEBdMyhbT0hdKVtDSDJdW0NIMl1bQ0gyXU9bQ0gyXTM=

> <s_epik_cmdline>
J2VwaWtfcHl0aG9uJywgJy1waCcsICc3LjAnLCAnLXRuJywgJzgnLCAnLW1hJywgJzIwMCcsICctbWV0YWxfYmluZGluZycsICctaW1hZScsICc8aW5maWxlLm1hZT4nLCAnLW9tYWUnLCAnPG91dGZpbGUubWFlPic=

> <r_lp_tautomer_probability>
1

> <r_epik_Ionization_Penalty>
0.188582

> <r_epik_Ionization_Penalty_Charging>
1.37005e-11

> <r_epik_Ionization_Penalty_Neutral>
0.188582

> <r_epik_State_Penalty>
0.012336

> <r_epik_Charging_Adjusted_Penalty>
0.012336

> <i_epik_Tot_Q>
-1

> <i_epik_Tot_abs_Q>
1

> <r_epik_Metal_State_Penalty>
0.0089237

> <b_epik_Metal_Only>
0

> <s_lp_Force_Field>
OPLS_2005

> <r_lp_Energy>
37.6166

> <b_lp_Chiralities_Consistent>
1

> <s_lp_Variant>
AV-unprocessed.smi:9-1

> <Gold.Version>
5.8.1

> <Gold.Id.Protein>
6NUR|6NUR_protein|mol2

> <Gold.PLP.Fitness>
37.8142

> <Gold.PLP.PLP>
-26.1134

> <Gold.PLP.part.hbond>
-2.0000

> <Gold.PLP.part.metal>
0.0000

> <Gold.PLP.part.buried>
-4.1881

> <Gold.PLP.part.nonpolar>
-21.5189

> <Gold.PLP.part.repulsive>
0.1740

> <Gold.PLP.ligand.clash>
0.0000

> <Gold.PLP.ligand.torsion>
0.1527

> <Gold.PLP.Chemscore.Hbond>
3.0000

> <Gold.PLP.Chemscore.CHOScore>
1.0000

> <Gold.PLP.Chemscore.Metal>
0.0000

> <Gold.Chemscore.Hbonds>
donor molecule, donor type, donor heavy atom, donor atom, acceptor molecule, acceptor atom, score
      L1  H    17    26       P1 10957  0.99
      P1  H  6896  6909       L1     3  2.00
      L1  C    13    23       P1 10747  1.00

> <Gold.PLP.Chemscore.Internal.Correction>
0.0061

> <Gold.Rescore>
     Score         DG    S(hbond)    S(metal)    S(lipo)     H(rot)  DE(clash)    DE(int)     intcor
      9.82     -10.04       1.60        0.00      39.87       2.12       0.01       0.22       ----

> <Gold.Chemscore.Fitness>
9.8189

> <Gold.Chemscore.DG>
-10.0409

> <Gold.Chemscore.ZeroCoef>
-5.4800

> <Gold.Chemscore.Hbond>
1.5967

> <Gold.Chemscore.Metal>
0.0000

> <Gold.Chemscore.Lipo>
39.8728

> <Gold.Chemscore.Internal_Hbond>
0.0000

> <Gold.Chemscore.DEClash>
0.0060

> <Gold.Chemscore.DEInternal>
0.2160

> <Gold.Chemscore.Rot>
2.1239

> <Gold.Chemscore.Internal.Correction>
   9.000000E+99

> <Gold.Chemscore.Hbonds>
donor molecule, donor type, donor heavy atom, donor atom, acceptor molecule, acceptor atom, score
      L1  H    17    26       P1 10957  0.40
      P1  H  6896  6909       L1     3  0.67

> <Gold.Chemscore.Hbond.Weighted>
-5.3331

> <Gold.Chemscore.Metal.Weighted>
-0.0000

> <Gold.Chemscore.Lipo.Weighted>
-4.6651

> <Gold.Chemscore.Internal_Hbond.Weighted>
0.0000

> <Gold.Chemscore.DEClash.Weighted>
0.0060

> <Gold.Chemscore.DEInternal.Weighted>
0.2160

> <Gold.Chemscore.Rot.Weighted>
5.4373

> <Gold.Chemscore.Internal.Correction.Weighted>
   9.000000E+99

> <Gold.Protein.RotatedTorsions>
[ 6907 6896 6895 6894 ] final   -0.17 input  -60.11 | X-H torsion
[ 7974 7965 7964 7962 ] final -126.76 input  175.53 | X-H torsion
[ 8008 7997 7996 7995 ] final  159.26 input   59.86 | X-H torsion
[ 10167 10162 10161 10158 ] final  103.83 input  -65.29 | X-H torsion
[ 10718 10713 10712 10709 ] final  -31.77 input   66.30 | X-H torsion
[ 10763 10752 10751 10750 ] final   62.14 input  -60.55 | X-H torsion
[ 11005 11000 10999 10996 ] final  -24.15 input  -57.11 | X-H torsion

> <Gold.Protein.ActiveResidues>
 VAL166  LYS551  ARG553  GLY616  TRP617  ASP618  TYR619  PRO620  LYS621  CYS622 
 ASP623  PHE694  ASN695  SER759  ASP760  ASP761  ALA762  ILE779  LEU786  VAL792 
 PHE793  MET794  SER795  GLU796  ALA797  LYS798  CYS799  TRP800  GLU811  SER814 

> <Gold.Protein.RotatedAtoms>
  151.5666  135.1064  159.9985 H   0  0  0  0  0  0  0  0  0  0  0  0  # atno 6907 bound_to 6896
  152.4421  133.7463  159.6680 H   0  0  0  0  0  0  0  0  0  0  0  0  # atno 6908 bound_to 6896
  150.8328  133.7993  159.3115 H   0  0  0  0  0  0  0  0  0  0  0  0  # atno 6909 bound_to 6896
  144.9840  140.7668  143.4595 H   0  0  0  0  0  0  0  0  0  0  0  0  # atno 7974 bound_to 7965
  156.2250  140.1836  156.7385 H   0  0  0  0  0  0  0  0  0  0  0  0  # atno 8008 bound_to 7997
  154.5926  140.0648  156.9288 H   0  0  0  0  0  0  0  0  0  0  0  0  # atno 8009 bound_to 7997
  155.2309  140.3314  155.4306 H   0  0  0  0  0  0  0  0  0  0  0  0  # atno 8010 bound_to 7997
  139.7229  144.7054  151.0843 H   0  0  0  0  0  0  0  0  0  0  0  0  # atno 10167 bound_to 10162
  156.3832  130.4359  149.7453 H   0  0  0  0  0  0  0  0  0  0  0  0  # atno 10718 bound_to 10713
  152.9973  135.5475  154.6146 H   0  0  0  0  0  0  0  0  0  0  0  0  # atno 10763 bound_to 10752
  154.5459  135.2823  155.1055 H   0  0  0  0  0  0  0  0  0  0  0  0  # atno 10764 bound_to 10752
  154.2314  135.6433  153.5229 H   0  0  0  0  0  0  0  0  0  0  0  0  # atno 10765 bound_to 10752
  140.8818  133.7648  156.0312 H   0  0  0  0  0  0  0  0  0  0  0  0  # atno 11005 bound_to 11000
  145.2380  139.2085  143.5007 LP  0  0  0  0  0  0  0  0  0  0  0  0  # atno 17320 bound_to 7965
  146.3415  140.2270  142.8592 LP  0  0  0  0  0  0  0  0  0  0  0  0  # atno 17321 bound_to 7965
  140.7757  143.5142  150.9615 LP  0  0  0  0  0  0  0  0  0  0  0  0  # atno 17342 bound_to 10162
  139.8829  143.7049  152.3155 LP  0  0  0  0  0  0  0  0  0  0  0  0  # atno 17343 bound_to 10162
  156.4535  130.7918  151.2939 LP  0  0  0  0  0  0  0  0  0  0  0  0  # atno 17370 bound_to 10713
  157.7494  131.0088  150.3242 LP  0  0  0  0  0  0  0  0  0  0  0  0  # atno 17371 bound_to 10713
  140.8452  134.3020  157.5298 LP  0  0  0  0  0  0  0  0  0  0  0  0  # atno 17394 bound_to 11000
  139.8720  134.9438  156.3862 LP  0  0  0  0  0  0  0  0  0  0  0  0  # atno 17395 bound_to 11000

$$$$
