AV-unprocessed.smi:101|AV-procd|sdf|923|dock5
  -GOLD-   2262017433D 1   1.00000     0.00000
 Structure written by MMmdl.
 44 46  0  0  0  0  0  0  0  0  1 V2000
  143.8577  137.9286  155.8029 C   0  0  0  0  0  0  0  0  0  0  0  0
  144.6376  138.0273  154.5024 C   0  0  0  0  0  0  0  0  0  0  0  0
  145.7968  138.7263  154.4003 C   0  0  0  0  0  0  0  0  0  0  0  0
  146.5278  138.8382  153.2257 N   0  0  0  0  0  0  0  0  0  0  0  0
  147.8182  139.6286  153.1952 C   0  0  2  0  0  0  0  0  0  0  0  0
  148.6221  139.1751  154.2371 O   0  0  0  0  0  0  0  0  0  0  0  0
  149.3667  140.2666  154.7523 C   0  0  2  0  0  0  0  0  0  0  0  0
  149.8182  139.9521  156.1827 C   0  0  0  0  0  0  0  0  0  0  0  0
  150.8141  140.8843  156.5699 O   0  0  0  0  0  0  0  0  0  0  0  0
  151.3940  140.7870  157.7818 C   0  0  0  0  0  0  0  0  0  0  0  0
  151.5499  139.7203  158.3794 O   0  0  0  0  0  0  0  0  0  0  0  0
  151.8282  142.1063  158.3254 C   0  0  0  0  0  0  0  0  0  0  0  0
  151.5965  143.2777  157.5669 C   0  0  0  0  0  0  0  0  0  0  0  0
  151.9943  144.5379  158.0537 C   0  0  0  0  0  0  0  0  0  0  0  0
  152.6278  144.6427  159.3056 C   0  0  0  0  0  0  0  0  0  0  0  0
  152.8641  143.4851  160.0699 C   0  0  0  0  0  0  0  0  0  0  0  0
  152.4675  142.2237  159.5846 C   0  0  0  0  0  0  0  0  0  0  0  0
  148.3834  141.4367  154.6636 C   0  0  1  0  0  0  0  0  0  0  0  0
  149.0847  142.6612  154.5708 O   0  0  0  0  0  0  0  0  0  0  0  0
  147.6127  141.1508  153.3783 C   0  0  2  0  0  0  0  0  0  0  0  0
  146.2599  141.5517  153.5057 O   0  0  0  0  0  0  0  0  0  0  0  0
  146.0566  138.2121  152.0534 C   0  0  0  0  0  0  0  0  0  0  0  0
  146.6359  138.2891  150.9708 O   0  0  0  0  0  0  0  0  0  0  0  0
  144.8695  137.4894  152.1589 N   0  0  0  0  0  0  0  0  0  0  0  0
  144.1069  137.3415  153.3205 C   0  0  0  0  0  0  0  0  0  0  0  0
  143.0743  136.6744  153.2878 O   0  0  0  0  0  0  0  0  0  0  0  0
  144.5290  137.0360  151.3235 H   0  0  0  0  0  0  0  0  0  0  0  0
  144.3402  138.4850  156.6071 H   0  0  0  0  0  0  0  0  0  0  0  0
  143.7742  136.8882  156.1190 H   0  0  0  0  0  0  0  0  0  0  0  0
  142.8518  138.3306  155.6757 H   0  0  0  0  0  0  0  0  0  0  0  0
  146.1681  139.2323  155.2805 H   0  0  0  0  0  0  0  0  0  0  0  0
  148.3320  139.3884  152.2630 H   0  0  0  0  0  0  0  0  0  0  0  0
  150.2247  140.4439  154.1005 H   0  0  0  0  0  0  0  0  0  0  0  0
  148.9727  140.0345  156.8672 H   0  0  0  0  0  0  0  0  0  0  0  0
  150.1970  138.9309  156.2462 H   0  0  0  0  0  0  0  0  0  0  0  0
  151.1112  143.2225  156.6028 H   0  0  0  0  0  0  0  0  0  0  0  0
  151.8123  145.4252  157.4654 H   0  0  0  0  0  0  0  0  0  0  0  0
  152.9322  145.6093  159.6789 H   0  0  0  0  0  0  0  0  0  0  0  0
  153.3507  143.5643  161.0311 H   0  0  0  0  0  0  0  0  0  0  0  0
  152.6633  141.3556  160.1972 H   0  0  0  0  0  0  0  0  0  0  0  0
  147.7168  141.4369  155.5281 H   0  0  0  0  0  0  0  0  0  0  0  0
  150.0121  142.4803  154.5838 H   0  0  0  0  0  0  0  0  0  0  0  0
  148.0632  141.6515  152.5198 H   0  0  0  0  0  0  0  0  0  0  0  0
  145.7357  141.0232  152.9234 H   0  0  0  0  0  0  0  0  0  0  0  0
  1  2  1  0  0  0  0
  1 28  1  0  0  0  0
  1 29  1  0  0  0  0
  1 30  1  0  0  0  0
  2 25  1  0  0  0  0
  2  3  2  0  0  0  0
  3  4  1  0  0  0  0
  3 31  1  0  0  0  0
  4  5  1  0  0  0  0
  4 22  1  0  0  0  0
  5 20  1  0  0  0  0
  5  6  1  0  0  0  0
  5 32  1  0  0  0  0
  6  7  1  0  0  0  0
  7  8  1  0  0  0  0
  7 18  1  0  0  0  0
  7 33  1  0  0  0  0
  8  9  1  0  0  0  0
  8 34  1  0  0  0  0
  8 35  1  0  0  0  0
  9 10  1  0  0  0  0
 10 11  2  0  0  0  0
 10 12  1  0  0  0  0
 12 17  1  0  0  0  0
 12 13  2  0  0  0  0
 13 14  1  0  0  0  0
 13 36  1  0  0  0  0
 14 15  2  0  0  0  0
 14 37  1  0  0  0  0
 15 16  1  0  0  0  0
 15 38  1  0  0  0  0
 16 17  2  0  0  0  0
 16 39  1  0  0  0  0
 17 40  1  0  0  0  0
 18 19  1  0  0  0  0
 18 20  1  0  0  0  0
 18 41  1  0  0  0  0
 19 42  1  0  0  0  0
 20 21  1  0  0  0  0
 20 43  1  0  0  0  0
 21 44  1  0  0  0  0
 22 23  2  0  0  0  0
 22 24  1  0  0  0  0
 24 27  1  0  0  0  0
 24 25  1  0  0  0  0
 25 26  2  0  0  0  0
M  END
> <s_m_source_file>
AV-unprocessed.smi

> <i_m_source_file_index>
101

> <i_lp_mmshare_version>
43012

> <i_f3d_flags>
0

> <s_epik_input>
Tz1jMVtuSF1jKD1PKW4oW2NIXWMxW0NIM10pW0NAQEhdMk9bQ0BIXShbQ0BASF0oW09IXSlbQ0BIXTJbT0hdKVtDSDJdT0MoPU8pYzNbY0hdW2NIXVtjSF1bY0hdW2NIXTM=

> <s_epik_cmdline>
J2VwaWtfcHl0aG9uJywgJy1waCcsICc3LjAnLCAnLXRuJywgJzgnLCAnLW1hJywgJzIwMCcsICctbWV0YWxfYmluZGluZycsICctaW1hZScsICc8aW5maWxlLm1hZT4nLCAnLW9tYWUnLCAnPG91dGZpbGUubWFlPic=

> <r_lp_tautomer_probability>
0.999537

> <r_epik_Ionization_Penalty>
0.00263537

> <r_epik_Ionization_Penalty_Charging>
0.00263428

> <r_epik_Ionization_Penalty_Neutral>
1.09111e-06

> <r_epik_State_Penalty>
0.00183335

> <r_epik_Charging_Adjusted_Penalty>
0.00446763

> <i_epik_Tot_Q>
0

> <i_epik_Tot_abs_Q>
0

> <r_epik_Metal_State_Penalty>
1.00528

> <b_epik_Metal_Only>
0

> <s_epik_Chemistry_Notes>
This compound has an ester and may undergo hydrolysis at high or low pH. This compound contains an acetal/aminal-like group ( X-CH(R)-Y where X, Y are N, S, or O) that may be acid/base labile, releasing an aldehyde.

> <s_lp_Force_Field>
OPLS_2005

> <r_lp_Energy>
35.5527

> <b_lp_Chiralities_Consistent>
1

> <s_lp_Variant>
AV-unprocessed.smi:101-11

> <Gold.Version>
5.8.1

> <Gold.Id.Protein>
6NUR|6NUR_protein|mol2

> <Gold.PLP.Fitness>
48.6372

> <Gold.PLP.PLP>
-43.8524

> <Gold.PLP.part.hbond>
-4.1068

> <Gold.PLP.part.metal>
0.0000

> <Gold.PLP.part.buried>
-4.8346

> <Gold.PLP.part.nonpolar>
-38.1771

> <Gold.PLP.part.repulsive>
1.1205

> <Gold.PLP.ligand.clash>
0.0131

> <Gold.PLP.ligand.torsion>
0.6471

> <Gold.PLP.Chemscore.Hbond>
1.8969

> <Gold.PLP.Chemscore.CHOScore>
0.0000

> <Gold.PLP.Chemscore.Metal>
0.0000

> <Gold.Chemscore.Hbonds>
donor molecule, donor type, donor heavy atom, donor atom, acceptor molecule, acceptor atom, score
      L1  H    21    44       P1 10175  0.58
      L1  H    24    27       P1 10171  0.09
      P1  H  7954  7966       L1    23  1.00
      P1  H  8022  8030       L1    19  0.18

> <Gold.PLP.Chemscore.Internal.Correction>
0.4016

> <Gold.Rescore>
     Score         DG    S(hbond)    S(metal)    S(lipo)     H(rot)  DE(clash)    DE(int)     intcor
     11.03     -13.69       1.61        0.00      96.86       3.32       0.93       1.73       ----

> <Gold.Chemscore.Fitness>
11.0271

> <Gold.Chemscore.DG>
-13.6922

> <Gold.Chemscore.ZeroCoef>
-5.4800

> <Gold.Chemscore.Hbond>
1.6083

> <Gold.Chemscore.Metal>
0.0000

> <Gold.Chemscore.Lipo>
96.8597

> <Gold.Chemscore.Internal_Hbond>
0.0000

> <Gold.Chemscore.DEClash>
0.9309

> <Gold.Chemscore.DEInternal>
1.7342

> <Gold.Chemscore.Rot>
3.3172

> <Gold.Chemscore.Internal.Correction>
   9.000000E+99

> <Gold.Chemscore.Hbonds>
donor molecule, donor type, donor heavy atom, donor atom, acceptor molecule, acceptor atom, score
      L1  H    21    44       P1 10175  0.15
      L1  H    24    27       P1 10171  0.08
      P1  H  7954  7966       L1    23  0.98
      P1  H  8022  8030       L1    19  0.16

> <Gold.Chemscore.Hbond.Weighted>
-5.3717

> <Gold.Chemscore.Metal.Weighted>
-0.0000

> <Gold.Chemscore.Lipo.Weighted>
-11.3326

> <Gold.Chemscore.Internal_Hbond.Weighted>
0.0000

> <Gold.Chemscore.DEClash.Weighted>
0.9309

> <Gold.Chemscore.DEInternal.Weighted>
1.7342

> <Gold.Chemscore.Rot.Weighted>
8.4920

> <Gold.Chemscore.Internal.Correction.Weighted>
   9.000000E+99

> <Gold.Protein.RotatedTorsions>
[ 6907 6896 6895 6894 ] final  -71.84 input  -60.11 | X-H torsion
[ 7974 7965 7964 7962 ] final  162.56 input  175.53 | X-H torsion
[ 8008 7997 7996 7995 ] final   43.69 input   59.86 | X-H torsion
[ 10167 10162 10161 10158 ] final  -74.08 input  -65.29 | X-H torsion
[ 10718 10713 10712 10709 ] final  150.94 input   66.30 | X-H torsion
[ 10763 10752 10751 10750 ] final  -84.57 input  -60.55 | X-H torsion
[ 11005 11000 10999 10996 ] final   -6.26 input  -57.11 | X-H torsion

> <Gold.Protein.ActiveResidues>
 VAL166  LYS551  ARG553  GLY616  TRP617  ASP618  TYR619  PRO620  LYS621  CYS622 
 ASP623  PHE694  ASN695  SER759  ASP760  ASP761  ALA762  ILE779  LEU786  VAL792 
 PHE793  MET794  SER795  GLU796  ALA797  LYS798  CYS799  TRP800  GLU811  SER814 

> <Gold.Protein.RotatedAtoms>
  150.7195  134.5250  159.5672 H   0  0  0  0  0  0  0  0  0  0  0  0  # atno 6907 bound_to 6896
  152.2797  134.7840  160.0408 H   0  0  0  0  0  0  0  0  0  0  0  0  # atno 6908 bound_to 6896
  151.8491  133.3401  159.3704 H   0  0  0  0  0  0  0  0  0  0  0  0  # atno 6909 bound_to 6896
  144.7631  139.8057  143.6325 H   0  0  0  0  0  0  0  0  0  0  0  0  # atno 7974 bound_to 7965
  155.3069  140.3388  155.4245 H   0  0  0  0  0  0  0  0  0  0  0  0  # atno 8008 bound_to 7997
  156.1974  140.1720  156.8008 H   0  0  0  0  0  0  0  0  0  0  0  0  # atno 8009 bound_to 7997
  154.5516  140.0704  156.8661 H   0  0  0  0  0  0  0  0  0  0  0  0  # atno 8010 bound_to 7997
  140.5057  143.2353  151.7678 H   0  0  0  0  0  0  0  0  0  0  0  0  # atno 10167 bound_to 10162
  157.2771  131.0828  151.1558 H   0  0  0  0  0  0  0  0  0  0  0  0  # atno 10718 bound_to 10713
  154.6011  135.5516  153.7375 H   0  0  0  0  0  0  0  0  0  0  0  0  # atno 10763 bound_to 10752
  153.0155  135.6366  154.1713 H   0  0  0  0  0  0  0  0  0  0  0  0  # atno 10764 bound_to 10752
  154.1653  135.2895  155.3077 H   0  0  0  0  0  0  0  0  0  0  0  0  # atno 10765 bound_to 10752
  140.7000  133.8998  155.8677 H   0  0  0  0  0  0  0  0  0  0  0  0  # atno 11005 bound_to 11000
  146.1713  139.4865  142.9926 LP  0  0  0  0  0  0  0  0  0  0  0  0  # atno 17320 bound_to 7965
  145.6556  141.0253  143.1737 LP  0  0  0  0  0  0  0  0  0  0  0  0  # atno 17321 bound_to 7965
  139.4883  144.4461  151.9709 LP  0  0  0  0  0  0  0  0  0  0  0  0  # atno 17342 bound_to 10162
  140.3551  144.3041  150.5942 LP  0  0  0  0  0  0  0  0  0  0  0  0  # atno 17343 bound_to 10162
  157.3007  130.6841  149.6162 LP  0  0  0  0  0  0  0  0  0  0  0  0  # atno 17370 bound_to 10713
  155.9664  130.4393  150.5252 LP  0  0  0  0  0  0  0  0  0  0  0  0  # atno 17371 bound_to 10713
  141.0171  134.0940  157.4160 LP  0  0  0  0  0  0  0  0  0  0  0  0  # atno 17394 bound_to 11000
  139.8899  135.0108  156.6707 LP  0  0  0  0  0  0  0  0  0  0  0  0  # atno 17395 bound_to 11000

$$$$
