AV-unprocessed.smi:1762|AV-procd|sdf|7121|dock7
  -GOLD-   22720 8353D 1   1.00000     0.00000
 Structure written by MMmdl.
 52 53  0  0  0  0  0  0  0  0  3 V2000
  155.1015  144.4127  165.5798 C   0  0  0  0  0  0  0  0  0  0  0  0
  155.6683  142.9935  165.6902 C   0  0  2  0  0  0  0  0  0  0  0  0
  155.0431  142.0408  164.6574 C   0  0  0  0  0  0  0  0  0  0  0  0
  155.5576  140.6652  164.8635 N   0  3  2  0  0  0  0  0  0  0  0  0
  155.2421  139.6633  163.7981 C   0  0  1  0  0  0  0  0  0  0  0  0
  155.5419  140.1563  162.3588 C   0  0  0  0  0  0  0  0  0  0  0  0
  156.7254  140.3290  162.0483 O   0  0  0  0  0  0  0  0  0  0  0  0
  154.4116  140.3375  161.6183 N   0  5  0  0  0  0  0  0  0  0  0  0
  154.2450  141.4045  160.6301 C   0  0  0  0  0  0  0  0  0  0  0  0
  152.8254  141.3985  160.0120 C   0  0  0  0  0  0  0  0  0  0  0  0
  152.3578  142.7218  159.4084 C   0  0  0  0  0  0  0  0  0  0  0  0
  152.3391  143.9000  160.1887 C   0  0  0  0  0  0  0  0  0  0  0  0
  151.8694  145.0913  159.6030 C   0  0  0  0  0  0  0  0  0  0  0  0
  151.4296  145.0638  158.2663 C   0  0  0  0  0  0  0  0  0  0  0  0
  151.4714  143.8381  157.5737 C   0  0  0  0  0  0  0  0  0  0  0  0
  151.9150  142.6894  158.1268 N   0  0  0  0  0  0  0  0  0  0  0  0
  155.7682  138.2318  164.1398 C   0  0  0  0  0  0  0  0  0  0  0  0
  156.0267  137.3749  162.8834 C   0  0  0  0  0  0  0  0  0  0  0  0
  154.8105  137.4759  165.0813 C   0  0  0  0  0  0  0  0  0  0  0  0
  155.2714  140.2045  166.2438 C   0  0  0  0  0  0  0  0  0  0  0  0
  155.8544  141.1892  167.2751 C   0  0  1  0  0  0  0  0  0  0  0  0
  157.3875  141.1155  167.3928 C   0  0  0  0  0  0  0  0  0  0  0  0
  155.3971  142.5156  167.0067 O   0  0  0  0  0  0  0  0  0  0  0  0
  155.2728  144.8291  164.5868 H   0  0  0  0  0  0  0  0  0  0  0  0
  155.5710  145.0774  166.3053 H   0  0  0  0  0  0  0  0  0  0  0  0
  154.0280  144.4225  165.7665 H   0  0  0  0  0  0  0  0  0  0  0  0
  156.7455  143.0471  165.5319 H   0  0  0  0  0  0  0  0  0  0  0  0
  153.9593  142.0492  164.7595 H   0  0  0  0  0  0  0  0  0  0  0  0
  155.2743  142.3906  163.6520 H   0  0  0  0  0  0  0  0  0  0  0  0
  154.1560  139.5603  163.8341 H   0  0  0  0  0  0  0  0  0  0  0  0
  154.4382  142.3831  161.0701 H   0  0  0  0  0  0  0  0  0  0  0  0
  154.9705  141.3144  159.8204 H   0  0  0  0  0  0  0  0  0  0  0  0
  152.7932  140.6478  159.2217 H   0  0  0  0  0  0  0  0  0  0  0  0
  152.1002  141.0668  160.7565 H   0  0  0  0  0  0  0  0  0  0  0  0
  152.6748  143.8892  161.2152 H   0  0  0  0  0  0  0  0  0  0  0  0
  151.8414  146.0097  160.1702 H   0  0  0  0  0  0  0  0  0  0  0  0
  151.0631  145.9583  157.7847 H   0  0  0  0  0  0  0  0  0  0  0  0
  151.1346  143.7773  156.5494 H   0  0  0  0  0  0  0  0  0  0  0  0
  156.7202  138.3168  164.6641 H   0  0  0  0  0  0  0  0  0  0  0  0
  155.1209  137.2653  162.2863 H   0  0  0  0  0  0  0  0  0  0  0  0
  156.3677  136.3754  163.1542 H   0  0  0  0  0  0  0  0  0  0  0  0
  156.7961  137.8068  162.2437 H   0  0  0  0  0  0  0  0  0  0  0  0
  153.8189  137.3758  164.6388 H   0  0  0  0  0  0  0  0  0  0  0  0
  154.6999  137.9807  166.0410 H   0  0  0  0  0  0  0  0  0  0  0  0
  155.1807  136.4724  165.2929 H   0  0  0  0  0  0  0  0  0  0  0  0
  154.1921  140.1278  166.3837 H   0  0  0  0  0  0  0  0  0  0  0  0
  155.6831  139.2077  166.4073 H   0  0  0  0  0  0  0  0  0  0  0  0
  155.4509  140.9223  168.2523 H   0  0  0  0  0  0  0  0  0  0  0  0
  157.7022  140.1247  167.7214 H   0  0  0  0  0  0  0  0  0  0  0  0
  157.7565  141.8360  168.1230 H   0  0  0  0  0  0  0  0  0  0  0  0
  157.8864  141.3140  166.4446 H   0  0  0  0  0  0  0  0  0  0  0  0
  156.5624  140.7533  164.8229 H   0  0  0  0  0  0  0  0  0  0  0  0
  1  2  1  0  0  0  0
  1 24  1  0  0  0  0
  1 25  1  0  0  0  0
  1 26  1  0  0  0  0
  2 23  1  0  0  0  0
  2  3  1  0  0  0  0
  2 27  1  0  0  0  0
  3  4  1  0  0  0  0
  3 28  1  0  0  0  0
  3 29  1  0  0  0  0
  4  5  1  0  0  0  0
  4 20  1  0  0  0  0
  4 52  1  0  0  0  0
  5  6  1  0  0  0  0
  5 17  1  0  0  0  0
  5 30  1  0  0  0  0
  6  7  2  0  0  0  0
  6  8  1  0  0  0  0
  8  9  1  0  0  0  0
  9 10  1  0  0  0  0
  9 31  1  0  0  0  0
  9 32  1  0  0  0  0
 10 11  1  0  0  0  0
 10 33  1  0  0  0  0
 10 34  1  0  0  0  0
 11 16  1  0  0  0  0
 11 12  2  0  0  0  0
 12 13  1  0  0  0  0
 12 35  1  0  0  0  0
 13 14  2  0  0  0  0
 13 36  1  0  0  0  0
 14 15  1  0  0  0  0
 14 37  1  0  0  0  0
 15 16  2  0  0  0  0
 15 38  1  0  0  0  0
 17 18  1  0  0  0  0
 17 19  1  0  0  0  0
 17 39  1  0  0  0  0
 18 40  1  0  0  0  0
 18 41  1  0  0  0  0
 18 42  1  0  0  0  0
 19 43  1  0  0  0  0
 19 44  1  0  0  0  0
 19 45  1  0  0  0  0
 20 21  1  0  0  0  0
 20 46  1  0  0  0  0
 20 47  1  0  0  0  0
 21 22  1  0  0  0  0
 21 23  1  0  0  0  0
 21 48  1  0  0  0  0
 22 49  1  0  0  0  0
 22 50  1  0  0  0  0
 22 51  1  0  0  0  0
M  CHG  1   4   1
M  CHG  1   8  -1
M  END
> <s_m_source_file>
AV-unprocessed.smi

> <i_m_source_file_index>
1762

> <i_lp_mmshare_version>
43012

> <i_f3d_flags>
0

> <s_epik_input>
W0NIM11bQ0BASF0xW0NIMl1OKFtDSDJdW0NASF0oTzEpW0NIM10pW0NAQEhdKFtDSF0oW0NIM10pW0NIM10pQyg9TylbTkhdW0NIMl1bQ0gyXWMyW2NIXVtjSF1bY0hdW2NIXW4y

> <s_epik_cmdline>
J2VwaWtfcHl0aG9uJywgJy1waCcsICc3LjAnLCAnLXRuJywgJzgnLCAnLW1hJywgJzIwMCcsICctbWV0YWxfYmluZGluZycsICctaW1hZScsICc8aW5maWxlLm1hZT4nLCAnLW9tYWUnLCAnPG91dGZpbGUubWFlPic=

> <r_epik_Ionization_Penalty>
7.82966

> <r_epik_Ionization_Penalty_Charging>
7.7461

> <r_epik_Ionization_Penalty_Neutral>
0.0835571

> <r_epik_State_Penalty>
8.52273

> <r_epik_Charging_Adjusted_Penalty>
16.2688

> <i_epik_Tot_Q>
0

> <i_epik_Tot_abs_Q>
2

> <r_epik_Metal_State_Penalty>
4.47451

> <b_epik_Metal_Only>
1

> <s_lp_Force_Field>
OPLS_2005

> <r_lp_Energy>
25.1161

> <b_lp_Chiralities_Consistent>
1

> <s_lp_Variant>
AV-unprocessed.smi:1762-23

> <Gold.Version>
5.8.1

> <Gold.Id.Protein>
6NUR|6NUR_protein|mol2

> <Gold.PLP.Fitness>
48.3832

> <Gold.PLP.PLP>
-47.2751

> <Gold.PLP.part.hbond>
-1.0000

> <Gold.PLP.part.metal>
0.0000

> <Gold.PLP.part.buried>
-6.5385

> <Gold.PLP.part.nonpolar>
-40.5244

> <Gold.PLP.part.repulsive>
0.0887

> <Gold.PLP.ligand.clash>
0.0000

> <Gold.PLP.ligand.torsion>
1.3434

> <Gold.PLP.Chemscore.Hbond>
0.0000

> <Gold.PLP.Chemscore.CHOScore>
1.0000

> <Gold.PLP.Chemscore.Metal>
0.0000

> <Gold.Chemscore.Hbonds>
donor molecule, donor type, donor heavy atom, donor atom, acceptor molecule, acceptor atom, score
      L1  C    15    38       P1  8028  0.80

> <Gold.PLP.Chemscore.Internal.Correction>
0.7950

> <Gold.Rescore>
     Score         DG    S(hbond)    S(metal)    S(lipo)     H(rot)  DE(clash)    DE(int)     intcor
     14.46     -17.37       0.00        0.00     136.67       1.60       1.37       1.54       ----

> <Gold.Chemscore.Fitness>
14.4630

> <Gold.Chemscore.DG>
-17.3714

> <Gold.Chemscore.ZeroCoef>
-5.4800

> <Gold.Chemscore.Hbond>
0.0000

> <Gold.Chemscore.Metal>
0.0000

> <Gold.Chemscore.Lipo>
136.6702

> <Gold.Chemscore.Internal_Hbond>
0.0000

> <Gold.Chemscore.DEClash>
1.3720

> <Gold.Chemscore.DEInternal>
1.5364

> <Gold.Chemscore.Rot>
1.6012

> <Gold.Chemscore.Internal.Correction>
   9.000000E+99

> <Gold.Chemscore.Hbond.Weighted>
-0.0000

> <Gold.Chemscore.Metal.Weighted>
-0.0000

> <Gold.Chemscore.Lipo.Weighted>
-15.9904

> <Gold.Chemscore.Internal_Hbond.Weighted>
0.0000

> <Gold.Chemscore.DEClash.Weighted>
1.3720

> <Gold.Chemscore.DEInternal.Weighted>
1.5364

> <Gold.Chemscore.Rot.Weighted>
4.0990

> <Gold.Chemscore.Internal.Correction.Weighted>
   9.000000E+99

> <Gold.Protein.RotatedTorsions>
[ 6907 6896 6895 6894 ] final -115.94 input  -60.11 | X-H torsion
[ 7974 7965 7964 7962 ] final  100.91 input  175.53 | X-H torsion
[ 8008 7997 7996 7995 ] final -114.50 input   59.86 | X-H torsion
[ 10167 10162 10161 10158 ] final -179.37 input  -65.29 | X-H torsion
[ 10718 10713 10712 10709 ] final  144.63 input   66.30 | X-H torsion
[ 10763 10752 10751 10750 ] final -177.37 input  -60.55 | X-H torsion
[ 11005 11000 10999 10996 ] final -152.82 input  -57.11 | X-H torsion

> <Gold.Protein.ActiveResidues>
 VAL166  LYS551  ARG553  GLY616  TRP617  ASP618  TYR619  PRO620  LYS621  CYS622 
 ASP623  PHE694  ASN695  SER759  ASP760  ASP761  ALA762  ILE779  LEU786  VAL792 
 PHE793  MET794  SER795  GLU796  ALA797  LYS798  CYS799  TRP800  GLU811  SER814 

> <Gold.Protein.RotatedAtoms>
  150.8017  133.8587  159.3225 H   0  0  0  0  0  0  0  0  0  0  0  0  # atno 6907 bound_to 6896
  151.6398  135.1012  160.0148 H   0  0  0  0  0  0  0  0  0  0  0  0  # atno 6908 bound_to 6896
  152.4104  133.6915  159.6428 H   0  0  0  0  0  0  0  0  0  0  0  0  # atno 6909 bound_to 6896
  145.3793  139.2383  143.3412 H   0  0  0  0  0  0  0  0  0  0  0  0  # atno 7974 bound_to 7965
  155.0373  140.0392  157.2496 H   0  0  0  0  0  0  0  0  0  0  0  0  # atno 8008 bound_to 7997
  154.7246  140.2718  155.6487 H   0  0  0  0  0  0  0  0  0  0  0  0  # atno 8009 bound_to 7997
  156.2826  140.2696  156.1928 H   0  0  0  0  0  0  0  0  0  0  0  0  # atno 8010 bound_to 7997
  139.5389  144.2418  152.0854 H   0  0  0  0  0  0  0  0  0  0  0  0  # atno 10167 bound_to 10162
  157.3549  131.0956  151.0967 H   0  0  0  0  0  0  0  0  0  0  0  0  # atno 10718 bound_to 10713
  154.5609  135.2820  155.0920 H   0  0  0  0  0  0  0  0  0  0  0  0  # atno 10763 bound_to 10752
  154.2329  135.6371  153.5185 H   0  0  0  0  0  0  0  0  0  0  0  0  # atno 10764 bound_to 10752
  153.0029  135.5541  154.6203 H   0  0  0  0  0  0  0  0  0  0  0  0  # atno 10765 bound_to 10752
  140.7147  134.3793  157.5192 H   0  0  0  0  0  0  0  0  0  0  0  0  # atno 11005 bound_to 11000
  146.2849  140.4458  142.8762 LP  0  0  0  0  0  0  0  0  0  0  0  0  # atno 17320 bound_to 7965
  144.8519  140.7014  143.6162 LP  0  0  0  0  0  0  0  0  0  0  0  0  # atno 17321 bound_to 7965
  140.1893  144.4767  150.6487 LP  0  0  0  0  0  0  0  0  0  0  0  0  # atno 17342 bound_to 10162
  140.6610  143.2252  151.5856 LP  0  0  0  0  0  0  0  0  0  0  0  0  # atno 17343 bound_to 10162
  157.2129  130.6446  149.5781 LP  0  0  0  0  0  0  0  0  0  0  0  0  # atno 17370 bound_to 10713
  155.9727  130.4654  150.6252 LP  0  0  0  0  0  0  0  0  0  0  0  0  # atno 17371 bound_to 10713
  139.8863  134.8914  156.2595 LP  0  0  0  0  0  0  0  0  0  0  0  0  # atno 17394 bound_to 11000
  141.0054  133.7127  156.1026 LP  0  0  0  0  0  0  0  0  0  0  0  0  # atno 17395 bound_to 11000

$$$$
