#       Name:                AV-unprocessed.smi:11
#       Creating user name   scv26
#       Creation time:       Thu Mar 26 15:17:51 2020


#       File generated by GOLD software.
#

@<TRIPOS>MOLECULE
AV-unprocessed.smi:11
    37    39     1
SMALL
NO_CHARGES


@<TRIPOS>ATOM
      1 ****        -2.9774   1.1221   1.4615 C.3            1 S1                 0.0000
      2 ****        -2.4327  -0.3161   1.4310 C.3            1 S1                 0.0000
      3 ****        -0.9949  -0.4902   1.9811 C.3            1 S1                 0.0000
      4 ****        -0.9602  -0.0212   3.3152 O.3            1 S1                 0.0000
      5 ****        -0.5481  -1.9573   1.9379 C.3            1 S1                 0.0000
      6 ****         0.0301  -2.1039   0.5326 C.3            1 S1                 0.0000
      7 ****         0.6233  -0.8071   0.2338 N.pl3          1 S1                 0.0000
      8 ****         0.9890  -0.4753  -1.0884 C.2            1 S1                 0.0000
      9 ****         0.7701  -1.3926  -2.0654 N.2            1 S1                 0.0000
     10 ****         1.1188  -1.0632  -3.3348 C.2            1 S1                 0.0000
     11 ****         1.6794   0.0907  -3.7723 N.pl3          1 S1                 0.0000
     12 ****         1.9247   1.0231  -2.8049 C.2            1 S1                 0.0000
     13 ****         2.4780   2.2224  -2.9523 N.2            1 S1                 0.0000
     14 ****         2.5322   2.7654  -1.7247 C.2            1 S1                 0.0000
     15 ****         1.9951   1.9037  -0.6935 C.2            1 S1                 0.0000
     16 ****         1.5897   0.7626  -1.4534 C.2            1 S1                 0.0000
     17 ****         0.0782   0.2098   1.1252 C.3            1 S1                 0.0000
     18 ****        -3.9999   1.1495   1.0849 H              1 S1                 0.0000
     19 ****        -2.3867   1.7965   0.8427 H              1 S1                 0.0000
     20 ****        -2.9935   1.5230   2.4750 H              1 S1                 0.0000
     21 ****        -3.1119  -0.9496   2.0030 H              1 S1                 0.0000
     22 ****        -2.4799  -0.6822   0.4046 H              1 S1                 0.0000
     23 ****        -0.0848  -0.1389   3.6512 H              1 S1                 0.0000
     24 ****         0.2442  -2.1351   2.6672 H              1 S1                 0.0000
     25 ****        -1.3508  -2.6665   2.1434 H              1 S1                 0.0000
     26 ****         0.7701  -2.9029   0.4814 H              1 S1                 0.0000
     27 ****        -0.7667  -2.3281  -0.1778 H              1 S1                 0.0000
     28 ****         0.9264  -1.8128  -4.0880 H              1 S1                 0.0000
     29 ****         2.9502   3.7519  -1.5660 H              1 S1                 0.0000
     30 ****         1.9268   2.0886   0.3706 H              1 S1                 0.0000
     31 ****        -0.3227   1.0625   0.5787 H              1 S1                 0.0000
     32 ****         0.8928   0.5699   1.7547 H              1 S1                 0.0000
     33 ****         1.8899   0.2010  -4.7539 H              1 S1                 0.0000
     34 ****        -1.6081  -0.5405   3.8724 LP             1 S1                 0.0000
     35 ****        -1.2030   0.9486   3.3384 LP             1 S1                 0.0000
     36 ****         0.3649  -2.2825  -1.8561 LP             1 S1                 0.0000
     37 ****         2.7914   2.6377  -3.8063 LP             1 S1                 0.0000
@<TRIPOS>BOND
    1    1    2 1     
    2    1   18 1     
    3    1   19 1     
    4    1   20 1     
    5    2    3 1     
    6    2   21 1     
    7    2   22 1     
    8    3   17 1     
    9    3    4 1     
   10    3    5 1     
   11    4   23 1     
   12    5    6 1     
   13    5   24 1     
   14    5   25 1     
   15    6    7 1     
   16    6   26 1     
   17    6   27 1     
   18    7    8 1     
   19    7   17 1     
   20    8   16 2     
   21    8    9 1     
   22    9   10 2     
   23   10   11 1     
   24   10   28 1     
   25   11   12 1     
   26   11   33 1     
   27   12   16 1     
   28   12   13 2     
   29   13   14 1     
   30   14   15 2     
   31   14   29 1     
   32   15   16 1     
   33   15   30 1     
   34   17   31 1     
   35   17   32 1     
   36    4   34 1     
   37    4   35 1     
   38    9   36 1     
   39   13   37 1     
@<TRIPOS>SUBSTRUCTURE
      1 S1             1
@<TRIPOS>SET
LONE_PAIRS      STATIC     ATOMS    <user>   **** ""
4 34 35 36 37
DONOR_HYDROGENS      STATIC     ATOMS    <user>   **** ""
2 23 33
ATOM$BLUE        STATIC     ATOMS    COLORGROUP SYSTEM
4 34 35 36 37
ATOM$RED        STATIC     ATOMS    COLORGROUP SYSTEM
2 23 33
