AV-unprocessed.smi:2567|AV-procd|sdf|10084|dock7
  -GOLD-   2272014113D 1   1.00000     0.00000
 Structure written by MMmdl.
 33 34  0  0  0  0  0  0  0  0  3 V2000
  153.1815  143.7025  158.8934 C   0  0  0  0  0  0  0  0  0  0  0  0
  152.9885  142.2687  159.4199 C   0  0  0  0  0  0  0  0  0  0  0  0
  154.3777  141.6872  159.7577 C   0  0  0  0  0  0  0  0  0  0  0  0
  152.1394  142.2682  160.7044 C   0  0  0  0  0  0  0  0  0  0  0  0
  152.3006  141.4234  158.3519 C   0  0  0  0  0  0  0  0  0  0  0  0
  152.7997  140.2983  157.8047 N   0  5  0  0  0  0  0  0  0  0  0  0
  151.9581  139.8132  156.9160 N   0  0  0  0  0  0  0  0  0  0  0  0
  150.9133  140.6530  156.9230 C   0  0  0  0  0  0  0  0  0  0  0  0
  149.7021  140.5213  156.0238 C   0  0  2  0  0  0  0  0  0  0  0  0
  150.1208  140.4020  154.5454 C   0  0  0  0  0  0  0  0  0  0  0  0
  148.9280  140.2896  153.6841 N   0  3  0  0  0  0  0  0  0  0  0  0
  147.9890  141.4055  153.9089 C   0  0  0  0  0  0  0  0  0  0  0  0
  147.6331  141.5008  155.4018 C   0  0  0  0  0  0  0  0  0  0  0  0
  148.8242  141.6366  156.1681 O   0  0  0  0  0  0  0  0  0  0  0  0
  151.1156  141.6545  157.7901 N   0  0  0  0  0  0  0  0  0  0  0  0
  153.6810  144.3332  159.6296 H   0  0  0  0  0  0  0  0  0  0  0  0
  152.2253  144.1706  158.6572 H   0  0  0  0  0  0  0  0  0  0  0  0
  153.7850  143.7120  157.9853 H   0  0  0  0  0  0  0  0  0  0  0  0
  155.0243  141.6635  158.8796 H   0  0  0  0  0  0  0  0  0  0  0  0
  154.3017  140.6678  160.1380 H   0  0  0  0  0  0  0  0  0  0  0  0
  154.8836  142.2822  160.5187 H   0  0  0  0  0  0  0  0  0  0  0  0
  152.6090  142.8587  161.4915 H   0  0  0  0  0  0  0  0  0  0  0  0
  152.0010  141.2564  161.0873 H   0  0  0  0  0  0  0  0  0  0  0  0
  151.1495  142.6899  160.5264 H   0  0  0  0  0  0  0  0  0  0  0  0
  149.1704  139.6176  156.3277 H   0  0  0  0  0  0  0  0  0  0  0  0
  150.7003  141.2760  154.2433 H   0  0  0  0  0  0  0  0  0  0  0  0
  150.7545  139.5275  154.3939 H   0  0  0  0  0  0  0  0  0  0  0  0
  149.2131  140.2777  152.7153 H   0  0  0  0  0  0  0  0  0  0  0  0
  148.4489  142.3350  153.5712 H   0  0  0  0  0  0  0  0  0  0  0  0
  147.0924  141.2519  153.3081 H   0  0  0  0  0  0  0  0  0  0  0  0
  146.9961  142.3670  155.5820 H   0  0  0  0  0  0  0  0  0  0  0  0
  147.0753  140.6215  155.7277 H   0  0  0  0  0  0  0  0  0  0  0  0
  148.4576  139.4225  153.9009 H   0  0  0  0  0  0  0  0  0  0  0  0
  1  2  1  0  0  0  0
  1 16  1  0  0  0  0
  1 17  1  0  0  0  0
  1 18  1  0  0  0  0
  2  3  1  0  0  0  0
  2  4  1  0  0  0  0
  2  5  1  0  0  0  0
  3 19  1  0  0  0  0
  3 20  1  0  0  0  0
  3 21  1  0  0  0  0
  4 22  1  0  0  0  0
  4 23  1  0  0  0  0
  4 24  1  0  0  0  0
  5 15  2  0  0  0  0
  5  6  1  0  0  0  0
  6  7  1  0  0  0  0
  7  8  2  0  0  0  0
  8  9  1  0  0  0  0
  8 15  1  0  0  0  0
  9 14  1  0  0  0  0
  9 10  1  0  0  0  0
  9 25  1  0  0  0  0
 10 11  1  0  0  0  0
 10 26  1  0  0  0  0
 10 27  1  0  0  0  0
 11 12  1  0  0  0  0
 11 28  1  0  0  0  0
 11 33  1  0  0  0  0
 12 13  1  0  0  0  0
 12 29  1  0  0  0  0
 12 30  1  0  0  0  0
 13 14  1  0  0  0  0
 13 31  1  0  0  0  0
 13 32  1  0  0  0  0
M  CHG  1   6  -1
M  CHG  1  11   1
M  END
> <s_m_source_file>
AV-unprocessed.smi

> <i_m_source_file_index>
2567

> <i_lp_mmshare_version>
43012

> <i_f3d_flags>
0

> <s_epik_input>
W0NIM11DKFtDSDNdKShbQ0gzXSljMW5bbkhdYyhuMSlbQ0BASF0yW0NIMl1bTkhdW0NIMl1bQ0gyXU8y

> <s_epik_cmdline>
J2VwaWtfcHl0aG9uJywgJy1waCcsICc3LjAnLCAnLXRuJywgJzgnLCAnLW1hJywgJzIwMCcsICctbWV0YWxfYmluZGluZycsICctaW1hZScsICc8aW5maWxlLm1hZT4nLCAnLW9tYWUnLCAnPG91dGZpbGUubWFlPic=

> <r_lp_tautomer_probability>
0.948284

> <r_epik_Ionization_Penalty>
5.01189

> <r_epik_Ionization_Penalty_Charging>
5.01189

> <r_epik_Ionization_Penalty_Neutral>
8.99859e-14

> <r_epik_State_Penalty>
2.75157

> <r_epik_Charging_Adjusted_Penalty>
7.76346

> <i_epik_Tot_Q>
0

> <i_epik_Tot_abs_Q>
2

> <r_epik_Metal_State_Penalty>
0.54282

> <b_epik_Metal_Only>
1

> <s_lp_Force_Field>
OPLS_2005

> <r_lp_Energy>
6.85935

> <b_lp_Chiralities_Consistent>
1

> <s_lp_Variant>
AV-unprocessed.smi:2567-9

> <Gold.Version>
5.8.1

> <Gold.Id.Protein>
6NUR|6NUR_protein|mol2

> <Gold.PLP.Fitness>
34.4663

> <Gold.PLP.PLP>
-25.6494

> <Gold.PLP.part.hbond>
-2.0000

> <Gold.PLP.part.metal>
0.0000

> <Gold.PLP.part.buried>
-1.0078

> <Gold.PLP.part.nonpolar>
-22.9247

> <Gold.PLP.part.repulsive>
0.5661

> <Gold.PLP.ligand.clash>
0.0000

> <Gold.PLP.ligand.torsion>
0.0755

> <Gold.PLP.Chemscore.Hbond>
2.9840

> <Gold.PLP.Chemscore.CHOScore>
0.0000

> <Gold.PLP.Chemscore.Metal>
0.0000

> <Gold.Chemscore.Hbonds>
donor molecule, donor type, donor heavy atom, donor atom, acceptor molecule, acceptor atom, score
      L1  H    11    28       P1  7957  1.00
      P1  H  7997  8010       L1     6  1.89

> <Gold.PLP.Chemscore.Internal.Correction>
0.0159

> <Gold.Rescore>
     Score         DG    S(hbond)    S(metal)    S(lipo)     H(rot)  DE(clash)    DE(int)     intcor
     14.42     -15.20       1.41        0.00      70.30       1.25       0.78       0.01       ----

> <Gold.Chemscore.Fitness>
14.4160

> <Gold.Chemscore.DG>
-15.2036

> <Gold.Chemscore.ZeroCoef>
-5.4800

> <Gold.Chemscore.Hbond>
1.4056

> <Gold.Chemscore.Metal>
0.0000

> <Gold.Chemscore.Lipo>
70.3009

> <Gold.Chemscore.Internal_Hbond>
0.0000

> <Gold.Chemscore.DEClash>
0.7753

> <Gold.Chemscore.DEInternal>
0.0123

> <Gold.Chemscore.Rot>
1.2486

> <Gold.Chemscore.Internal.Correction>
   9.000000E+99

> <Gold.Chemscore.Hbonds>
donor molecule, donor type, donor heavy atom, donor atom, acceptor molecule, acceptor atom, score
      L1  H    11    28       P1  7957  0.99
      P1  H  7997  8010       L1     6  0.23

> <Gold.Chemscore.Hbond.Weighted>
-4.6949

> <Gold.Chemscore.Metal.Weighted>
-0.0000

> <Gold.Chemscore.Lipo.Weighted>
-8.2252

> <Gold.Chemscore.Internal_Hbond.Weighted>
0.0000

> <Gold.Chemscore.DEClash.Weighted>
0.7753

> <Gold.Chemscore.DEInternal.Weighted>
0.0123

> <Gold.Chemscore.Rot.Weighted>
3.1964

> <Gold.Chemscore.Internal.Correction.Weighted>
   9.000000E+99

> <Gold.Protein.RotatedTorsions>
[ 6907 6896 6895 6894 ] final   76.73 input  -60.11 | X-H torsion
[ 7974 7965 7964 7962 ] final  -24.19 input  175.53 | X-H torsion
[ 8008 7997 7996 7995 ] final   47.34 input   59.86 | X-H torsion
[ 10167 10162 10161 10158 ] final -165.77 input  -65.29 | X-H torsion
[ 10718 10713 10712 10709 ] final  -36.30 input   66.30 | X-H torsion
[ 10763 10752 10751 10750 ] final  -96.06 input  -60.55 | X-H torsion
[ 11005 11000 10999 10996 ] final   99.03 input  -57.11 | X-H torsion

> <Gold.Protein.ActiveResidues>
 VAL166  LYS551  ARG553  GLY616  TRP617  ASP618  TYR619  PRO620  LYS621  CYS622 
 ASP623  PHE694  ASN695  SER759  ASP760  ASP761  ALA762  ILE779  LEU786  VAL792 
 PHE793  MET794  SER795  GLU796  ALA797  LYS798  CYS799  TRP800  GLU811  SER814 

> <Gold.Protein.RotatedAtoms>
  152.5086  134.3924  159.9388 H   0  0  0  0  0  0  0  0  0  0  0  0  # atno 6907 bound_to 6896
  151.3885  133.3791  159.2726 H   0  0  0  0  0  0  0  0  0  0  0  0  # atno 6908 bound_to 6896
  150.9451  134.8877  159.7695 H   0  0  0  0  0  0  0  0  0  0  0  0  # atno 6909 bound_to 6896
  146.1570  140.4718  142.8587 H   0  0  0  0  0  0  0  0  0  0  0  0  # atno 7974 bound_to 7965
  155.3675  140.3422  155.4242 H   0  0  0  0  0  0  0  0  0  0  0  0  # atno 8008 bound_to 7997
  156.1680  140.1622  156.8531 H   0  0  0  0  0  0  0  0  0  0  0  0  # atno 8009 bound_to 7997
  154.5205  140.0768  156.8144 H   0  0  0  0  0  0  0  0  0  0  0  0  # atno 8010 bound_to 7997
  139.6160  144.0719  152.1888 H   0  0  0  0  0  0  0  0  0  0  0  0  # atno 10167 bound_to 10162
  156.3284  130.4276  149.7895 H   0  0  0  0  0  0  0  0  0  0  0  0  # atno 10718 bound_to 10713
  154.7205  135.5098  153.8804 H   0  0  0  0  0  0  0  0  0  0  0  0  # atno 10763 bound_to 10752
  153.0858  135.6645  153.9961 H   0  0  0  0  0  0  0  0  0  0  0  0  # atno 10764 bound_to 10752
  153.9785  135.3031  155.3401 H   0  0  0  0  0  0  0  0  0  0  0  0  # atno 10765 bound_to 10752
  139.8771  134.9077  156.4545 H   0  0  0  0  0  0  0  0  0  0  0  0  # atno 11005 bound_to 11000
  144.7976  140.6152  143.6499 LP  0  0  0  0  0  0  0  0  0  0  0  0  # atno 17320 bound_to 7965
  145.4684  139.1506  143.3828 LP  0  0  0  0  0  0  0  0  0  0  0  0  # atno 17321 bound_to 7965
  140.0350  144.6052  150.7457 LP  0  0  0  0  0  0  0  0  0  0  0  0  # atno 17342 bound_to 10162
  140.7351  143.2736  151.3809 LP  0  0  0  0  0  0  0  0  0  0  0  0  # atno 17343 bound_to 10162
  156.5176  130.8200  151.3192 LP  0  0  0  0  0  0  0  0  0  0  0  0  # atno 17370 bound_to 10713
  157.7426  130.9893  150.2526 LP  0  0  0  0  0  0  0  0  0  0  0  0  # atno 17371 bound_to 10713
  140.8908  133.7849  155.9570 LP  0  0  0  0  0  0  0  0  0  0  0  0  # atno 17394 bound_to 11000
  140.8755  134.2675  157.5170 LP  0  0  0  0  0  0  0  0  0  0  0  0  # atno 17395 bound_to 11000

$$$$
