AV-unprocessed.smi:686|AV-procd|sdf|3344|dock8
  -GOLD-   22720 0323D 1   1.00000     0.00000
 Structure written by MMmdl.
 41 42  0  0  0  0  0  0  0  0  2 V2000
  147.4691  139.0593  152.9071 C   0  0  0  0  0  0  0  0  0  0  0  0
  146.0568  138.6116  152.4958 C   0  0  1  0  0  0  0  0  0  0  0  0
  146.0845  137.6993  151.2675 C   0  0  0  0  0  0  0  0  0  0  0  0
  146.2927  136.3307  151.7869 N   0  3  2  0  0  0  0  0  0  0  0  0
  145.8991  135.2254  150.8679 C   0  0  0  0  0  0  0  0  0  0  0  0
  144.3881  135.2629  150.5700 C   0  0  0  0  0  0  0  0  0  0  0  0
  146.2762  133.8455  151.4400 C   0  0  0  0  0  0  0  0  0  0  0  0
  145.6707  136.2837  153.1324 C   0  0  0  0  0  0  0  0  0  0  0  0
  145.3896  137.7358  153.5646 C   0  0  2  0  0  0  0  0  0  0  0  0
  143.9476  138.0022  153.5947 N   0  0  0  0  0  0  0  0  0  0  0  0
  143.0297  137.3827  154.9185 S   0  0  0  0  0  0  0  0  0  0  0  0
  143.9543  136.6661  155.8104 O   0  0  0  0  0  0  0  0  0  0  0  0
  142.2143  138.4887  155.4425 O   0  0  0  0  0  0  0  0  0  0  0  0
  141.9275  136.1529  154.1028 C   0  0  0  0  0  0  0  0  0  0  0  0
  140.5416  136.7204  153.9912 C   0  0  0  0  0  0  0  0  0  0  0  0
  140.0876  137.7896  153.1704 C   0  0  0  0  0  0  0  0  0  0  0  0
  138.7588  137.8788  153.4699 C   0  0  0  0  0  0  0  0  0  0  0  0
  138.4160  136.9448  154.3928 O   0  0  0  0  0  0  0  0  0  0  0  0
  139.5611  136.2092  154.7187 N   0  0  0  0  0  0  0  0  0  0  0  0
  148.1135  138.2074  153.1273 H   0  0  0  0  0  0  0  0  0  0  0  0
  147.4350  139.6883  153.7971 H   0  0  0  0  0  0  0  0  0  0  0  0
  147.9429  139.6392  152.1145 H   0  0  0  0  0  0  0  0  0  0  0  0
  145.4714  139.5090  152.2882 H   0  0  0  0  0  0  0  0  0  0  0  0
  145.1195  137.7484  150.7598 H   0  0  0  0  0  0  0  0  0  0  0  0
  146.8543  137.9868  150.5505 H   0  0  0  0  0  0  0  0  0  0  0  0
  146.4370  135.3583  149.9278 H   0  0  0  0  0  0  0  0  0  0  0  0
  144.0996  134.4417  149.9133 H   0  0  0  0  0  0  0  0  0  0  0  0
  144.0889  136.1847  150.0716 H   0  0  0  0  0  0  0  0  0  0  0  0
  143.8020  135.1736  151.4852 H   0  0  0  0  0  0  0  0  0  0  0  0
  145.9371  133.0451  150.7817 H   0  0  0  0  0  0  0  0  0  0  0  0
  145.8212  133.6829  152.4177 H   0  0  0  0  0  0  0  0  0  0  0  0
  147.3546  133.7268  151.5471 H   0  0  0  0  0  0  0  0  0  0  0  0
  144.7514  135.6960  153.1167 H   0  0  0  0  0  0  0  0  0  0  0  0
  146.3557  135.7938  153.8251 H   0  0  0  0  0  0  0  0  0  0  0  0
  145.7994  137.9432  154.5546 H   0  0  0  0  0  0  0  0  0  0  0  0
  143.7584  138.9954  153.4587 H   0  0  0  0  0  0  0  0  0  0  0  0
  142.3354  135.9186  153.1198 H   0  0  0  0  0  0  0  0  0  0  0  0
  141.9360  135.2372  154.6948 H   0  0  0  0  0  0  0  0  0  0  0  0
  140.6487  138.3971  152.4759 H   0  0  0  0  0  0  0  0  0  0  0  0
  137.9621  138.5224  153.1274 H   0  0  0  0  0  0  0  0  0  0  0  0
  147.2874  136.2469  151.9407 H   0  0  0  0  0  0  0  0  0  0  0  0
  1  2  1  0  0  0  0
  1 20  1  0  0  0  0
  1 21  1  0  0  0  0
  1 22  1  0  0  0  0
  2  9  1  0  0  0  0
  2  3  1  0  0  0  0
  2 23  1  0  0  0  0
  3  4  1  0  0  0  0
  3 24  1  0  0  0  0
  3 25  1  0  0  0  0
  4  5  1  0  0  0  0
  4  8  1  0  0  0  0
  4 41  1  0  0  0  0
  5  6  1  0  0  0  0
  5  7  1  0  0  0  0
  5 26  1  0  0  0  0
  6 27  1  0  0  0  0
  6 28  1  0  0  0  0
  6 29  1  0  0  0  0
  7 30  1  0  0  0  0
  7 31  1  0  0  0  0
  7 32  1  0  0  0  0
  8  9  1  0  0  0  0
  8 33  1  0  0  0  0
  8 34  1  0  0  0  0
  9 10  1  0  0  0  0
  9 35  1  0  0  0  0
 10 11  1  0  0  0  0
 10 36  1  0  0  0  0
 11 12  2  0  0  0  0
 11 13  2  0  0  0  0
 11 14  1  0  0  0  0
 14 15  1  0  0  0  0
 14 37  1  0  0  0  0
 14 38  1  0  0  0  0
 15 19  2  0  0  0  0
 15 16  1  0  0  0  0
 16 17  2  0  0  0  0
 16 39  1  0  0  0  0
 17 18  1  0  0  0  0
 17 40  1  0  0  0  0
 18 19  1  0  0  0  0
M  CHG  1   4   1
M  END
> <s_m_source_file>
AV-unprocessed.smi

> <i_m_source_file_index>
686

> <i_lp_mmshare_version>
43012

> <i_f3d_flags>
0

> <s_epik_input>
W0NIM11bQ0BASF0xW0NIMl1OKFtDSF0oW0NIM10pW0NIM10pW0NIMl1bQ0BIXTFbTkhdUyg9TykoPU8pW0NIMl1jMltjSF1bY0hdb24y

> <s_epik_cmdline>
J2VwaWtfcHl0aG9uJywgJy1waCcsICc3LjAnLCAnLXRuJywgJzgnLCAnLW1hJywgJzIwMCcsICctbWV0YWxfYmluZGluZycsICctaW1hZScsICc8aW5maWxlLm1hZT4nLCAnLW9tYWUnLCAnPG91dGZpbGUubWFlPic=

> <r_epik_Ionization_Penalty>
0.00200818

> <r_epik_Ionization_Penalty_Charging>
0.000701289

> <r_epik_Ionization_Penalty_Neutral>
0.00130689

> <r_epik_State_Penalty>
0.00131314

> <r_epik_Charging_Adjusted_Penalty>
0.00201443

> <i_epik_Tot_Q>
1

> <i_epik_Tot_abs_Q>
1

> <r_epik_Metal_State_Penalty>
0.310831

> <b_epik_Metal_Only>
0

> <s_lp_Force_Field>
OPLS_2005

> <r_lp_Energy>
21.6188

> <b_lp_Chiralities_Consistent>
1

> <s_lp_Variant>
AV-unprocessed.smi:686-8

> <Gold.Version>
5.8.1

> <Gold.Id.Protein>
6NUR|6NUR_protein|mol2

> <Gold.PLP.Fitness>
37.6850

> <Gold.PLP.PLP>
-26.6368

> <Gold.PLP.part.hbond>
-3.0000

> <Gold.PLP.part.metal>
0.0000

> <Gold.PLP.part.buried>
1.0923

> <Gold.PLP.part.nonpolar>
-24.6650

> <Gold.PLP.part.repulsive>
0.3248

> <Gold.PLP.ligand.clash>
0.0000

> <Gold.PLP.ligand.torsion>
0.5566

> <Gold.PLP.Chemscore.Hbond>
4.0000

> <Gold.PLP.Chemscore.CHOScore>
0.0000

> <Gold.PLP.Chemscore.Metal>
0.0000

> <Gold.Chemscore.Hbonds>
donor molecule, donor type, donor heavy atom, donor atom, acceptor molecule, acceptor atom, score
      L1  H     4    41       P1  7948  2.00
      L1  H    10    36       P1 10175  1.00
      P1  H 11000 11005       L1    19  1.00

> <Gold.PLP.Chemscore.Internal.Correction>
0.1615

> <Gold.Rescore>
     Score         DG    S(hbond)    S(metal)    S(lipo)     H(rot)  DE(clash)    DE(int)     intcor
     15.52     -19.66       2.95        0.00      78.71       1.91       2.84       1.30       ----

> <Gold.Chemscore.Fitness>
15.5169

> <Gold.Chemscore.DG>
-19.6624

> <Gold.Chemscore.ZeroCoef>
-5.4800

> <Gold.Chemscore.Hbond>
2.9541

> <Gold.Chemscore.Metal>
0.0000

> <Gold.Chemscore.Lipo>
78.7111

> <Gold.Chemscore.Internal_Hbond>
0.0000

> <Gold.Chemscore.DEClash>
2.8420

> <Gold.Chemscore.DEInternal>
1.3036

> <Gold.Chemscore.Rot>
1.9115

> <Gold.Chemscore.Internal.Correction>
   9.000000E+99

> <Gold.Chemscore.Hbonds>
donor molecule, donor type, donor heavy atom, donor atom, acceptor molecule, acceptor atom, score
      L1  H     4    41       P1  7948  1.00
      L1  H    10    36       P1 10175  0.97
      P1  H 11000 11005       L1    19  0.94

> <Gold.Chemscore.Hbond.Weighted>
-9.8667

> <Gold.Chemscore.Metal.Weighted>
-0.0000

> <Gold.Chemscore.Lipo.Weighted>
-9.2092

> <Gold.Chemscore.Internal_Hbond.Weighted>
0.0000

> <Gold.Chemscore.DEClash.Weighted>
2.8420

> <Gold.Chemscore.DEInternal.Weighted>
1.3036

> <Gold.Chemscore.Rot.Weighted>
4.8935

> <Gold.Chemscore.Internal.Correction.Weighted>
   9.000000E+99

> <Gold.Protein.RotatedTorsions>
[ 6907 6896 6895 6894 ] final   14.29 input  -60.11 | X-H torsion
[ 7974 7965 7964 7962 ] final  160.22 input  175.53 | X-H torsion
[ 8008 7997 7996 7995 ] final  -48.65 input   59.86 | X-H torsion
[ 10167 10162 10161 10158 ] final  115.71 input  -65.29 | X-H torsion
[ 10718 10713 10712 10709 ] final -127.83 input   66.30 | X-H torsion
[ 10763 10752 10751 10750 ] final   34.41 input  -60.55 | X-H torsion
[ 11005 11000 10999 10996 ] final   65.48 input  -57.11 | X-H torsion

> <Gold.Protein.ActiveResidues>
 VAL166  LYS551  ARG553  GLY616  TRP617  ASP618  TYR619  PRO620  LYS621  CYS622 
 ASP623  PHE694  ASN695  SER759  ASP760  ASP761  ALA762  ILE779  LEU786  VAL792 
 PHE793  MET794  SER795  GLU796  ALA797  LYS798  CYS799  TRP800  GLU811  SER814 

> <Gold.Protein.RotatedAtoms>
  151.7999  135.0711  160.0398 H   0  0  0  0  0  0  0  0  0  0  0  0  # atno 6907 bound_to 6896
  152.3096  133.5735  159.5680 H   0  0  0  0  0  0  0  0  0  0  0  0  # atno 6908 bound_to 6896
  150.7313  134.0088  159.3704 H   0  0  0  0  0  0  0  0  0  0  0  0  # atno 6909 bound_to 6896
  144.7749  139.7726  143.6283 H   0  0  0  0  0  0  0  0  0  0  0  0  # atno 7974 bound_to 7965
  154.4032  140.1316  156.4373 H   0  0  0  0  0  0  0  0  0  0  0  0  # atno 8008 bound_to 7997
  155.7492  140.3488  155.5122 H   0  0  0  0  0  0  0  0  0  0  0  0  # atno 8009 bound_to 7997
  155.8965  140.1012  157.1371 H   0  0  0  0  0  0  0  0  0  0  0  0  # atno 8010 bound_to 7997
  139.6298  144.7113  151.2457 H   0  0  0  0  0  0  0  0  0  0  0  0  # atno 10167 bound_to 10162
  156.1893  130.6785  151.0404 H   0  0  0  0  0  0  0  0  0  0  0  0  # atno 10718 bound_to 10713
  153.0165  135.6361  154.1665 H   0  0  0  0  0  0  0  0  0  0  0  0  # atno 10763 bound_to 10752
  154.1403  135.2835  155.3164 H   0  0  0  0  0  0  0  0  0  0  0  0  # atno 10764 bound_to 10752
  154.6129  135.5550  153.7554 H   0  0  0  0  0  0  0  0  0  0  0  0  # atno 10765 bound_to 10752
  139.9892  134.6619  156.0122 H   0  0  0  0  0  0  0  0  0  0  0  0  # atno 11005 bound_to 11000
  146.1921  139.5167  142.9798 LP  0  0  0  0  0  0  0  0  0  0  0  0  # atno 17320 bound_to 7965
  145.6216  141.0321  143.1911 LP  0  0  0  0  0  0  0  0  0  0  0  0  # atno 17321 bound_to 7965
  140.7432  143.6501  150.8256 LP  0  0  0  0  0  0  0  0  0  0  0  0  # atno 17342 bound_to 10162
  140.0124  143.5628  152.2833 LP  0  0  0  0  0  0  0  0  0  0  0  0  # atno 17343 bound_to 10162
  157.6919  131.0807  150.7082 LP  0  0  0  0  0  0  0  0  0  0  0  0  # atno 17370 bound_to 10713
  156.7139  130.4660  149.5540 LP  0  0  0  0  0  0  0  0  0  0  0  0  # atno 17371 bound_to 10713
  141.1551  133.6544  156.4135 LP  0  0  0  0  0  0  0  0  0  0  0  0  # atno 17394 bound_to 11000
  140.4942  134.6546  157.5223 LP  0  0  0  0  0  0  0  0  0  0  0  0  # atno 17395 bound_to 11000

$$$$
