#       Name:                AV-unprocessed.smi:3183
#       Creating user name   scv26
#       Creation time:       Fri Mar 27 17:59:29 2020


#       File generated by GOLD software.
#

@<TRIPOS>MOLECULE
AV-unprocessed.smi:3183
    44    45     1
SMALL
NO_CHARGES


@<TRIPOS>ATOM
      1 ****        -3.9352   3.6843  -0.2068 C.3            1 S1                 0.0000
      2 ****        -3.1703   2.3517  -0.1504 C.3            1 S1                 0.0000
      3 ****        -2.8332   1.9459   1.2975 C.3            1 S1                 0.0000
      4 ****        -2.1467   0.5722   1.3492 C.3            1 S1                 0.0000
      5 ****        -0.8837   0.5303   0.4702 C.3            1 S1                 0.0000
      6 ****        -0.2842  -0.8217   0.5259 N.4            1 S1                 1.0000
      7 ****         1.1085  -0.9174   0.0403 C.3            1 S1                 0.0000
      8 ****         1.6731  -2.3277   0.2652 C.3            1 S1                 0.0000
      9 ****         3.0863  -2.5060  -0.2004 C.2            1 S1                 0.0000
     10 ****         3.9439  -1.6458  -0.8310 C.2            1 S1                 0.0000
     11 ****         5.1341  -2.4044  -1.0038 C.2            1 S1                 0.0000
     12 ****         5.0275  -3.6304  -0.5230 N.2            1 S1                 0.0000
     13 ****         3.7724  -3.6953  -0.0311 N.pl3          1 S1                 0.0000
     14 ****         3.3167  -4.9261   0.5861 C.3            1 S1                 0.0000
     15 ****        -1.2276   0.9435  -0.9790 C.3            1 S1                 0.0000
     16 ****        -1.9127   2.3248  -1.0562 C.3            1 S1                 0.0000
     17 ****        -0.9150   3.4699  -0.7872 C.3            1 S1                 0.0000
     18 ****        -3.3675   4.4970   0.2468 H              1 S1                 0.0000
     19 ****        -4.8820   3.6113   0.3293 H              1 S1                 0.0000
     20 ****        -4.1620   3.9657  -1.2355 H              1 S1                 0.0000
     21 ****        -3.8527   1.5945  -0.5402 H              1 S1                 0.0000
     22 ****        -2.1925   2.6968   1.7608 H              1 S1                 0.0000
     23 ****        -3.7451   1.9152   1.8952 H              1 S1                 0.0000
     24 ****        -1.8918   0.3323   2.3823 H              1 S1                 0.0000
     25 ****        -2.8511  -0.1936   1.0206 H              1 S1                 0.0000
     26 ****        -0.1605   1.2325   0.8871 H              1 S1                 0.0000
     27 ****        -0.2840  -1.1128   1.4931 H              1 S1                 0.0000
     28 ****         1.1442  -0.6727  -1.0211 H              1 S1                 0.0000
     29 ****         1.7235  -0.1851   0.5653 H              1 S1                 0.0000
     30 ****         1.6174  -2.5701   1.3271 H              1 S1                 0.0000
     31 ****         1.0385  -3.0527  -0.2459 H              1 S1                 0.0000
     32 ****         3.7540  -0.6247  -1.1267 H              1 S1                 0.0000
     33 ****         6.0655  -2.1026  -1.4601 H              1 S1                 0.0000
     34 ****         2.3543  -5.2168   0.1650 H              1 S1                 0.0000
     35 ****         3.2064  -4.7771   1.6604 H              1 S1                 0.0000
     36 ****         4.0314  -5.7317   0.4127 H              1 S1                 0.0000
     37 ****        -0.3332   0.9534  -1.6019 H              1 S1                 0.0000
     38 ****        -1.8891   0.1948  -1.4176 H              1 S1                 0.0000
     39 ****        -2.2510   2.4521  -2.0855 H              1 S1                 0.0000
     40 ****        -0.5600   3.4759   0.2427 H              1 S1                 0.0000
     41 ****        -1.3613   4.4437  -0.9879 H              1 S1                 0.0000
     42 ****        -0.0416   3.3843  -1.4340 H              1 S1                 0.0000
     43 ****        -0.8653  -1.4595   0.0006 H              1 S1                 0.0000
     44 ****         5.7220  -4.3498  -0.5234 LP             1 S1                 0.0000
@<TRIPOS>BOND
    1    1    2 1     
    2    1   18 1     
    3    1   19 1     
    4    1   20 1     
    5    2   16 1     
    6    2    3 1     
    7    2   21 1     
    8    3    4 1     
    9    3   22 1     
   10    3   23 1     
   11    4    5 1     
   12    4   24 1     
   13    4   25 1     
   14    5    6 1     
   15    5   15 1     
   16    5   26 1     
   17    6    7 1     
   18    6   27 1     
   19    6   43 1     
   20    7    8 1     
   21    7   28 1     
   22    7   29 1     
   23    8    9 1     
   24    8   30 1     
   25    8   31 1     
   26    9   13 1     
   27    9   10 2     
   28   10   11 1     
   29   10   32 1     
   30   11   12 2     
   31   11   33 1     
   32   12   13 1     
   33   13   14 1     
   34   14   34 1     
   35   14   35 1     
   36   14   36 1     
   37   15   16 1     
   38   15   37 1     
   39   15   38 1     
   40   16   17 1     
   41   16   39 1     
   42   17   40 1     
   43   17   41 1     
   44   17   42 1     
   45   12   44 1     
@<TRIPOS>SUBSTRUCTURE
      1 S1             1
@<TRIPOS>SET
LONE_PAIRS      STATIC     ATOMS    <user>   **** ""
1 44
DONOR_HYDROGENS      STATIC     ATOMS    <user>   **** ""
2 27 43
ATOM$BLUE        STATIC     ATOMS    COLORGROUP SYSTEM
1 44
ATOM$RED        STATIC     ATOMS    COLORGROUP SYSTEM
2 27 43
