AV-unprocessed.smi:213|AV-procd|sdf|1635|dock6
  -GOLD-   2262019593D 1   1.00000     0.00000
 Structure written by MMmdl.
 59 62  0  0  0  0  0  0  0  0  2 V2000
  144.2979  137.5256  153.0318 C   0  0  0  0  0  0  0  0  0  0  0  0
  145.6455  137.2054  152.3653 C   0  0  2  0  0  0  0  0  0  0  0  0
  146.1869  135.8286  152.8207 C   0  0  0  0  0  0  0  0  0  0  0  0
  145.5255  134.6900  152.1344 N   0  3  0  0  0  0  0  0  0  0  0  0
  145.1400  134.9959  150.7379 C   0  0  0  0  0  0  0  0  0  0  0  0
  144.3768  133.8077  150.1279 C   0  0  0  0  0  0  0  0  0  0  0  0
  145.1785  132.6348  150.2007 O   0  0  0  0  0  0  0  0  0  0  0  0
  145.4932  132.2852  151.5431 C   0  0  0  0  0  0  0  0  0  0  0  0
  146.2947  133.4231  152.1960 C   0  0  0  0  0  0  0  0  0  0  0  0
  146.6178  138.2900  152.5688 N   0  0  0  0  0  0  0  0  0  0  0  0
  146.6626  139.4066  151.6250 C   0  0  0  0  0  0  0  0  0  0  0  0
  146.9666  138.5597  153.8547 C   0  0  0  0  0  0  0  0  0  0  0  0
  146.6970  137.6441  154.8244 N   0  0  0  0  0  0  0  0  0  0  0  0
  147.0668  137.8684  156.0885 C   0  0  0  0  0  0  0  0  0  0  0  0
  147.7114  138.9213  156.5933 N   0  0  0  0  0  0  0  0  0  0  0  0
  147.9766  139.8483  155.6296 C   0  0  0  0  0  0  0  0  0  0  0  0
  147.6419  139.7498  154.2494 C   0  0  0  0  0  0  0  0  0  0  0  0
  148.0681  140.8905  153.5789 N   0  0  0  0  0  0  0  0  0  0  0  0
  148.6253  141.6192  154.5073 C   0  0  0  0  0  0  0  0  0  0  0  0
  148.6125  141.0692  155.7685 N   0  0  0  0  0  0  0  0  0  0  0  0
  149.1526  141.6649  156.9778 C   0  0  0  0  0  0  0  0  0  0  0  0
  150.3444  140.8621  157.5414 C   0  0  1  0  0  0  0  0  0  0  0  0
  151.3074  140.6295  156.5326 O   0  0  0  0  0  0  0  0  0  0  0  0
  151.0429  141.5190  158.7505 C   0  0  2  0  0  0  0  0  0  0  0  0
  151.6062  142.9142  158.4737 C   0  0  0  0  0  0  0  0  0  0  0  0
  152.7186  143.0640  159.5008 C   0  0  0  0  0  0  0  0  0  0  0  0
  152.9370  141.6435  160.0289 C   0  0  0  0  0  0  0  0  0  0  0  0
  152.2029  140.8040  159.1493 O   0  0  0  0  0  0  0  0  0  0  0  0
  143.5512  136.7737  152.7752 H   0  0  0  0  0  0  0  0  0  0  0  0
  143.9162  138.4912  152.6981 H   0  0  0  0  0  0  0  0  0  0  0  0
  144.3725  137.5504  154.1188 H   0  0  0  0  0  0  0  0  0  0  0  0
  145.4249  137.1257  151.3030 H   0  0  0  0  0  0  0  0  0  0  0  0
  147.2590  135.7933  152.6216 H   0  0  0  0  0  0  0  0  0  0  0  0
  146.0780  135.7121  153.9002 H   0  0  0  0  0  0  0  0  0  0  0  0
  144.5101  135.8859  150.7131 H   0  0  0  0  0  0  0  0  0  0  0  0
  146.0323  135.2149  150.1493 H   0  0  0  0  0  0  0  0  0  0  0  0
  143.4294  133.6469  150.6453 H   0  0  0  0  0  0  0  0  0  0  0  0
  144.1396  134.0099  149.0831 H   0  0  0  0  0  0  0  0  0  0  0  0
  144.5795  132.0806  152.1036 H   0  0  0  0  0  0  0  0  0  0  0  0
  146.0781  131.3655  151.5424 H   0  0  0  0  0  0  0  0  0  0  0  0
  147.2509  133.5483  151.6857 H   0  0  0  0  0  0  0  0  0  0  0  0
  146.5163  133.1577  153.2291 H   0  0  0  0  0  0  0  0  0  0  0  0
  147.5678  139.9983  151.7680 H   0  0  0  0  0  0  0  0  0  0  0  0
  145.8011  140.0623  151.7548 H   0  0  0  0  0  0  0  0  0  0  0  0
  146.6680  139.0537  150.5947 H   0  0  0  0  0  0  0  0  0  0  0  0
  146.8147  137.0918  156.7956 H   0  0  0  0  0  0  0  0  0  0  0  0
  149.0598  142.5860  154.2981 H   0  0  0  0  0  0  0  0  0  0  0  0
  149.4476  142.6918  156.7585 H   0  0  0  0  0  0  0  0  0  0  0  0
  148.3486  141.7240  157.7113 H   0  0  0  0  0  0  0  0  0  0  0  0
  149.9917  139.8771  157.8498 H   0  0  0  0  0  0  0  0  0  0  0  0
  151.1828  141.2658  155.8452 H   0  0  0  0  0  0  0  0  0  0  0  0
  150.3552  141.5840  159.5966 H   0  0  0  0  0  0  0  0  0  0  0  0
  152.0316  142.9686  157.4714 H   0  0  0  0  0  0  0  0  0  0  0  0
  150.8481  143.6938  158.5552 H   0  0  0  0  0  0  0  0  0  0  0  0
  153.6215  143.4638  159.0383 H   0  0  0  0  0  0  0  0  0  0  0  0
  152.4310  143.7356  160.3104 H   0  0  0  0  0  0  0  0  0  0  0  0
  153.9901  141.3623  160.0535 H   0  0  0  0  0  0  0  0  0  0  0  0
  152.5350  141.5442  161.0381 H   0  0  0  0  0  0  0  0  0  0  0  0
  144.6597  134.5298  152.6305 H   0  0  0  0  0  0  0  0  0  0  0  0
  1  2  1  0  0  0  0
  1 29  1  0  0  0  0
  1 30  1  0  0  0  0
  1 31  1  0  0  0  0
  2  3  1  0  0  0  0
  2 10  1  0  0  0  0
  2 32  1  0  0  0  0
  3  4  1  0  0  0  0
  3 33  1  0  0  0  0
  3 34  1  0  0  0  0
  4  9  1  0  0  0  0
  4  5  1  0  0  0  0
  4 59  1  0  0  0  0
  5  6  1  0  0  0  0
  5 35  1  0  0  0  0
  5 36  1  0  0  0  0
  6  7  1  0  0  0  0
  6 37  1  0  0  0  0
  6 38  1  0  0  0  0
  7  8  1  0  0  0  0
  8  9  1  0  0  0  0
  8 39  1  0  0  0  0
  8 40  1  0  0  0  0
  9 41  1  0  0  0  0
  9 42  1  0  0  0  0
 10 11  1  0  0  0  0
 10 12  1  0  0  0  0
 11 43  1  0  0  0  0
 11 44  1  0  0  0  0
 11 45  1  0  0  0  0
 12 17  1  0  0  0  0
 12 13  2  0  0  0  0
 13 14  1  0  0  0  0
 14 15  2  0  0  0  0
 14 46  1  0  0  0  0
 15 16  1  0  0  0  0
 16 20  1  0  0  0  0
 16 17  2  0  0  0  0
 17 18  1  0  0  0  0
 18 19  2  0  0  0  0
 19 20  1  0  0  0  0
 19 47  1  0  0  0  0
 20 21  1  0  0  0  0
 21 22  1  0  0  0  0
 21 48  1  0  0  0  0
 21 49  1  0  0  0  0
 22 23  1  0  0  0  0
 22 24  1  0  0  0  0
 22 50  1  0  0  0  0
 23 51  1  0  0  0  0
 24 28  1  0  0  0  0
 24 25  1  0  0  0  0
 24 52  1  0  0  0  0
 25 26  1  0  0  0  0
 25 53  1  0  0  0  0
 25 54  1  0  0  0  0
 26 27  1  0  0  0  0
 26 55  1  0  0  0  0
 26 56  1  0  0  0  0
 27 28  1  0  0  0  0
 27 57  1  0  0  0  0
 27 58  1  0  0  0  0
M  CHG  1   4   1
M  END
> <s_m_source_file>
AV-unprocessed.smi

> <i_m_source_file_index>
213

> <i_lp_mmshare_version>
43012

> <i_f3d_flags>
0

> <s_epik_input>
W0NIMl0xW0NIMl1PW0NIMl1bQ0gyXU4xW0NIMl1bQ0BASF0oW0NIM10pTihbQ0gzXSljKG5bY0hdbjIpYyhjMjMpbltjSF1uM1tDSDJdW0NASF0oW09IXSlbQ0BASF00W0NIMl1bQ0gyXVtDSDJdTzQ=

> <s_epik_cmdline>
J2VwaWtfcHl0aG9uJywgJy1waCcsICc3LjAnLCAnLXRuJywgJzgnLCAnLW1hJywgJzIwMCcsICctbWV0YWxfYmluZGluZycsICctaW1hZScsICc8aW5maWxlLm1hZT4nLCAnLW9tYWUnLCAnPG91dGZpbGUubWFlPic=

> <r_lp_tautomer_probability>
1

> <r_epik_Ionization_Penalty>
0.399679

> <r_epik_Ionization_Penalty_Charging>
0.399433

> <r_epik_Ionization_Penalty_Neutral>
0.000246213

> <r_epik_State_Penalty>
0.286032

> <r_epik_Charging_Adjusted_Penalty>
0.685465

> <i_epik_Tot_Q>
1

> <i_epik_Tot_abs_Q>
1

> <r_epik_Metal_State_Penalty>
0.286072

> <b_epik_Metal_Only>
0

> <s_lp_Force_Field>
OPLS_2005

> <r_lp_Energy>
46.8913

> <b_lp_Chiralities_Consistent>
1

> <s_lp_Variant>
AV-unprocessed.smi:213-3

> <Gold.Version>
5.8.1

> <Gold.Id.Protein>
6NUR|6NUR_protein|mol2

> <Gold.PLP.Fitness>
41.0045

> <Gold.PLP.PLP>
-38.9411

> <Gold.PLP.part.hbond>
0.0000

> <Gold.PLP.part.metal>
0.0000

> <Gold.PLP.part.buried>
-0.0240

> <Gold.PLP.part.nonpolar>
-39.2151

> <Gold.PLP.part.repulsive>
1.2579

> <Gold.PLP.ligand.clash>
0.0000

> <Gold.PLP.ligand.torsion>
1.0210

> <Gold.PLP.Chemscore.Hbond>
0.0000

> <Gold.PLP.Chemscore.CHOScore>
0.9630

> <Gold.PLP.Chemscore.Metal>
0.0000

> <Gold.Chemscore.Hbonds>
donor molecule, donor type, donor heavy atom, donor atom, acceptor molecule, acceptor atom, score
      L1  C    19    47       P1  8028  0.98

> <Gold.PLP.Chemscore.Internal.Correction>
1.2165

> <Gold.Rescore>
     Score         DG    S(hbond)    S(metal)    S(lipo)     H(rot)  DE(clash)    DE(int)     intcor
      4.97      -9.94       0.00        0.00      99.94       2.83       0.47       4.50       ----

> <Gold.Chemscore.Fitness>
4.9718

> <Gold.Chemscore.DG>
-9.9399

> <Gold.Chemscore.ZeroCoef>
-5.4800

> <Gold.Chemscore.Hbond>
0.0000

> <Gold.Chemscore.Metal>
0.0000

> <Gold.Chemscore.Lipo>
99.9389

> <Gold.Chemscore.Internal_Hbond>
0.0000

> <Gold.Chemscore.DEClash>
0.4668

> <Gold.Chemscore.DEInternal>
4.5013

> <Gold.Chemscore.Rot>
2.8254

> <Gold.Chemscore.Internal.Correction>
   9.000000E+99

> <Gold.Chemscore.Hbond.Weighted>
-0.0000

> <Gold.Chemscore.Metal.Weighted>
-0.0000

> <Gold.Chemscore.Lipo.Weighted>
-11.6928

> <Gold.Chemscore.Internal_Hbond.Weighted>
0.0000

> <Gold.Chemscore.DEClash.Weighted>
0.4668

> <Gold.Chemscore.DEInternal.Weighted>
4.5013

> <Gold.Chemscore.Rot.Weighted>
7.2330

> <Gold.Chemscore.Internal.Correction.Weighted>
   9.000000E+99

> <Gold.Protein.RotatedTorsions>
[ 6907 6896 6895 6894 ] final   59.44 input  -60.11 | X-H torsion
[ 7974 7965 7964 7962 ] final  173.40 input  175.53 | X-H torsion
[ 8008 7997 7996 7995 ] final  -96.61 input   59.86 | X-H torsion
[ 10167 10162 10161 10158 ] final -162.26 input  -65.29 | X-H torsion
[ 10718 10713 10712 10709 ] final   -0.67 input   66.30 | X-H torsion
[ 10763 10752 10751 10750 ] final    4.93 input  -60.55 | X-H torsion
[ 11005 11000 10999 10996 ] final    9.90 input  -57.11 | X-H torsion

> <Gold.Protein.ActiveResidues>
 VAL166  LYS551  ARG553  GLY616  TRP617  ASP618  TYR619  PRO620  LYS621  CYS622 
 ASP623  PHE694  ASN695  SER759  ASP760  ASP761  ALA762  ILE779  LEU786  VAL792 
 PHE793  MET794  SER795  GLU796  ALA797  LYS798  CYS799  TRP800  GLU811  SER814 

> <Gold.Protein.RotatedAtoms>
  152.3915  134.6434  160.0105 H   0  0  0  0  0  0  0  0  0  0  0  0  # atno 6907 bound_to 6896
  151.6667  133.3309  159.3195 H   0  0  0  0  0  0  0  0  0  0  0  0  # atno 6908 bound_to 6896
  150.7830  134.6835  159.6501 H   0  0  0  0  0  0  0  0  0  0  0  0  # atno 6909 bound_to 6896
  144.7245  139.9641  143.6435 H   0  0  0  0  0  0  0  0  0  0  0  0  # atno 7974 bound_to 7965
  154.7768  140.0470  157.1095 H   0  0  0  0  0  0  0  0  0  0  0  0  # atno 8008 bound_to 7997
  154.9753  140.3094  155.4950 H   0  0  0  0  0  0  0  0  0  0  0  0  # atno 8009 bound_to 7997
  156.2930  140.2246  156.4848 H   0  0  0  0  0  0  0  0  0  0  0  0  # atno 8010 bound_to 7997
  139.6405  144.0269  152.2088 H   0  0  0  0  0  0  0  0  0  0  0  0  # atno 10167 bound_to 10162
  156.8170  130.5443  149.5702 H   0  0  0  0  0  0  0  0  0  0  0  0  # atno 10718 bound_to 10713
  153.2654  135.6927  153.7535 H   0  0  0  0  0  0  0  0  0  0  0  0  # atno 10763 bound_to 10752
  153.6579  135.3365  155.3119 H   0  0  0  0  0  0  0  0  0  0  0  0  # atno 10764 bound_to 10752
  154.8445  135.4470  154.1658 H   0  0  0  0  0  0  0  0  0  0  0  0  # atno 10765 bound_to 10752
  140.5206  134.0563  155.7843 H   0  0  0  0  0  0  0  0  0  0  0  0  # atno 11005 bound_to 11000
  146.0614  139.3607  143.0579 LP  0  0  0  0  0  0  0  0  0  0  0  0  # atno 17320 bound_to 7965
  145.8088  140.9736  143.0960 LP  0  0  0  0  0  0  0  0  0  0  0  0  # atno 17321 bound_to 7965
  139.9957  144.6329  150.7774 LP  0  0  0  0  0  0  0  0  0  0  0  0  # atno 17342 bound_to 10162
  140.7488  143.2928  151.3284 LP  0  0  0  0  0  0  0  0  0  0  0  0  # atno 17343 bound_to 10162
  156.1011  130.5970  150.9895 LP  0  0  0  0  0  0  0  0  0  0  0  0  # atno 17370 bound_to 10713
  157.6477  131.0901  150.8119 LP  0  0  0  0  0  0  0  0  0  0  0  0  # atno 17371 bound_to 10713
  141.1336  133.9259  157.2482 LP  0  0  0  0  0  0  0  0  0  0  0  0  # atno 17394 bound_to 11000
  139.9608  135.0154  156.9255 LP  0  0  0  0  0  0  0  0  0  0  0  0  # atno 17395 bound_to 11000

$$$$
