#       Name:                AV-unprocessed.smi:1396
#       Creating user name   scv26
#       Creation time:       Fri Mar 27 05:30:13 2020


#       File generated by GOLD software.
#

@<TRIPOS>MOLECULE
AV-unprocessed.smi:1396
    54    55     1
SMALL
NO_CHARGES


@<TRIPOS>ATOM
      1 ****        -6.2461  -2.9118   3.8442 C.3            1 S1                 0.0000
      2 ****        -5.8248  -2.1657   2.6647 N.pl3          1 S1                -1.0000
      3 ****        -5.1629  -2.7274   1.6177 C.2            1 S1                 0.0000
      4 ****        -4.7965  -3.8918   1.4267 O.2            1 S1                 0.0000
      5 ****        -4.8240  -1.6789   0.5517 C.3            1 S1                 0.0000
      6 ****        -3.3582  -1.4505   0.5096 N.4            1 S1                 1.0000
      7 ****        -2.8666  -0.5891   1.6190 C.3            1 S1                 0.0000
      8 ****        -1.3324  -0.4958   1.6091 C.3            1 S1                 0.0000
      9 ****        -0.8183   0.0253   0.2584 C.3            1 S1                 0.0000
     10 ****         0.6414   0.0273   0.2521 N.am           1 S1                 0.0000
     11 ****         1.4091   0.8260  -0.5027 C.2            1 S1                 0.0000
     12 ****         0.9551   1.6529  -1.2933 O.2            1 S1                 0.0000
     13 ****         2.7139   0.6100  -0.2643 N.am           1 S1                 0.0000
     14 ****         3.8388   1.2627  -0.8375 C.ar           1 S1                 0.0000
     15 ****         5.0665   1.1853  -0.1499 C.ar           1 S1                 0.0000
     16 ****         6.2022   1.8106  -0.6977 C.ar           1 S1                 0.0000
     17 ****         6.0772   2.4890  -1.9260 C.ar           1 S1                 0.0000
     18 ****         7.1933   3.1028  -2.4570 O.3            1 S1                 0.0000
     19 ****         7.0623   3.7882  -3.6975 C.3            1 S1                 0.0000
     20 ****         4.9051   2.5561  -2.6043 N.ar           1 S1                 0.0000
     21 ****         3.8189   1.9555  -2.0730 C.ar           1 S1                 0.0000
     22 ****        -1.3704  -0.8548  -0.8774 C.3            1 S1                 0.0000
     23 ****        -2.9040  -0.9502  -0.8128 C.3            1 S1                 0.0000
     24 ****        -6.7865  -2.2819   4.5504 H              1 S1                 0.0000
     25 ****        -5.4020  -3.3339   4.3906 H              1 S1                 0.0000
     26 ****        -6.9102  -3.7411   3.5985 H              1 S1                 0.0000
     27 ****        -5.1669  -2.0774  -0.4042 H              1 S1                 0.0000
     28 ****        -5.3547  -0.7354   0.6993 H              1 S1                 0.0000
     29 ****        -3.3049   0.4060   1.5299 H              1 S1                 0.0000
     30 ****        -3.1876  -0.9877   2.5815 H              1 S1                 0.0000
     31 ****        -0.9988   0.1592   2.4149 H              1 S1                 0.0000
     32 ****        -0.9099  -1.4807   1.8151 H              1 S1                 0.0000
     33 ****        -1.1806   1.0469   0.1272 H              1 S1                 0.0000
     34 ****         1.1002  -0.6201   0.8763 H              1 S1                 0.0000
     35 ****         2.9275  -0.0557   0.4641 H              1 S1                 0.0000
     36 ****         5.1396   0.6582   0.7902 H              1 S1                 0.0000
     37 ****         7.1519   1.7707  -0.1850 H              1 S1                 0.0000
     38 ****         8.0268   4.2113  -3.9778 H              1 S1                 0.0000
     39 ****         6.3484   4.6101  -3.6260 H              1 S1                 0.0000
     40 ****         6.7527   3.1129  -4.4963 H              1 S1                 0.0000
     41 ****         2.9281   2.0260  -2.6769 H              1 S1                 0.0000
     42 ****        -1.0699  -0.4527  -1.8457 H              1 S1                 0.0000
     43 ****        -0.9427  -1.8566  -0.8123 H              1 S1                 0.0000
     44 ****        -3.2522  -1.6204  -1.5996 H              1 S1                 0.0000
     45 ****        -3.3508   0.0263  -1.0067 H              1 S1                 0.0000
     46 ****        -2.9355  -2.3597   0.6325 H              1 S1                 0.0000
     47 ****        -6.0337  -1.1886   2.6232 LP             1 S1                 0.0000
     48 ****        -4.9833  -4.5938   2.1139 LP             1 S1                 0.0000
     49 ****        -4.3132  -4.1322   0.5849 LP             1 S1                 0.0000
     50 ****        -0.0343   1.7545  -1.3973 LP             1 S1                 0.0000
     51 ****         1.5756   2.2231  -1.8316 LP             1 S1                 0.0000
     52 ****         7.8887   2.3951  -2.5821 LP             1 S1                 0.0000
     53 ****         7.5131   3.7690  -1.7833 LP             1 S1                 0.0000
     54 ****         4.8465   3.0393  -3.4779 LP             1 S1                 0.0000
@<TRIPOS>BOND
    1    1    2 1     
    2    1   24 1     
    3    1   25 1     
    4    1   26 1     
    5    2    3 1     
    6    3    4 2     
    7    3    5 1     
    8    5    6 1     
    9    5   27 1     
   10    5   28 1     
   11    6   23 1     
   12    6    7 1     
   13    6   46 1     
   14    7    8 1     
   15    7   29 1     
   16    7   30 1     
   17    8    9 1     
   18    8   31 1     
   19    8   32 1     
   20    9   10 1     
   21    9   22 1     
   22    9   33 1     
   23   10   11 am    
   24   10   34 1     
   25   11   12 2     
   26   11   13 am    
   27   13   14 1     
   28   13   35 1     
   29   14   21 ar    
   30   14   15 ar    
   31   15   16 ar    
   32   15   36 1     
   33   16   17 ar    
   34   16   37 1     
   35   17   18 1     
   36   17   20 ar    
   37   18   19 1     
   38   19   38 1     
   39   19   39 1     
   40   19   40 1     
   41   20   21 ar    
   42   21   41 1     
   43   22   23 1     
   44   22   42 1     
   45   22   43 1     
   46   23   44 1     
   47   23   45 1     
   48    2   47 1     
   49    4   48 1     
   50    4   49 1     
   51   12   50 1     
   52   12   51 1     
   53   18   52 1     
   54   18   53 1     
   55   20   54 1     
@<TRIPOS>SUBSTRUCTURE
      1 S1             1
@<TRIPOS>SET
LONE_PAIRS      STATIC     ATOMS    <user>   **** ""
8 47 48 49 50 51 52 53 54
DONOR_HYDROGENS      STATIC     ATOMS    <user>   **** ""
3 46 34 35
ATOM$BLUE        STATIC     ATOMS    COLORGROUP SYSTEM
8 47 48 49 50 51 52 53 54
ATOM$RED        STATIC     ATOMS    COLORGROUP SYSTEM
3 46 34 35
