AV-unprocessed.smi:1910|AV-procd|sdf|7737|dock1
  -GOLD-   22720 9473D 1   1.00000     0.00000
 Structure written by MMmdl.
 41 42  0  0  0  0  0  0  0  0  2 V2000
  151.8472  138.3327  154.4901 C   0  0  0  0  0  0  0  0  0  0  0  0
  150.4821  138.2808  154.0903 O   0  0  0  0  0  0  0  0  0  0  0  0
  149.6924  139.3970  154.2908 C   0  0  0  0  0  0  0  0  0  0  0  0
  150.2683  140.5107  154.8090 N   0  0  0  0  0  0  0  0  0  0  0  0
  149.4997  141.6028  154.9993 C   0  0  0  0  0  0  0  0  0  0  0  0
  148.1300  141.6459  154.6807 C   0  0  0  0  0  0  0  0  0  0  0  0
  147.5302  140.4920  154.1438 C   0  0  0  0  0  0  0  0  0  0  0  0
  148.3206  139.3327  153.9517 C   0  0  0  0  0  0  0  0  0  0  0  0
  147.8211  138.1231  153.3952 N   0  0  0  0  0  0  0  0  0  0  0  0
  146.5426  137.7508  153.2161 C   0  0  0  0  0  0  0  0  0  0  0  0
  145.5556  138.4032  153.5551 O   0  0  0  0  0  0  0  0  0  0  0  0
  146.4637  136.5486  152.6308 N   0  0  0  0  0  0  0  0  0  0  0  0
  145.2124  135.8704  152.3204 C   0  0  0  0  0  0  0  0  0  0  0  0
  145.0259  135.7425  150.8002 C   0  0  0  0  0  0  0  0  0  0  0  0
  145.0713  134.3298  150.3473 N   0  3  0  0  0  0  0  0  0  0  0  0
  146.2964  133.6276  150.7986 C   0  0  0  0  0  0  0  0  0  0  0  0
  146.3216  132.1875  150.2585 C   0  0  0  0  0  0  0  0  0  0  0  0
  145.1502  131.4999  150.6791 O   0  0  0  0  0  0  0  0  0  0  0  0
  143.9674  132.1116  150.1799 C   0  0  0  0  0  0  0  0  0  0  0  0
  143.8633  133.5500  150.7152 C   0  0  0  0  0  0  0  0  0  0  0  0
  152.3248  137.3794  154.2642 H   0  0  0  0  0  0  0  0  0  0  0  0
  151.9435  138.5043  155.5630 H   0  0  0  0  0  0  0  0  0  0  0  0
  152.3908  139.1106  153.9520 H   0  0  0  0  0  0  0  0  0  0  0  0
  149.9928  142.4708  155.4110 H   0  0  0  0  0  0  0  0  0  0  0  0
  147.5535  142.5453  154.8392 H   0  0  0  0  0  0  0  0  0  0  0  0
  146.4854  140.5250  153.8764 H   0  0  0  0  0  0  0  0  0  0  0  0
  148.5237  137.4385  153.1563 H   0  0  0  0  0  0  0  0  0  0  0  0
  147.3217  136.0740  152.3898 H   0  0  0  0  0  0  0  0  0  0  0  0
  145.2288  134.8912  152.7994 H   0  0  0  0  0  0  0  0  0  0  0  0
  144.3756  136.4251  152.7483 H   0  0  0  0  0  0  0  0  0  0  0  0
  144.0553  136.1683  150.5410 H   0  0  0  0  0  0  0  0  0  0  0  0
  145.7737  136.3294  150.2641 H   0  0  0  0  0  0  0  0  0  0  0  0
  147.1810  134.1628  150.4512 H   0  0  0  0  0  0  0  0  0  0  0  0
  146.3332  133.6191  151.8892 H   0  0  0  0  0  0  0  0  0  0  0  0
  146.3915  132.1797  149.1696 H   0  0  0  0  0  0  0  0  0  0  0  0
  147.1966  131.6590  150.6372 H   0  0  0  0  0  0  0  0  0  0  0  0
  143.9693  132.1005  149.0887 H   0  0  0  0  0  0  0  0  0  0  0  0
  143.1050  131.5280  150.5025 H   0  0  0  0  0  0  0  0  0  0  0  0
  143.7540  133.5345  151.8007 H   0  0  0  0  0  0  0  0  0  0  0  0
  142.9669  134.0186  150.3103 H   0  0  0  0  0  0  0  0  0  0  0  0
  145.1147  134.3514  149.3383 H   0  0  0  0  0  0  0  0  0  0  0  0
  1  2  1  0  0  0  0
  1 21  1  0  0  0  0
  1 22  1  0  0  0  0
  1 23  1  0  0  0  0
  2  3  1  0  0  0  0
  3  8  1  0  0  0  0
  3  4  2  0  0  0  0
  4  5  1  0  0  0  0
  5  6  2  0  0  0  0
  5 24  1  0  0  0  0
  6  7  1  0  0  0  0
  6 25  1  0  0  0  0
  7  8  2  0  0  0  0
  7 26  1  0  0  0  0
  8  9  1  0  0  0  0
  9 10  1  0  0  0  0
  9 27  1  0  0  0  0
 10 11  2  0  0  0  0
 10 12  1  0  0  0  0
 12 13  1  0  0  0  0
 12 28  1  0  0  0  0
 13 14  1  0  0  0  0
 13 29  1  0  0  0  0
 13 30  1  0  0  0  0
 14 15  1  0  0  0  0
 14 31  1  0  0  0  0
 14 32  1  0  0  0  0
 15 20  1  0  0  0  0
 15 16  1  0  0  0  0
 15 41  1  0  0  0  0
 16 17  1  0  0  0  0
 16 33  1  0  0  0  0
 16 34  1  0  0  0  0
 17 18  1  0  0  0  0
 17 35  1  0  0  0  0
 17 36  1  0  0  0  0
 18 19  1  0  0  0  0
 19 20  1  0  0  0  0
 19 37  1  0  0  0  0
 19 38  1  0  0  0  0
 20 39  1  0  0  0  0
 20 40  1  0  0  0  0
M  CHG  1  15   1
M  END
> <s_m_source_file>
AV-unprocessed.smi

> <i_m_source_file_index>
1910

> <i_lp_mmshare_version>
43012

> <i_f3d_flags>
0

> <s_epik_input>
W0NIM11PYzFuW2NIXVtjSF1bY0hdYzFbTkhdQyg9TylbTkhdW0NIMl1bQ0gyXU4yW0NIMl1bQ0gyXU9bQ0gyXVtDSDJdMg==

> <s_epik_cmdline>
J2VwaWtfcHl0aG9uJywgJy1waCcsICc3LjAnLCAnLXRuJywgJzgnLCAnLW1hJywgJzIwMCcsICctbWV0YWxfYmluZGluZycsICctaW1hZScsICc8aW5maWxlLm1hZT4nLCAnLW9tYWUnLCAnPG91dGZpbGUubWFlPic=

> <r_lp_tautomer_probability>
1

> <r_epik_Ionization_Penalty>
0.602607

> <r_epik_Ionization_Penalty_Charging>
0.602531

> <r_epik_Ionization_Penalty_Neutral>
7.65669e-05

> <r_epik_State_Penalty>
0.617039

> <r_epik_Charging_Adjusted_Penalty>
1.21957

> <i_epik_Tot_Q>
1

> <i_epik_Tot_abs_Q>
1

> <r_epik_Metal_State_Penalty>
0.617043

> <b_epik_Metal_Only>
0

> <s_lp_Force_Field>
OPLS_2005

> <r_lp_Energy>
18.6257

> <b_lp_Chiralities_Consistent>
1

> <s_lp_Variant>
AV-unprocessed.smi:1910-2

> <Gold.Version>
5.8.1

> <Gold.Id.Protein>
6NUR|6NUR_protein|mol2

> <Gold.PLP.Fitness>
47.4385

> <Gold.PLP.PLP>
-34.5086

> <Gold.PLP.part.hbond>
-4.0000

> <Gold.PLP.part.metal>
0.0000

> <Gold.PLP.part.buried>
-2.1219

> <Gold.PLP.part.nonpolar>
-30.0338

> <Gold.PLP.part.repulsive>
1.5549

> <Gold.PLP.ligand.clash>
0.0000

> <Gold.PLP.ligand.torsion>
0.4828

> <Gold.PLP.Chemscore.Hbond>
3.7360

> <Gold.PLP.Chemscore.CHOScore>
0.8802

> <Gold.PLP.Chemscore.Metal>
0.0000

> <Gold.Chemscore.Hbonds>
donor molecule, donor type, donor heavy atom, donor atom, acceptor molecule, acceptor atom, score
      L1  H     9    27       P1  7948  0.83
      L1  H    12    28       P1  7948  0.94
      L1  H    15    41       P1  7921  0.97
      P1  H  7989  7998       L1     4  0.96
      L1  C     5    24       P1  8028  0.87

> <Gold.PLP.Chemscore.Internal.Correction>
0.0468

> <Gold.Rescore>
     Score         DG    S(hbond)    S(metal)    S(lipo)     H(rot)  DE(clash)    DE(int)     intcor
     17.85     -20.30       2.98        0.00      81.68       1.83       0.77       1.68       ----

> <Gold.Chemscore.Fitness>
17.8460

> <Gold.Chemscore.DG>
-20.3002

> <Gold.Chemscore.ZeroCoef>
-5.4800

> <Gold.Chemscore.Hbond>
2.9755

> <Gold.Chemscore.Metal>
0.0000

> <Gold.Chemscore.Lipo>
81.6789

> <Gold.Chemscore.Internal_Hbond>
0.0000

> <Gold.Chemscore.DEClash>
0.7693

> <Gold.Chemscore.DEInternal>
1.6850

> <Gold.Chemscore.Rot>
1.8260

> <Gold.Chemscore.Internal.Correction>
   9.000000E+99

> <Gold.Chemscore.Hbonds>
donor molecule, donor type, donor heavy atom, donor atom, acceptor molecule, acceptor atom, score
      L1  H     9    27       P1  7948  0.83
      L1  H    12    28       P1  7948  0.91
      L1  H    15    41       P1  7921  0.87
      P1  H  7989  7998       L1     4  0.21

> <Gold.Chemscore.Hbond.Weighted>
-9.9382

> <Gold.Chemscore.Metal.Weighted>
-0.0000

> <Gold.Chemscore.Lipo.Weighted>
-9.5564

> <Gold.Chemscore.Internal_Hbond.Weighted>
0.0000

> <Gold.Chemscore.DEClash.Weighted>
0.7693

> <Gold.Chemscore.DEInternal.Weighted>
1.6850

> <Gold.Chemscore.Rot.Weighted>
4.6744

> <Gold.Chemscore.Internal.Correction.Weighted>
   9.000000E+99

> <Gold.Protein.RotatedTorsions>
[ 6907 6896 6895 6894 ] final -111.51 input  -60.11 | X-H torsion
[ 7974 7965 7964 7962 ] final    0.93 input  175.53 | X-H torsion
[ 8008 7997 7996 7995 ] final    4.64 input   59.86 | X-H torsion
[ 10167 10162 10161 10158 ] final  -23.24 input  -65.29 | X-H torsion
[ 10718 10713 10712 10709 ] final -135.59 input   66.30 | X-H torsion
[ 10763 10752 10751 10750 ] final  -58.35 input  -60.55 | X-H torsion
[ 11005 11000 10999 10996 ] final -158.92 input  -57.11 | X-H torsion

> <Gold.Protein.ActiveResidues>
 VAL166  LYS551  ARG553  GLY616  TRP617  ASP618  TYR619  PRO620  LYS621  CYS622 
 ASP623  PHE694  ASN695  SER759  ASP760  ASP761  ALA762  ILE779  LEU786  VAL792 
 PHE793  MET794  SER795  GLU796  ALA797  LYS798  CYS799  TRP800  GLU811  SER814 

> <Gold.Protein.RotatedAtoms>
  150.7695  133.9224  159.3401 H   0  0  0  0  0  0  0  0  0  0  0  0  # atno 6907 bound_to 6896
  151.7114  135.0910  160.0278 H   0  0  0  0  0  0  0  0  0  0  0  0  # atno 6908 bound_to 6896
  152.3707  133.6377  159.6120 H   0  0  0  0  0  0  0  0  0  0  0  0  # atno 6909 bound_to 6896
  146.2437  140.1064  142.8345 H   0  0  0  0  0  0  0  0  0  0  0  0  # atno 7974 bound_to 7965
  154.7185  140.2707  155.6563 H   0  0  0  0  0  0  0  0  0  0  0  0  # atno 8008 bound_to 7997
  156.2816  140.2739  156.1773 H   0  0  0  0  0  0  0  0  0  0  0  0  # atno 8009 bound_to 7997
  155.0539  140.0371  157.2543 H   0  0  0  0  0  0  0  0  0  0  0  0  # atno 8010 bound_to 7997
  140.7287  143.4461  151.0585 H   0  0  0  0  0  0  0  0  0  0  0  0  # atno 10167 bound_to 10162
  156.2678  130.7248  151.1205 H   0  0  0  0  0  0  0  0  0  0  0  0  # atno 10718 bound_to 10713
  154.2368  135.6351  153.5193 H   0  0  0  0  0  0  0  0  0  0  0  0  # atno 10763 bound_to 10752
  152.9938  135.5532  154.5954 H   0  0  0  0  0  0  0  0  0  0  0  0  # atno 10764 bound_to 10752
  154.5450  135.2897  155.1036 H   0  0  0  0  0  0  0  0  0  0  0  0  # atno 10765 bound_to 10752
  140.6483  134.4477  157.5234 H   0  0  0  0  0  0  0  0  0  0  0  0  # atno 11005 bound_to 11000
  145.0525  140.9028  143.4987 LP  0  0  0  0  0  0  0  0  0  0  0  0  # atno 17320 bound_to 7965
  145.1164  139.2722  143.5611 LP  0  0  0  0  0  0  0  0  0  0  0  0  # atno 17321 bound_to 7965
  139.8132  143.7921  152.3172 LP  0  0  0  0  0  0  0  0  0  0  0  0  # atno 17342 bound_to 10162
  139.7978  144.7385  150.9866 LP  0  0  0  0  0  0  0  0  0  0  0  0  # atno 17343 bound_to 10162
  157.7273  131.0640  150.5869 LP  0  0  0  0  0  0  0  0  0  0  0  0  # atno 17370 bound_to 10713
  156.5963  130.4342  149.5915 LP  0  0  0  0  0  0  0  0  0  0  0  0  # atno 17371 bound_to 10713
  139.9055  134.8459  156.1724 LP  0  0  0  0  0  0  0  0  0  0  0  0  # atno 17394 bound_to 11000
  141.0555  133.6867  156.1853 LP  0  0  0  0  0  0  0  0  0  0  0  0  # atno 17395 bound_to 11000

$$$$
