AV-unprocessed.smi:1830|AV-procd|sdf|7454|dock1
  -GOLD-   22720 9143D 1   1.00000     0.00000
 Structure written by MMmdl.
 53 56  0  0  0  0  0  0  0  0  2 V2000
  149.9476  134.0292  155.8515 O   0  0  0  0  0  0  0  0  0  0  0  0
  149.5666  134.6488  154.8590 C   0  0  0  0  0  0  0  0  0  0  0  0
  149.7287  135.9687  154.6954 N   0  0  0  0  0  0  0  0  0  0  0  0
  150.3264  136.8730  155.6724 C   0  0  0  0  0  0  0  0  0  0  0  0
  151.2739  137.8837  154.9933 C   0  0  2  0  0  0  0  0  0  0  0  0
  152.0818  138.7255  156.0097 C   0  0  0  0  0  0  0  0  0  0  0  0
  151.2455  139.7463  156.6120 N   0  0  0  0  0  0  0  0  0  0  0  0
  151.8934  140.6672  157.5168 C   0  0  0  0  0  0  0  0  0  0  0  0
  150.8982  141.8324  157.6513 C   0  0  0  0  0  0  0  0  0  0  0  0
  149.9950  141.7126  156.4042 C   0  0  0  0  0  0  0  0  0  0  0  0
  150.6636  140.5918  155.6059 C   0  0  2  0  0  0  0  0  0  0  0  0
  149.7752  139.7732  154.6614 C   0  0  0  0  0  0  0  0  0  0  0  0
  150.5706  138.7372  154.0752 O   0  0  0  0  0  0  0  0  0  0  0  0
  148.9546  134.0988  153.7976 N   0  0  0  0  0  0  0  0  0  0  0  0
  148.6328  132.7276  153.5915 C   0  0  0  0  0  0  0  0  0  0  0  0
  149.4366  131.6847  154.1187 C   0  0  0  0  0  0  0  0  0  0  0  0
  149.0569  130.3426  153.9255 C   0  0  0  0  0  0  0  0  0  0  0  0
  147.8740  130.0636  153.2183 C   0  0  0  0  0  0  0  0  0  0  0  0
  147.1236  131.0790  152.7423 N   0  3  0  0  0  0  0  0  0  0  0  0
  147.4386  132.3888  152.8980 C   0  0  0  0  0  0  0  0  0  0  0  0
  146.5905  133.3671  152.3359 N   0  0  0  0  0  0  0  0  0  0  0  0
  146.5136  133.3246  150.8774 C   0  0  0  0  0  0  0  0  0  0  0  0
  145.0611  133.6352  150.5078 C   0  0  0  0  0  0  0  0  0  0  0  0
  144.2855  133.2007  151.7453 C   0  0  0  0  0  0  0  0  0  0  0  0
  145.2461  133.5611  152.8763 C   0  0  0  0  0  0  0  0  0  0  0  0
  149.3889  136.3882  153.8425 H   0  0  0  0  0  0  0  0  0  0  0  0
  149.5634  137.3790  156.2653 H   0  0  0  0  0  0  0  0  0  0  0  0
  150.8927  136.2622  156.3758 H   0  0  0  0  0  0  0  0  0  0  0  0
  151.9882  137.3108  154.4007 H   0  0  0  0  0  0  0  0  0  0  0  0
  152.5111  138.0856  156.7812 H   0  0  0  0  0  0  0  0  0  0  0  0
  152.9202  139.1982  155.4957 H   0  0  0  0  0  0  0  0  0  0  0  0
  152.1218  140.1973  158.4736 H   0  0  0  0  0  0  0  0  0  0  0  0
  152.8282  141.0263  157.0834 H   0  0  0  0  0  0  0  0  0  0  0  0
  150.3035  141.7355  158.5602 H   0  0  0  0  0  0  0  0  0  0  0  0
  151.4176  142.7904  157.6905 H   0  0  0  0  0  0  0  0  0  0  0  0
  148.9841  141.4276  156.6993 H   0  0  0  0  0  0  0  0  0  0  0  0
  149.9342  142.6418  155.8373 H   0  0  0  0  0  0  0  0  0  0  0  0
  151.4652  141.0390  155.0138 H   0  0  0  0  0  0  0  0  0  0  0  0
  148.9271  139.3476  155.1975 H   0  0  0  0  0  0  0  0  0  0  0  0
  149.3701  140.4039  153.8703 H   0  0  0  0  0  0  0  0  0  0  0  0
  148.7844  134.7113  153.0132 H   0  0  0  0  0  0  0  0  0  0  0  0
  150.3319  131.8940  154.6843 H   0  0  0  0  0  0  0  0  0  0  0  0
  149.6622  129.5398  154.3206 H   0  0  0  0  0  0  0  0  0  0  0  0
  147.5053  129.0669  153.0233 H   0  0  0  0  0  0  0  0  0  0  0  0
  147.1972  134.0437  150.4261 H   0  0  0  0  0  0  0  0  0  0  0  0
  146.7863  132.3321  150.5143 H   0  0  0  0  0  0  0  0  0  0  0  0
  144.9395  134.7086  150.3565 H   0  0  0  0  0  0  0  0  0  0  0  0
  144.7368  133.1280  149.5989 H   0  0  0  0  0  0  0  0  0  0  0  0
  143.3160  133.6909  151.8375 H   0  0  0  0  0  0  0  0  0  0  0  0
  144.1220  132.1223  151.7228 H   0  0  0  0  0  0  0  0  0  0  0  0
  145.0327  132.9974  153.7841 H   0  0  0  0  0  0  0  0  0  0  0  0
  145.1405  134.6166  153.1299 H   0  0  0  0  0  0  0  0  0  0  0  0
  146.2715  130.8460  152.2320 H   0  0  0  0  0  0  0  0  0  0  0  0
  1  2  2  0  0  0  0
  2  3  1  0  0  0  0
  2 14  1  0  0  0  0
  3  4  1  0  0  0  0
  3 26  1  0  0  0  0
  4  5  1  0  0  0  0
  4 27  1  0  0  0  0
  4 28  1  0  0  0  0
  5 13  1  0  0  0  0
  5  6  1  0  0  0  0
  5 29  1  0  0  0  0
  6  7  1  0  0  0  0
  6 30  1  0  0  0  0
  6 31  1  0  0  0  0
  7 11  1  0  0  0  0
  7  8  1  0  0  0  0
  8  9  1  0  0  0  0
  8 32  1  0  0  0  0
  8 33  1  0  0  0  0
  9 10  1  0  0  0  0
  9 34  1  0  0  0  0
  9 35  1  0  0  0  0
 10 11  1  0  0  0  0
 10 36  1  0  0  0  0
 10 37  1  0  0  0  0
 11 12  1  0  0  0  0
 11 38  1  0  0  0  0
 12 13  1  0  0  0  0
 12 39  1  0  0  0  0
 12 40  1  0  0  0  0
 14 15  1  0  0  0  0
 14 41  1  0  0  0  0
 15 20  1  0  0  0  0
 15 16  2  0  0  0  0
 16 17  1  0  0  0  0
 16 42  1  0  0  0  0
 17 18  2  0  0  0  0
 17 43  1  0  0  0  0
 18 19  1  0  0  0  0
 18 44  1  0  0  0  0
 19 20  2  0  0  0  0
 19 53  1  0  0  0  0
 20 21  1  0  0  0  0
 21 25  1  0  0  0  0
 21 22  1  0  0  0  0
 22 23  1  0  0  0  0
 22 45  1  0  0  0  0
 22 46  1  0  0  0  0
 23 24  1  0  0  0  0
 23 47  1  0  0  0  0
 23 48  1  0  0  0  0
 24 25  1  0  0  0  0
 24 49  1  0  0  0  0
 24 50  1  0  0  0  0
 25 51  1  0  0  0  0
 25 52  1  0  0  0  0
M  CHG  1  19   1
M  END
> <s_m_source_file>
AV-unprocessed.smi

> <i_m_source_file_index>
1830

> <i_lp_mmshare_version>
43012

> <i_f3d_flags>
0

> <s_epik_input>
W0NIMl0xW0NIMl1bQ0gyXVtDQEhdKE4xMilbQ0gyXU9bQ0BASF0oW0NIMl0yKVtDSDJdW05IXUMoPU8pW05IXWMzW2NIXVtjSF1bY0hdbmMzTjRbQ0gyXVtDSDJdW0NIMl1bQ0gyXTQ=

> <s_epik_cmdline>
J2VwaWtfcHl0aG9uJywgJy1waCcsICc3LjAnLCAnLXRuJywgJzgnLCAnLW1hJywgJzIwMCcsICctbWV0YWxfYmluZGluZycsICctaW1hZScsICc8aW5maWxlLm1hZT4nLCAnLW9tYWUnLCAnPG91dGZpbGUubWFlPic=

> <r_epik_Ionization_Penalty>
2.19264

> <r_epik_Ionization_Penalty_Charging>
1.12452

> <r_epik_Ionization_Penalty_Neutral>
1.06812

> <r_epik_State_Penalty>
2.334

> <r_epik_Charging_Adjusted_Penalty>
3.45852

> <i_epik_Tot_Q>
1

> <i_epik_Tot_abs_Q>
1

> <r_epik_Metal_State_Penalty>
2.41144

> <b_epik_Metal_Only>
0

> <s_lp_Force_Field>
OPLS_2005

> <r_lp_Energy>
83.5645

> <b_lp_Chiralities_Consistent>
1

> <s_lp_Variant>
AV-unprocessed.smi:1830-23

> <Gold.Version>
5.8.1

> <Gold.Id.Protein>
6NUR|6NUR_protein|mol2

> <Gold.PLP.Fitness>
47.1090

> <Gold.PLP.PLP>
-42.2985

> <Gold.PLP.part.hbond>
-2.8465

> <Gold.PLP.part.metal>
0.0000

> <Gold.PLP.part.buried>
-5.4913

> <Gold.PLP.part.nonpolar>
-34.1999

> <Gold.PLP.part.repulsive>
0.4050

> <Gold.PLP.ligand.clash>
0.0000

> <Gold.PLP.ligand.torsion>
0.4387

> <Gold.PLP.Chemscore.Hbond>
1.8420

> <Gold.PLP.Chemscore.CHOScore>
0.0000

> <Gold.PLP.Chemscore.Metal>
0.0000

> <Gold.Chemscore.Hbonds>
donor molecule, donor type, donor heavy atom, donor atom, acceptor molecule, acceptor atom, score
      L1  H     3    26       P1  7948  0.98
      L1  H    14    41       P1  7948  0.85

> <Gold.PLP.Chemscore.Internal.Correction>
0.1619

> <Gold.Rescore>
     Score         DG    S(hbond)    S(metal)    S(lipo)     H(rot)  DE(clash)    DE(int)     intcor
     16.05     -17.71       1.47        0.00      93.00       1.40       0.04       1.62       ----

> <Gold.Chemscore.Fitness>
16.0541

> <Gold.Chemscore.DG>
-17.7134

> <Gold.Chemscore.ZeroCoef>
-5.4800

> <Gold.Chemscore.Hbond>
1.4750

> <Gold.Chemscore.Metal>
0.0000

> <Gold.Chemscore.Lipo>
92.9962

> <Gold.Chemscore.Internal_Hbond>
0.0000

> <Gold.Chemscore.DEClash>
0.0435

> <Gold.Chemscore.DEInternal>
1.6158

> <Gold.Chemscore.Rot>
1.3959

> <Gold.Chemscore.Internal.Correction>
   9.000000E+99

> <Gold.Chemscore.Hbonds>
donor molecule, donor type, donor heavy atom, donor atom, acceptor molecule, acceptor atom, score
      L1  H     3    26       P1  7948  0.76
      L1  H    14    41       P1  7948  0.15

> <Gold.Chemscore.Hbond.Weighted>
-4.9264

> <Gold.Chemscore.Metal.Weighted>
-0.0000

> <Gold.Chemscore.Lipo.Weighted>
-10.8806

> <Gold.Chemscore.Internal_Hbond.Weighted>
0.0000

> <Gold.Chemscore.DEClash.Weighted>
0.0435

> <Gold.Chemscore.DEInternal.Weighted>
1.6158

> <Gold.Chemscore.Rot.Weighted>
3.5736

> <Gold.Chemscore.Internal.Correction.Weighted>
   9.000000E+99

> <Gold.Protein.RotatedTorsions>
[ 6907 6896 6895 6894 ] final  165.36 input  -60.11 | X-H torsion
[ 7974 7965 7964 7962 ] final   32.40 input  175.53 | X-H torsion
[ 8008 7997 7996 7995 ] final   37.68 input   59.86 | X-H torsion
[ 10167 10162 10161 10158 ] final -116.49 input  -65.29 | X-H torsion
[ 10718 10713 10712 10709 ] final  -77.89 input   66.30 | X-H torsion
[ 10763 10752 10751 10750 ] final -163.14 input  -60.55 | X-H torsion
[ 11005 11000 10999 10996 ] final  128.97 input  -57.11 | X-H torsion

> <Gold.Protein.ActiveResidues>
 VAL166  LYS551  ARG553  GLY616  TRP617  ASP618  TYR619  PRO620  LYS621  CYS622 
 ASP623  PHE694  ASN695  SER759  ASP760  ASP761  ALA762  ILE779  LEU786  VAL792 
 PHE793  MET794  SER795  GLU796  ALA797  LYS798  CYS799  TRP800  GLU811  SER814 

> <Gold.Protein.RotatedAtoms>
  151.8956  133.3526  159.3812 H   0  0  0  0  0  0  0  0  0  0  0  0  # atno 6907 bound_to 6896
  150.7092  134.4880  159.5511 H   0  0  0  0  0  0  0  0  0  0  0  0  # atno 6908 bound_to 6896
  152.2458  134.8182  160.0504 H   0  0  0  0  0  0  0  0  0  0  0  0  # atno 6909 bound_to 6896
  146.1489  139.6531  142.9112 H   0  0  0  0  0  0  0  0  0  0  0  0  # atno 7974 bound_to 7965
  155.2078  140.3321  155.4333 H   0  0  0  0  0  0  0  0  0  0  0  0  # atno 8008 bound_to 7997
  156.2382  140.1882  156.7110 H   0  0  0  0  0  0  0  0  0  0  0  0  # atno 8009 bound_to 7997
  154.6098  140.0610  156.9464 H   0  0  0  0  0  0  0  0  0  0  0  0  # atno 8010 bound_to 7997
  140.0786  143.4809  152.1938 H   0  0  0  0  0  0  0  0  0  0  0  0  # atno 10167 bound_to 10162
  156.0132  130.4503  150.3413 H   0  0  0  0  0  0  0  0  0  0  0  0  # atno 10718 bound_to 10713
  154.7150  135.3014  154.9138 H   0  0  0  0  0  0  0  0  0  0  0  0  # atno 10763 bound_to 10752
  154.0028  135.6705  153.4764 H   0  0  0  0  0  0  0  0  0  0  0  0  # atno 10764 bound_to 10752
  153.0786  135.5021  154.8371 H   0  0  0  0  0  0  0  0  0  0  0  0  # atno 10765 bound_to 10752
  139.9590  134.9606  156.9080 H   0  0  0  0  0  0  0  0  0  0  0  0  # atno 11005 bound_to 11000
  145.4871  141.0438  143.2613 LP  0  0  0  0  0  0  0  0  0  0  0  0  # atno 17320 bound_to 7965
  144.7880  139.6387  143.7126 LP  0  0  0  0  0  0  0  0  0  0  0  0  # atno 17321 bound_to 7965
  139.5793  144.7502  151.3683 LP  0  0  0  0  0  0  0  0  0  0  0  0  # atno 17342 bound_to 10162
  140.7089  143.7442  150.7531 LP  0  0  0  0  0  0  0  0  0  0  0  0  # atno 17343 bound_to 10162
  157.1508  131.0320  151.2886 LP  0  0  0  0  0  0  0  0  0  0  0  0  # atno 17370 bound_to 10713
  157.4394  130.7535  149.7056 LP  0  0  0  0  0  0  0  0  0  0  0  0  # atno 17371 bound_to 10713
  140.5544  134.0596  155.7379 LP  0  0  0  0  0  0  0  0  0  0  0  0  # atno 17394 bound_to 11000
  141.1265  133.9375  157.2625 LP  0  0  0  0  0  0  0  0  0  0  0  0  # atno 17395 bound_to 11000

$$$$
