AV-unprocessed.smi:1830|AV-procd|sdf|7438|dock3
  -GOLD-   22720 9123D 1   1.00000     0.00000
 Structure written by MMmdl.
 53 56  0  0  0  0  0  0  0  0  2 V2000
  145.2089  138.3523  152.1402 O   0  0  0  0  0  0  0  0  0  0  0  0
  146.3078  137.8032  152.0740 C   0  0  0  0  0  0  0  0  0  0  0  0
  146.5046  136.6102  151.4952 N   0  0  0  0  0  0  0  0  0  0  0  0
  145.4800  135.8009  150.8424 C   0  0  0  0  0  0  0  0  0  0  0  0
  144.6377  135.0401  151.8866 C   0  0  2  0  0  0  0  0  0  0  0  0
  145.4678  134.0299  152.7169 C   0  0  0  0  0  0  0  0  0  0  0  0
  145.7570  132.8440  151.8888 N   0  3  1  0  0  0  0  0  0  0  0  0
  146.5439  131.7516  152.4880 C   0  0  0  0  0  0  0  0  0  0  0  0
  146.1573  130.4956  151.6817 C   0  0  0  0  0  0  0  0  0  0  0  0
  145.0143  130.9341  150.7486 C   0  0  0  0  0  0  0  0  0  0  0  0
  144.5259  132.2313  151.3858 C   0  0  2  0  0  0  0  0  0  0  0  0
  143.7929  133.2390  150.4933 C   0  0  0  0  0  0  0  0  0  0  0  0
  143.5035  134.3967  151.2826 O   0  0  0  0  0  0  0  0  0  0  0  0
  147.4576  138.2928  152.5691 N   0  0  0  0  0  0  0  0  0  0  0  0
  147.6870  139.4928  153.3051 C   0  0  0  0  0  0  0  0  0  0  0  0
  146.8708  140.6461  153.1945 C   0  0  0  0  0  0  0  0  0  0  0  0
  147.1844  141.7858  153.9573 C   0  0  0  0  0  0  0  0  0  0  0  0
  148.3080  141.7383  154.8008 C   0  0  0  0  0  0  0  0  0  0  0  0
  149.1046  140.6560  154.9068 N   0  0  0  0  0  0  0  0  0  0  0  0
  148.8086  139.5554  154.1729 C   0  0  0  0  0  0  0  0  0  0  0  0
  149.6639  138.4450  154.2930 N   0  0  0  0  0  0  0  0  0  0  0  0
  149.1166  137.3057  155.0098 C   0  0  0  0  0  0  0  0  0  0  0  0
  150.3176  136.4061  155.3069 C   0  0  0  0  0  0  0  0  0  0  0  0
  151.5247  137.3520  155.3001 C   0  0  0  0  0  0  0  0  0  0  0  0
  150.9575  138.7177  154.8986 C   0  0  0  0  0  0  0  0  0  0  0  0
  147.4433  136.2380  151.4931 H   0  0  0  0  0  0  0  0  0  0  0  0
  144.8591  136.4562  150.2323 H   0  0  0  0  0  0  0  0  0  0  0  0
  145.9253  135.0848  150.1501 H   0  0  0  0  0  0  0  0  0  0  0  0
  144.2387  135.7821  152.5795 H   0  0  0  0  0  0  0  0  0  0  0  0
  146.3974  134.4804  153.0667 H   0  0  0  0  0  0  0  0  0  0  0  0
  144.9075  133.7250  153.6021 H   0  0  0  0  0  0  0  0  0  0  0  0
  147.6119  131.9670  152.4412 H   0  0  0  0  0  0  0  0  0  0  0  0
  146.2685  131.6230  153.5360 H   0  0  0  0  0  0  0  0  0  0  0  0
  147.0004  130.1071  151.1094 H   0  0  0  0  0  0  0  0  0  0  0  0
  145.8261  129.7045  152.3555 H   0  0  0  0  0  0  0  0  0  0  0  0
  145.4064  131.1291  149.7492 H   0  0  0  0  0  0  0  0  0  0  0  0
  144.2269  130.1848  150.6611 H   0  0  0  0  0  0  0  0  0  0  0  0
  143.8887  131.9781  152.2363 H   0  0  0  0  0  0  0  0  0  0  0  0
  144.3842  133.5019  149.6159 H   0  0  0  0  0  0  0  0  0  0  0  0
  142.8570  132.8146  150.1298 H   0  0  0  0  0  0  0  0  0  0  0  0
  148.2651  137.6937  152.4774 H   0  0  0  0  0  0  0  0  0  0  0  0
  146.0193  140.6903  152.5346 H   0  0  0  0  0  0  0  0  0  0  0  0
  146.5781  142.6772  153.8940 H   0  0  0  0  0  0  0  0  0  0  0  0
  148.5786  142.5941  155.4014 H   0  0  0  0  0  0  0  0  0  0  0  0
  148.6490  137.6264  155.9417 H   0  0  0  0  0  0  0  0  0  0  0  0
  148.3639  136.7885  154.4140 H   0  0  0  0  0  0  0  0  0  0  0  0
  150.2053  135.8763  156.2533 H   0  0  0  0  0  0  0  0  0  0  0  0
  150.4306  135.6602  154.5192 H   0  0  0  0  0  0  0  0  0  0  0  0
  152.0144  137.3991  156.2733 H   0  0  0  0  0  0  0  0  0  0  0  0
  152.2634  137.0128  154.5728 H   0  0  0  0  0  0  0  0  0  0  0  0
  151.6150  139.2342  154.1985 H   0  0  0  0  0  0  0  0  0  0  0  0
  150.8449  139.3493  155.7810 H   0  0  0  0  0  0  0  0  0  0  0  0
  146.2733  133.1579  151.0795 H   0  0  0  0  0  0  0  0  0  0  0  0
  1  2  2  0  0  0  0
  2  3  1  0  0  0  0
  2 14  1  0  0  0  0
  3  4  1  0  0  0  0
  3 26  1  0  0  0  0
  4  5  1  0  0  0  0
  4 27  1  0  0  0  0
  4 28  1  0  0  0  0
  5 13  1  0  0  0  0
  5  6  1  0  0  0  0
  5 29  1  0  0  0  0
  6  7  1  0  0  0  0
  6 30  1  0  0  0  0
  6 31  1  0  0  0  0
  7 11  1  0  0  0  0
  7  8  1  0  0  0  0
  7 53  1  0  0  0  0
  8  9  1  0  0  0  0
  8 32  1  0  0  0  0
  8 33  1  0  0  0  0
  9 10  1  0  0  0  0
  9 34  1  0  0  0  0
  9 35  1  0  0  0  0
 10 11  1  0  0  0  0
 10 36  1  0  0  0  0
 10 37  1  0  0  0  0
 11 12  1  0  0  0  0
 11 38  1  0  0  0  0
 12 13  1  0  0  0  0
 12 39  1  0  0  0  0
 12 40  1  0  0  0  0
 14 15  1  0  0  0  0
 14 41  1  0  0  0  0
 15 20  1  0  0  0  0
 15 16  2  0  0  0  0
 16 17  1  0  0  0  0
 16 42  1  0  0  0  0
 17 18  2  0  0  0  0
 17 43  1  0  0  0  0
 18 19  1  0  0  0  0
 18 44  1  0  0  0  0
 19 20  2  0  0  0  0
 20 21  1  0  0  0  0
 21 25  1  0  0  0  0
 21 22  1  0  0  0  0
 22 23  1  0  0  0  0
 22 45  1  0  0  0  0
 22 46  1  0  0  0  0
 23 24  1  0  0  0  0
 23 47  1  0  0  0  0
 23 48  1  0  0  0  0
 24 25  1  0  0  0  0
 24 49  1  0  0  0  0
 24 50  1  0  0  0  0
 25 51  1  0  0  0  0
 25 52  1  0  0  0  0
M  CHG  1   7   1
M  END
> <s_m_source_file>
AV-unprocessed.smi

> <i_m_source_file_index>
1830

> <i_lp_mmshare_version>
43012

> <i_f3d_flags>
0

> <s_epik_input>
W0NIMl0xW0NIMl1bQ0gyXVtDQEhdKE4xMilbQ0gyXU9bQ0BASF0oW0NIMl0yKVtDSDJdW05IXUMoPU8pW05IXWMzW2NIXVtjSF1bY0hdbmMzTjRbQ0gyXVtDSDJdW0NIMl1bQ0gyXTQ=

> <s_epik_cmdline>
J2VwaWtfcHl0aG9uJywgJy1waCcsICc3LjAnLCAnLXRuJywgJzgnLCAnLW1hJywgJzIwMCcsICctbWV0YWxfYmluZGluZycsICctaW1hZScsICc8aW5maWxlLm1hZT4nLCAnLW9tYWUnLCAnPG91dGZpbGUubWFlPic=

> <r_lp_tautomer_probability>
1

> <r_epik_Ionization_Penalty>
0.193547

> <r_epik_Ionization_Penalty_Charging>
0.10673

> <r_epik_Ionization_Penalty_Neutral>
0.0868166

> <r_epik_State_Penalty>
0.173595

> <r_epik_Charging_Adjusted_Penalty>
0.280326

> <i_epik_Tot_Q>
1

> <i_epik_Tot_abs_Q>
1

> <r_epik_Metal_State_Penalty>
0.164683

> <b_epik_Metal_Only>
0

> <s_lp_Force_Field>
OPLS_2005

> <r_lp_Energy>
70.9361

> <b_lp_Chiralities_Consistent>
1

> <s_lp_Variant>
AV-unprocessed.smi:1830-7

> <Gold.Version>
5.8.1

> <Gold.Id.Protein>
6NUR|6NUR_protein|mol2

> <Gold.PLP.Fitness>
43.7308

> <Gold.PLP.PLP>
-35.9880

> <Gold.PLP.part.hbond>
-2.4530

> <Gold.PLP.part.metal>
0.0000

> <Gold.PLP.part.buried>
-2.3659

> <Gold.PLP.part.nonpolar>
-36.7451

> <Gold.PLP.part.repulsive>
5.2612

> <Gold.PLP.ligand.clash>
0.0000

> <Gold.PLP.ligand.torsion>
0.6377

> <Gold.PLP.Chemscore.Hbond>
1.9920

> <Gold.PLP.Chemscore.CHOScore>
1.0000

> <Gold.PLP.Chemscore.Metal>
0.0000

> <Gold.Chemscore.Hbonds>
donor molecule, donor type, donor heavy atom, donor atom, acceptor molecule, acceptor atom, score
      L1  H     3    26       P1  7948  0.96
      L1  H    14    41       P1  7948  0.98
      L1  C    18    44       P1  8028  1.00

> <Gold.PLP.Chemscore.Internal.Correction>
0.0423

> <Gold.Rescore>
     Score         DG    S(hbond)    S(metal)    S(lipo)     H(rot)  DE(clash)    DE(int)     intcor
     16.81     -19.67       1.91        0.00      97.52       1.41       1.23       1.63       ----

> <Gold.Chemscore.Fitness>
16.8065

> <Gold.Chemscore.DG>
-19.6686

> <Gold.Chemscore.ZeroCoef>
-5.4800

> <Gold.Chemscore.Hbond>
1.9102

> <Gold.Chemscore.Metal>
0.0000

> <Gold.Chemscore.Lipo>
97.5190

> <Gold.Chemscore.Internal_Hbond>
0.0000

> <Gold.Chemscore.DEClash>
1.2292

> <Gold.Chemscore.DEInternal>
1.6329

> <Gold.Chemscore.Rot>
1.4067

> <Gold.Chemscore.Internal.Correction>
   9.000000E+99

> <Gold.Chemscore.Hbonds>
donor molecule, donor type, donor heavy atom, donor atom, acceptor molecule, acceptor atom, score
      L1  H     3    26       P1  7948  0.90
      L1  H    14    41       P1  7948  0.93

> <Gold.Chemscore.Hbond.Weighted>
-6.3800

> <Gold.Chemscore.Metal.Weighted>
-0.0000

> <Gold.Chemscore.Lipo.Weighted>
-11.4097

> <Gold.Chemscore.Internal_Hbond.Weighted>
0.0000

> <Gold.Chemscore.DEClash.Weighted>
1.2292

> <Gold.Chemscore.DEInternal.Weighted>
1.6329

> <Gold.Chemscore.Rot.Weighted>
3.6011

> <Gold.Chemscore.Internal.Correction.Weighted>
   9.000000E+99

> <Gold.Protein.RotatedTorsions>
[ 6907 6896 6895 6894 ] final  108.05 input  -60.11 | X-H torsion
[ 7974 7965 7964 7962 ] final  -97.75 input  175.53 | X-H torsion
[ 8008 7997 7996 7995 ] final  -71.52 input   59.86 | X-H torsion
[ 10167 10162 10161 10158 ] final -123.38 input  -65.29 | X-H torsion
[ 10718 10713 10712 10709 ] final  -54.89 input   66.30 | X-H torsion
[ 10763 10752 10751 10750 ] final   -6.71 input  -60.55 | X-H torsion
[ 11005 11000 10999 10996 ] final  -44.35 input  -57.11 | X-H torsion

> <Gold.Protein.ActiveResidues>
 VAL166  LYS551  ARG553  GLY616  TRP617  ASP618  TYR619  PRO620  LYS621  CYS622 
 ASP623  PHE694  ASN695  SER759  ASP760  ASP761  ALA762  ILE779  LEU786  VAL792 
 PHE793  MET794  SER795  GLU796  ALA797  LYS798  CYS799  TRP800  GLU811  SER814 

> <Gold.Protein.RotatedAtoms>
  152.5128  133.9145  159.7503 H   0  0  0  0  0  0  0  0  0  0  0  0  # atno 6907 bound_to 6896
  150.9530  133.6519  159.2775 H   0  0  0  0  0  0  0  0  0  0  0  0  # atno 6908 bound_to 6896
  151.3791  135.0941  159.9543 H   0  0  0  0  0  0  0  0  0  0  0  0  # atno 6909 bound_to 6896
  145.3297  140.9439  143.2669 H   0  0  0  0  0  0  0  0  0  0  0  0  # atno 7974 bound_to 7965
  154.5094  140.0814  156.7960 H   0  0  0  0  0  0  0  0  0  0  0  0  # atno 8008 bound_to 7997
  155.3819  140.3428  155.4229 H   0  0  0  0  0  0  0  0  0  0  0  0  # atno 8009 bound_to 7997
  156.1555  140.1572  156.8686 H   0  0  0  0  0  0  0  0  0  0  0  0  # atno 8010 bound_to 7997
  140.0041  143.5509  152.2291 H   0  0  0  0  0  0  0  0  0  0  0  0  # atno 10167 bound_to 10162
  156.1413  130.4154  150.0098 H   0  0  0  0  0  0  0  0  0  0  0  0  # atno 10718 bound_to 10713
  153.4161  135.7009  153.6326 H   0  0  0  0  0  0  0  0  0  0  0  0  # atno 10763 bound_to 10752
  153.4799  135.3696  155.2437 H   0  0  0  0  0  0  0  0  0  0  0  0  # atno 10764 bound_to 10752
  154.8719  135.4063  154.3522 H   0  0  0  0  0  0  0  0  0  0  0  0  # atno 10765 bound_to 10752
  141.0445  133.6767  156.2860 H   0  0  0  0  0  0  0  0  0  0  0  0  # atno 11005 bound_to 11000
  144.8874  139.4821  143.6694 LP  0  0  0  0  0  0  0  0  0  0  0  0  # atno 17320 bound_to 7965
  146.3050  139.7551  142.9063 LP  0  0  0  0  0  0  0  0  0  0  0  0  # atno 17321 bound_to 7965
  139.6251  144.7636  151.2657 LP  0  0  0  0  0  0  0  0  0  0  0  0  # atno 17342 bound_to 10162
  140.7407  143.6579  150.8190 LP  0  0  0  0  0  0  0  0  0  0  0  0  # atno 17343 bound_to 10162
  156.7983  130.9281  151.3646 LP  0  0  0  0  0  0  0  0  0  0  0  0  # atno 17370 bound_to 10713
  157.6578  130.8940  149.9766 LP  0  0  0  0  0  0  0  0  0  0  0  0  # atno 17371 bound_to 10713
  140.6173  134.5397  157.5542 LP  0  0  0  0  0  0  0  0  0  0  0  0  # atno 17394 bound_to 11000
  139.9301  134.7981  156.0956 LP  0  0  0  0  0  0  0  0  0  0  0  0  # atno 17395 bound_to 11000

$$$$
