#       Name:                AV-unprocessed.smi:2866
#       Creating user name   scv26
#       Creation time:       Fri Mar 27 15:48:25 2020


#       File generated by GOLD software.
#

@<TRIPOS>MOLECULE
AV-unprocessed.smi:2866
    45    47     1
SMALL
NO_CHARGES


@<TRIPOS>ATOM
      1 ****        -3.2845   4.2851   1.8681 C.3            1 S1                 0.0000
      2 ****        -2.7053   3.2237   0.9484 C.ar           1 S1                 0.0000
      3 ****        -2.3524   3.5935  -0.3692 C.ar           1 S1                 0.0000
      4 ****        -1.8246   2.6010  -1.1865 C.ar           1 S1                 0.0000
      5 ****        -1.3835   2.6436  -2.5111 N.pl3          1 S1                 1.0000
      6 ****        -0.9466   1.4088  -2.8843 C.2            1 S1                 0.0000
      7 ****        -1.1037   0.5791  -1.8174 N.pl3          1 S1                 0.0000
      8 ****        -0.7913  -0.8493  -1.6786 C.3            1 S1                 0.0000
      9 ****         0.5580  -1.1032  -0.9793 C.3            1 S1                 0.0000
     10 ****         1.5922  -0.4649  -1.7054 O.3            1 S1                 0.0000
     11 ****         0.8592  -2.6080  -0.8455 C.3            1 S1                 0.0000
     12 ****         2.0824  -2.8679  -0.1072 N.pl3          1 S1                 0.0000
     13 ****         2.2533  -2.9670   1.2563 C.2            1 S1                 0.0000
     14 ****         3.5765  -3.2150   1.4820 C.2            1 S1                 0.0000
     15 ****         4.1499  -3.2536   0.1778 C.2            1 S1                 0.0000
     16 ****         5.5864  -3.4938  -0.2050 C.3            1 S1                 0.0000
     17 ****         6.3323  -3.6720   0.8853 F              1 S1                 0.0000
     18 ****         5.6773  -4.5818  -0.9696 F              1 S1                 0.0000
     19 ****         6.0577  -2.4459  -0.8810 F              1 S1                 0.0000
     20 ****         3.2456  -3.0434  -0.7695 N.2            1 S1                 0.0000
     21 ****        -1.6459   1.2791  -0.7352 C.ar           1 S1                 0.0000
     22 ****        -1.9867   0.8975   0.5598 C.ar           1 S1                 0.0000
     23 ****        -2.5229   1.8932   1.4075 C.ar           1 S1                 0.0000
     24 ****        -2.9010   1.5085   2.8278 C.3            1 S1                 0.0000
     25 ****        -3.4120   5.2359   1.3498 H              1 S1                 0.0000
     26 ****        -2.6239   4.4547   2.7187 H              1 S1                 0.0000
     27 ****        -4.2614   3.9787   2.2427 H              1 S1                 0.0000
     28 ****        -2.4865   4.6047  -0.7248 H              1 S1                 0.0000
     29 ****        -0.5442   1.1370  -3.8496 H              1 S1                 0.0000
     30 ****        -1.6088  -1.3309  -1.1405 H              1 S1                 0.0000
     31 ****        -0.7843  -1.2808  -2.6806 H              1 S1                 0.0000
     32 ****         0.5337  -0.6602   0.0170 H              1 S1                 0.0000
     33 ****         2.4181  -0.6691  -1.2924 H              1 S1                 0.0000
     34 ****         0.0412  -3.1068  -0.3243 H              1 S1                 0.0000
     35 ****         0.9308  -3.0753  -1.8292 H              1 S1                 0.0000
     36 ****         1.4286  -2.8542   1.9447 H              1 S1                 0.0000
     37 ****         4.0633  -3.3504   2.4364 H              1 S1                 0.0000
     38 ****        -1.8477  -0.1155   0.9075 H              1 S1                 0.0000
     39 ****        -2.6676   0.4635   3.0340 H              1 S1                 0.0000
     40 ****        -3.9698   1.6496   2.9906 H              1 S1                 0.0000
     41 ****        -2.3562   2.1188   3.5485 H              1 S1                 0.0000
     42 ****        -1.3775   3.4539  -3.1175 H              1 S1                 0.0000
     43 ****         1.4476   0.5245  -1.6996 LP             1 S1                 0.0000
     44 ****         1.5959  -0.7958  -2.6491 LP             1 S1                 0.0000
     45 ****         3.3933  -3.0201  -1.7583 LP             1 S1                 0.0000
@<TRIPOS>BOND
    1    1    2 1     
    2    1   25 1     
    3    1   26 1     
    4    1   27 1     
    5    2   23 ar    
    6    2    3 ar    
    7    3    4 ar    
    8    3   28 1     
    9    4   21 ar    
   10    4    5 1     
   11    5    6 2     
   12    5   42 1     
   13    6    7 1     
   14    6   29 1     
   15    7    8 1     
   16    7   21 1     
   17    8    9 1     
   18    8   30 1     
   19    8   31 1     
   20    9   10 1     
   21    9   11 1     
   22    9   32 1     
   23   10   33 1     
   24   11   12 1     
   25   11   34 1     
   26   11   35 1     
   27   12   20 1     
   28   12   13 1     
   29   13   14 2     
   30   13   36 1     
   31   14   15 1     
   32   14   37 1     
   33   15   16 1     
   34   15   20 2     
   35   16   17 1     
   36   16   18 1     
   37   16   19 1     
   38   21   22 ar    
   39   22   23 ar    
   40   22   38 1     
   41   23   24 1     
   42   24   39 1     
   43   24   40 1     
   44   24   41 1     
   45   10   43 1     
   46   10   44 1     
   47   20   45 1     
@<TRIPOS>SUBSTRUCTURE
      1 S1             1
@<TRIPOS>SET
LONE_PAIRS      STATIC     ATOMS    <user>   **** ""
3 43 44 45
DONOR_HYDROGENS      STATIC     ATOMS    <user>   **** ""
2 42 33
ATOM$BLUE        STATIC     ATOMS    COLORGROUP SYSTEM
3 43 44 45
ATOM$RED        STATIC     ATOMS    COLORGROUP SYSTEM
2 42 33
