AV-unprocessed.smi:2238|AV-procd|sdf|9054|dock6
  -GOLD-   2272012263D 1   1.00000     0.00000
 Structure written by MMmdl.
 38 39  0  0  0  0  0  0  0  0  1 V2000
  151.6452  144.2654  157.9069 C   0  0  0  0  0  0  0  0  0  0  0  0
  152.1359  143.8809  159.2876 C   0  0  0  0  0  0  0  0  0  0  0  0
  151.7711  144.6489  160.4109 C   0  0  0  0  0  0  0  0  0  0  0  0
  152.2314  144.2849  161.6891 C   0  0  0  0  0  0  0  0  0  0  0  0
  153.0570  143.1551  161.8495 C   0  0  0  0  0  0  0  0  0  0  0  0
  153.6102  142.7317  163.4302 Cl  0  0  0  0  0  0  0  0  0  0  0  0
  153.4336  142.3759  160.7333 C   0  0  0  0  0  0  0  0  0  0  0  0
  154.2455  141.2863  160.9676 O   0  0  0  0  0  0  0  0  0  0  0  0
  154.4913  140.3778  159.9012 C   0  0  0  0  0  0  0  0  0  0  0  0
  155.0144  139.0444  160.4629 C   0  0  2  0  0  0  0  0  0  0  0  0
  156.0286  138.5858  159.5916 O   0  0  0  0  0  0  0  0  0  0  0  0
  153.9080  137.9760  160.6199 C   0  0  0  0  0  0  0  0  0  0  0  0
  154.2601  136.9574  161.6227 N   0  0  0  0  0  0  0  0  0  0  0  0
  154.3258  137.3879  162.9629 C   0  0  0  0  0  0  0  0  0  0  0  0
  154.6256  136.5762  163.9268 N   0  0  0  0  0  0  0  0  0  0  0  0
  154.8962  135.2347  163.6407 C   0  0  0  0  0  0  0  0  0  0  0  0
  155.2393  134.3336  164.8091 C   0  0  0  0  0  0  0  0  0  0  0  0
  154.8577  134.7734  162.3691 C   0  0  0  0  0  0  0  0  0  0  0  0
  154.5247  135.6684  161.2605 C   0  0  0  0  0  0  0  0  0  0  0  0
  154.4887  135.2883  160.0903 O   0  0  0  0  0  0  0  0  0  0  0  0
  152.9635  142.7509  159.4486 C   0  0  0  0  0  0  0  0  0  0  0  0
  150.8447  145.0038  157.9615 H   0  0  0  0  0  0  0  0  0  0  0  0
  151.2622  143.3901  157.3815 H   0  0  0  0  0  0  0  0  0  0  0  0
  152.4614  144.6885  157.3211 H   0  0  0  0  0  0  0  0  0  0  0  0
  151.1392  145.5177  160.2975 H   0  0  0  0  0  0  0  0  0  0  0  0
  151.9501  144.8752  162.5490 H   0  0  0  0  0  0  0  0  0  0  0  0
  153.5917  140.2150  159.3049 H   0  0  0  0  0  0  0  0  0  0  0  0
  155.2524  140.8017  159.2440 H   0  0  0  0  0  0  0  0  0  0  0  0
  155.4808  139.2480  161.4280 H   0  0  0  0  0  0  0  0  0  0  0  0
  156.4952  137.8817  160.0161 H   0  0  0  0  0  0  0  0  0  0  0  0
  152.9778  138.4636  160.9191 H   0  0  0  0  0  0  0  0  0  0  0  0
  153.6700  137.5213  159.6563 H   0  0  0  0  0  0  0  0  0  0  0  0
  154.1115  138.4454  163.1267 H   0  0  0  0  0  0  0  0  0  0  0  0
  155.0366  133.2887  164.5719 H   0  0  0  0  0  0  0  0  0  0  0  0
  154.6507  134.5999  165.6875 H   0  0  0  0  0  0  0  0  0  0  0  0
  156.2955  134.4298  165.0614 H   0  0  0  0  0  0  0  0  0  0  0  0
  155.0736  133.7354  162.1625 H   0  0  0  0  0  0  0  0  0  0  0  0
  153.2259  142.1845  158.5682 H   0  0  0  0  0  0  0  0  0  0  0  0
  1  2  1  0  0  0  0
  1 22  1  0  0  0  0
  1 23  1  0  0  0  0
  1 24  1  0  0  0  0
  2 21  1  0  0  0  0
  2  3  2  0  0  0  0
  3  4  1  0  0  0  0
  3 25  1  0  0  0  0
  4  5  2  0  0  0  0
  4 26  1  0  0  0  0
  5  6  1  0  0  0  0
  5  7  1  0  0  0  0
  7  8  1  0  0  0  0
  7 21  2  0  0  0  0
  8  9  1  0  0  0  0
  9 10  1  0  0  0  0
  9 27  1  0  0  0  0
  9 28  1  0  0  0  0
 10 11  1  0  0  0  0
 10 12  1  0  0  0  0
 10 29  1  0  0  0  0
 11 30  1  0  0  0  0
 12 13  1  0  0  0  0
 12 31  1  0  0  0  0
 12 32  1  0  0  0  0
 13 19  1  0  0  0  0
 13 14  1  0  0  0  0
 14 15  2  0  0  0  0
 14 33  1  0  0  0  0
 15 16  1  0  0  0  0
 16 17  1  0  0  0  0
 16 18  2  0  0  0  0
 17 34  1  0  0  0  0
 17 35  1  0  0  0  0
 17 36  1  0  0  0  0
 18 19  1  0  0  0  0
 18 37  1  0  0  0  0
 19 20  2  0  0  0  0
 21 38  1  0  0  0  0
M  END
> <s_m_source_file>
AV-unprocessed.smi

> <i_m_source_file_index>
2238

> <i_lp_mmshare_version>
43012

> <i_f3d_flags>
0

> <s_epik_input>
W0NIM11jMVtjSF1bY0hdYyhDbCljKFtjSF0xKU9bQ0gyXVtDQEhdKFtPSF0pW0NIMl1uMltjSF1uYyhbQ0gzXSlbY0hdYzI9Tw==

> <s_epik_cmdline>
J2VwaWtfcHl0aG9uJywgJy1waCcsICc3LjAnLCAnLXRuJywgJzgnLCAnLW1hJywgJzIwMCcsICctbWV0YWxfYmluZGluZycsICctaW1hZScsICc8aW5maWxlLm1hZT4nLCAnLW9tYWUnLCAnPG91dGZpbGUubWFlPic=

> <r_lp_tautomer_probability>
1

> <r_epik_Ionization_Penalty>
1.78029e-05

> <r_epik_Ionization_Penalty_Charging>
3.78421e-08

> <r_epik_Ionization_Penalty_Neutral>
1.7765e-05

> <r_epik_State_Penalty>
-0

> <r_epik_Charging_Adjusted_Penalty>
3.78421e-08

> <i_epik_Tot_Q>
0

> <i_epik_Tot_abs_Q>
0

> <r_epik_Metal_State_Penalty>
-0

> <b_epik_Metal_Only>
0

> <s_lp_Force_Field>
OPLS_2005

> <r_lp_Energy>
23.6885

> <b_lp_Chiralities_Consistent>
1

> <s_lp_Variant>
AV-unprocessed.smi:2238-1

> <Gold.Version>
5.8.1

> <Gold.Id.Protein>
6NUR|6NUR_protein|mol2

> <Gold.PLP.Fitness>
52.0128

> <Gold.PLP.PLP>
-50.9225

> <Gold.PLP.part.hbond>
-1.0000

> <Gold.PLP.part.metal>
0.0000

> <Gold.PLP.part.buried>
-5.3516

> <Gold.PLP.part.nonpolar>
-45.1041

> <Gold.PLP.part.repulsive>
0.0581

> <Gold.PLP.ligand.clash>
0.0000

> <Gold.PLP.ligand.torsion>
0.9866

> <Gold.PLP.Chemscore.Hbond>
1.0000

> <Gold.PLP.Chemscore.CHOScore>
0.0000

> <Gold.PLP.Chemscore.Metal>
0.0000

> <Gold.Chemscore.Hbonds>
donor molecule, donor type, donor heavy atom, donor atom, acceptor molecule, acceptor atom, score
      P1  H  6896  6908       L1    20  0.78

> <Gold.PLP.Chemscore.Internal.Correction>
0.0635

> <Gold.Rescore>
     Score         DG    S(hbond)    S(metal)    S(lipo)     H(rot)  DE(clash)    DE(int)     intcor
     17.87     -18.79       0.98        0.00     139.91       2.47       0.05       0.87       ----

> <Gold.Chemscore.Fitness>
17.8744

> <Gold.Chemscore.DG>
-18.7940

> <Gold.Chemscore.ZeroCoef>
-5.4800

> <Gold.Chemscore.Hbond>
0.9798

> <Gold.Chemscore.Metal>
0.0000

> <Gold.Chemscore.Lipo>
139.9103

> <Gold.Chemscore.Internal_Hbond>
0.0000

> <Gold.Chemscore.DEClash>
0.0460

> <Gold.Chemscore.DEInternal>
0.8736

> <Gold.Chemscore.Rot>
2.4718

> <Gold.Chemscore.Internal.Correction>
   9.000000E+99

> <Gold.Chemscore.Hbonds>
donor molecule, donor type, donor heavy atom, donor atom, acceptor molecule, acceptor atom, score
      P1  H  6896  6908       L1    20  0.30

> <Gold.Chemscore.Hbond.Weighted>
-3.2724

> <Gold.Chemscore.Metal.Weighted>
-0.0000

> <Gold.Chemscore.Lipo.Weighted>
-16.3695

> <Gold.Chemscore.Internal_Hbond.Weighted>
0.0000

> <Gold.Chemscore.DEClash.Weighted>
0.0460

> <Gold.Chemscore.DEInternal.Weighted>
0.8736

> <Gold.Chemscore.Rot.Weighted>
6.3279

> <Gold.Chemscore.Internal.Correction.Weighted>
   9.000000E+99

> <Gold.Protein.RotatedTorsions>
[ 6907 6896 6895 6894 ] final  -41.03 input  -60.11 | X-H torsion
[ 7974 7965 7964 7962 ] final    1.74 input  175.53 | X-H torsion
[ 8008 7997 7996 7995 ] final  140.80 input   59.86 | X-H torsion
[ 10167 10162 10161 10158 ] final -167.70 input  -65.29 | X-H torsion
[ 10718 10713 10712 10709 ] final  -92.54 input   66.30 | X-H torsion
[ 10763 10752 10751 10750 ] final -125.46 input  -60.55 | X-H torsion
[ 11005 11000 10999 10996 ] final  -39.31 input  -57.11 | X-H torsion

> <Gold.Protein.ActiveResidues>
 VAL166  LYS551  ARG553  GLY616  TRP617  ASP618  TYR619  PRO620  LYS621  CYS622 
 ASP623  PHE694  ASN695  SER759  ASP760  ASP761  ALA762  ILE779  LEU786  VAL792 
 PHE793  MET794  SER795  GLU796  ALA797  LYS798  CYS799  TRP800  GLU811  SER814 

> <Gold.Protein.RotatedAtoms>
  150.9715  134.9087  159.7790 H   0  0  0  0  0  0  0  0  0  0  0  0  # atno 6907 bound_to 6896
  152.5192  134.3534  159.9269 H   0  0  0  0  0  0  0  0  0  0  0  0  # atno 6908 bound_to 6896
  151.3543  133.3872  159.2718 H   0  0  0  0  0  0  0  0  0  0  0  0  # atno 6909 bound_to 6896
  146.2441  140.0942  142.8350 H   0  0  0  0  0  0  0  0  0  0  0  0  # atno 7974 bound_to 7965
  156.2974  140.2332  156.4460 H   0  0  0  0  0  0  0  0  0  0  0  0  # atno 8008 bound_to 7997
  154.8143  140.0441  157.1386 H   0  0  0  0  0  0  0  0  0  0  0  0  # atno 8009 bound_to 7997
  154.9387  140.3026  155.5135 H   0  0  0  0  0  0  0  0  0  0  0  0  # atno 8010 bound_to 7997
  139.6032  144.0966  152.1765 H   0  0  0  0  0  0  0  0  0  0  0  0  # atno 10167 bound_to 10162
  156.0003  130.4991  150.5641 H   0  0  0  0  0  0  0  0  0  0  0  0  # atno 10718 bound_to 10713
  154.8736  135.4029  154.3271 H   0  0  0  0  0  0  0  0  0  0  0  0  # atno 10763 bound_to 10752
  153.4091  135.7020  153.6377 H   0  0  0  0  0  0  0  0  0  0  0  0  # atno 10764 bound_to 10752
  153.5088  135.3712  155.2547 H   0  0  0  0  0  0  0  0  0  0  0  0  # atno 10765 bound_to 10752
  141.0092  133.6916  156.2169 H   0  0  0  0  0  0  0  0  0  0  0  0  # atno 11005 bound_to 11000
  145.0624  140.9097  143.4930 LP  0  0  0  0  0  0  0  0  0  0  0  0  # atno 17320 bound_to 7965
  145.1060  139.2790  143.5662 LP  0  0  0  0  0  0  0  0  0  0  0  0  # atno 17321 bound_to 7965
  140.0568  144.5889  150.7294 LP  0  0  0  0  0  0  0  0  0  0  0  0  # atno 17342 bound_to 10162
  140.7265  143.2642  151.4100 LP  0  0  0  0  0  0  0  0  0  0  0  0  # atno 17343 bound_to 10162
  157.3545  131.0739  151.1686 LP  0  0  0  0  0  0  0  0  0  0  0  0  # atno 17370 bound_to 10713
  157.2491  130.6605  149.5923 LP  0  0  0  0  0  0  0  0  0  0  0  0  # atno 17371 bound_to 10713
  140.6762  134.4816  157.5588 LP  0  0  0  0  0  0  0  0  0  0  0  0  # atno 17394 bound_to 11000
  139.9080  134.8406  156.1632 LP  0  0  0  0  0  0  0  0  0  0  0  0  # atno 17395 bound_to 11000

$$$$
