AV-unprocessed.smi:390|AV-procd|sdf|2478|dock5
  -GOLD-   2262022423D 1   1.00000     0.00000
 Structure written by MMmdl.
 31 32  0  0  0  0  0  0  0  0  1 V2000
  151.0644  140.5114  155.4217 N   0  0  0  0  0  0  0  0  0  0  0  0
  151.3936  140.8093  156.4905 C   0  0  0  0  0  0  0  0  0  0  0  0
  151.8270  141.1839  157.7955 C   0  0  0  0  0  0  0  0  0  0  0  0
  151.7773  142.4649  158.2208 C   0  0  0  0  0  0  0  0  0  0  0  0
  152.1856  142.8519  159.4808 N   0  0  0  0  0  0  0  0  0  0  0  0
  152.2723  144.2376  159.8452 C   0  0  0  0  0  0  0  0  0  0  0  0
  151.0210  145.0911  159.9149 C   0  0  0  0  0  0  0  0  0  0  0  0
  152.0087  145.2908  158.7913 C   0  0  0  0  0  0  0  0  0  0  0  0
  152.7561  141.9094  160.3641 C   0  0  0  0  0  0  0  0  0  0  0  0
  153.2244  142.2526  161.4529 O   0  0  0  0  0  0  0  0  0  0  0  0
  152.7818  140.5610  159.9318 N   0  0  0  0  0  0  0  0  0  0  0  0
  153.3582  139.5696  160.8303 C   0  0  0  0  0  0  0  0  0  0  0  0
  154.8183  139.8417  161.2267 C   0  0  0  0  0  0  0  0  0  0  0  0
  155.1060  140.1222  162.3935 O   0  0  0  0  0  0  0  0  0  0  0  0
  155.7046  139.7452  160.2151 N   0  0  0  0  0  0  0  0  0  0  0  0
  157.0377  139.9291  160.2739 C   0  0  0  0  0  0  0  0  0  0  0  0
  157.6121  139.7551  159.0822 N   0  0  0  0  0  0  0  0  0  0  0  0
  157.6878  140.2218  161.2776 O   0  0  0  0  0  0  0  0  0  0  0  0
  152.3393  140.1212  158.6577 C   0  0  0  0  0  0  0  0  0  0  0  0
  152.4063  138.9384  158.3176 O   0  0  0  0  0  0  0  0  0  0  0  0
  151.3987  143.2216  157.5487 H   0  0  0  0  0  0  0  0  0  0  0  0
  153.0480  144.4775  160.5704 H   0  0  0  0  0  0  0  0  0  0  0  0
  150.0679  144.6302  159.6620 H   0  0  0  0  0  0  0  0  0  0  0  0
  150.9777  145.8544  160.6892 H   0  0  0  0  0  0  0  0  0  0  0  0
  152.6222  146.1891  158.8152 H   0  0  0  0  0  0  0  0  0  0  0  0
  151.7066  144.9599  157.7994 H   0  0  0  0  0  0  0  0  0  0  0  0
  152.7247  139.5112  161.7168 H   0  0  0  0  0  0  0  0  0  0  0  0
  153.2630  138.5924  160.3540 H   0  0  0  0  0  0  0  0  0  0  0  0
  155.3227  139.5084  159.3116 H   0  0  0  0  0  0  0  0  0  0  0  0
  158.6099  139.8621  158.9752 H   0  0  0  0  0  0  0  0  0  0  0  0
  157.0392  139.5148  158.2861 H   0  0  0  0  0  0  0  0  0  0  0  0
  1  2  3  0  0  0  0
  2  3  1  0  0  0  0
  3 19  1  0  0  0  0
  3  4  2  0  0  0  0
  4  5  1  0  0  0  0
  4 21  1  0  0  0  0
  5  6  1  0  0  0  0
  5  9  1  0  0  0  0
  6  8  1  0  0  0  0
  6  7  1  0  0  0  0
  6 22  1  0  0  0  0
  7  8  1  0  0  0  0
  7 23  1  0  0  0  0
  7 24  1  0  0  0  0
  8 25  1  0  0  0  0
  8 26  1  0  0  0  0
  9 10  2  0  0  0  0
  9 11  1  0  0  0  0
 11 12  1  0  0  0  0
 11 19  1  0  0  0  0
 12 13  1  0  0  0  0
 12 27  1  0  0  0  0
 12 28  1  0  0  0  0
 13 14  2  0  0  0  0
 13 15  1  0  0  0  0
 15 16  1  0  0  0  0
 15 29  1  0  0  0  0
 16 17  1  0  0  0  0
 16 18  2  0  0  0  0
 17 30  1  0  0  0  0
 17 31  1  0  0  0  0
 19 20  2  0  0  0  0
M  END
> <s_m_source_file>
AV-unprocessed.smi

> <i_m_source_file_index>
390

> <i_lp_mmshare_version>
43012

> <i_f3d_flags>
0

> <s_epik_input>
TiNDYzFbY0hdbihbQ0hdMltDSDJdW0NIMl0yKWMoPU8pbihjMT1PKVtDSDJdQyg9TylbTkhdQyg9TylbTkgyXQ==

> <s_epik_cmdline>
J2VwaWtfcHl0aG9uJywgJy1waCcsICc3LjAnLCAnLXRuJywgJzgnLCAnLW1hJywgJzIwMCcsICctbWV0YWxfYmluZGluZycsICctaW1hZScsICc8aW5maWxlLm1hZT4nLCAnLW9tYWUnLCAnPG91dGZpbGUubWFlPic=

> <r_lp_tautomer_probability>
1

> <r_epik_Ionization_Penalty>
3.12406e-05

> <r_epik_Ionization_Penalty_Charging>
4.21484e-11

> <r_epik_Ionization_Penalty_Neutral>
3.12406e-05

> <r_epik_State_Penalty>
-0

> <r_epik_Charging_Adjusted_Penalty>
4.21484e-11

> <i_epik_Tot_Q>
0

> <i_epik_Tot_abs_Q>
0

> <r_epik_Metal_State_Penalty>
-0

> <b_epik_Metal_Only>
0

> <s_lp_Force_Field>
OPLS_2005

> <r_lp_Energy>
30.8642

> <b_lp_Chiralities_Consistent>
1

> <s_lp_Variant>
AV-unprocessed.smi:390-1

> <Gold.Version>
5.8.1

> <Gold.Id.Protein>
6NUR|6NUR_protein|mol2

> <Gold.PLP.Fitness>
44.1267

> <Gold.PLP.PLP>
-41.4564

> <Gold.PLP.part.hbond>
-4.0000

> <Gold.PLP.part.metal>
0.0000

> <Gold.PLP.part.buried>
-7.7354

> <Gold.PLP.part.nonpolar>
-30.7819

> <Gold.PLP.part.repulsive>
0.2534

> <Gold.PLP.ligand.clash>
0.0000

> <Gold.PLP.ligand.torsion>
0.1895

> <Gold.PLP.Chemscore.Hbond>
0.9440

> <Gold.PLP.Chemscore.CHOScore>
0.0000

> <Gold.PLP.Chemscore.Metal>
0.0000

> <Gold.Chemscore.Hbonds>
donor molecule, donor type, donor heavy atom, donor atom, acceptor molecule, acceptor atom, score
      P1  H  7989  7998       L1     1  0.92

> <Gold.PLP.Chemscore.Internal.Correction>
0.2173

> <Gold.Rescore>
     Score         DG    S(hbond)    S(metal)    S(lipo)     H(rot)  DE(clash)    DE(int)     intcor
      6.92     -10.17       0.89        0.00      60.56       2.09       0.28       2.97       ----

> <Gold.Chemscore.Fitness>
6.9212

> <Gold.Chemscore.DG>
-10.1710

> <Gold.Chemscore.ZeroCoef>
-5.4800

> <Gold.Chemscore.Hbond>
0.8859

> <Gold.Chemscore.Metal>
0.0000

> <Gold.Chemscore.Lipo>
60.5617

> <Gold.Chemscore.Internal_Hbond>
0.0000

> <Gold.Chemscore.DEClash>
0.2841

> <Gold.Chemscore.DEInternal>
2.9657

> <Gold.Chemscore.Rot>
2.0913

> <Gold.Chemscore.Internal.Correction>
   9.000000E+99

> <Gold.Chemscore.Hbonds>
donor molecule, donor type, donor heavy atom, donor atom, acceptor molecule, acceptor atom, score
      P1  H  7989  7998       L1     1  0.84

> <Gold.Chemscore.Hbond.Weighted>
-2.9590

> <Gold.Chemscore.Metal.Weighted>
-0.0000

> <Gold.Chemscore.Lipo.Weighted>
-7.0857

> <Gold.Chemscore.Internal_Hbond.Weighted>
0.0000

> <Gold.Chemscore.DEClash.Weighted>
0.2841

> <Gold.Chemscore.DEInternal.Weighted>
2.9657

> <Gold.Chemscore.Rot.Weighted>
5.3537

> <Gold.Chemscore.Internal.Correction.Weighted>
   9.000000E+99

> <Gold.Protein.RotatedTorsions>
[ 6907 6896 6895 6894 ] final  -85.41 input  -60.11 | X-H torsion
[ 7974 7965 7964 7962 ] final   90.30 input  175.53 | X-H torsion
[ 8008 7997 7996 7995 ] final  101.40 input   59.86 | X-H torsion
[ 10167 10162 10161 10158 ] final   21.65 input  -65.29 | X-H torsion
[ 10718 10713 10712 10709 ] final   41.51 input   66.30 | X-H torsion
[ 10763 10752 10751 10750 ] final  112.94 input  -60.55 | X-H torsion
[ 11005 11000 10999 10996 ] final -158.95 input  -57.11 | X-H torsion

> <Gold.Protein.ActiveResidues>
 VAL166  LYS551  ARG553  GLY616  TRP617  ASP618  TYR619  PRO620  LYS621  CYS622 
 ASP623  PHE694  ASN695  SER759  ASP760  ASP761  ALA762  ILE779  LEU786  VAL792 
 PHE793  MET794  SER795  GLU796  ALA797  LYS798  CYS799  TRP800  GLU811  SER814 

> <Gold.Protein.RotatedAtoms>
  150.6870  134.3208  159.4785 H   0  0  0  0  0  0  0  0  0  0  0  0  # atno 6907 bound_to 6896
  152.1084  134.9289  160.0576 H   0  0  0  0  0  0  0  0  0  0  0  0  # atno 6908 bound_to 6896
  152.0541  133.3997  159.4427 H   0  0  0  0  0  0  0  0  0  0  0  0  # atno 6909 bound_to 6896
  145.5208  139.2279  143.2673 H   0  0  0  0  0  0  0  0  0  0  0  0  # atno 7974 bound_to 7965
  156.1295  140.3198  155.8328 H   0  0  0  0  0  0  0  0  0  0  0  0  # atno 8008 bound_to 7997
  155.4358  140.0522  157.3032 H   0  0  0  0  0  0  0  0  0  0  0  0  # atno 8009 bound_to 7997
  154.4888  140.2084  155.9607 H   0  0  0  0  0  0  0  0  0  0  0  0  # atno 8010 bound_to 7997
  140.5410  143.9677  150.6519 H   0  0  0  0  0  0  0  0  0  0  0  0  # atno 10167 bound_to 10162
  157.3944  130.7825  149.7296 H   0  0  0  0  0  0  0  0  0  0  0  0  # atno 10718 bound_to 10713
  153.4852  135.3671  155.2463 H   0  0  0  0  0  0  0  0  0  0  0  0  # atno 10763 bound_to 10752
  154.8754  135.3964  154.3653 H   0  0  0  0  0  0  0  0  0  0  0  0  # atno 10764 bound_to 10752
  153.4264  135.7081  153.6325 H   0  0  0  0  0  0  0  0  0  0  0  0  # atno 10765 bound_to 10752
  140.6480  134.4481  157.5234 H   0  0  0  0  0  0  0  0  0  0  0  0  # atno 11005 bound_to 11000
  146.2107  140.6020  142.9061 LP  0  0  0  0  0  0  0  0  0  0  0  0  # atno 17320 bound_to 7965
  144.7677  140.5567  143.6692 LP  0  0  0  0  0  0  0  0  0  0  0  0  # atno 17321 bound_to 7965
  140.3077  143.3218  152.0909 LP  0  0  0  0  0  0  0  0  0  0  0  0  # atno 17342 bound_to 10162
  139.4989  144.6656  151.6364 LP  0  0  0  0  0  0  0  0  0  0  0  0  # atno 17343 bound_to 10162
  155.9806  130.4027  150.3516 LP  0  0  0  0  0  0  0  0  0  0  0  0  # atno 17370 bound_to 10713
  157.1636  131.0351  151.2829 LP  0  0  0  0  0  0  0  0  0  0  0  0  # atno 17371 bound_to 10713
  139.9056  134.8457  156.1720 LP  0  0  0  0  0  0  0  0  0  0  0  0  # atno 17394 bound_to 11000
  141.0558  133.6866  156.1857 LP  0  0  0  0  0  0  0  0  0  0  0  0  # atno 17395 bound_to 11000

$$$$
