AV-unprocessed.smi:781|AV-procd|sdf|3708|dock6
  -GOLD-   22720 1133D 1   1.00000     0.00000
 Structure written by MMmdl.
 38 40  0  0  0  0  0  0  0  0  1 V2000
  146.5740  133.8614  162.3693 C   0  0  0  0  0  0  0  0  0  0  0  0
  147.1958  135.0040  161.6419 C   0  0  0  0  0  0  0  0  0  0  0  0
  147.9861  135.0781  160.5294 C   0  0  0  0  0  0  0  0  0  0  0  0
  148.2153  136.4729  160.3920 C   0  0  0  0  0  0  0  0  0  0  0  0
  149.0080  136.9790  159.3307 N   0  0  0  0  0  0  0  0  0  0  0  0
  148.6740  137.9263  158.4381 C   0  0  0  0  0  0  0  0  0  0  0  0
  147.6002  138.5278  158.4086 O   0  0  0  0  0  0  0  0  0  0  0  0
  149.6704  138.1487  157.5700 N   0  0  0  0  0  0  0  0  0  0  0  0
  149.6325  139.1298  156.4849 C   0  0  1  0  0  0  0  0  0  0  0  0
  149.4202  140.5850  156.9782 C   0  0  1  0  0  0  0  0  0  0  0  0
  150.4019  140.9404  158.1150 C   0  0  0  0  0  0  0  0  0  0  0  0
  151.7532  141.0079  157.3813 C   0  0  0  0  0  0  0  0  0  0  0  0
  151.3664  140.7189  155.9155 C   0  0  2  0  0  0  0  0  0  0  0  0
  150.0053  141.3996  155.8292 C   0  0  0  0  0  0  0  0  0  0  0  0
  150.9681  139.2387  155.6965 C   0  0  1  0  0  0  0  0  0  0  0  0
  152.0589  138.1879  156.0047 C   0  0  0  0  0  0  0  0  0  0  0  0
  151.7049  136.9377  155.4528 O   0  0  0  0  0  0  0  0  0  0  0  0
  147.6186  137.1861  161.3349 N   0  0  0  0  0  0  0  0  0  0  0  0
  146.9611  136.2483  162.1400 O   0  0  0  0  0  0  0  0  0  0  0  0
  147.1118  132.9345  162.1698 H   0  0  0  0  0  0  0  0  0  0  0  0
  145.5380  133.7253  162.0597 H   0  0  0  0  0  0  0  0  0  0  0  0
  146.5862  134.0325  163.4459 H   0  0  0  0  0  0  0  0  0  0  0  0
  148.3414  134.2638  159.9157 H   0  0  0  0  0  0  0  0  0  0  0  0
  149.9289  136.5762  159.2421 H   0  0  0  0  0  0  0  0  0  0  0  0
  150.5187  137.6110  157.6677 H   0  0  0  0  0  0  0  0  0  0  0  0
  148.8369  138.8568  155.7888 H   0  0  0  0  0  0  0  0  0  0  0  0
  148.3813  140.8154  157.2169 H   0  0  0  0  0  0  0  0  0  0  0  0
  150.1544  141.9143  158.5397 H   0  0  0  0  0  0  0  0  0  0  0  0
  150.4032  140.2238  158.9360 H   0  0  0  0  0  0  0  0  0  0  0  0
  152.1800  142.0075  157.4727 H   0  0  0  0  0  0  0  0  0  0  0  0
  152.4851  140.3082  157.7815 H   0  0  0  0  0  0  0  0  0  0  0  0
  152.0983  141.0824  155.1934 H   0  0  0  0  0  0  0  0  0  0  0  0
  149.4949  141.2355  154.8784 H   0  0  0  0  0  0  0  0  0  0  0  0
  150.0423  142.4718  156.0311 H   0  0  0  0  0  0  0  0  0  0  0  0
  150.7223  139.1255  154.6387 H   0  0  0  0  0  0  0  0  0  0  0  0
  153.0368  138.4830  155.6260 H   0  0  0  0  0  0  0  0  0  0  0  0
  152.1628  138.0638  157.0830 H   0  0  0  0  0  0  0  0  0  0  0  0
  151.1174  137.0843  154.7273 H   0  0  0  0  0  0  0  0  0  0  0  0
  1  2  1  0  0  0  0
  1 20  1  0  0  0  0
  1 21  1  0  0  0  0
  1 22  1  0  0  0  0
  2 19  1  0  0  0  0
  2  3  2  0  0  0  0
  3  4  1  0  0  0  0
  3 23  1  0  0  0  0
  4  5  1  0  0  0  0
  4 18  2  0  0  0  0
  5  6  1  0  0  0  0
  5 24  1  0  0  0  0
  6  7  2  0  0  0  0
  6  8  1  0  0  0  0
  8  9  1  0  0  0  0
  8 25  1  0  0  0  0
  9 15  1  0  0  0  0
  9 10  1  0  0  0  0
  9 26  1  0  0  0  0
 10 14  1  0  0  0  0
 10 11  1  0  0  0  0
 10 27  1  0  0  0  0
 11 12  1  0  0  0  0
 11 28  1  0  0  0  0
 11 29  1  0  0  0  0
 12 13  1  0  0  0  0
 12 30  1  0  0  0  0
 12 31  1  0  0  0  0
 13 14  1  0  0  0  0
 13 15  1  0  0  0  0
 13 32  1  0  0  0  0
 14 33  1  0  0  0  0
 14 34  1  0  0  0  0
 15 16  1  0  0  0  0
 15 35  1  0  0  0  0
 16 17  1  0  0  0  0
 16 36  1  0  0  0  0
 16 37  1  0  0  0  0
 17 38  1  0  0  0  0
 18 19  1  0  0  0  0
M  END
> <s_m_source_file>
AV-unprocessed.smi

> <i_m_source_file_index>
781

> <i_lp_mmshare_version>
43012

> <i_f3d_flags>
0

> <s_epik_input>
W0NIM11jMVtjSF1jKG5vMSlbTkhdQyg9TylbTkhdW0NASF0oW0NAQEhdMjMpW0NASF0oW0NIMl1bT0hdKVtDQEBIXShbQ0gyXTMpW0NIMl1bQ0gyXTI=

> <s_epik_cmdline>
J2VwaWtfcHl0aG9uJywgJy1waCcsICc3LjAnLCAnLXRuJywgJzgnLCAnLW1hJywgJzIwMCcsICctbWV0YWxfYmluZGluZycsICctaW1hZScsICc8aW5maWxlLm1hZT4nLCAnLW9tYWUnLCAnPG91dGZpbGUubWFlPic=

> <r_lp_tautomer_probability>
1

> <r_epik_Ionization_Penalty>
2.32222e-05

> <r_epik_Ionization_Penalty_Charging>
0

> <r_epik_Ionization_Penalty_Neutral>
2.32222e-05

> <r_epik_State_Penalty>
-0

> <r_epik_Charging_Adjusted_Penalty>
0

> <i_epik_Tot_Q>
0

> <i_epik_Tot_abs_Q>
0

> <r_epik_Metal_State_Penalty>
-0

> <b_epik_Metal_Only>
0

> <s_lp_Force_Field>
OPLS_2005

> <r_lp_Energy>
48.8521

> <b_lp_Chiralities_Consistent>
1

> <s_lp_Variant>
AV-unprocessed.smi:781-2

> <Gold.Version>
5.8.1

> <Gold.Id.Protein>
6NUR|6NUR_protein|mol2

> <Gold.PLP.Fitness>
36.3448

> <Gold.PLP.PLP>
-29.0904

> <Gold.PLP.part.hbond>
-4.0000

> <Gold.PLP.part.metal>
0.0000

> <Gold.PLP.part.buried>
-4.3756

> <Gold.PLP.part.nonpolar>
-20.9633

> <Gold.PLP.part.repulsive>
0.2588

> <Gold.PLP.ligand.clash>
0.0000

> <Gold.PLP.ligand.torsion>
0.5898

> <Gold.PLP.Chemscore.Hbond>
2.8080

> <Gold.PLP.Chemscore.CHOScore>
0.0000

> <Gold.PLP.Chemscore.Metal>
0.0000

> <Gold.Chemscore.Hbonds>
donor molecule, donor type, donor heavy atom, donor atom, acceptor molecule, acceptor atom, score
      P1  H  6931  6943       L1    18  0.96
      P1  H  6934  6947       L1    18  0.85
      P1  H 10752 10765       L1    17  1.00

> <Gold.PLP.Chemscore.Internal.Correction>
0.0101

> <Gold.Rescore>
     Score         DG    S(hbond)    S(metal)    S(lipo)     H(rot)  DE(clash)    DE(int)     intcor
     15.60     -16.31       2.45        0.00      63.41       1.86       0.12       0.59       ----

> <Gold.Chemscore.Fitness>
15.5984

> <Gold.Chemscore.DG>
-16.3118

> <Gold.Chemscore.ZeroCoef>
-5.4800

> <Gold.Chemscore.Hbond>
2.4465

> <Gold.Chemscore.Metal>
0.0000

> <Gold.Chemscore.Lipo>
63.4072

> <Gold.Chemscore.Internal_Hbond>
0.0000

> <Gold.Chemscore.DEClash>
0.1223

> <Gold.Chemscore.DEInternal>
0.5910

> <Gold.Chemscore.Rot>
1.8587

> <Gold.Chemscore.Internal.Correction>
   9.000000E+99

> <Gold.Chemscore.Hbonds>
donor molecule, donor type, donor heavy atom, donor atom, acceptor molecule, acceptor atom, score
      P1  H  6931  6943       L1    18  0.28
      P1  H  6934  6947       L1    18  0.81
      P1  H 10752 10765       L1    17  0.59

> <Gold.Chemscore.Hbond.Weighted>
-8.1714

> <Gold.Chemscore.Metal.Weighted>
-0.0000

> <Gold.Chemscore.Lipo.Weighted>
-7.4186

> <Gold.Chemscore.Internal_Hbond.Weighted>
0.0000

> <Gold.Chemscore.DEClash.Weighted>
0.1223

> <Gold.Chemscore.DEInternal.Weighted>
0.5910

> <Gold.Chemscore.Rot.Weighted>
4.7583

> <Gold.Chemscore.Internal.Correction.Weighted>
   9.000000E+99

> <Gold.Protein.RotatedTorsions>
[ 6907 6896 6895 6894 ] final  -15.40 input  -60.11 | X-H torsion
[ 7974 7965 7964 7962 ] final    5.90 input  175.53 | X-H torsion
[ 8008 7997 7996 7995 ] final  -45.36 input   59.86 | X-H torsion
[ 10167 10162 10161 10158 ] final -105.49 input  -65.29 | X-H torsion
[ 10718 10713 10712 10709 ] final  128.28 input   66.30 | X-H torsion
[ 10763 10752 10751 10750 ] final -160.41 input  -60.55 | X-H torsion
[ 11005 11000 10999 10996 ] final   71.32 input  -57.11 | X-H torsion

> <Gold.Protein.ActiveResidues>
 VAL166  LYS551  ARG553  GLY616  TRP617  ASP618  TYR619  PRO620  LYS621  CYS622 
 ASP623  PHE694  ASN695  SER759  ASP760  ASP761  ALA762  ILE779  LEU786  VAL792 
 PHE793  MET794  SER795  GLU796  ALA797  LYS798  CYS799  TRP800  GLU811  SER814 

> <Gold.Protein.RotatedAtoms>
  151.3246  135.0827  159.9317 H   0  0  0  0  0  0  0  0  0  0  0  0  # atno 6907 bound_to 6896
  152.5249  133.9604  159.7725 H   0  0  0  0  0  0  0  0  0  0  0  0  # atno 6908 bound_to 6896
  150.9931  133.6077  159.2735 H   0  0  0  0  0  0  0  0  0  0  0  0  # atno 6909 bound_to 6896
  146.2438  140.0314  142.8389 H   0  0  0  0  0  0  0  0  0  0  0  0  # atno 7974 bound_to 7965
  154.4000  140.1398  156.3835 H   0  0  0  0  0  0  0  0  0  0  0  0  # atno 8008 bound_to 7997
  155.7981  140.3477  155.5366 H   0  0  0  0  0  0  0  0  0  0  0  0  # atno 8009 bound_to 7997
  155.8511  140.0941  157.1664 H   0  0  0  0  0  0  0  0  0  0  0  0  # atno 8010 bound_to 7997
  140.1980  143.3841  152.1153 H   0  0  0  0  0  0  0  0  0  0  0  0  # atno 10167 bound_to 10162
  157.5258  131.1098  150.9085 H   0  0  0  0  0  0  0  0  0  0  0  0  # atno 10718 bound_to 10713
  154.7392  135.3064  154.8758 H   0  0  0  0  0  0  0  0  0  0  0  0  # atno 10763 bound_to 10752
  153.9577  135.6756  153.4749 H   0  0  0  0  0  0  0  0  0  0  0  0  # atno 10764 bound_to 10752
  153.0992  135.4920  154.8760 H   0  0  0  0  0  0  0  0  0  0  0  0  # atno 10765 bound_to 10752
  139.9550  134.7161  156.0775 H   0  0  0  0  0  0  0  0  0  0  0  0  # atno 11005 bound_to 11000
  145.1151  140.9429  143.4633 LP  0  0  0  0  0  0  0  0  0  0  0  0  # atno 17320 bound_to 7965
  145.0537  139.3161  143.5916 LP  0  0  0  0  0  0  0  0  0  0  0  0  # atno 17321 bound_to 7965
  139.5229  144.7064  151.5340 LP  0  0  0  0  0  0  0  0  0  0  0  0  # atno 17342 bound_to 10162
  140.6410  143.8889  150.6692 LP  0  0  0  0  0  0  0  0  0  0  0  0  # atno 17343 bound_to 10162
  156.9681  130.5480  149.5289 LP  0  0  0  0  0  0  0  0  0  0  0  0  # atno 17370 bound_to 10713
  156.0386  130.5471  150.8715 LP  0  0  0  0  0  0  0  0  0  0  0  0  # atno 17371 bound_to 10713
  141.1219  133.6610  156.3238 LP  0  0  0  0  0  0  0  0  0  0  0  0  # atno 17394 bound_to 11000
  140.5631  134.5914  157.5439 LP  0  0  0  0  0  0  0  0  0  0  0  0  # atno 17395 bound_to 11000

$$$$
