#       Name:                AV-unprocessed.smi:2567
#       Creating user name   scv26
#       Creation time:       Fri Mar 27 14:10:43 2020


#       File generated by GOLD software.
#

@<TRIPOS>MOLECULE
AV-unprocessed.smi:2567
    38    39     1
SMALL
NO_CHARGES


@<TRIPOS>ATOM
      1 ****        -3.4503   0.1655   1.0101 C.3            1 S1                 0.0000
      2 ****        -2.7860  -1.0064   0.2612 C.3            1 S1                 0.0000
      3 ****        -3.4022  -2.3211   0.7900 C.3            1 S1                 0.0000
      4 ****        -3.0931  -0.9021  -1.2449 C.3            1 S1                 0.0000
      5 ****        -1.2917  -0.9640   0.4765 C.2            1 S1                 0.0000
      6 ****        -0.5886  -1.9824   0.9846 N.pl3          1 S1                 0.0000
      7 ****         0.7189  -1.6530   1.0352 N.2            1 S1                 0.0000
      8 ****         0.7106  -0.4133   0.5502 C.2            1 S1                 0.0000
      9 ****         1.9855   0.3511   0.3758 C.3            1 S1                 0.0000
     10 ****         2.5944   0.1541  -1.0255 C.3            1 S1                 0.0000
     11 ****         3.7888   1.0073  -1.1780 N.4            1 S1                 1.0000
     12 ****         3.4809   2.4231  -0.8945 C.3            1 S1                 0.0000
     13 ****         2.8328   2.5575   0.4951 C.3            1 S1                 0.0000
     14 ****         1.6765   1.7299   0.5700 O.3            1 S1                 0.0000
     15 ****        -0.5099   0.0667   0.1622 N.2            1 S1                 0.0000
     16 ****        -4.5332   0.1577   0.8809 H              1 S1                 0.0000
     17 ****        -3.0878   1.1288   0.6495 H              1 S1                 0.0000
     18 ****        -3.2467   0.1182   2.0805 H              1 S1                 0.0000
     19 ****        -3.2239  -2.4457   1.8589 H              1 S1                 0.0000
     20 ****        -2.9898  -3.1922   0.2796 H              1 S1                 0.0000
     21 ****        -4.4822  -2.3410   0.6384 H              1 S1                 0.0000
     22 ****        -4.1663  -0.9360  -1.4359 H              1 S1                 0.0000
     23 ****        -2.6344  -1.7211  -1.8001 H              1 S1                 0.0000
     24 ****        -2.7170   0.0309  -1.6664 H              1 S1                 0.0000
     25 ****         2.6939   0.0309   1.1425 H              1 S1                 0.0000
     26 ****         2.8714  -0.8885  -1.1839 H              1 S1                 0.0000
     27 ****         1.8688   0.4163  -1.7971 H              1 S1                 0.0000
     28 ****         4.4952   0.6934  -0.5277 H              1 S1                 0.0000
     29 ****         4.3972   3.0110  -0.9501 H              1 S1                 0.0000
     30 ****         2.8065   2.8040  -1.6624 H              1 S1                 0.0000
     31 ****         3.5386   2.2860   1.2817 H              1 S1                 0.0000
     32 ****         2.5392   3.5918   0.6748 H              1 S1                 0.0000
     33 ****         4.1457   0.9217  -2.1191 H              1 S1                 0.0000
     34 ****        -0.9434  -2.8782   1.2888 H              1 S1                 0.0000
     35 ****         1.4937  -2.1989   1.3544 LP             1 S1                 0.0000
     36 ****         1.2584   1.8421   1.4714 LP             1 S1                 0.0000
     37 ****         1.0290   2.0170  -0.1359 LP             1 S1                 0.0000
     38 ****        -0.7489   0.9482  -0.2450 LP             1 S1                 0.0000
@<TRIPOS>BOND
    1    1    2 1     
    2    1   16 1     
    3    1   17 1     
    4    1   18 1     
    5    2    3 1     
    6    2    4 1     
    7    2    5 1     
    8    3   19 1     
    9    3   20 1     
   10    3   21 1     
   11    4   22 1     
   12    4   23 1     
   13    4   24 1     
   14    5   15 2     
   15    5    6 1     
   16    6    7 1     
   17    6   34 1     
   18    7    8 2     
   19    8    9 1     
   20    8   15 1     
   21    9   14 1     
   22    9   10 1     
   23    9   25 1     
   24   10   11 1     
   25   10   26 1     
   26   10   27 1     
   27   11   12 1     
   28   11   28 1     
   29   11   33 1     
   30   12   13 1     
   31   12   29 1     
   32   12   30 1     
   33   13   14 1     
   34   13   31 1     
   35   13   32 1     
   36    7   35 1     
   37   14   36 1     
   38   14   37 1     
   39   15   38 1     
@<TRIPOS>SUBSTRUCTURE
      1 S1             1
@<TRIPOS>SET
LONE_PAIRS      STATIC     ATOMS    <user>   **** ""
4 35 36 37 38
DONOR_HYDROGENS      STATIC     ATOMS    <user>   **** ""
3 34 28 33
ATOM$BLUE        STATIC     ATOMS    COLORGROUP SYSTEM
4 35 36 37 38
ATOM$RED        STATIC     ATOMS    COLORGROUP SYSTEM
3 34 28 33
