AV-unprocessed.smi:155|AV-procd|sdf|1277|dock2
  -GOLD-   2262018543D 1   1.00000     0.00000
 Structure written by MMmdl.
 63 66  0  0  0  0  0  0  0  0  2 V2000
  147.7532  128.4382  152.4565 C   0  0  0  0  0  0  0  0  0  0  0  0
  147.4751  129.8918  152.4815 N   0  3  0  0  0  0  0  0  0  0  0  0
  146.0267  130.1698  152.3437 C   0  0  0  0  0  0  0  0  0  0  0  0
  148.0946  130.5565  153.6551 C   0  0  0  0  0  0  0  0  0  0  0  0
  148.5222  132.0092  153.3534 C   0  0  0  0  0  0  0  0  0  0  0  0
  148.6426  132.8057  154.5772 N   0  0  0  0  0  0  0  0  0  0  0  0
  149.6133  132.1806  155.4827 C   0  0  0  0  0  0  0  0  0  0  0  0
  149.6795  132.8503  156.8666 C   0  0  0  0  0  0  0  0  0  0  0  0
  150.5384  134.1255  156.8862 C   0  0  0  0  0  0  0  0  0  0  0  0
  149.8698  135.2966  156.3182 N   0  0  0  0  0  0  0  0  0  0  0  0
  150.0431  136.4844  156.9561 C   0  0  0  0  0  0  0  0  0  0  0  0
  149.6613  136.6026  158.2562 N   0  0  0  0  0  0  0  0  0  0  0  0
  149.8350  137.7536  158.9121 C   0  0  0  0  0  0  0  0  0  0  0  0
  150.3591  138.8968  158.4671 N   0  0  0  0  0  0  0  0  0  0  0  0
  150.7359  138.7909  157.1610 C   0  0  0  0  0  0  0  0  0  0  0  0
  150.6160  137.6345  156.3382 C   0  0  0  0  0  0  0  0  0  0  0  0
  151.0968  137.9142  155.0630 N   0  0  0  0  0  0  0  0  0  0  0  0
  151.4878  139.1571  155.1319 C   0  0  0  0  0  0  0  0  0  0  0  0
  151.3095  139.7591  156.3558 N   0  0  0  0  0  0  0  0  0  0  0  0
  151.6564  141.1249  156.7070 C   0  0  0  0  0  0  0  0  0  0  0  0
  151.3155  141.4596  158.1725 C   0  0  2  0  0  0  0  0  0  0  0  0
  149.9396  141.7749  158.2719 O   0  0  0  0  0  0  0  0  0  0  0  0
  152.1388  142.6462  158.7053 C   0  0  1  0  0  0  0  0  0  0  0  0
  151.8617  143.9749  158.0027 C   0  0  0  0  0  0  0  0  0  0  0  0
  152.3588  144.9701  159.0266 C   0  0  0  0  0  0  0  0  0  0  0  0
  151.9780  144.3030  160.3474 C   0  0  0  0  0  0  0  0  0  0  0  0
  151.8045  142.9167  160.0627 O   0  0  0  0  0  0  0  0  0  0  0  0
  148.7645  135.1496  155.3711 C   0  0  0  0  0  0  0  0  0  0  0  0
  149.0768  134.1617  154.2348 C   0  0  0  0  0  0  0  0  0  0  0  0
  147.3187  127.9424  153.3254 H   0  0  0  0  0  0  0  0  0  0  0  0
  148.8272  128.2475  152.4548 H   0  0  0  0  0  0  0  0  0  0  0  0
  147.3381  127.9801  151.5582 H   0  0  0  0  0  0  0  0  0  0  0  0
  145.4763  129.8241  153.2197 H   0  0  0  0  0  0  0  0  0  0  0  0
  145.6212  129.6641  151.4667 H   0  0  0  0  0  0  0  0  0  0  0  0
  145.8348  131.2346  152.2153 H   0  0  0  0  0  0  0  0  0  0  0  0
  147.4069  130.5299  154.5021 H   0  0  0  0  0  0  0  0  0  0  0  0
  148.9615  129.9667  153.9497 H   0  0  0  0  0  0  0  0  0  0  0  0
  149.4569  132.0382  152.7907 H   0  0  0  0  0  0  0  0  0  0  0  0
  147.7609  132.4499  152.7100 H   0  0  0  0  0  0  0  0  0  0  0  0
  149.3346  131.1415  155.6474 H   0  0  0  0  0  0  0  0  0  0  0  0
  150.6039  132.1572  155.0253 H   0  0  0  0  0  0  0  0  0  0  0  0
  148.6828  133.0318  157.2713 H   0  0  0  0  0  0  0  0  0  0  0  0
  150.1454  132.1380  157.5482 H   0  0  0  0  0  0  0  0  0  0  0  0
  150.7969  134.3300  157.9260 H   0  0  0  0  0  0  0  0  0  0  0  0
  151.4795  133.9580  156.3614 H   0  0  0  0  0  0  0  0  0  0  0  0
  149.5083  137.7589  159.9415 H   0  0  0  0  0  0  0  0  0  0  0  0
  151.9216  139.6722  154.2870 H   0  0  0  0  0  0  0  0  0  0  0  0
  152.7239  141.2573  156.5269 H   0  0  0  0  0  0  0  0  0  0  0  0
  151.1409  141.8061  156.0289 H   0  0  0  0  0  0  0  0  0  0  0  0
  151.5043  140.5834  158.7942 H   0  0  0  0  0  0  0  0  0  0  0  0
  149.7877  142.1950  159.1048 H   0  0  0  0  0  0  0  0  0  0  0  0
  153.2065  142.4234  158.6567 H   0  0  0  0  0  0  0  0  0  0  0  0
  152.3686  144.0642  157.0414 H   0  0  0  0  0  0  0  0  0  0  0  0
  150.7910  144.1084  157.8399 H   0  0  0  0  0  0  0  0  0  0  0  0
  153.4431  145.0648  158.9550 H   0  0  0  0  0  0  0  0  0  0  0  0
  151.9219  145.9619  158.9080 H   0  0  0  0  0  0  0  0  0  0  0  0
  152.7419  144.4530  161.1109 H   0  0  0  0  0  0  0  0  0  0  0  0
  151.0365  144.7002  160.7277 H   0  0  0  0  0  0  0  0  0  0  0  0
  147.8466  134.8790  155.8946 H   0  0  0  0  0  0  0  0  0  0  0  0
  148.5761  136.1191  154.9077 H   0  0  0  0  0  0  0  0  0  0  0  0
  150.1250  134.1946  153.9318 H   0  0  0  0  0  0  0  0  0  0  0  0
  148.4998  134.5015  153.3741 H   0  0  0  0  0  0  0  0  0  0  0  0
  147.9255  130.2756  151.6627 H   0  0  0  0  0  0  0  0  0  0  0  0
  1  2  1  0  0  0  0
  1 30  1  0  0  0  0
  1 31  1  0  0  0  0
  1 32  1  0  0  0  0
  2  3  1  0  0  0  0
  2  4  1  0  0  0  0
  2 63  1  0  0  0  0
  3 33  1  0  0  0  0
  3 34  1  0  0  0  0
  3 35  1  0  0  0  0
  4  5  1  0  0  0  0
  4 36  1  0  0  0  0
  4 37  1  0  0  0  0
  5  6  1  0  0  0  0
  5 38  1  0  0  0  0
  5 39  1  0  0  0  0
  6 29  1  0  0  0  0
  6  7  1  0  0  0  0
  7  8  1  0  0  0  0
  7 40  1  0  0  0  0
  7 41  1  0  0  0  0
  8  9  1  0  0  0  0
  8 42  1  0  0  0  0
  8 43  1  0  0  0  0
  9 10  1  0  0  0  0
  9 44  1  0  0  0  0
  9 45  1  0  0  0  0
 10 11  1  0  0  0  0
 10 28  1  0  0  0  0
 11 16  1  0  0  0  0
 11 12  2  0  0  0  0
 12 13  1  0  0  0  0
 13 14  2  0  0  0  0
 13 46  1  0  0  0  0
 14 15  1  0  0  0  0
 15 19  1  0  0  0  0
 15 16  2  0  0  0  0
 16 17  1  0  0  0  0
 17 18  2  0  0  0  0
 18 19  1  0  0  0  0
 18 47  1  0  0  0  0
 19 20  1  0  0  0  0
 20 21  1  0  0  0  0
 20 48  1  0  0  0  0
 20 49  1  0  0  0  0
 21 22  1  0  0  0  0
 21 23  1  0  0  0  0
 21 50  1  0  0  0  0
 22 51  1  0  0  0  0
 23 27  1  0  0  0  0
 23 24  1  0  0  0  0
 23 52  1  0  0  0  0
 24 25  1  0  0  0  0
 24 53  1  0  0  0  0
 24 54  1  0  0  0  0
 25 26  1  0  0  0  0
 25 55  1  0  0  0  0
 25 56  1  0  0  0  0
 26 27  1  0  0  0  0
 26 57  1  0  0  0  0
 26 58  1  0  0  0  0
 28 29  1  0  0  0  0
 28 59  1  0  0  0  0
 28 60  1  0  0  0  0
 29 61  1  0  0  0  0
 29 62  1  0  0  0  0
M  CHG  1   2   1
M  END
> <s_m_source_file>
AV-unprocessed.smi

> <i_m_source_file_index>
155

> <i_lp_mmshare_version>
43012

> <i_f3d_flags>
0

> <s_epik_input>
W0NIM11OKFtDSDNdKVtDSDJdW0NIMl1OMVtDSDJdW0NIMl1bQ0gyXU4oW0NIMl1bQ0gyXTEpYyhuW2NIXW4yKWMoYzIzKW5bY0hdbjNbQ0gyXVtDQEhdKFtPSF0pW0NAQEhdNFtDSDJdW0NIMl1bQ0gyXU80

> <s_epik_cmdline>
J2VwaWtfcHl0aG9uJywgJy1waCcsICc3LjAnLCAnLXRuJywgJzgnLCAnLW1hJywgJzIwMCcsICctbWV0YWxfYmluZGluZycsICctaW1hZScsICc8aW5maWxlLm1hZT4nLCAnLW9tYWUnLCAnPG91dGZpbGUubWFlPic=

> <r_lp_tautomer_probability>
1

> <r_epik_Ionization_Penalty>
0.0599493

> <r_epik_Ionization_Penalty_Charging>
0.00816363

> <r_epik_Ionization_Penalty_Neutral>
0.0517857

> <r_epik_State_Penalty>
0.460607

> <r_epik_Charging_Adjusted_Penalty>
0.468771

> <i_epik_Tot_Q>
1

> <i_epik_Tot_abs_Q>
1

> <r_epik_Metal_State_Penalty>
0.45965

> <b_epik_Metal_Only>
0

> <s_lp_Force_Field>
OPLS_2005

> <r_lp_Energy>
54.9456

> <b_lp_Chiralities_Consistent>
1

> <s_lp_Variant>
AV-unprocessed.smi:155-11

> <Gold.Version>
5.8.1

> <Gold.Id.Protein>
6NUR|6NUR_protein|mol2

> <Gold.PLP.Fitness>
51.7336

> <Gold.PLP.PLP>
-50.0143

> <Gold.PLP.part.hbond>
-2.1942

> <Gold.PLP.part.metal>
0.0000

> <Gold.PLP.part.buried>
-7.4882

> <Gold.PLP.part.nonpolar>
-40.9299

> <Gold.PLP.part.repulsive>
0.2011

> <Gold.PLP.ligand.clash>
0.0000

> <Gold.PLP.ligand.torsion>
1.9467

> <Gold.PLP.Chemscore.Hbond>
1.7441

> <Gold.PLP.Chemscore.CHOScore>
0.0000

> <Gold.PLP.Chemscore.Metal>
0.0000

> <Gold.Chemscore.Hbonds>
donor molecule, donor type, donor heavy atom, donor atom, acceptor molecule, acceptor atom, score
      L1  H     2    63       P1 10747  1.00

> <Gold.PLP.Chemscore.Internal.Correction>
0.3803

> <Gold.Rescore>
     Score         DG    S(hbond)    S(metal)    S(lipo)     H(rot)  DE(clash)    DE(int)     intcor
     13.94     -17.57       1.61        0.00     116.58       2.71       0.14       3.49       ----

> <Gold.Chemscore.Fitness>
13.9399

> <Gold.Chemscore.DG>
-17.5667

> <Gold.Chemscore.ZeroCoef>
-5.4800

> <Gold.Chemscore.Hbond>
1.6104

> <Gold.Chemscore.Metal>
0.0000

> <Gold.Chemscore.Lipo>
116.5848

> <Gold.Chemscore.Internal_Hbond>
0.0000

> <Gold.Chemscore.DEClash>
0.1401

> <Gold.Chemscore.DEInternal>
3.4868

> <Gold.Chemscore.Rot>
2.7080

> <Gold.Chemscore.Internal.Correction>
   9.000000E+99

> <Gold.Chemscore.Hbonds>
donor molecule, donor type, donor heavy atom, donor atom, acceptor molecule, acceptor atom, score
      L1  H     2    63       P1 10747  1.00

> <Gold.Chemscore.Hbond.Weighted>
-5.3789

> <Gold.Chemscore.Metal.Weighted>
-0.0000

> <Gold.Chemscore.Lipo.Weighted>
-13.6404

> <Gold.Chemscore.Internal_Hbond.Weighted>
0.0000

> <Gold.Chemscore.DEClash.Weighted>
0.1401

> <Gold.Chemscore.DEInternal.Weighted>
3.4868

> <Gold.Chemscore.Rot.Weighted>
6.9326

> <Gold.Chemscore.Internal.Correction.Weighted>
   9.000000E+99

> <Gold.Protein.RotatedTorsions>
[ 6907 6896 6895 6894 ] final   75.39 input  -60.11 | X-H torsion
[ 7974 7965 7964 7962 ] final   88.62 input  175.53 | X-H torsion
[ 8008 7997 7996 7995 ] final  150.09 input   59.86 | X-H torsion
[ 10167 10162 10161 10158 ] final  151.22 input  -65.29 | X-H torsion
[ 10718 10713 10712 10709 ] final -140.41 input   66.30 | X-H torsion
[ 10763 10752 10751 10750 ] final -150.65 input  -60.55 | X-H torsion
[ 11005 11000 10999 10996 ] final  -76.40 input  -57.11 | X-H torsion

> <Gold.Protein.ActiveResidues>
 VAL166  LYS551  ARG553  GLY616  TRP617  ASP618  TYR619  PRO620  LYS621  CYS622 
 ASP623  PHE694  ASN695  SER759  ASP760  ASP761  ALA762  ILE779  LEU786  VAL792 
 PHE793  MET794  SER795  GLU796  ALA797  LYS798  CYS799  TRP800  GLU811  SER814 

> <Gold.Protein.RotatedAtoms>
  152.5023  134.4127  159.9453 H   0  0  0  0  0  0  0  0  0  0  0  0  # atno 6907 bound_to 6896
  151.4096  133.3725  159.2750 H   0  0  0  0  0  0  0  0  0  0  0  0  # atno 6908 bound_to 6896
  150.9301  134.8738  159.7605 H   0  0  0  0  0  0  0  0  0  0  0  0  # atno 6909 bound_to 6896
  145.5433  139.2290  143.2553 H   0  0  0  0  0  0  0  0  0  0  0  0  # atno 7974 bound_to 7965
  156.2730  140.2084  156.5961 H   0  0  0  0  0  0  0  0  0  0  0  0  # atno 8008 bound_to 7997
  154.6943  140.0527  157.0419 H   0  0  0  0  0  0  0  0  0  0  0  0  # atno 8009 bound_to 7997
  155.0822  140.3188  155.4601 H   0  0  0  0  0  0  0  0  0  0  0  0  # atno 8010 bound_to 7997
  139.4842  144.5458  151.7486 H   0  0  0  0  0  0  0  0  0  0  0  0  # atno 10167 bound_to 10162
  156.3220  130.7539  151.1639 H   0  0  0  0  0  0  0  0  0  0  0  0  # atno 10718 bound_to 10713
  154.8106  135.3279  154.7315 H   0  0  0  0  0  0  0  0  0  0  0  0  # atno 10763 bound_to 10752
  153.7965  135.6907  153.4867 H   0  0  0  0  0  0  0  0  0  0  0  0  # atno 10764 bound_to 10752
  153.1882  135.4561  155.0062 H   0  0  0  0  0  0  0  0  0  0  0  0  # atno 10765 bound_to 10752
  141.1653  133.6982  156.7664 H   0  0  0  0  0  0  0  0  0  0  0  0  # atno 11005 bound_to 11000
  146.1966  140.6254  142.9121 LP  0  0  0  0  0  0  0  0  0  0  0  0  # atno 17320 bound_to 7965
  144.7566  140.5322  143.6765 LP  0  0  0  0  0  0  0  0  0  0  0  0  # atno 17321 bound_to 7965
  140.5004  144.1177  150.5970 LP  0  0  0  0  0  0  0  0  0  0  0  0  # atno 17342 bound_to 10162
  140.4068  143.2676  151.9881 LP  0  0  0  0  0  0  0  0  0  0  0  0  # atno 17343 bound_to 10162
  157.7413  131.0505  150.5102 LP  0  0  0  0  0  0  0  0  0  0  0  0  # atno 17370 bound_to 10713
  156.5256  130.4172  149.6228 LP  0  0  0  0  0  0  0  0  0  0  0  0  # atno 17371 bound_to 10713
  140.2496  134.8550  157.3654 LP  0  0  0  0  0  0  0  0  0  0  0  0  # atno 17394 bound_to 11000
  140.1715  134.4602  155.7828 LP  0  0  0  0  0  0  0  0  0  0  0  0  # atno 17395 bound_to 11000

$$$$
