AV-unprocessed.smi:3228|AV-procd|sdf|12320|dock1
  -GOLD-   2272018163D 1   1.00000     0.00000
 Structure written by MMmdl.
 31 32  0  0  0  0  0  0  0  0  1 V2000
  145.8840  138.8682  154.1273 O   0  0  0  0  0  0  0  0  0  0  0  0
  146.6814  138.1490  153.5245 C   0  0  0  0  0  0  0  0  0  0  0  0
  146.3147  137.0695  152.8190 N   0  0  0  0  0  0  0  0  0  0  0  0
  144.9429  136.5956  152.6681 C   0  0  0  0  0  0  0  0  0  0  0  0
  144.8857  135.1192  152.2211 C   0  0  1  0  0  0  0  0  0  0  0  0
  143.4997  134.4661  152.3087 C   0  0  0  0  0  0  0  0  0  0  0  0
  143.5302  133.2872  151.3237 C   0  0  0  0  0  0  0  0  0  0  0  0
  144.8198  133.4351  150.5005 C   0  0  0  0  0  0  0  0  0  0  0  0
  145.3383  134.8497  150.7784 C   0  0  1  0  0  0  0  0  0  0  0  0
  144.7342  135.7487  149.8667 O   0  0  0  0  0  0  0  0  0  0  0  0
  148.0128  138.3323  153.4786 N   0  0  0  0  0  0  0  0  0  0  0  0
  148.7801  139.3520  154.1008 C   0  0  0  0  0  0  0  0  0  0  0  0
  149.9170  139.1376  154.7738 N   0  0  0  0  0  0  0  0  0  0  0  0
  150.4597  140.3222  155.2778 C   0  0  0  0  0  0  0  0  0  0  0  0
  149.7182  141.4374  154.9761 C   0  0  0  0  0  0  0  0  0  0  0  0
  148.3001  141.0418  154.0421 S   0  0  0  0  0  0  0  0  0  0  0  0
  147.0342  136.5352  152.3543 H   0  0  0  0  0  0  0  0  0  0  0  0
  144.4439  136.7232  153.6289 H   0  0  0  0  0  0  0  0  0  0  0  0
  144.4080  137.2267  151.9567 H   0  0  0  0  0  0  0  0  0  0  0  0
  145.5533  134.5452  152.8665 H   0  0  0  0  0  0  0  0  0  0  0  0
  143.2597  134.1487  153.3241 H   0  0  0  0  0  0  0  0  0  0  0  0
  142.7323  135.1766  151.9988 H   0  0  0  0  0  0  0  0  0  0  0  0
  143.5195  132.3318  151.8492 H   0  0  0  0  0  0  0  0  0  0  0  0
  142.6517  133.3131  150.6781 H   0  0  0  0  0  0  0  0  0  0  0  0
  145.5529  132.7111  150.8591 H   0  0  0  0  0  0  0  0  0  0  0  0
  144.6672  133.2366  149.4388 H   0  0  0  0  0  0  0  0  0  0  0  0
  146.4217  134.9140  150.6712 H   0  0  0  0  0  0  0  0  0  0  0  0
  145.0902  135.5874  149.0064 H   0  0  0  0  0  0  0  0  0  0  0  0
  148.5397  137.6635  152.9366 H   0  0  0  0  0  0  0  0  0  0  0  0
  151.3797  140.2798  155.8422 H   0  0  0  0  0  0  0  0  0  0  0  0
  149.9199  142.4632  155.2462 H   0  0  0  0  0  0  0  0  0  0  0  0
  1  2  2  0  0  0  0
  2  3  1  0  0  0  0
  2 11  1  0  0  0  0
  3  4  1  0  0  0  0
  3 17  1  0  0  0  0
  4  5  1  0  0  0  0
  4 18  1  0  0  0  0
  4 19  1  0  0  0  0
  5  9  1  0  0  0  0
  5  6  1  0  0  0  0
  5 20  1  0  0  0  0
  6  7  1  0  0  0  0
  6 21  1  0  0  0  0
  6 22  1  0  0  0  0
  7  8  1  0  0  0  0
  7 23  1  0  0  0  0
  7 24  1  0  0  0  0
  8  9  1  0  0  0  0
  8 25  1  0  0  0  0
  8 26  1  0  0  0  0
  9 10  1  0  0  0  0
  9 27  1  0  0  0  0
 10 28  1  0  0  0  0
 11 12  1  0  0  0  0
 11 29  1  0  0  0  0
 12 16  1  0  0  0  0
 12 13  2  0  0  0  0
 13 14  1  0  0  0  0
 14 15  2  0  0  0  0
 14 30  1  0  0  0  0
 15 16  1  0  0  0  0
 15 31  1  0  0  0  0
M  END
> <s_m_source_file>
AV-unprocessed.smi

> <i_m_source_file_index>
3228

> <i_lp_mmshare_version>
43012

> <i_f3d_flags>
0

> <s_epik_input>
czFbY0hdW2NIXW5jMVtOSF1DKD1PKVtOSF1bQ0gyXVtDQEBIXTJbQ0gyXVtDSDJdW0NIMl1bQ0BIXTJbT0hd

> <s_epik_cmdline>
J2VwaWtfcHl0aG9uJywgJy1waCcsICc3LjAnLCAnLXRuJywgJzgnLCAnLW1hJywgJzIwMCcsICctbWV0YWxfYmluZGluZycsICctaW1hZScsICc8aW5maWxlLm1hZT4nLCAnLW9tYWUnLCAnPG91dGZpbGUubWFlPic=

> <r_lp_tautomer_probability>
0.999

> <r_epik_Ionization_Penalty>
0.000399498

> <r_epik_Ionization_Penalty_Charging>
0

> <r_epik_Ionization_Penalty_Neutral>
0.000399498

> <r_epik_State_Penalty>
0.000177984

> <r_epik_Charging_Adjusted_Penalty>
0.000177984

> <i_epik_Tot_Q>
0

> <i_epik_Tot_abs_Q>
0

> <r_epik_Metal_State_Penalty>
0.0060793

> <b_epik_Metal_Only>
0

> <s_lp_Force_Field>
OPLS_2005

> <r_lp_Energy>
23.3764

> <b_lp_Chiralities_Consistent>
1

> <s_lp_Variant>
AV-unprocessed.smi:3228-2

> <Gold.Version>
5.8.1

> <Gold.Id.Protein>
6NUR|6NUR_protein|mol2

> <Gold.PLP.Fitness>
39.2465

> <Gold.PLP.PLP>
-28.4060

> <Gold.PLP.part.hbond>
-4.0939

> <Gold.PLP.part.metal>
0.0000

> <Gold.PLP.part.buried>
-2.8704

> <Gold.PLP.part.nonpolar>
-21.2320

> <Gold.PLP.part.repulsive>
0.2818

> <Gold.PLP.ligand.clash>
0.0000

> <Gold.PLP.ligand.torsion>
0.5809

> <Gold.PLP.Chemscore.Hbond>
3.0000

> <Gold.PLP.Chemscore.CHOScore>
1.0000

> <Gold.PLP.Chemscore.Metal>
0.0000

> <Gold.Chemscore.Hbonds>
donor molecule, donor type, donor heavy atom, donor atom, acceptor molecule, acceptor atom, score
      L1  H     3    17       P1  7948  1.00
      L1  H    10    28       P1  7921  1.00
      L1  H    11    29       P1  7948  1.00
      L1  C    15    31       P1  8028  1.00

> <Gold.PLP.Chemscore.Internal.Correction>
0.0024

> <Gold.Rescore>
     Score         DG    S(hbond)    S(metal)    S(lipo)     H(rot)  DE(clash)    DE(int)     intcor
     16.51     -17.06       2.97        0.00      55.27       1.88       0.03       0.52       ----

> <Gold.Chemscore.Fitness>
16.5120

> <Gold.Chemscore.DG>
-17.0579

> <Gold.Chemscore.ZeroCoef>
-5.4800

> <Gold.Chemscore.Hbond>
2.9703

> <Gold.Chemscore.Metal>
0.0000

> <Gold.Chemscore.Lipo>
55.2656

> <Gold.Chemscore.Internal_Hbond>
0.0000

> <Gold.Chemscore.DEClash>
0.0292

> <Gold.Chemscore.DEInternal>
0.5167

> <Gold.Chemscore.Rot>
1.8786

> <Gold.Chemscore.Internal.Correction>
   9.000000E+99

> <Gold.Chemscore.Hbonds>
donor molecule, donor type, donor heavy atom, donor atom, acceptor molecule, acceptor atom, score
      L1  H     3    17       P1  7948  0.93
      L1  H    10    28       P1  7921  1.00
      L1  H    11    29       P1  7948  1.00

> <Gold.Chemscore.Hbond.Weighted>
-9.9209

> <Gold.Chemscore.Metal.Weighted>
-0.0000

> <Gold.Chemscore.Lipo.Weighted>
-6.4661

> <Gold.Chemscore.Internal_Hbond.Weighted>
0.0000

> <Gold.Chemscore.DEClash.Weighted>
0.0292

> <Gold.Chemscore.DEInternal.Weighted>
0.5167

> <Gold.Chemscore.Rot.Weighted>
4.8091

> <Gold.Chemscore.Internal.Correction.Weighted>
   9.000000E+99

> <Gold.Protein.RotatedTorsions>
[ 6907 6896 6895 6894 ] final -156.63 input  -60.11 | X-H torsion
[ 7974 7965 7964 7962 ] final  164.67 input  175.53 | X-H torsion
[ 8008 7997 7996 7995 ] final   43.91 input   59.86 | X-H torsion
[ 10167 10162 10161 10158 ] final -178.18 input  -65.29 | X-H torsion
[ 10718 10713 10712 10709 ] final   61.02 input   66.30 | X-H torsion
[ 10763 10752 10751 10750 ] final -137.61 input  -60.55 | X-H torsion
[ 11005 11000 10999 10996 ] final  156.82 input  -57.11 | X-H torsion

> <Gold.Protein.ActiveResidues>
 VAL166  LYS551  ARG553  GLY616  TRP617  ASP618  TYR619  PRO620  LYS621  CYS622 
 ASP623  PHE694  ASN695  SER759  ASP760  ASP761  ALA762  ILE779  LEU786  VAL792 
 PHE793  MET794  SER795  GLU796  ALA797  LYS798  CYS799  TRP800  GLU811  SER814 

> <Gold.Protein.RotatedAtoms>
  151.2906  133.4167  159.2632 H   0  0  0  0  0  0  0  0  0  0  0  0  # atno 6907 bound_to 6896
  151.0281  134.9519  159.8106 H   0  0  0  0  0  0  0  0  0  0  0  0  # atno 6908 bound_to 6896
  152.5339  134.2868  159.9080 H   0  0  0  0  0  0  0  0  0  0  0  0  # atno 6909 bound_to 6896
  144.7535  139.8359  143.6358 H   0  0  0  0  0  0  0  0  0  0  0  0  # atno 7974 bound_to 7965
  155.3106  140.3391  155.4244 H   0  0  0  0  0  0  0  0  0  0  0  0  # atno 8008 bound_to 7997
  156.1957  140.1714  156.8040 H   0  0  0  0  0  0  0  0  0  0  0  0  # atno 8009 bound_to 7997
  154.5496  140.0708  156.8630 H   0  0  0  0  0  0  0  0  0  0  0  0  # atno 8010 bound_to 7997
  139.5444  144.2274  152.0960 H   0  0  0  0  0  0  0  0  0  0  0  0  # atno 10167 bound_to 10162
  157.5796  130.8971  149.9408 H   0  0  0  0  0  0  0  0  0  0  0  0  # atno 10718 bound_to 10713
  154.8657  135.3637  154.5251 H   0  0  0  0  0  0  0  0  0  0  0  0  # atno 10763 bound_to 10752
  153.5880  135.7016  153.5440 H   0  0  0  0  0  0  0  0  0  0  0  0  # atno 10764 bound_to 10752
  153.3399  135.4101  155.1525 H   0  0  0  0  0  0  0  0  0  0  0  0  # atno 10765 bound_to 10752
  140.1711  134.8542  157.2691 H   0  0  0  0  0  0  0  0  0  0  0  0  # atno 11005 bound_to 11000
  146.1516  139.4601  143.0045 LP  0  0  0  0  0  0  0  0  0  0  0  0  # atno 17320 bound_to 7965
  145.6860  141.0178  143.1581 LP  0  0  0  0  0  0  0  0  0  0  0  0  # atno 17321 bound_to 7965
  140.1758  144.4892  150.6555 LP  0  0  0  0  0  0  0  0  0  0  0  0  # atno 17342 bound_to 10162
  140.6687  143.2277  151.5678 LP  0  0  0  0  0  0  0  0  0  0  0  0  # atno 17343 bound_to 10162
  156.0842  130.3670  150.0520 LP  0  0  0  0  0  0  0  0  0  0  0  0  # atno 17370 bound_to 10713
  156.8662  130.9508  151.3613 LP  0  0  0  0  0  0  0  0  0  0  0  0  # atno 17371 bound_to 10713
  140.2376  134.3834  155.7494 LP  0  0  0  0  0  0  0  0  0  0  0  0  # atno 17394 bound_to 11000
  141.2217  133.7248  156.8739 LP  0  0  0  0  0  0  0  0  0  0  0  0  # atno 17395 bound_to 11000

$$$$
