AV-unprocessed.smi:2799|AV-procd|sdf|10791|dock2
  -GOLD-   2272015223D 1   1.00000     0.00000
 Structure written by MMmdl.
 52 53  0  0  0  0  0  0  0  0  2 V2000
  143.2746  143.0469  156.4872 C   0  0  0  0  0  0  0  0  0  0  0  0
  142.8649  141.9561  155.4863 C   0  0  0  0  0  0  0  0  0  0  0  0
  141.3714  141.6224  155.6396 C   0  0  0  0  0  0  0  0  0  0  0  0
  143.7587  140.7070  155.6552 C   0  0  0  0  0  0  0  0  0  0  0  0
  145.0166  140.7368  154.8572 N   0  3  2  0  0  0  0  0  0  0  0  0
  145.6639  139.3978  154.7924 C   0  0  0  0  0  0  0  0  0  0  0  0
  146.8163  139.3780  153.7759 C   0  0  0  0  0  0  0  0  0  0  0  0
  147.8410  140.4746  154.0820 C   0  0  0  0  0  0  0  0  0  0  0  0
  147.1355  141.8350  154.1542 C   0  0  0  0  0  0  0  0  0  0  0  0
  145.9794  141.8379  155.1832 C   0  0  2  0  0  0  0  0  0  0  0  0
  146.4472  141.8233  156.6640 C   0  0  0  0  0  0  0  0  0  0  0  0
  147.6582  142.6133  156.8717 N   0  0  0  0  0  0  0  0  0  0  0  0
  148.4445  142.5651  157.9570 C   0  0  0  0  0  0  0  0  0  0  0  0
  148.2263  141.8276  158.9177 O   0  0  0  0  0  0  0  0  0  0  0  0
  149.4922  143.3993  157.8274 N   0  0  0  0  0  0  0  0  0  0  0  0
  150.5363  143.6612  158.7315 C   0  0  0  0  0  0  0  0  0  0  0  0
  150.7881  144.8736  159.2864 C   0  0  0  0  0  0  0  0  0  0  0  0
  151.8910  145.0570  160.1989 C   0  0  0  0  0  0  0  0  0  0  0  0
  152.6687  144.0019  160.4789 C   0  0  0  0  0  0  0  0  0  0  0  0
  152.4328  142.7399  159.9078 N   0  0  0  0  0  0  0  0  0  0  0  0
  153.3387  141.6489  160.2758 C   0  0  0  0  0  0  0  0  0  0  0  0
  151.4038  142.5074  159.0395 C   0  0  0  0  0  0  0  0  0  0  0  0
  151.2212  141.3897  158.5501 O   0  0  0  0  0  0  0  0  0  0  0  0
  143.1437  142.7119  157.5169 H   0  0  0  0  0  0  0  0  0  0  0  0
  142.6769  143.9489  156.3531 H   0  0  0  0  0  0  0  0  0  0  0  0
  144.3209  143.3261  156.3588 H   0  0  0  0  0  0  0  0  0  0  0  0
  143.0205  142.3801  154.4948 H   0  0  0  0  0  0  0  0  0  0  0  0
  141.1590  141.1936  156.6196 H   0  0  0  0  0  0  0  0  0  0  0  0
  141.0404  140.9089  154.8848 H   0  0  0  0  0  0  0  0  0  0  0  0
  140.7573  142.5166  155.5297 H   0  0  0  0  0  0  0  0  0  0  0  0
  143.9918  140.5423  156.7072 H   0  0  0  0  0  0  0  0  0  0  0  0
  143.1777  139.8364  155.3471 H   0  0  0  0  0  0  0  0  0  0  0  0
  146.0217  139.1038  155.7794 H   0  0  0  0  0  0  0  0  0  0  0  0
  144.9275  138.6495  154.4972 H   0  0  0  0  0  0  0  0  0  0  0  0
  147.3020  138.4017  153.7812 H   0  0  0  0  0  0  0  0  0  0  0  0
  146.4185  139.5197  152.7700 H   0  0  0  0  0  0  0  0  0  0  0  0
  148.3467  140.2597  155.0235 H   0  0  0  0  0  0  0  0  0  0  0  0
  148.6132  140.4924  153.3123 H   0  0  0  0  0  0  0  0  0  0  0  0
  147.8586  142.6223  154.3665 H   0  0  0  0  0  0  0  0  0  0  0  0
  146.7313  142.0717  153.1689 H   0  0  0  0  0  0  0  0  0  0  0  0
  145.4618  142.7832  155.0250 H   0  0  0  0  0  0  0  0  0  0  0  0
  145.6868  142.2676  157.3049 H   0  0  0  0  0  0  0  0  0  0  0  0
  146.5841  140.8036  157.0248 H   0  0  0  0  0  0  0  0  0  0  0  0
  147.9189  143.2468  156.1298 H   0  0  0  0  0  0  0  0  0  0  0  0
  149.5748  143.8826  156.9446 H   0  0  0  0  0  0  0  0  0  0  0  0
  150.1906  145.7405  159.0548 H   0  0  0  0  0  0  0  0  0  0  0  0
  152.0844  146.0211  160.6456 H   0  0  0  0  0  0  0  0  0  0  0  0
  153.5123  144.0583  161.1513 H   0  0  0  0  0  0  0  0  0  0  0  0
  152.7874  140.8409  160.7591 H   0  0  0  0  0  0  0  0  0  0  0  0
  154.1223  141.9653  160.9654 H   0  0  0  0  0  0  0  0  0  0  0  0
  153.8307  141.2434  159.3903 H   0  0  0  0  0  0  0  0  0  0  0  0
  144.7178  140.9243  153.9107 H   0  0  0  0  0  0  0  0  0  0  0  0
  1  2  1  0  0  0  0
  1 24  1  0  0  0  0
  1 25  1  0  0  0  0
  1 26  1  0  0  0  0
  2  3  1  0  0  0  0
  2  4  1  0  0  0  0
  2 27  1  0  0  0  0
  3 28  1  0  0  0  0
  3 29  1  0  0  0  0
  3 30  1  0  0  0  0
  4  5  1  0  0  0  0
  4 31  1  0  0  0  0
  4 32  1  0  0  0  0
  5 10  1  0  0  0  0
  5  6  1  0  0  0  0
  5 52  1  0  0  0  0
  6  7  1  0  0  0  0
  6 33  1  0  0  0  0
  6 34  1  0  0  0  0
  7  8  1  0  0  0  0
  7 35  1  0  0  0  0
  7 36  1  0  0  0  0
  8  9  1  0  0  0  0
  8 37  1  0  0  0  0
  8 38  1  0  0  0  0
  9 10  1  0  0  0  0
  9 39  1  0  0  0  0
  9 40  1  0  0  0  0
 10 11  1  0  0  0  0
 10 41  1  0  0  0  0
 11 12  1  0  0  0  0
 11 42  1  0  0  0  0
 11 43  1  0  0  0  0
 12 13  1  0  0  0  0
 12 44  1  0  0  0  0
 13 14  2  0  0  0  0
 13 15  1  0  0  0  0
 15 16  1  0  0  0  0
 15 45  1  0  0  0  0
 16 22  1  0  0  0  0
 16 17  2  0  0  0  0
 17 18  1  0  0  0  0
 17 46  1  0  0  0  0
 18 19  2  0  0  0  0
 18 47  1  0  0  0  0
 19 20  1  0  0  0  0
 19 48  1  0  0  0  0
 20 21  1  0  0  0  0
 20 22  1  0  0  0  0
 21 49  1  0  0  0  0
 21 50  1  0  0  0  0
 21 51  1  0  0  0  0
 22 23  2  0  0  0  0
M  CHG  1   5   1
M  END
> <s_m_source_file>
AV-unprocessed.smi

> <i_m_source_file_index>
2799

> <i_lp_mmshare_version>
43012

> <i_f3d_flags>
0

> <s_epik_input>
W0NIM11bQ0hdKFtDSDNdKVtDSDJdTjFbQ0gyXVtDSDJdW0NIMl1bQ0gyXVtDQEhdMVtDSDJdW05IXUMoPU8pW05IXWMyW2NIXVtjSF1bY0hdbihbQ0gzXSljMj1P

> <s_epik_cmdline>
J2VwaWtfcHl0aG9uJywgJy1waCcsICc3LjAnLCAnLXRuJywgJzgnLCAnLW1hJywgJzIwMCcsICctbWV0YWxfYmluZGluZycsICctaW1hZScsICc8aW5maWxlLm1hZT4nLCAnLW9tYWUnLCAnPG91dGZpbGUubWFlPic=

> <r_lp_tautomer_probability>
1

> <r_epik_Ionization_Penalty>
0.0010885

> <r_epik_Ionization_Penalty_Charging>
0.00106921

> <r_epik_Ionization_Penalty_Neutral>
1.92865e-05

> <r_epik_State_Penalty>
0.000697184

> <r_epik_Charging_Adjusted_Penalty>
0.0017664

> <i_epik_Tot_Q>
1

> <i_epik_Tot_abs_Q>
1

> <r_epik_Metal_State_Penalty>
-0

> <b_epik_Metal_Only>
0

> <s_lp_Force_Field>
OPLS_2005

> <r_lp_Energy>
36.9818

> <b_lp_Chiralities_Consistent>
1

> <s_lp_Variant>
AV-unprocessed.smi:2799-3

> <Gold.Version>
5.8.1

> <Gold.Id.Protein>
6NUR|6NUR_protein|mol2

> <Gold.PLP.Fitness>
45.5310

> <Gold.PLP.PLP>
-36.0342

> <Gold.PLP.part.hbond>
-5.9545

> <Gold.PLP.part.metal>
0.0000

> <Gold.PLP.part.buried>
-1.3024

> <Gold.PLP.part.nonpolar>
-28.6210

> <Gold.PLP.part.repulsive>
0.0960

> <Gold.PLP.ligand.clash>
0.0000

> <Gold.PLP.ligand.torsion>
1.2914

> <Gold.PLP.Chemscore.Hbond>
3.9534

> <Gold.PLP.Chemscore.CHOScore>
0.0000

> <Gold.PLP.Chemscore.Metal>
0.0000

> <Gold.Chemscore.Hbonds>
donor molecule, donor type, donor heavy atom, donor atom, acceptor molecule, acceptor atom, score
      L1  H     5    52       P1 10175  1.98
      L1  H    12    44       P1  8028  0.94
      L1  H    15    45       P1  8028  1.00
      P1  H  6934  6946       L1    14  0.01

> <Gold.PLP.Chemscore.Internal.Correction>
0.2195

> <Gold.Rescore>
     Score         DG    S(hbond)    S(metal)    S(lipo)     H(rot)  DE(clash)    DE(int)     intcor
     16.79     -18.35       2.21        0.00      81.30       1.57       0.23       1.33       ----

> <Gold.Chemscore.Fitness>
16.7886

> <Gold.Chemscore.DG>
-18.3459

> <Gold.Chemscore.ZeroCoef>
-5.4800

> <Gold.Chemscore.Hbond>
2.2064

> <Gold.Chemscore.Metal>
0.0000

> <Gold.Chemscore.Lipo>
81.3041

> <Gold.Chemscore.Internal_Hbond>
0.0000

> <Gold.Chemscore.DEClash>
0.2293

> <Gold.Chemscore.DEInternal>
1.3279

> <Gold.Chemscore.Rot>
1.5688

> <Gold.Chemscore.Internal.Correction>
   9.000000E+99

> <Gold.Chemscore.Hbonds>
donor molecule, donor type, donor heavy atom, donor atom, acceptor molecule, acceptor atom, score
      L1  H     5    52       P1 10175  0.86
      L1  H    12    44       P1  8028  0.23
      L1  H    15    45       P1  8028  0.81
      P1  H  6934  6946       L1    14  0.02

> <Gold.Chemscore.Hbond.Weighted>
-7.3693

> <Gold.Chemscore.Metal.Weighted>
-0.0000

> <Gold.Chemscore.Lipo.Weighted>
-9.5126

> <Gold.Chemscore.Internal_Hbond.Weighted>
0.0000

> <Gold.Chemscore.DEClash.Weighted>
0.2293

> <Gold.Chemscore.DEInternal.Weighted>
1.3279

> <Gold.Chemscore.Rot.Weighted>
4.0161

> <Gold.Chemscore.Internal.Correction.Weighted>
   9.000000E+99

> <Gold.Protein.RotatedTorsions>
[ 6907 6896 6895 6894 ] final -110.57 input  -60.11 | X-H torsion
[ 7974 7965 7964 7962 ] final  110.67 input  175.53 | X-H torsion
[ 8008 7997 7996 7995 ] final    9.87 input   59.86 | X-H torsion
[ 10167 10162 10161 10158 ] final  -25.43 input  -65.29 | X-H torsion
[ 10718 10713 10712 10709 ] final   -1.06 input   66.30 | X-H torsion
[ 10763 10752 10751 10750 ] final  117.93 input  -60.55 | X-H torsion
[ 11005 11000 10999 10996 ] final   38.15 input  -57.11 | X-H torsion

> <Gold.Protein.ActiveResidues>
 VAL166  LYS551  ARG553  GLY616  TRP617  ASP618  TYR619  PRO620  LYS621  CYS622 
 ASP623  PHE694  ASN695  SER759  ASP760  ASP761  ALA762  ILE779  LEU786  VAL792 
 PHE793  MET794  SER795  GLU796  ALA797  LYS798  CYS799  TRP800  GLU811  SER814 

> <Gold.Protein.RotatedAtoms>
  150.7633  133.9362  159.3441 H   0  0  0  0  0  0  0  0  0  0  0  0  # atno 6907 bound_to 6896
  151.7266  135.0881  160.0302 H   0  0  0  0  0  0  0  0  0  0  0  0  # atno 6908 bound_to 6896
  152.3616  133.6267  159.6055 H   0  0  0  0  0  0  0  0  0  0  0  0  # atno 6909 bound_to 6896
  145.2520  139.2736  143.4062 H   0  0  0  0  0  0  0  0  0  0  0  0  # atno 7974 bound_to 7965
  154.7858  140.2827  155.6029 H   0  0  0  0  0  0  0  0  0  0  0  0  # atno 8008 bound_to 7997
  156.2957  140.2614  156.2622 H   0  0  0  0  0  0  0  0  0  0  0  0  # atno 8009 bound_to 7997
  154.9730  140.0376  157.2232 H   0  0  0  0  0  0  0  0  0  0  0  0  # atno 8010 bound_to 7997
  140.7286  143.4266  151.0867 H   0  0  0  0  0  0  0  0  0  0  0  0  # atno 10167 bound_to 10162
  156.8112  130.5425  149.5708 H   0  0  0  0  0  0  0  0  0  0  0  0  # atno 10718 bound_to 10713
  153.5599  135.3523  155.2795 H   0  0  0  0  0  0  0  0  0  0  0  0  # atno 10763 bound_to 10752
  154.8696  135.4134  154.2842 H   0  0  0  0  0  0  0  0  0  0  0  0  # atno 10764 bound_to 10752
  153.3586  135.7058  153.6800 H   0  0  0  0  0  0  0  0  0  0  0  0  # atno 10765 bound_to 10752
  140.2155  134.3704  155.8029 H   0  0  0  0  0  0  0  0  0  0  0  0  # atno 11005 bound_to 11000
  146.3300  140.2913  142.8615 LP  0  0  0  0  0  0  0  0  0  0  0  0  # atno 17320 bound_to 7965
  144.9494  140.8163  143.5581 LP  0  0  0  0  0  0  0  0  0  0  0  0  # atno 17321 bound_to 7965
  139.7918  143.8208  152.3152 LP  0  0  0  0  0  0  0  0  0  0  0  0  # atno 17342 bound_to 10162
  139.8194  144.7302  150.9592 LP  0  0  0  0  0  0  0  0  0  0  0  0  # atno 17343 bound_to 10162
  156.1043  130.5993  150.9945 LP  0  0  0  0  0  0  0  0  0  0  0  0  # atno 17370 bound_to 10713
  157.6505  131.0897  150.8062 LP  0  0  0  0  0  0  0  0  0  0  0  0  # atno 17371 bound_to 10713
  141.2225  133.7165  156.8489 LP  0  0  0  0  0  0  0  0  0  0  0  0  # atno 17394 bound_to 11000
  140.1905  134.8969  157.3055 LP  0  0  0  0  0  0  0  0  0  0  0  0  # atno 17395 bound_to 11000

$$$$
