AV-unprocessed.smi:494|AV-procd|sdf|2713|dock4
  -GOLD-   2262023153D 1   1.00000     0.00000
 Structure written by MMmdl.
 49 50  0  0  0  0  0  0  0  0  2 V2000
  139.0199  137.4339  153.8816 C   0  0  0  0  0  0  0  0  0  0  0  0
  140.1670  136.4687  153.9725 C   0  0  0  0  0  0  0  0  0  0  0  0
  139.9283  135.1703  153.8994 N   0  0  0  0  0  0  0  0  0  0  0  0
  141.1731  134.5441  154.0139 O   0  0  0  0  0  0  0  0  0  0  0  0
  142.1246  135.5020  154.1503 C   0  0  0  0  0  0  0  0  0  0  0  0
  143.5331  135.0321  154.2934 C   0  0  0  0  0  0  0  0  0  0  0  0
  141.5555  136.7460  154.1337 C   0  0  0  0  0  0  0  0  0  0  0  0
  142.2271  138.0901  154.2575 C   0  0  0  0  0  0  0  0  0  0  0  0
  143.5515  137.9457  155.0080 C   0  0  0  0  0  0  0  0  0  0  0  0
  143.6062  137.2751  156.0376 O   0  0  0  0  0  0  0  0  0  0  0  0
  144.6071  138.5901  154.4866 N   0  0  0  0  0  0  0  0  0  0  0  0
  145.9734  138.5745  155.0075 C   0  0  0  0  0  0  0  0  0  0  0  0
  147.0577  138.3743  153.8998 C   0  0  0  0  0  0  0  0  0  0  0  0
  146.9654  136.9494  153.4025 N   0  3  0  0  0  0  0  0  0  0  0  0
  145.8198  136.6269  152.5138 C   0  0  0  0  0  0  0  0  0  0  0  0
  147.1119  135.8998  154.4454 C   0  0  0  0  0  0  0  0  0  0  0  0
  146.8213  139.3839  152.7352 C   0  0  0  0  0  0  0  0  0  0  0  0
  147.0457  140.8586  153.1254 C   0  0  0  0  0  0  0  0  0  0  0  0
  148.4318  141.0844  153.7437 C   0  0  0  0  0  0  0  0  0  0  0  0
  148.6738  140.1396  154.9278 C   0  0  0  0  0  0  0  0  0  0  0  0
  148.4708  138.6739  154.5043 C   0  0  0  0  0  0  0  0  0  0  0  0
  138.7383  137.6071  152.8429 H   0  0  0  0  0  0  0  0  0  0  0  0
  139.2764  138.3977  154.3210 H   0  0  0  0  0  0  0  0  0  0  0  0
  138.1419  137.0583  154.4079 H   0  0  0  0  0  0  0  0  0  0  0  0
  143.8569  135.0961  155.3321 H   0  0  0  0  0  0  0  0  0  0  0  0
  144.2076  135.6403  153.6904 H   0  0  0  0  0  0  0  0  0  0  0  0
  143.6366  133.9960  153.9703 H   0  0  0  0  0  0  0  0  0  0  0  0
  142.4237  138.5304  153.2793 H   0  0  0  0  0  0  0  0  0  0  0  0
  141.5912  138.8021  154.7851 H   0  0  0  0  0  0  0  0  0  0  0  0
  144.4579  139.1111  153.6345 H   0  0  0  0  0  0  0  0  0  0  0  0
  146.1621  139.4730  155.5946 H   0  0  0  0  0  0  0  0  0  0  0  0
  146.0069  137.7721  155.7414 H   0  0  0  0  0  0  0  0  0  0  0  0
  144.8674  136.8621  152.9899 H   0  0  0  0  0  0  0  0  0  0  0  0
  145.8117  135.5655  152.2638 H   0  0  0  0  0  0  0  0  0  0  0  0
  145.8843  137.1585  151.5647 H   0  0  0  0  0  0  0  0  0  0  0  0
  146.2145  135.8214  155.0599 H   0  0  0  0  0  0  0  0  0  0  0  0
  147.9609  136.0738  155.1036 H   0  0  0  0  0  0  0  0  0  0  0  0
  147.2738  134.9285  153.9774 H   0  0  0  0  0  0  0  0  0  0  0  0
  147.4880  139.1462  151.9052 H   0  0  0  0  0  0  0  0  0  0  0  0
  145.8079  139.2931  152.3436 H   0  0  0  0  0  0  0  0  0  0  0  0
  146.9347  141.4894  152.2430 H   0  0  0  0  0  0  0  0  0  0  0  0
  146.2745  141.1874  153.8218 H   0  0  0  0  0  0  0  0  0  0  0  0
  149.1984  140.9212  152.9851 H   0  0  0  0  0  0  0  0  0  0  0  0
  148.5331  142.1213  154.0659 H   0  0  0  0  0  0  0  0  0  0  0  0
  149.6913  140.2745  155.2960 H   0  0  0  0  0  0  0  0  0  0  0  0
  148.0212  140.4003  155.7605 H   0  0  0  0  0  0  0  0  0  0  0  0
  148.6831  138.0154  155.3471 H   0  0  0  0  0  0  0  0  0  0  0  0
  149.2505  138.4787  153.7685 H   0  0  0  0  0  0  0  0  0  0  0  0
  147.7783  136.8405  152.8127 H   0  0  0  0  0  0  0  0  0  0  0  0
  1  2  1  0  0  0  0
  1 22  1  0  0  0  0
  1 23  1  0  0  0  0
  1 24  1  0  0  0  0
  2  7  1  0  0  0  0
  2  3  2  0  0  0  0
  3  4  1  0  0  0  0
  4  5  1  0  0  0  0
  5  6  1  0  0  0  0
  5  7  2  0  0  0  0
  6 25  1  0  0  0  0
  6 26  1  0  0  0  0
  6 27  1  0  0  0  0
  7  8  1  0  0  0  0
  8  9  1  0  0  0  0
  8 28  1  0  0  0  0
  8 29  1  0  0  0  0
  9 10  2  0  0  0  0
  9 11  1  0  0  0  0
 11 12  1  0  0  0  0
 11 30  1  0  0  0  0
 12 13  1  0  0  0  0
 12 31  1  0  0  0  0
 12 32  1  0  0  0  0
 13 21  1  0  0  0  0
 13 14  1  0  0  0  0
 13 17  1  0  0  0  0
 14 15  1  0  0  0  0
 14 16  1  0  0  0  0
 14 49  1  0  0  0  0
 15 33  1  0  0  0  0
 15 34  1  0  0  0  0
 15 35  1  0  0  0  0
 16 36  1  0  0  0  0
 16 37  1  0  0  0  0
 16 38  1  0  0  0  0
 17 18  1  0  0  0  0
 17 39  1  0  0  0  0
 17 40  1  0  0  0  0
 18 19  1  0  0  0  0
 18 41  1  0  0  0  0
 18 42  1  0  0  0  0
 19 20  1  0  0  0  0
 19 43  1  0  0  0  0
 19 44  1  0  0  0  0
 20 21  1  0  0  0  0
 20 45  1  0  0  0  0
 20 46  1  0  0  0  0
 21 47  1  0  0  0  0
 21 48  1  0  0  0  0
M  CHG  1  14   1
M  END
> <s_m_source_file>
AV-unprocessed.smi

> <i_m_source_file_index>
494

> <i_lp_mmshare_version>
43012

> <i_f3d_flags>
0

> <s_epik_input>
W0NIM11jMW5vYyhbQ0gzXSljMVtDSDJdQyg9TylbTkhdW0NIMl1DMihOKFtDSDNdKVtDSDNdKVtDSDJdW0NIMl1bQ0gyXVtDSDJdW0NIMl0y

> <s_epik_cmdline>
J2VwaWtfcHl0aG9uJywgJy1waCcsICc3LjAnLCAnLXRuJywgJzgnLCAnLW1hJywgJzIwMCcsICctbWV0YWxfYmluZGluZycsICctaW1hZScsICc8aW5maWxlLm1hZT4nLCAnLW9tYWUnLCAnPG91dGZpbGUubWFlPic=

> <r_epik_Ionization_Penalty>
0.00230711

> <r_epik_Ionization_Penalty_Charging>
0.00230702

> <r_epik_Ionization_Penalty_Neutral>
8.72116e-08

> <r_epik_State_Penalty>
0.00159123

> <r_epik_Charging_Adjusted_Penalty>
0.00389825

> <i_epik_Tot_Q>
1

> <i_epik_Tot_abs_Q>
1

> <r_epik_Metal_State_Penalty>
-0

> <b_epik_Metal_Only>
0

> <s_lp_Force_Field>
OPLS_2005

> <r_lp_Energy>
28.1912

> <b_lp_Chiralities_Consistent>
1

> <s_lp_Variant>
AV-unprocessed.smi:494-1

> <Gold.Version>
5.8.1

> <Gold.Id.Protein>
6NUR|6NUR_protein|mol2

> <Gold.PLP.Fitness>
37.5476

> <Gold.PLP.PLP>
-28.2320

> <Gold.PLP.part.hbond>
-5.2478

> <Gold.PLP.part.metal>
0.0000

> <Gold.PLP.part.buried>
-1.0452

> <Gold.PLP.part.nonpolar>
-21.9327

> <Gold.PLP.part.repulsive>
0.5057

> <Gold.PLP.ligand.clash>
0.0000

> <Gold.PLP.ligand.torsion>
0.8745

> <Gold.PLP.Chemscore.Hbond>
3.6392

> <Gold.PLP.Chemscore.CHOScore>
0.0000

> <Gold.PLP.Chemscore.Metal>
0.0000

> <Gold.Chemscore.Hbonds>
donor molecule, donor type, donor heavy atom, donor atom, acceptor molecule, acceptor atom, score
      L1  H    11    30       P1 10175  1.00
      L1  H    14    49       P1  7948  2.00
      P1  H 11000 11005       L1     4  0.45

> <Gold.PLP.Chemscore.Internal.Correction>
0.1472

> <Gold.Rescore>
     Score         DG    S(hbond)    S(metal)    S(lipo)     H(rot)  DE(clash)    DE(int)     intcor
     15.14     -16.24       2.10        0.00      68.64       1.68       0.06       1.05       ----

> <Gold.Chemscore.Fitness>
15.1351

> <Gold.Chemscore.DG>
-16.2416

> <Gold.Chemscore.ZeroCoef>
-5.4800

> <Gold.Chemscore.Hbond>
2.1016

> <Gold.Chemscore.Metal>
0.0000

> <Gold.Chemscore.Lipo>
68.6390

> <Gold.Chemscore.Internal_Hbond>
0.0000

> <Gold.Chemscore.DEClash>
0.0613

> <Gold.Chemscore.DEInternal>
1.0452

> <Gold.Chemscore.Rot>
1.6752

> <Gold.Chemscore.Internal.Correction>
   9.000000E+99

> <Gold.Chemscore.Hbonds>
donor molecule, donor type, donor heavy atom, donor atom, acceptor molecule, acceptor atom, score
      L1  H    11    30       P1 10175  0.98
      L1  H    14    49       P1  7948  0.99
      P1  H 11000 11005       L1     4  0.01

> <Gold.Chemscore.Hbond.Weighted>
-7.0193

> <Gold.Chemscore.Metal.Weighted>
-0.0000

> <Gold.Chemscore.Lipo.Weighted>
-8.0308

> <Gold.Chemscore.Internal_Hbond.Weighted>
0.0000

> <Gold.Chemscore.DEClash.Weighted>
0.0613

> <Gold.Chemscore.DEInternal.Weighted>
1.0452

> <Gold.Chemscore.Rot.Weighted>
4.2884

> <Gold.Chemscore.Internal.Correction.Weighted>
   9.000000E+99

> <Gold.Protein.RotatedTorsions>
[ 6907 6896 6895 6894 ] final  -25.98 input  -60.11 | X-H torsion
[ 7974 7965 7964 7962 ] final  -96.15 input  175.53 | X-H torsion
[ 8008 7997 7996 7995 ] final -145.75 input   59.86 | X-H torsion
[ 10167 10162 10161 10158 ] final  126.36 input  -65.29 | X-H torsion
[ 10718 10713 10712 10709 ] final   37.16 input   66.30 | X-H torsion
[ 10763 10752 10751 10750 ] final -169.15 input  -60.55 | X-H torsion
[ 11005 11000 10999 10996 ] final   -1.30 input  -57.11 | X-H torsion

> <Gold.Protein.ActiveResidues>
 VAL166  LYS551  ARG553  GLY616  TRP617  ASP618  TYR619  PRO620  LYS621  CYS622 
 ASP623  PHE694  ASN695  SER759  ASP760  ASP761  ALA762  ILE779  LEU786  VAL792 
 PHE793  MET794  SER795  GLU796  ALA797  LYS798  CYS799  TRP800  GLU811  SER814 

> <Gold.Protein.RotatedAtoms>
  151.1675  135.0302  159.8736 H   0  0  0  0  0  0  0  0  0  0  0  0  # atno 6907 bound_to 6896
  152.5450  134.1209  159.8408 H   0  0  0  0  0  0  0  0  0  0  0  0  # atno 6908 bound_to 6896
  151.1311  133.4990  159.2631 H   0  0  0  0  0  0  0  0  0  0  0  0  # atno 6909 bound_to 6896
  145.3506  140.9476  143.2556 H   0  0  0  0  0  0  0  0  0  0  0  0  # atno 7974 bound_to 7965
  155.5482  140.0614  157.2855 H   0  0  0  0  0  0  0  0  0  0  0  0  # atno 8008 bound_to 7997
  154.4429  140.1907  156.0704 H   0  0  0  0  0  0  0  0  0  0  0  0  # atno 8009 bound_to 7997
  156.0535  140.3281  155.7382 H   0  0  0  0  0  0  0  0  0  0  0  0  # atno 8010 bound_to 7997
  139.5635  144.6897  151.3975 H   0  0  0  0  0  0  0  0  0  0  0  0  # atno 10167 bound_to 10162
  157.3436  130.7561  149.6929 H   0  0  0  0  0  0  0  0  0  0  0  0  # atno 10718 bound_to 10713
  154.6553  135.2917  154.9935 H   0  0  0  0  0  0  0  0  0  0  0  0  # atno 10763 bound_to 10752
  154.1014  135.6576  153.4873 H   0  0  0  0  0  0  0  0  0  0  0  0  # atno 10764 bound_to 10752
  153.0399  135.5243  154.7479 H   0  0  0  0  0  0  0  0  0  0  0  0  # atno 10765 bound_to 10752
  140.6458  133.9448  155.8352 H   0  0  0  0  0  0  0  0  0  0  0  0  # atno 11005 bound_to 11000
  144.8720  139.5024  143.6763 LP  0  0  0  0  0  0  0  0  0  0  0  0  # atno 17320 bound_to 7965
  146.2969  139.7306  142.9120 LP  0  0  0  0  0  0  0  0  0  0  0  0  # atno 17321 bound_to 7965
  140.6917  143.7845  150.7265 LP  0  0  0  0  0  0  0  0  0  0  0  0  # atno 17342 bound_to 10162
  140.1329  143.4509  152.2242 LP  0  0  0  0  0  0  0  0  0  0  0  0  # atno 17343 bound_to 10162
  155.9711  130.4161  150.4212 LP  0  0  0  0  0  0  0  0  0  0  0  0  # atno 17370 bound_to 10713
  157.2264  131.0494  151.2517 LP  0  0  0  0  0  0  0  0  0  0  0  0  # atno 17371 bound_to 10713
  141.0573  134.0397  157.3705 LP  0  0  0  0  0  0  0  0  0  0  0  0  # atno 17394 bound_to 11000
  139.9063  135.0180  156.7501 LP  0  0  0  0  0  0  0  0  0  0  0  0  # atno 17395 bound_to 11000

$$$$
