AV-unprocessed.smi:702|AV-procd|sdf|3424|dock9
  -GOLD-   22720 0403D 1   1.00000     0.00000
 Structure written by MMmdl.
 50 52  0  0  0  0  0  0  0  0  4 V2000
  145.2596  137.8666  155.5140 C   0  0  0  0  0  0  0  0  0  0  0  0
  145.5622  138.4361  154.1140 C   0  0  2  0  0  0  0  0  0  0  0  0
  146.1544  137.3682  153.2945 N   0  5  0  0  0  0  0  0  0  0  0  0
  145.4809  136.2997  152.7900 C   0  0  0  0  0  0  0  0  0  0  0  0
  144.3177  135.9595  153.0329 O   0  0  0  0  0  0  0  0  0  0  0  0
  146.2261  135.5976  151.9180 N   0  0  0  0  0  0  0  0  0  0  0  0
  145.8851  134.4199  151.2006 C   0  0  0  0  0  0  0  0  0  0  0  0
  144.5977  134.3496  150.6244 C   0  0  0  0  0  0  0  0  0  0  0  0
  144.2283  133.2057  149.8883 C   0  0  0  0  0  0  0  0  0  0  0  0
  145.1098  132.1950  149.7285 N   0  3  0  0  0  0  0  0  0  0  0  0
  146.3575  132.2258  150.2441 C   0  0  0  0  0  0  0  0  0  0  0  0
  146.7834  133.3434  150.9899 C   0  0  0  0  0  0  0  0  0  0  0  0
  146.4953  139.7263  154.1516 C   0  0  0  0  0  0  0  0  0  0  0  0
  145.6817  140.9798  154.4758 N   0  3  0  0  0  0  0  0  0  0  0  0
  144.9692  140.9864  155.7905 C   0  0  0  0  0  0  0  0  0  0  0  0
  143.9462  142.1312  155.8422 C   0  0  0  0  0  0  0  0  0  0  0  0
  144.6212  143.3707  155.6891 O   0  0  0  0  0  0  0  0  0  0  0  0
  145.2961  143.4490  154.4425 C   0  0  0  0  0  0  0  0  0  0  0  0
  146.3408  142.3242  154.3352 C   0  0  0  0  0  0  0  0  0  0  0  0
  147.6388  139.5258  155.2196 C   0  0  0  0  0  0  0  0  0  0  0  0
  148.9898  139.7744  154.5321 C   0  0  0  0  0  0  0  0  0  0  0  0
  148.6867  140.4252  153.1875 C   0  0  0  0  0  0  0  0  0  0  0  0
  147.2842  139.9370  152.8146 C   0  0  0  0  0  0  0  0  0  0  0  0
  144.7730  138.6048  156.1509 H   0  0  0  0  0  0  0  0  0  0  0  0
  146.1640  137.5341  156.0239 H   0  0  0  0  0  0  0  0  0  0  0  0
  144.5869  137.0105  155.4498 H   0  0  0  0  0  0  0  0  0  0  0  0
  144.6089  138.7437  153.6863 H   0  0  0  0  0  0  0  0  0  0  0  0
  147.1226  136.0035  151.6923 H   0  0  0  0  0  0  0  0  0  0  0  0
  143.8949  135.1604  150.7517 H   0  0  0  0  0  0  0  0  0  0  0  0
  143.2621  133.0705  149.4249 H   0  0  0  0  0  0  0  0  0  0  0  0
  146.9766  131.3644  150.0406 H   0  0  0  0  0  0  0  0  0  0  0  0
  147.7907  133.3640  151.3775 H   0  0  0  0  0  0  0  0  0  0  0  0
  144.4416  140.0622  156.0091 H   0  0  0  0  0  0  0  0  0  0  0  0
  145.6891  141.1288  156.5965 H   0  0  0  0  0  0  0  0  0  0  0  0
  143.1839  142.0125  155.0706 H   0  0  0  0  0  0  0  0  0  0  0  0
  143.4317  142.1315  156.8033 H   0  0  0  0  0  0  0  0  0  0  0  0
  144.5784  143.3909  153.6225 H   0  0  0  0  0  0  0  0  0  0  0  0
  145.7833  144.4215  154.3695 H   0  0  0  0  0  0  0  0  0  0  0  0
  147.0997  142.4584  155.1060 H   0  0  0  0  0  0  0  0  0  0  0  0
  146.8425  142.4733  153.3819 H   0  0  0  0  0  0  0  0  0  0  0  0
  147.5113  140.1628  156.0931 H   0  0  0  0  0  0  0  0  0  0  0  0
  147.7014  138.5320  155.6696 H   0  0  0  0  0  0  0  0  0  0  0  0
  149.6587  140.3828  155.1411 H   0  0  0  0  0  0  0  0  0  0  0  0
  149.4860  138.8179  154.3621 H   0  0  0  0  0  0  0  0  0  0  0  0
  148.7100  141.5088  153.2853 H   0  0  0  0  0  0  0  0  0  0  0  0
  149.4264  140.1620  152.4308 H   0  0  0  0  0  0  0  0  0  0  0  0
  147.4265  139.0150  152.2471 H   0  0  0  0  0  0  0  0  0  0  0  0
  146.7988  140.6228  152.1216 H   0  0  0  0  0  0  0  0  0  0  0  0
  144.9517  140.9724  153.7782 H   0  0  0  0  0  0  0  0  0  0  0  0
  144.8230  131.3767  149.1910 H   0  0  0  0  0  0  0  0  0  0  0  0
  1  2  1  0  0  0  0
  1 24  1  0  0  0  0
  1 25  1  0  0  0  0
  1 26  1  0  0  0  0
  2  3  1  0  0  0  0
  2 13  1  0  0  0  0
  2 27  1  0  0  0  0
  3  4  1  0  0  0  0
  4  5  2  0  0  0  0
  4  6  1  0  0  0  0
  6  7  1  0  0  0  0
  6 28  1  0  0  0  0
  7 12  1  0  0  0  0
  7  8  2  0  0  0  0
  8  9  1  0  0  0  0
  8 29  1  0  0  0  0
  9 10  2  0  0  0  0
  9 30  1  0  0  0  0
 10 11  1  0  0  0  0
 10 50  1  0  0  0  0
 11 12  2  0  0  0  0
 11 31  1  0  0  0  0
 12 32  1  0  0  0  0
 13 23  1  0  0  0  0
 13 14  1  0  0  0  0
 13 20  1  0  0  0  0
 14 19  1  0  0  0  0
 14 15  1  0  0  0  0
 14 49  1  0  0  0  0
 15 16  1  0  0  0  0
 15 33  1  0  0  0  0
 15 34  1  0  0  0  0
 16 17  1  0  0  0  0
 16 35  1  0  0  0  0
 16 36  1  0  0  0  0
 17 18  1  0  0  0  0
 18 19  1  0  0  0  0
 18 37  1  0  0  0  0
 18 38  1  0  0  0  0
 19 39  1  0  0  0  0
 19 40  1  0  0  0  0
 20 21  1  0  0  0  0
 20 41  1  0  0  0  0
 20 42  1  0  0  0  0
 21 22  1  0  0  0  0
 21 43  1  0  0  0  0
 21 44  1  0  0  0  0
 22 23  1  0  0  0  0
 22 45  1  0  0  0  0
 22 46  1  0  0  0  0
 23 47  1  0  0  0  0
 23 48  1  0  0  0  0
M  CHG  1   3  -1
M  CHG  1  10   1
M  CHG  1  14   1
M  END
> <s_m_source_file>
AV-unprocessed.smi

> <i_m_source_file_index>
702

> <i_lp_mmshare_version>
43012

> <i_f3d_flags>
0

> <s_epik_input>
W0NIMl0xW0NIMl1PW0NIMl1bQ0gyXU4xQzIoW0NIMl1bQ0gyXVtDSDJdW0NIMl0yKVtDQEhdKFtDSDNdKVtOSF1DKD1PKVtOSF1jM1tjSF1bY0hdbltjSF1bY0hdMw==

> <s_epik_cmdline>
J2VwaWtfcHl0aG9uJywgJy1waCcsICc3LjAnLCAnLXRuJywgJzgnLCAnLW1hJywgJzIwMCcsICctbWV0YWxfYmluZGluZycsICctaW1hZScsICc8aW5maWxlLm1hZT4nLCAnLW9tYWUnLCAnPG91dGZpbGUubWFlPic=

> <r_epik_Ionization_Penalty>
8.33674

> <r_epik_Ionization_Penalty_Charging>
8.33674

> <r_epik_Ionization_Penalty_Neutral>
3.60854e-06

> <r_epik_State_Penalty>
8.24268

> <r_epik_Charging_Adjusted_Penalty>
16.5794

> <i_epik_Tot_Q>
1

> <i_epik_Tot_abs_Q>
3

> <r_epik_Metal_State_Penalty>
4.24853

> <b_epik_Metal_Only>
1

> <s_lp_Force_Field>
OPLS_2005

> <r_lp_Energy>
64.6776

> <b_lp_Chiralities_Consistent>
1

> <s_lp_Variant>
AV-unprocessed.smi:702-9

> <Gold.Version>
5.8.1

> <Gold.Id.Protein>
6NUR|6NUR_protein|mol2

> <Gold.PLP.Fitness>
34.0408

> <Gold.PLP.PLP>
-27.4794

> <Gold.PLP.part.hbond>
-2.0367

> <Gold.PLP.part.metal>
0.0000

> <Gold.PLP.part.buried>
3.2847

> <Gold.PLP.part.nonpolar>
-29.0350

> <Gold.PLP.part.repulsive>
0.6038

> <Gold.PLP.ligand.clash>
0.0000

> <Gold.PLP.ligand.torsion>
1.3404

> <Gold.PLP.Chemscore.Hbond>
3.0000

> <Gold.PLP.Chemscore.CHOScore>
0.0000

> <Gold.PLP.Chemscore.Metal>
0.0000

> <Gold.Chemscore.Hbonds>
donor molecule, donor type, donor heavy atom, donor atom, acceptor molecule, acceptor atom, score
      L1  H     6    28       P1  7948  1.00
      L1  H    14    49       P1 10175  2.00

> <Gold.PLP.Chemscore.Internal.Correction>
0.2422

> <Gold.Rescore>
     Score         DG    S(hbond)    S(metal)    S(lipo)     H(rot)  DE(clash)    DE(int)     intcor
     13.04     -18.07       1.94        0.00      83.98       1.45       2.14       2.89       ----

> <Gold.Chemscore.Fitness>
13.0388

> <Gold.Chemscore.DG>
-18.0720

> <Gold.Chemscore.ZeroCoef>
-5.4800

> <Gold.Chemscore.Hbond>
1.9399

> <Gold.Chemscore.Metal>
0.0000

> <Gold.Chemscore.Lipo>
83.9793

> <Gold.Chemscore.Internal_Hbond>
0.0000

> <Gold.Chemscore.DEClash>
2.1416

> <Gold.Chemscore.DEInternal>
2.8917

> <Gold.Chemscore.Rot>
1.4504

> <Gold.Chemscore.Internal.Correction>
   9.000000E+99

> <Gold.Chemscore.Hbonds>
donor molecule, donor type, donor heavy atom, donor atom, acceptor molecule, acceptor atom, score
      L1  H     6    28       P1  7948  0.99
      L1  H    14    49       P1 10175  0.82

> <Gold.Chemscore.Hbond.Weighted>
-6.4794

> <Gold.Chemscore.Metal.Weighted>
-0.0000

> <Gold.Chemscore.Lipo.Weighted>
-9.8256

> <Gold.Chemscore.Internal_Hbond.Weighted>
0.0000

> <Gold.Chemscore.DEClash.Weighted>
2.1416

> <Gold.Chemscore.DEInternal.Weighted>
2.8917

> <Gold.Chemscore.Rot.Weighted>
3.7129

> <Gold.Chemscore.Internal.Correction.Weighted>
   9.000000E+99

> <Gold.Protein.RotatedTorsions>
[ 6907 6896 6895 6894 ] final    5.57 input  -60.11 | X-H torsion
[ 7974 7965 7964 7962 ] final -126.12 input  175.53 | X-H torsion
[ 8008 7997 7996 7995 ] final   45.63 input   59.86 | X-H torsion
[ 10167 10162 10161 10158 ] final  -69.93 input  -65.29 | X-H torsion
[ 10718 10713 10712 10709 ] final  112.18 input   66.30 | X-H torsion
[ 10763 10752 10751 10750 ] final   13.36 input  -60.55 | X-H torsion
[ 11005 11000 10999 10996 ] final  -34.48 input  -57.11 | X-H torsion

> <Gold.Protein.ActiveResidues>
 VAL166  LYS551  ARG553  GLY616  TRP617  ASP618  TYR619  PRO620  LYS621  CYS622 
 ASP623  PHE694  ASN695  SER759  ASP760  ASP761  ALA762  ILE779  LEU786  VAL792 
 PHE793  MET794  SER795  GLU796  ALA797  LYS798  CYS799  TRP800  GLU811  SER814 

> <Gold.Protein.RotatedAtoms>
  151.6596  135.0991  160.0176 H   0  0  0  0  0  0  0  0  0  0  0  0  # atno 6907 bound_to 6896
  152.3954  133.6735  159.6280 H   0  0  0  0  0  0  0  0  0  0  0  0  # atno 6908 bound_to 6896
  150.7862  133.8800  159.3324 H   0  0  0  0  0  0  0  0  0  0  0  0  # atno 6909 bound_to 6896
  144.9905  140.7727  143.4557 H   0  0  0  0  0  0  0  0  0  0  0  0  # atno 7974 bound_to 7965
  155.3391  140.3407  155.4239 H   0  0  0  0  0  0  0  0  0  0  0  0  # atno 8008 bound_to 7997
  156.1822  140.1668  156.8289 H   0  0  0  0  0  0  0  0  0  0  0  0  # atno 8009 bound_to 7997
  154.5346  140.0738  156.8388 H   0  0  0  0  0  0  0  0  0  0  0  0  # atno 8010 bound_to 7997
  140.5392  143.2316  151.7120 H   0  0  0  0  0  0  0  0  0  0  0  0  # atno 10167 bound_to 10162
  157.6406  131.0963  150.6858 H   0  0  0  0  0  0  0  0  0  0  0  0  # atno 10718 bound_to 10713
  153.1728  135.6815  153.8584 H   0  0  0  0  0  0  0  0  0  0  0  0  # atno 10763 bound_to 10752
  153.7942  135.3165  155.3383 H   0  0  0  0  0  0  0  0  0  0  0  0  # atno 10764 bound_to 10752
  154.8009  135.4778  154.0367 H   0  0  0  0  0  0  0  0  0  0  0  0  # atno 10765 bound_to 10752
  140.9719  133.7104  156.1538 H   0  0  0  0  0  0  0  0  0  0  0  0  # atno 11005 bound_to 11000
  145.2292  139.2122  143.5052 LP  0  0  0  0  0  0  0  0  0  0  0  0  # atno 17320 bound_to 7965
  146.3430  140.2166  142.8591 LP  0  0  0  0  0  0  0  0  0  0  0  0  # atno 17321 bound_to 7965
  139.4982  144.3995  152.0197 LP  0  0  0  0  0  0  0  0  0  0  0  0  # atno 17342 bound_to 10162
  140.3102  144.3546  150.6036 LP  0  0  0  0  0  0  0  0  0  0  0  0  # atno 17343 bound_to 10162
  156.7182  130.4672  149.5529 LP  0  0  0  0  0  0  0  0  0  0  0  0  # atno 17370 bound_to 10713
  156.1683  130.6420  151.0806 LP  0  0  0  0  0  0  0  0  0  0  0  0  # atno 17371 bound_to 10713
  140.7316  134.4248  157.5565 LP  0  0  0  0  0  0  0  0  0  0  0  0  # atno 17394 bound_to 11000
  139.8915  134.8777  156.2314 LP  0  0  0  0  0  0  0  0  0  0  0  0  # atno 17395 bound_to 11000

$$$$
