#       Name:                AV-unprocessed.smi:570
#       Creating user name   scv26
#       Creation time:       Thu Mar 26 23:46:28 2020


#       File generated by GOLD software.
#

@<TRIPOS>MOLECULE
AV-unprocessed.smi:570
    48    49     1
SMALL
NO_CHARGES


@<TRIPOS>ATOM
      1 ****        -3.6412   6.0257  -0.4974 C.3            1 S1                 0.0000
      2 ****        -2.9806   4.8118  -0.1857 O.3            1 S1                 0.0000
      3 ****        -1.5802   4.8871  -0.3920 C.3            1 S1                 0.0000
      4 ****        -0.9550   3.5329  -0.0400 C.3            1 S1                 0.0000
      5 ****         0.5705   3.5209  -0.2283 C.3            1 S1                 0.0000
      6 ****         1.1393   2.2264   0.1258 N.am           1 S1                 0.0000
      7 ****         1.1820   1.1553  -0.6825 C.2            1 S1                 0.0000
      8 ****         0.7284   1.1468  -1.8275 O.2            1 S1                 0.0000
      9 ****         1.7454  -0.0957  -0.0725 C.ar           1 S1                 0.0000
     10 ****         1.0116  -1.2212  -0.2306 N.ar           1 S1                 0.0000
     11 ****         1.4680  -2.3647   0.2946 C.ar           1 S1                 0.0000
     12 ****         0.6841  -3.5135   0.1259 N.pl3          1 S1                 0.0000
     13 ****         1.1816  -4.8480   0.4701 C.3            1 S1                 0.0000
     14 ****         0.0300  -5.7654   0.9156 C.3            1 S1                 0.0000
     15 ****        -0.9753  -5.8012  -0.0894 O.3            1 S1                 0.0000
     16 ****        -1.5360  -4.5134  -0.3117 C.3            1 S1                 0.0000
     17 ****        -0.4451  -3.5493  -0.8076 C.3            1 S1                 0.0000
     18 ****         2.6166  -2.4885   0.9706 N.ar           1 S1                 0.0000
     19 ****         3.3747  -1.3840   1.1291 C.ar           1 S1                 0.0000
     20 ****         2.9859  -0.1314   0.6163 C.ar           1 S1                 0.0000
     21 ****         4.0225   1.2400   0.8177 Cl             1 S1                 0.0000
     22 ****        -4.7115   5.9157  -0.3234 H              1 S1                 0.0000
     23 ****        -3.4965   6.2956  -1.5443 H              1 S1                 0.0000
     24 ****        -3.2812   6.8432   0.1285 H              1 S1                 0.0000
     25 ****        -1.3686   5.1380  -1.4328 H              1 S1                 0.0000
     26 ****        -1.1521   5.6731   0.2322 H              1 S1                 0.0000
     27 ****        -1.1970   3.2821   0.9937 H              1 S1                 0.0000
     28 ****        -1.4104   2.7592  -0.6599 H              1 S1                 0.0000
     29 ****         0.8330   3.7791  -1.2559 H              1 S1                 0.0000
     30 ****         1.0297   4.2775   0.4085 H              1 S1                 0.0000
     31 ****         1.5181   2.1310   1.0570 H              1 S1                 0.0000
     32 ****         1.6809  -5.2700  -0.4028 H              1 S1                 0.0000
     33 ****         1.9190  -4.8162   1.2716 H              1 S1                 0.0000
     34 ****         0.4006  -6.7770   1.0815 H              1 S1                 0.0000
     35 ****        -0.3956  -5.4241   1.8608 H              1 S1                 0.0000
     36 ****        -2.3289  -4.5961  -1.0553 H              1 S1                 0.0000
     37 ****        -1.9970  -4.1408   0.6046 H              1 S1                 0.0000
     38 ****        -0.8969  -2.5675  -0.9460 H              1 S1                 0.0000
     39 ****        -0.0793  -3.8687  -1.7840 H              1 S1                 0.0000
     40 ****         4.3053  -1.5039   1.6642 H              1 S1                 0.0000
     41 ****        -3.3516   4.0867  -0.7658 LP             1 S1                 0.0000
     42 ****        -3.1518   4.5909   0.7745 LP             1 S1                 0.0000
     43 ****         0.2992   1.9689  -2.2013 LP             1 S1                 0.0000
     44 ****         0.7894   0.3177  -2.3833 LP             1 S1                 0.0000
     45 ****         0.1455  -1.1993  -0.7299 LP             1 S1                 0.0000
     46 ****        -1.7008  -6.4262   0.1988 LP             1 S1                 0.0000
     47 ****        -0.5705  -6.1311  -0.9422 LP             1 S1                 0.0000
     48 ****         2.9032  -3.3702   1.3456 LP             1 S1                 0.0000
@<TRIPOS>BOND
    1    1    2 1     
    2    1   22 1     
    3    1   23 1     
    4    1   24 1     
    5    2    3 1     
    6    3    4 1     
    7    3   25 1     
    8    3   26 1     
    9    4    5 1     
   10    4   27 1     
   11    4   28 1     
   12    5    6 1     
   13    5   29 1     
   14    5   30 1     
   15    6    7 am    
   16    6   31 1     
   17    7    8 2     
   18    7    9 1     
   19    9   20 ar    
   20    9   10 ar    
   21   10   11 ar    
   22   11   12 1     
   23   11   18 ar    
   24   12   17 1     
   25   12   13 1     
   26   13   14 1     
   27   13   32 1     
   28   13   33 1     
   29   14   15 1     
   30   14   34 1     
   31   14   35 1     
   32   15   16 1     
   33   16   17 1     
   34   16   36 1     
   35   16   37 1     
   36   17   38 1     
   37   17   39 1     
   38   18   19 ar    
   39   19   20 ar    
   40   19   40 1     
   41   20   21 1     
   42    2   41 1     
   43    2   42 1     
   44    8   43 1     
   45    8   44 1     
   46   10   45 1     
   47   15   46 1     
   48   15   47 1     
   49   18   48 1     
@<TRIPOS>SUBSTRUCTURE
      1 S1             1
@<TRIPOS>SET
LONE_PAIRS      STATIC     ATOMS    <user>   **** ""
8 41 42 43 44 45 46 47 48
DONOR_HYDROGENS      STATIC     ATOMS    <user>   **** ""
1 31
ATOM$BLUE        STATIC     ATOMS    COLORGROUP SYSTEM
8 41 42 43 44 45 46 47 48
ATOM$RED        STATIC     ATOMS    COLORGROUP SYSTEM
1 31
