AV-unprocessed.smi:2237|AV-procd|sdf|9049|dock6
  -GOLD-   2272012253D 1   1.00000     0.00000
 Structure written by MMmdl.
 55 57  0  0  0  0  0  0  0  0  3 V2000
  151.8746  144.3382  161.0410 C   0  0  0  0  0  0  0  0  0  0  0  0
  152.3174  143.0648  160.3516 C   0  0  0  0  0  0  0  0  0  0  0  0
  153.3766  142.2916  160.8663 C   0  0  0  0  0  0  0  0  0  0  0  0
  153.7410  141.1228  160.1743 C   0  0  0  0  0  0  0  0  0  0  0  0
  153.0358  140.7767  159.0057 C   0  0  0  0  0  0  0  0  0  0  0  0
  151.9847  141.6074  158.5567 C   0  0  0  0  0  0  0  0  0  0  0  0
  151.3359  141.1699  157.3714 N   0  0  0  0  0  0  0  0  0  0  0  0
  150.1103  141.4981  156.9259 C   0  0  0  0  0  0  0  0  0  0  0  0
  149.3284  142.2663  157.4866 O   0  0  0  0  0  0  0  0  0  0  0  0
  149.8317  140.8796  155.7687 N   0  0  0  0  0  0  0  0  0  0  0  0
  148.5820  141.0130  155.0258 C   0  0  2  0  0  0  0  0  0  0  0  0
  147.3885  140.8969  155.9900 C   0  0  0  0  0  0  0  0  0  0  0  0
  146.0572  140.9196  155.2174 C   0  0  0  0  0  0  0  0  0  0  0  0
  145.9811  139.8169  154.2168 N   0  3  2  0  0  0  0  0  0  0  0  0
  145.8125  138.4278  154.7706 C   0  0  2  0  0  0  0  0  0  0  0  0
  145.6730  137.3602  153.6584 C   0  0  0  0  0  0  0  0  0  0  0  0
  144.3298  137.4742  152.9129 C   0  0  0  0  0  0  0  0  0  0  0  0
  143.1860  137.3584  153.8514 N   0  3  2  0  0  0  0  0  0  0  0  0
  141.8808  137.3731  153.1557 C   0  0  0  0  0  0  0  0  0  0  0  0
  143.2553  138.3580  154.9457 C   0  0  0  0  0  0  0  0  0  0  0  0
  144.5903  138.2504  155.7058 C   0  0  0  0  0  0  0  0  0  0  0  0
  147.0974  139.9634  153.2376 C   0  0  0  0  0  0  0  0  0  0  0  0
  148.4815  139.9444  153.9186 C   0  0  0  0  0  0  0  0  0  0  0  0
  151.6413  142.7334  159.2305 N   0  0  0  0  0  0  0  0  0  0  0  0
  152.3816  144.4671  161.9976 H   0  0  0  0  0  0  0  0  0  0  0  0
  150.8002  144.3181  161.2264 H   0  0  0  0  0  0  0  0  0  0  0  0
  152.0992  145.2031  160.4160 H   0  0  0  0  0  0  0  0  0  0  0  0
  153.8985  142.5843  161.7655 H   0  0  0  0  0  0  0  0  0  0  0  0
  154.5479  140.5009  160.5327 H   0  0  0  0  0  0  0  0  0  0  0  0
  153.3037  139.8818  158.4630 H   0  0  0  0  0  0  0  0  0  0  0  0
  151.8671  140.5313  156.7984 H   0  0  0  0  0  0  0  0  0  0  0  0
  150.5318  140.2648  155.3797 H   0  0  0  0  0  0  0  0  0  0  0  0
  148.5469  142.0015  154.5634 H   0  0  0  0  0  0  0  0  0  0  0  0
  147.4634  139.9805  156.5768 H   0  0  0  0  0  0  0  0  0  0  0  0
  147.4107  141.7203  156.7048 H   0  0  0  0  0  0  0  0  0  0  0  0
  145.2059  140.9214  155.8951 H   0  0  0  0  0  0  0  0  0  0  0  0
  145.9779  141.8668  154.6819 H   0  0  0  0  0  0  0  0  0  0  0  0
  146.6983  138.1921  155.3597 H   0  0  0  0  0  0  0  0  0  0  0  0
  146.4990  137.3861  152.9506 H   0  0  0  0  0  0  0  0  0  0  0  0
  145.7318  136.3705  154.1140 H   0  0  0  0  0  0  0  0  0  0  0  0
  144.2724  138.4226  152.3767 H   0  0  0  0  0  0  0  0  0  0  0  0
  144.2630  136.6839  152.1640 H   0  0  0  0  0  0  0  0  0  0  0  0
  141.7155  138.3257  152.6506 H   0  0  0  0  0  0  0  0  0  0  0  0
  141.0652  137.2152  153.8624 H   0  0  0  0  0  0  0  0  0  0  0  0
  141.8324  136.5778  152.4111 H   0  0  0  0  0  0  0  0  0  0  0  0
  143.1273  139.3613  154.5365 H   0  0  0  0  0  0  0  0  0  0  0  0
  142.4296  138.1922  155.6387 H   0  0  0  0  0  0  0  0  0  0  0  0
  144.6439  137.2596  156.1597 H   0  0  0  0  0  0  0  0  0  0  0  0
  144.6149  138.9333  156.5536 H   0  0  0  0  0  0  0  0  0  0  0  0
  147.0534  139.2139  152.4510 H   0  0  0  0  0  0  0  0  0  0  0  0
  146.9718  140.9179  152.7242 H   0  0  0  0  0  0  0  0  0  0  0  0
  149.2536  140.1157  153.1674 H   0  0  0  0  0  0  0  0  0  0  0  0
  148.6838  138.9559  154.3314 H   0  0  0  0  0  0  0  0  0  0  0  0
  145.1346  139.9948  153.6953 H   0  0  0  0  0  0  0  0  0  0  0  0
  143.2633  136.4503  154.2877 H   0  0  0  0  0  0  0  0  0  0  0  0
  1  2  1  0  0  0  0
  1 25  1  0  0  0  0
  1 26  1  0  0  0  0
  1 27  1  0  0  0  0
  2 24  1  0  0  0  0
  2  3  2  0  0  0  0
  3  4  1  0  0  0  0
  3 28  1  0  0  0  0
  4  5  2  0  0  0  0
  4 29  1  0  0  0  0
  5  6  1  0  0  0  0
  5 30  1  0  0  0  0
  6  7  1  0  0  0  0
  6 24  2  0  0  0  0
  7  8  1  0  0  0  0
  7 31  1  0  0  0  0
  8  9  2  0  0  0  0
  8 10  1  0  0  0  0
 10 11  1  0  0  0  0
 10 32  1  0  0  0  0
 11 23  1  0  0  0  0
 11 12  1  0  0  0  0
 11 33  1  0  0  0  0
 12 13  1  0  0  0  0
 12 34  1  0  0  0  0
 12 35  1  0  0  0  0
 13 14  1  0  0  0  0
 13 36  1  0  0  0  0
 13 37  1  0  0  0  0
 14 15  1  0  0  0  0
 14 22  1  0  0  0  0
 14 54  1  0  0  0  0
 15 21  1  0  0  0  0
 15 16  1  0  0  0  0
 15 38  1  0  0  0  0
 16 17  1  0  0  0  0
 16 39  1  0  0  0  0
 16 40  1  0  0  0  0
 17 18  1  0  0  0  0
 17 41  1  0  0  0  0
 17 42  1  0  0  0  0
 18 19  1  0  0  0  0
 18 20  1  0  0  0  0
 18 55  1  0  0  0  0
 19 43  1  0  0  0  0
 19 44  1  0  0  0  0
 19 45  1  0  0  0  0
 20 21  1  0  0  0  0
 20 46  1  0  0  0  0
 20 47  1  0  0  0  0
 21 48  1  0  0  0  0
 21 49  1  0  0  0  0
 22 23  1  0  0  0  0
 22 50  1  0  0  0  0
 22 51  1  0  0  0  0
 23 52  1  0  0  0  0
 23 53  1  0  0  0  0
M  CHG  1  14   1
M  CHG  1  18   1
M  END
> <s_m_source_file>
AV-unprocessed.smi

> <i_m_source_file_index>
2237

> <i_lp_mmshare_version>
43012

> <i_f3d_flags>
0

> <s_epik_input>
W0NIM11jMVtjSF1bY0hdW2NIXWMobjEpW05IXUMoPU8pW05IXVtDSF0yW0NIMl1bQ0gyXU4oW0NIMl1bQ0gyXTIpW0NIXTNbQ0gyXVtDSDJdTihbQ0gzXSlbQ0gyXVtDSDJdMw==

> <s_epik_cmdline>
J2VwaWtfcHl0aG9uJywgJy1waCcsICc3LjAnLCAnLXRuJywgJzgnLCAnLW1hJywgJzIwMCcsICctbWV0YWxfYmluZGluZycsICctaW1hZScsICc8aW5maWxlLm1hZT4nLCAnLW9tYWUnLCAnPG91dGZpbGUubWFlPic=

> <r_epik_Ionization_Penalty>
0.180851

> <r_epik_Ionization_Penalty_Charging>
0.180787

> <r_epik_Ionization_Penalty_Neutral>
6.38624e-05

> <r_epik_State_Penalty>
0.153592

> <r_epik_Charging_Adjusted_Penalty>
0.334379

> <i_epik_Tot_Q>
2

> <i_epik_Tot_abs_Q>
2

> <r_epik_Metal_State_Penalty>
0.153595

> <b_epik_Metal_Only>
0

> <s_lp_Force_Field>
OPLS_2005

> <r_lp_Energy>
48.731

> <b_lp_Chiralities_Consistent>
1

> <s_lp_Variant>
AV-unprocessed.smi:2237-4

> <Gold.Version>
5.8.1

> <Gold.Id.Protein>
6NUR|6NUR_protein|mol2

> <Gold.PLP.Fitness>
39.6574

> <Gold.PLP.PLP>
-34.1549

> <Gold.PLP.part.hbond>
-1.0000

> <Gold.PLP.part.metal>
0.0000

> <Gold.PLP.part.buried>
-3.0497

> <Gold.PLP.part.nonpolar>
-30.4055

> <Gold.PLP.part.repulsive>
0.8407

> <Gold.PLP.ligand.clash>
0.0000

> <Gold.PLP.ligand.torsion>
0.2723

> <Gold.PLP.Chemscore.Hbond>
2.0000

> <Gold.PLP.Chemscore.CHOScore>
0.0000

> <Gold.PLP.Chemscore.Metal>
0.0000

> <Gold.Chemscore.Hbonds>
donor molecule, donor type, donor heavy atom, donor atom, acceptor molecule, acceptor atom, score
      L1  H    14    54       P1 10175  2.00

> <Gold.PLP.Chemscore.Internal.Correction>
0.0472

> <Gold.Rescore>
     Score         DG    S(hbond)    S(metal)    S(lipo)     H(rot)  DE(clash)    DE(int)     intcor
     13.17     -16.20       0.97        0.00      90.92       1.23       0.19       2.83       ----

> <Gold.Chemscore.Fitness>
13.1732

> <Gold.Chemscore.DG>
-16.2014

> <Gold.Chemscore.ZeroCoef>
-5.4800

> <Gold.Chemscore.Hbond>
0.9675

> <Gold.Chemscore.Metal>
0.0000

> <Gold.Chemscore.Lipo>
90.9180

> <Gold.Chemscore.Internal_Hbond>
0.0000

> <Gold.Chemscore.DEClash>
0.1934

> <Gold.Chemscore.DEInternal>
2.8348

> <Gold.Chemscore.Rot>
1.2295

> <Gold.Chemscore.Internal.Correction>
   9.000000E+99

> <Gold.Chemscore.Hbonds>
donor molecule, donor type, donor heavy atom, donor atom, acceptor molecule, acceptor atom, score
      L1  H    14    54       P1 10175  0.99

> <Gold.Chemscore.Hbond.Weighted>
-3.2315

> <Gold.Chemscore.Metal.Weighted>
-0.0000

> <Gold.Chemscore.Lipo.Weighted>
-10.6374

> <Gold.Chemscore.Internal_Hbond.Weighted>
0.0000

> <Gold.Chemscore.DEClash.Weighted>
0.1934

> <Gold.Chemscore.DEInternal.Weighted>
2.8348

> <Gold.Chemscore.Rot.Weighted>
3.1474

> <Gold.Chemscore.Internal.Correction.Weighted>
   9.000000E+99

> <Gold.Protein.RotatedTorsions>
[ 6907 6896 6895 6894 ] final   89.65 input  -60.11 | X-H torsion
[ 7974 7965 7964 7962 ] final  112.74 input  175.53 | X-H torsion
[ 8008 7997 7996 7995 ] final -136.24 input   59.86 | X-H torsion
[ 10167 10162 10161 10158 ] final  -50.42 input  -65.29 | X-H torsion
[ 10718 10713 10712 10709 ] final  160.52 input   66.30 | X-H torsion
[ 10763 10752 10751 10750 ] final -131.00 input  -60.55 | X-H torsion
[ 11005 11000 10999 10996 ] final  155.87 input  -57.11 | X-H torsion

> <Gold.Protein.ActiveResidues>
 VAL166  LYS551  ARG553  GLY616  TRP617  ASP618  TYR619  PRO620  LYS621  CYS622 
 ASP623  PHE694  ASN695  SER759  ASP760  ASP761  ALA762  ILE779  LEU786  VAL792 
 PHE793  MET794  SER795  GLU796  ALA797  LYS798  CYS799  TRP800  GLU811  SER814 

> <Gold.Protein.RotatedAtoms>
  152.5438  134.1933  159.8682 H   0  0  0  0  0  0  0  0  0  0  0  0  # atno 6907 bound_to 6896
  151.1927  133.4651  159.2602 H   0  0  0  0  0  0  0  0  0  0  0  0  # atno 6908 bound_to 6896
  151.1067  135.0016  159.8530 H   0  0  0  0  0  0  0  0  0  0  0  0  # atno 6909 bound_to 6896
  145.2257  139.2842  143.4194 H   0  0  0  0  0  0  0  0  0  0  0  0  # atno 7974 bound_to 7965
  155.3920  140.0500  157.3040 H   0  0  0  0  0  0  0  0  0  0  0  0  # atno 8008 bound_to 7997
  154.5032  140.2164  155.9266 H   0  0  0  0  0  0  0  0  0  0  0  0  # atno 8009 bound_to 7997
  156.1493  140.3139  155.8627 H   0  0  0  0  0  0  0  0  0  0  0  0  # atno 8010 bound_to 7997
  140.6638  143.2658  151.4357 H   0  0  0  0  0  0  0  0  0  0  0  0  # atno 10167 bound_to 10162
  157.1493  131.0560  151.2288 H   0  0  0  0  0  0  0  0  0  0  0  0  # atno 10718 bound_to 10713
  154.8753  135.3844  154.4175 H   0  0  0  0  0  0  0  0  0  0  0  0  # atno 10763 bound_to 10752
  153.4882  135.7030  153.5904 H   0  0  0  0  0  0  0  0  0  0  0  0  # atno 10764 bound_to 10752
  153.4289  135.3883  155.2125 H   0  0  0  0  0  0  0  0  0  0  0  0  # atno 10765 bound_to 10752
  140.1622  134.8601  157.2588 H   0  0  0  0  0  0  0  0  0  0  0  0  # atno 11005 bound_to 11000
  146.3365  140.2577  142.8601 LP  0  0  0  0  0  0  0  0  0  0  0  0  # atno 17320 bound_to 7965
  144.9723  140.8381  143.5447 LP  0  0  0  0  0  0  0  0  0  0  0  0  # atno 17321 bound_to 7965
  139.5880  144.1562  152.2053 LP  0  0  0  0  0  0  0  0  0  0  0  0  # atno 17342 bound_to 10162
  140.0907  144.5623  150.7056 LP  0  0  0  0  0  0  0  0  0  0  0  0  # atno 17343 bound_to 10162
  157.4235  130.7451  149.6932 LP  0  0  0  0  0  0  0  0  0  0  0  0  # atno 17370 bound_to 10713
  155.9773  130.4064  150.3718 LP  0  0  0  0  0  0  0  0  0  0  0  0  # atno 17371 bound_to 10713
  140.2476  134.3721  155.7455 LP  0  0  0  0  0  0  0  0  0  0  0  0  # atno 17394 bound_to 11000
  141.2210  133.7299  156.8886 LP  0  0  0  0  0  0  0  0  0  0  0  0  # atno 17395 bound_to 11000

$$$$
