AV-unprocessed.smi:2299|AV-procd|sdf|9230|dock7
  -GOLD-   2272012453D 1   1.00000     0.00000
 Structure written by MMmdl.
 42 43  0  0  0  0  0  0  0  0  1 V2000
  157.4930  137.7568  165.0695 C   0  0  0  0  0  0  0  0  0  0  0  0
  156.5303  138.8073  164.4962 C   0  0  0  0  0  0  0  0  0  0  0  0
  156.0668  139.8061  165.5670 C   0  0  0  0  0  0  0  0  0  0  0  0
  155.3628  138.1636  163.7961 C   0  0  0  0  0  0  0  0  0  0  0  0
  154.4599  137.4196  164.4307 N   0  0  0  0  0  0  0  0  0  0  0  0
  153.5740  137.0075  163.4452 C   0  0  0  0  0  0  0  0  0  0  0  0
  153.9725  137.5196  162.2361 C   0  0  0  0  0  0  0  0  0  0  0  0
  155.1232  138.2749  162.4702 N   0  0  0  0  0  0  0  0  0  0  0  0
  155.9257  139.0188  161.4964 C   0  0  0  0  0  0  0  0  0  0  0  0
  155.1439  140.0584  160.6874 C   0  0  0  0  0  0  0  0  0  0  0  0
  155.1887  140.0425  159.4576 O   0  0  0  0  0  0  0  0  0  0  0  0
  154.4343  140.9531  161.3930 N   0  0  0  0  0  0  0  0  0  0  0  0
  153.5845  142.0050  160.8342 C   0  0  2  0  0  0  0  0  0  0  0  0
  152.8989  142.7949  161.9714 C   0  0  0  0  0  0  0  0  0  0  0  0
  152.4421  144.2058  161.5663 C   0  0  0  0  0  0  0  0  0  0  0  0
  151.3728  144.2461  160.4645 C   0  0  0  0  0  0  0  0  0  0  0  0
  151.8655  143.7174  159.1067 C   0  0  0  0  0  0  0  0  0  0  0  0
  151.8781  142.2612  159.0432 N   0  0  0  0  0  0  0  0  0  0  0  0
  152.6137  141.4229  159.7893 C   0  0  0  0  0  0  0  0  0  0  0  0
  152.5108  140.2048  159.6445 O   0  0  0  0  0  0  0  0  0  0  0  0
  157.8569  137.0912  164.2862 H   0  0  0  0  0  0  0  0  0  0  0  0
  157.0071  137.1432  165.8289 H   0  0  0  0  0  0  0  0  0  0  0  0
  158.3608  138.2296  165.5303 H   0  0  0  0  0  0  0  0  0  0  0  0
  157.1051  139.3801  163.7706 H   0  0  0  0  0  0  0  0  0  0  0  0
  155.4375  140.5830  165.1314 H   0  0  0  0  0  0  0  0  0  0  0  0
  156.9174  140.2974  166.0401 H   0  0  0  0  0  0  0  0  0  0  0  0
  155.4916  139.3117  166.3506 H   0  0  0  0  0  0  0  0  0  0  0  0
  152.7290  136.3766  163.6782 H   0  0  0  0  0  0  0  0  0  0  0  0
  153.5305  137.4045  161.2573 H   0  0  0  0  0  0  0  0  0  0  0  0
  156.7329  139.5271  162.0254 H   0  0  0  0  0  0  0  0  0  0  0  0
  156.3871  138.3046  160.8130 H   0  0  0  0  0  0  0  0  0  0  0  0
  154.4531  140.8822  162.4005 H   0  0  0  0  0  0  0  0  0  0  0  0
  154.2413  142.6861  160.2895 H   0  0  0  0  0  0  0  0  0  0  0  0
  152.0547  142.2274  162.3659 H   0  0  0  0  0  0  0  0  0  0  0  0
  153.5925  142.9077  162.8058 H   0  0  0  0  0  0  0  0  0  0  0  0
  152.0470  144.7075  162.4503 H   0  0  0  0  0  0  0  0  0  0  0  0
  153.3074  144.7925  161.2554 H   0  0  0  0  0  0  0  0  0  0  0  0
  150.4793  143.7062  160.7815 H   0  0  0  0  0  0  0  0  0  0  0  0
  151.0636  145.2838  160.3352 H   0  0  0  0  0  0  0  0  0  0  0  0
  151.1903  144.0634  158.3237 H   0  0  0  0  0  0  0  0  0  0  0  0
  152.8495  144.1189  158.8601 H   0  0  0  0  0  0  0  0  0  0  0  0
  151.2556  141.8424  158.3673 H   0  0  0  0  0  0  0  0  0  0  0  0
  1  2  1  0  0  0  0
  1 21  1  0  0  0  0
  1 22  1  0  0  0  0
  1 23  1  0  0  0  0
  2  3  1  0  0  0  0
  2  4  1  0  0  0  0
  2 24  1  0  0  0  0
  3 25  1  0  0  0  0
  3 26  1  0  0  0  0
  3 27  1  0  0  0  0
  4  8  1  0  0  0  0
  4  5  2  0  0  0  0
  5  6  1  0  0  0  0
  6  7  2  0  0  0  0
  6 28  1  0  0  0  0
  7  8  1  0  0  0  0
  7 29  1  0  0  0  0
  8  9  1  0  0  0  0
  9 10  1  0  0  0  0
  9 30  1  0  0  0  0
  9 31  1  0  0  0  0
 10 11  2  0  0  0  0
 10 12  1  0  0  0  0
 12 13  1  0  0  0  0
 12 32  1  0  0  0  0
 13 19  1  0  0  0  0
 13 14  1  0  0  0  0
 13 33  1  0  0  0  0
 14 15  1  0  0  0  0
 14 34  1  0  0  0  0
 14 35  1  0  0  0  0
 15 16  1  0  0  0  0
 15 36  1  0  0  0  0
 15 37  1  0  0  0  0
 16 17  1  0  0  0  0
 16 38  1  0  0  0  0
 16 39  1  0  0  0  0
 17 18  1  0  0  0  0
 17 40  1  0  0  0  0
 17 41  1  0  0  0  0
 18 19  1  0  0  0  0
 18 42  1  0  0  0  0
 19 20  2  0  0  0  0
M  END
> <s_m_source_file>
AV-unprocessed.smi

> <i_m_source_file_index>
2299

> <i_lp_mmshare_version>
43012

> <i_f3d_flags>
0

> <s_epik_input>
W0NIM11bQ0hdKFtDSDNdKWMxbltjSF1bY0hdbjFbQ0gyXUMoPU8pW05IXVtDQEBIXTJbQ0gyXVtDSDJdW0NIMl1bQ0gyXVtOSF1DMj1P

> <s_epik_cmdline>
J2VwaWtfcHl0aG9uJywgJy1waCcsICc3LjAnLCAnLXRuJywgJzgnLCAnLW1hJywgJzIwMCcsICctbWV0YWxfYmluZGluZycsICctaW1hZScsICc8aW5maWxlLm1hZT4nLCAnLW9tYWUnLCAnPG91dGZpbGUubWFlPic=

> <r_lp_tautomer_probability>
1

> <r_epik_Ionization_Penalty>
0.557868

> <r_epik_Ionization_Penalty_Charging>
0.557868

> <r_epik_Ionization_Penalty_Neutral>
1.99744e-07

> <r_epik_State_Penalty>
0.568774

> <r_epik_Charging_Adjusted_Penalty>
1.12664

> <i_epik_Tot_Q>
0

> <i_epik_Tot_abs_Q>
0

> <r_epik_Metal_State_Penalty>
0.289303

> <b_epik_Metal_Only>
0

> <s_lp_Force_Field>
OPLS_2005

> <r_lp_Energy>
12.6328

> <b_lp_Chiralities_Consistent>
1

> <s_lp_Variant>
AV-unprocessed.smi:2299-3

> <Gold.Version>
5.8.1

> <Gold.Id.Protein>
6NUR|6NUR_protein|mol2

> <Gold.PLP.Fitness>
42.7845

> <Gold.PLP.PLP>
-40.6333

> <Gold.PLP.part.hbond>
-1.2819

> <Gold.PLP.part.metal>
0.0000

> <Gold.PLP.part.buried>
-6.8130

> <Gold.PLP.part.nonpolar>
-32.9092

> <Gold.PLP.part.repulsive>
0.1366

> <Gold.PLP.ligand.clash>
0.0000

> <Gold.PLP.ligand.torsion>
0.1299

> <Gold.PLP.Chemscore.Hbond>
0.7800

> <Gold.PLP.Chemscore.CHOScore>
0.0000

> <Gold.PLP.Chemscore.Metal>
0.0000

> <Gold.Chemscore.Hbonds>
donor molecule, donor type, donor heavy atom, donor atom, acceptor molecule, acceptor atom, score
      P1  H  7997  8010       L1    11  0.84

> <Gold.PLP.Chemscore.Internal.Correction>
0.0710

> <Gold.Rescore>
     Score         DG    S(hbond)    S(metal)    S(lipo)     H(rot)  DE(clash)    DE(int)     intcor
     13.25     -14.57       1.00        0.00      86.42       1.70       0.23       1.08       ----

> <Gold.Chemscore.Fitness>
13.2542

> <Gold.Chemscore.DG>
-14.5736

> <Gold.Chemscore.ZeroCoef>
-5.4800

> <Gold.Chemscore.Hbond>
0.9985

> <Gold.Chemscore.Metal>
0.0000

> <Gold.Chemscore.Lipo>
86.4232

> <Gold.Chemscore.Internal_Hbond>
0.0000

> <Gold.Chemscore.DEClash>
0.2349

> <Gold.Chemscore.DEInternal>
1.0846

> <Gold.Chemscore.Rot>
1.7004

> <Gold.Chemscore.Internal.Correction>
   9.000000E+99

> <Gold.Chemscore.Hbonds>
donor molecule, donor type, donor heavy atom, donor atom, acceptor molecule, acceptor atom, score
      P1  H  7997  8010       L1    11  0.80

> <Gold.Chemscore.Hbond.Weighted>
-3.3351

> <Gold.Chemscore.Metal.Weighted>
-0.0000

> <Gold.Chemscore.Lipo.Weighted>
-10.1115

> <Gold.Chemscore.Internal_Hbond.Weighted>
0.0000

> <Gold.Chemscore.DEClash.Weighted>
0.2349

> <Gold.Chemscore.DEInternal.Weighted>
1.0846

> <Gold.Chemscore.Rot.Weighted>
4.3530

> <Gold.Chemscore.Internal.Correction.Weighted>
   9.000000E+99

> <Gold.Protein.RotatedTorsions>
[ 6907 6896 6895 6894 ] final   88.70 input  -60.11 | X-H torsion
[ 7974 7965 7964 7962 ] final -131.91 input  175.53 | X-H torsion
[ 8008 7997 7996 7995 ] final  -13.68 input   59.86 | X-H torsion
[ 10167 10162 10161 10158 ] final -150.24 input  -65.29 | X-H torsion
[ 10718 10713 10712 10709 ] final   51.86 input   66.30 | X-H torsion
[ 10763 10752 10751 10750 ] final  -36.92 input  -60.55 | X-H torsion
[ 11005 11000 10999 10996 ] final   46.51 input  -57.11 | X-H torsion

> <Gold.Protein.ActiveResidues>
 VAL166  LYS551  ARG553  GLY616  TRP617  ASP618  TYR619  PRO620  LYS621  CYS622 
 ASP623  PHE694  ASN695  SER759  ASP760  ASP761  ALA762  ILE779  LEU786  VAL792 
 PHE793  MET794  SER795  GLU796  ALA797  LYS798  CYS799  TRP800  GLU811  SER814 

> <Gold.Protein.RotatedAtoms>
  152.5428  134.2080  159.8738 H   0  0  0  0  0  0  0  0  0  0  0  0  # atno 6907 bound_to 6896
  151.2065  133.4574  159.2605 H   0  0  0  0  0  0  0  0  0  0  0  0  # atno 6908 bound_to 6896
  151.0938  134.9945  159.8471 H   0  0  0  0  0  0  0  0  0  0  0  0  # atno 6909 bound_to 6896
  144.9335  140.7156  143.4891 H   0  0  0  0  0  0  0  0  0  0  0  0  # atno 7974 bound_to 7965
  154.5273  140.2243  155.8868 H   0  0  0  0  0  0  0  0  0  0  0  0  # atno 8008 bound_to 7997
  156.1726  140.3118  155.8966 H   0  0  0  0  0  0  0  0  0  0  0  0  # atno 8009 bound_to 7997
  155.3526  140.0456  157.3037 H   0  0  0  0  0  0  0  0  0  0  0  0  # atno 8010 bound_to 7997
  139.7371  143.8718  152.2552 H   0  0  0  0  0  0  0  0  0  0  0  0  # atno 10167 bound_to 10162
  157.5020  130.8444  149.8329 H   0  0  0  0  0  0  0  0  0  0  0  0  # atno 10718 bound_to 10713
  153.8877  135.6815  153.4762 H   0  0  0  0  0  0  0  0  0  0  0  0  # atno 10763 bound_to 10752
  153.1198  135.4745  154.9174 H   0  0  0  0  0  0  0  0  0  0  0  0  # atno 10764 bound_to 10752
  154.7638  135.3218  154.8280 H   0  0  0  0  0  0  0  0  0  0  0  0  # atno 10765 bound_to 10752
  140.1362  134.4641  155.8483 H   0  0  0  0  0  0  0  0  0  0  0  0  # atno 11005 bound_to 11000
  145.3104  139.1820  143.4641 LP  0  0  0  0  0  0  0  0  0  0  0  0  # atno 17320 bound_to 7965
  146.3257  140.3108  142.8626 LP  0  0  0  0  0  0  0  0  0  0  0  0  # atno 17321 bound_to 7965
  139.8658  144.7094  150.9045 LP  0  0  0  0  0  0  0  0  0  0  0  0  # atno 17342 bound_to 10162
  140.7780  143.3779  151.1530 LP  0  0  0  0  0  0  0  0  0  0  0  0  # atno 17343 bound_to 10162
  156.0235  130.3787  150.1891 LP  0  0  0  0  0  0  0  0  0  0  0  0  # atno 17370 bound_to 10713
  157.0081  130.9942  151.3373 LP  0  0  0  0  0  0  0  0  0  0  0  0  # atno 17371 bound_to 10713
  141.2178  133.6815  156.7162 LP  0  0  0  0  0  0  0  0  0  0  0  0  # atno 17394 bound_to 11000
  140.2779  134.8340  157.3907 LP  0  0  0  0  0  0  0  0  0  0  0  0  # atno 17395 bound_to 11000

$$$$
