AV-unprocessed.smi:2391|AV-procd|sdf|9481|dock5
  -GOLD-   2272013113D 1   1.00000     0.00000
 Structure written by MMmdl.
 35 36  0  0  0  0  0  0  0  0  1 V2000
  146.0507  128.4218  152.5770 O   0  0  0  0  0  0  0  0  0  0  0  0
  146.9326  128.9721  151.9174 C   0  0  0  0  0  0  0  0  0  0  0  0
  147.9171  128.3379  151.2568 N   0  0  0  0  0  0  0  0  0  0  0  0
  148.1550  126.9408  151.1690 C   0  0  0  0  0  0  0  0  0  0  0  0
  148.8540  126.5178  150.0181 C   0  0  0  0  0  0  0  0  0  0  0  0
  149.1221  125.1466  149.8668 C   0  0  0  0  0  0  0  0  0  0  0  0
  148.6708  124.2870  150.8828 C   0  0  0  0  0  0  0  0  0  0  0  0
  148.0051  124.7359  151.9689 N   0  0  0  0  0  0  0  0  0  0  0  0
  147.7532  126.0424  152.1059 N   0  0  0  0  0  0  0  0  0  0  0  0
  147.0293  130.3012  151.7667 N   0  0  0  0  0  0  0  0  0  0  0  0
  146.1413  131.3045  152.3587 C   0  0  2  0  0  0  0  0  0  0  0  0
  145.7406  132.3364  151.2730 C   0  0  0  0  0  0  0  0  0  0  0  0
  144.6796  133.3573  151.6994 C   0  0  0  0  0  0  0  0  0  0  0  0
  144.1252  133.9261  150.3905 C   0  0  0  0  0  0  0  0  0  0  0  0
  144.3387  132.8391  149.3285 C   0  0  0  0  0  0  0  0  0  0  0  0
  145.1166  131.7113  150.0165 C   0  0  0  0  0  0  0  0  0  0  0  0
  146.8432  131.9235  153.5890 C   0  0  0  0  0  0  0  0  0  0  0  0
  145.9477  132.5540  154.3501 F   0  0  0  0  0  0  0  0  0  0  0  0
  147.4312  130.9752  154.3195 F   0  0  0  0  0  0  0  0  0  0  0  0
  147.7601  132.8166  153.2192 F   0  0  0  0  0  0  0  0  0  0  0  0
  148.5721  128.9217  150.7583 H   0  0  0  0  0  0  0  0  0  0  0  0
  149.1779  127.2243  149.2675 H   0  0  0  0  0  0  0  0  0  0  0  0
  149.6528  124.7682  149.0058 H   0  0  0  0  0  0  0  0  0  0  0  0
  148.8452  123.2228  150.8248 H   0  0  0  0  0  0  0  0  0  0  0  0
  147.7900  130.6568  151.2066 H   0  0  0  0  0  0  0  0  0  0  0  0
  145.2288  130.8229  152.7146 H   0  0  0  0  0  0  0  0  0  0  0  0
  146.6301  132.8877  150.9634 H   0  0  0  0  0  0  0  0  0  0  0  0
  143.8796  132.8576  152.2478 H   0  0  0  0  0  0  0  0  0  0  0  0
  145.0825  134.1425  152.3395 H   0  0  0  0  0  0  0  0  0  0  0  0
  143.0767  134.2101  150.4855 H   0  0  0  0  0  0  0  0  0  0  0  0
  144.6814  134.8223  150.1122 H   0  0  0  0  0  0  0  0  0  0  0  0
  143.3915  132.4734  148.9303 H   0  0  0  0  0  0  0  0  0  0  0  0
  144.9092  133.2428  148.4913 H   0  0  0  0  0  0  0  0  0  0  0  0
  145.8619  131.2660  149.3568 H   0  0  0  0  0  0  0  0  0  0  0  0
  144.4221  130.9203  150.3042 H   0  0  0  0  0  0  0  0  0  0  0  0
  1  2  2  0  0  0  0
  2  3  1  0  0  0  0
  2 10  1  0  0  0  0
  3  4  1  0  0  0  0
  3 21  1  0  0  0  0
  4  9  1  0  0  0  0
  4  5  2  0  0  0  0
  5  6  1  0  0  0  0
  5 22  1  0  0  0  0
  6  7  2  0  0  0  0
  6 23  1  0  0  0  0
  7  8  1  0  0  0  0
  7 24  1  0  0  0  0
  8  9  2  0  0  0  0
 10 11  1  0  0  0  0
 10 25  1  0  0  0  0
 11 12  1  0  0  0  0
 11 17  1  0  0  0  0
 11 26  1  0  0  0  0
 12 16  1  0  0  0  0
 12 13  1  0  0  0  0
 12 27  1  0  0  0  0
 13 14  1  0  0  0  0
 13 28  1  0  0  0  0
 13 29  1  0  0  0  0
 14 15  1  0  0  0  0
 14 30  1  0  0  0  0
 14 31  1  0  0  0  0
 15 16  1  0  0  0  0
 15 32  1  0  0  0  0
 15 33  1  0  0  0  0
 16 34  1  0  0  0  0
 16 35  1  0  0  0  0
 17 18  1  0  0  0  0
 17 19  1  0  0  0  0
 17 20  1  0  0  0  0
M  END
> <s_m_source_file>
AV-unprocessed.smi

> <i_m_source_file_index>
2391

> <i_lp_mmshare_version>
43012

> <i_f3d_flags>
0

> <s_epik_input>
W0NIMl0xW0NIMl1bQ0gyXVtDSDJdW0NIXTFbQ0BIXShDKEYpKEYpRilbTkhdQyg9TylbTkhdYzJbY0hdW2NIXVtjSF1ubjI=

> <s_epik_cmdline>
J2VwaWtfcHl0aG9uJywgJy1waCcsICc3LjAnLCAnLXRuJywgJzgnLCAnLW1hJywgJzIwMCcsICctbWV0YWxfYmluZGluZycsICctaW1hZScsICc8aW5maWxlLm1hZT4nLCAnLW9tYWUnLCAnPG91dGZpbGUubWFlPic=

> <r_lp_tautomer_probability>
1

> <r_epik_Ionization_Penalty>
0.00359591

> <r_epik_Ionization_Penalty_Charging>
0

> <r_epik_Ionization_Penalty_Neutral>
0.00359591

> <r_epik_State_Penalty>
0.0123658

> <r_epik_Charging_Adjusted_Penalty>
0.0123658

> <i_epik_Tot_Q>
0

> <i_epik_Tot_abs_Q>
0

> <r_epik_Metal_State_Penalty>
0.0410426

> <b_epik_Metal_Only>
0

> <s_lp_Force_Field>
OPLS_2005

> <r_lp_Energy>
31.4517

> <b_lp_Chiralities_Consistent>
1

> <s_lp_Variant>
AV-unprocessed.smi:2391-1

> <Gold.Version>
5.8.1

> <Gold.Id.Protein>
6NUR|6NUR_protein|mol2

> <Gold.PLP.Fitness>
42.4125

> <Gold.PLP.PLP>
-39.4990

> <Gold.PLP.part.hbond>
-3.8584

> <Gold.PLP.part.metal>
0.0000

> <Gold.PLP.part.buried>
-6.5582

> <Gold.PLP.part.nonpolar>
-30.2569

> <Gold.PLP.part.repulsive>
0.2773

> <Gold.PLP.ligand.clash>
0.0000

> <Gold.PLP.ligand.torsion>
0.7537

> <Gold.PLP.Chemscore.Hbond>
1.3648

> <Gold.PLP.Chemscore.CHOScore>
0.0000

> <Gold.PLP.Chemscore.Metal>
0.0000

> <Gold.Chemscore.Hbonds>
donor molecule, donor type, donor heavy atom, donor atom, acceptor molecule, acceptor atom, score
      L1  H     3    21       P1 10747  0.22
      L1  H    10    25       P1 10747  0.96

> <Gold.PLP.Chemscore.Internal.Correction>
0.3265

> <Gold.Rescore>
     Score         DG    S(hbond)    S(metal)    S(lipo)     H(rot)  DE(clash)    DE(int)     intcor
     11.93     -13.66       0.98        0.00      71.04       1.33       0.03       1.70       ----

> <Gold.Chemscore.Fitness>
11.9281

> <Gold.Chemscore.DG>
-13.6565

> <Gold.Chemscore.ZeroCoef>
-5.4800

> <Gold.Chemscore.Hbond>
0.9792

> <Gold.Chemscore.Metal>
0.0000

> <Gold.Chemscore.Lipo>
71.0396

> <Gold.Chemscore.Internal_Hbond>
0.0000

> <Gold.Chemscore.DEClash>
0.0270

> <Gold.Chemscore.DEInternal>
1.7015

> <Gold.Chemscore.Rot>
1.3304

> <Gold.Chemscore.Internal.Correction>
   9.000000E+99

> <Gold.Chemscore.Hbonds>
donor molecule, donor type, donor heavy atom, donor atom, acceptor molecule, acceptor atom, score
      L1  H    10    25       P1 10747  0.91

> <Gold.Chemscore.Hbond.Weighted>
-3.2706

> <Gold.Chemscore.Metal.Weighted>
-0.0000

> <Gold.Chemscore.Lipo.Weighted>
-8.3116

> <Gold.Chemscore.Internal_Hbond.Weighted>
0.0000

> <Gold.Chemscore.DEClash.Weighted>
0.0270

> <Gold.Chemscore.DEInternal.Weighted>
1.7015

> <Gold.Chemscore.Rot.Weighted>
3.4057

> <Gold.Chemscore.Internal.Correction.Weighted>
   9.000000E+99

> <Gold.Protein.RotatedTorsions>
[ 6907 6896 6895 6894 ] final  -96.59 input  -60.11 | X-H torsion
[ 7974 7965 7964 7962 ] final  123.22 input  175.53 | X-H torsion
[ 8008 7997 7996 7995 ] final   -8.52 input   59.86 | X-H torsion
[ 10167 10162 10161 10158 ] final -170.41 input  -65.29 | X-H torsion
[ 10718 10713 10712 10709 ] final  -65.80 input   66.30 | X-H torsion
[ 10763 10752 10751 10750 ] final  154.75 input  -60.55 | X-H torsion
[ 11005 11000 10999 10996 ] final  135.94 input  -57.11 | X-H torsion

> <Gold.Protein.ActiveResidues>
 VAL166  LYS551  ARG553  GLY616  TRP617  ASP618  TYR619  PRO620  LYS621  CYS622 
 ASP623  PHE694  ASN695  SER759  ASP760  ASP761  ALA762  ILE779  LEU786  VAL792 
 PHE793  MET794  SER795  GLU796  ALA797  LYS798  CYS799  TRP800  GLU811  SER814 

> <Gold.Protein.RotatedAtoms>
  150.6993  134.1480  159.4129 H   0  0  0  0  0  0  0  0  0  0  0  0  # atno 6907 bound_to 6896
  151.9463  135.0188  160.0548 H   0  0  0  0  0  0  0  0  0  0  0  0  # atno 6908 bound_to 6896
  152.2050  133.4833  159.5116 H   0  0  0  0  0  0  0  0  0  0  0  0  # atno 6909 bound_to 6896
  145.0985  139.3536  143.4824 H   0  0  0  0  0  0  0  0  0  0  0  0  # atno 7974 bound_to 7965
  154.5733  140.2379  155.8159 H   0  0  0  0  0  0  0  0  0  0  0  0  # atno 8008 bound_to 7997
  156.2124  140.3022  155.9719 H   0  0  0  0  0  0  0  0  0  0  0  0  # atno 8009 bound_to 7997
  155.2672  140.0417  157.2994 H   0  0  0  0  0  0  0  0  0  0  0  0  # atno 8010 bound_to 7997
  139.5863  144.1311  152.1579 H   0  0  0  0  0  0  0  0  0  0  0  0  # atno 10167 bound_to 10162
  156.0648  130.4252  150.1616 H   0  0  0  0  0  0  0  0  0  0  0  0  # atno 10718 bound_to 10713
  154.1574  135.2811  155.3118 H   0  0  0  0  0  0  0  0  0  0  0  0  # atno 10763 bound_to 10752
  154.6172  135.5479  153.7540 H   0  0  0  0  0  0  0  0  0  0  0  0  # atno 10764 bound_to 10752
  153.0202  135.6430  154.1717 H   0  0  0  0  0  0  0  0  0  0  0  0  # atno 10765 bound_to 10752
  140.0013  134.9477  157.0078 H   0  0  0  0  0  0  0  0  0  0  0  0  # atno 11005 bound_to 11000
  146.3530  140.0851  142.8615 LP  0  0  0  0  0  0  0  0  0  0  0  0  # atno 17320 bound_to 7965
  145.0983  140.9329  143.4728 LP  0  0  0  0  0  0  0  0  0  0  0  0  # atno 17321 bound_to 7965
  140.0875  144.5649  150.7078 LP  0  0  0  0  0  0  0  0  0  0  0  0  # atno 17342 bound_to 10162
  140.7134  143.2524  151.4510 LP  0  0  0  0  0  0  0  0  0  0  0  0  # atno 17343 bound_to 10162
  156.9678  130.9825  151.3465 LP  0  0  0  0  0  0  0  0  0  0  0  0  # atno 17370 bound_to 10713
  157.5683  130.8293  149.8357 LP  0  0  0  0  0  0  0  0  0  0  0  0  # atno 17371 bound_to 10713
  140.4723  134.1374  155.7205 LP  0  0  0  0  0  0  0  0  0  0  0  0  # atno 17394 bound_to 11000
  141.1644  133.8732  157.1757 LP  0  0  0  0  0  0  0  0  0  0  0  0  # atno 17395 bound_to 11000

$$$$
