#       Name:                AV-unprocessed.smi:3354
#       Creating user name   scv26
#       Creation time:       Fri Mar 27 19:39:35 2020


#       File generated by GOLD software.
#

@<TRIPOS>MOLECULE
AV-unprocessed.smi:3354
    43    45     1
SMALL
NO_CHARGES


@<TRIPOS>ATOM
      1 ****        -3.6452  -1.7094  -2.4395 C.3            1 S1                 0.0000
      2 ****        -4.4840  -0.5249  -2.0007 C.3            1 S1                 0.0000
      3 ****        -4.5958  -0.1587  -0.5388 C.3            1 S1                 0.0000
      4 ****        -3.8648   0.7636  -1.4947 C.3            1 S1                 0.0000
      5 ****        -2.4381   0.8932  -1.4360 N.am           1 S1                 0.0000
      6 ****        -1.6821   0.5982  -0.2264 C.3            1 S1                 0.0000
      7 ****        -0.3031   1.2492  -0.4349 C.3            1 S1                 0.0000
      8 ****         0.7739   0.3394  -0.0486 N.am           1 S1                 0.0000
      9 ****         1.6670   0.5545   0.9280 C.2            1 S1                 0.0000
     10 ****         1.6794   1.5646   1.6311 O.2            1 S1                 0.0000
     11 ****         2.5178  -0.4802   1.0410 N.am           1 S1                 0.0000
     12 ****         3.6176  -0.6301   1.9289 C.ar           1 S1                 0.0000
     13 ****         4.2876   0.4473   2.5580 C.ar           1 S1                 0.0000
     14 ****         5.3798   0.1687   3.4022 C.ar           1 S1                 0.0000
     15 ****         5.7668  -1.1735   3.5811 C.ar           1 S1                 0.0000
     16 ****         5.1464  -2.2091   2.9776 N.ar           1 S1                 0.0000
     17 ****         4.1006  -1.9342   2.1692 C.ar           1 S1                 0.0000
     18 ****        -0.2413   1.6040  -1.9267 C.3            1 S1                 0.0000
     19 ****        -1.6848   1.4684  -2.3799 C.2            1 S1                 0.0000
     20 ****        -2.0769   1.8641  -3.4767 O.2            1 S1                 0.0000
     21 ****        -2.7957  -1.8610  -1.7734 H              1 S1                 0.0000
     22 ****        -3.2702  -1.5465  -3.4501 H              1 S1                 0.0000
     23 ****        -4.2501  -2.6161  -2.4350 H              1 S1                 0.0000
     24 ****        -5.3881  -0.4006  -2.5938 H              1 S1                 0.0000
     25 ****        -5.5707   0.1646  -0.1800 H              1 S1                 0.0000
     26 ****        -4.0210  -0.7532   0.1681 H              1 S1                 0.0000
     27 ****        -4.3992   1.6767  -1.7526 H              1 S1                 0.0000
     28 ****        -2.1781   0.9967   0.6598 H              1 S1                 0.0000
     29 ****        -1.6041  -0.4840  -0.1117 H              1 S1                 0.0000
     30 ****        -0.2650   2.1773   0.1386 H              1 S1                 0.0000
     31 ****         0.8417  -0.5244  -0.5668 H              1 S1                 0.0000
     32 ****         2.3268  -1.2777   0.4522 H              1 S1                 0.0000
     33 ****         3.9995   1.4750   2.4003 H              1 S1                 0.0000
     34 ****         5.9124   0.9673   3.8974 H              1 S1                 0.0000
     35 ****         6.6009  -1.4214   4.2208 H              1 S1                 0.0000
     36 ****         3.6310  -2.7869   1.7007 H              1 S1                 0.0000
     37 ****         0.1343   2.6142  -2.0929 H              1 S1                 0.0000
     38 ****         0.3753   0.9057  -2.4945 H              1 S1                 0.0000
     39 ****         0.9970   2.2815   1.4883 LP             1 S1                 0.0000
     40 ****         2.3718   1.6683   2.3451 LP             1 S1                 0.0000
     41 ****         5.4516  -3.1500   3.1245 LP             1 S1                 0.0000
     42 ****        -3.0399   1.7670  -3.7283 LP             1 S1                 0.0000
     43 ****        -1.4327   2.2828  -4.1168 LP             1 S1                 0.0000
@<TRIPOS>BOND
    1    1    2 1     
    2    1   21 1     
    3    1   22 1     
    4    1   23 1     
    5    2    4 1     
    6    2    3 1     
    7    2   24 1     
    8    3    4 1     
    9    3   25 1     
   10    3   26 1     
   11    4    5 1     
   12    4   27 1     
   13    5   19 am    
   14    5    6 1     
   15    6    7 1     
   16    6   28 1     
   17    6   29 1     
   18    7    8 1     
   19    7   18 1     
   20    7   30 1     
   21    8    9 am    
   22    8   31 1     
   23    9   10 2     
   24    9   11 am    
   25   11   12 1     
   26   11   32 1     
   27   12   17 ar    
   28   12   13 ar    
   29   13   14 ar    
   30   13   33 1     
   31   14   15 ar    
   32   14   34 1     
   33   15   16 ar    
   34   15   35 1     
   35   16   17 ar    
   36   17   36 1     
   37   18   19 1     
   38   18   37 1     
   39   18   38 1     
   40   19   20 2     
   41   10   39 1     
   42   10   40 1     
   43   16   41 1     
   44   20   42 1     
   45   20   43 1     
@<TRIPOS>SUBSTRUCTURE
      1 S1             1
@<TRIPOS>SET
LONE_PAIRS      STATIC     ATOMS    <user>   **** ""
5 39 40 41 42 43
DONOR_HYDROGENS      STATIC     ATOMS    <user>   **** ""
2 31 32
ATOM$BLUE        STATIC     ATOMS    COLORGROUP SYSTEM
5 39 40 41 42 43
ATOM$RED        STATIC     ATOMS    COLORGROUP SYSTEM
2 31 32
