AV-unprocessed.smi:199|AV-procd|sdf|1562|dock5
  -GOLD-   2262019433D 1   1.00000     0.00000
 Structure written by MMmdl.
 51 55  0  0  0  0  0  0  0  0  1 V2000
  149.8521  138.1049  154.3182 C   0  0  0  0  0  0  0  0  0  0  0  0
  149.3325  139.5478  154.2085 C   0  0  2  0  0  0  0  0  0  0  0  0
  150.2364  140.4551  154.8216 O   0  0  0  0  0  0  0  0  0  0  0  0
  149.5337  141.6692  155.0142 C   0  0  0  0  0  0  0  0  0  0  0  0
  148.1884  141.1987  155.5543 C   0  0  0  0  0  0  0  0  0  0  0  0
  147.9550  139.8566  154.8533 C   0  0  2  0  0  0  0  0  0  0  0  0
  147.6119  138.8974  155.8402 O   0  0  0  0  0  0  0  0  0  0  0  0
  146.7983  139.9278  153.8255 C   0  0  0  0  0  0  0  0  0  0  0  0
  146.6263  138.7010  153.0617 N   0  0  0  0  0  0  0  0  0  0  0  0
  146.7658  138.5504  151.7013 C   0  0  0  0  0  0  0  0  0  0  0  0
  146.5451  137.3465  151.2508 N   0  0  0  0  0  0  0  0  0  0  0  0
  146.2289  136.6046  152.3833 C   0  0  0  0  0  0  0  0  0  0  0  0
  145.8727  135.2443  152.6218 C   0  0  0  0  0  0  0  0  0  0  0  0
  145.7512  134.3021  151.6458 N   0  0  0  0  0  0  0  0  0  0  0  0
  146.8940  133.4843  151.2648 C   0  0  1  0  0  0  0  0  0  0  0  0
  147.0450  132.4809  152.4281 C   0  0  0  0  0  0  0  0  0  0  0  0
  145.5786  132.2765  152.8402 C   0  0  0  0  0  0  0  0  0  0  0  0
  144.8509  133.1701  151.8154 C   0  0  2  0  0  0  0  0  0  0  0  0
  144.8955  132.4827  150.4315 C   0  0  1  0  0  0  0  0  0  0  0  0
  143.8883  133.0649  149.4233 C   0  0  0  0  0  0  0  0  0  0  0  0
  142.8524  132.1391  149.1725 O   0  0  0  0  0  0  0  0  0  0  0  0
  146.3610  132.7432  150.0289 C   0  0  0  0  0  0  0  0  0  0  0  0
  145.6677  134.8749  153.9145 N   0  0  0  0  0  0  0  0  0  0  0  0
  145.7729  135.7673  154.9022 C   0  0  0  0  0  0  0  0  0  0  0  0
  146.0744  137.0634  154.8247 N   0  0  0  0  0  0  0  0  0  0  0  0
  146.2980  137.4421  153.5344 C   0  0  0  0  0  0  0  0  0  0  0  0
  149.1583  137.3998  153.8598 H   0  0  0  0  0  0  0  0  0  0  0  0
  149.9988  137.8085  155.3568 H   0  0  0  0  0  0  0  0  0  0  0  0
  150.8104  138.0015  153.8094 H   0  0  0  0  0  0  0  0  0  0  0  0
  149.3068  139.8245  153.1542 H   0  0  0  0  0  0  0  0  0  0  0  0
  150.0556  142.3341  155.7025 H   0  0  0  0  0  0  0  0  0  0  0  0
  149.4155  142.1829  154.0587 H   0  0  0  0  0  0  0  0  0  0  0  0
  148.2716  141.0687  156.6349 H   0  0  0  0  0  0  0  0  0  0  0  0
  147.3965  141.9271  155.3754 H   0  0  0  0  0  0  0  0  0  0  0  0
  146.8413  139.1988  156.2963 H   0  0  0  0  0  0  0  0  0  0  0  0
  145.8561  140.1536  154.3269 H   0  0  0  0  0  0  0  0  0  0  0  0
  146.9715  140.7457  153.1249 H   0  0  0  0  0  0  0  0  0  0  0  0
  147.0294  139.3687  151.0473 H   0  0  0  0  0  0  0  0  0  0  0  0
  147.8074  134.0402  151.0503 H   0  0  0  0  0  0  0  0  0  0  0  0
  147.5321  131.5546  152.1216 H   0  0  0  0  0  0  0  0  0  0  0  0
  147.6196  132.9085  153.2505 H   0  0  0  0  0  0  0  0  0  0  0  0
  145.2641  131.2335  152.7933 H   0  0  0  0  0  0  0  0  0  0  0  0
  145.4112  132.6342  153.8571 H   0  0  0  0  0  0  0  0  0  0  0  0
  143.8343  133.4137  152.1170 H   0  0  0  0  0  0  0  0  0  0  0  0
  144.7156  131.4106  150.5268 H   0  0  0  0  0  0  0  0  0  0  0  0
  143.4585  133.9975  149.7906 H   0  0  0  0  0  0  0  0  0  0  0  0
  144.3853  133.2867  148.4785 H   0  0  0  0  0  0  0  0  0  0  0  0
  142.0257  132.5954  149.2115 H   0  0  0  0  0  0  0  0  0  0  0  0
  146.4242  133.3826  149.1471 H   0  0  0  0  0  0  0  0  0  0  0  0
  146.9117  131.8261  149.8172 H   0  0  0  0  0  0  0  0  0  0  0  0
  145.5872  135.3884  155.8964 H   0  0  0  0  0  0  0  0  0  0  0  0
  1  2  1  0  0  0  0
  1 27  1  0  0  0  0
  1 28  1  0  0  0  0
  1 29  1  0  0  0  0
  2  6  1  0  0  0  0
  2  3  1  0  0  0  0
  2 30  1  0  0  0  0
  3  4  1  0  0  0  0
  4  5  1  0  0  0  0
  4 31  1  0  0  0  0
  4 32  1  0  0  0  0
  5  6  1  0  0  0  0
  5 33  1  0  0  0  0
  5 34  1  0  0  0  0
  6  7  1  0  0  0  0
  6  8  1  0  0  0  0
  7 35  1  0  0  0  0
  8  9  1  0  0  0  0
  8 36  1  0  0  0  0
  8 37  1  0  0  0  0
  9 26  1  0  0  0  0
  9 10  1  0  0  0  0
 10 11  2  0  0  0  0
 10 38  1  0  0  0  0
 11 12  1  0  0  0  0
 12 26  2  0  0  0  0
 12 13  1  0  0  0  0
 13 14  1  0  0  0  0
 13 23  2  0  0  0  0
 14 18  1  0  0  0  0
 14 15  1  0  0  0  0
 15 22  1  0  0  0  0
 15 16  1  0  0  0  0
 15 39  1  0  0  0  0
 16 17  1  0  0  0  0
 16 40  1  0  0  0  0
 16 41  1  0  0  0  0
 17 18  1  0  0  0  0
 17 42  1  0  0  0  0
 17 43  1  0  0  0  0
 18 19  1  0  0  0  0
 18 44  1  0  0  0  0
 19 20  1  0  0  0  0
 19 22  1  0  0  0  0
 19 45  1  0  0  0  0
 20 21  1  0  0  0  0
 20 46  1  0  0  0  0
 20 47  1  0  0  0  0
 21 48  1  0  0  0  0
 22 49  1  0  0  0  0
 22 50  1  0  0  0  0
 23 24  1  0  0  0  0
 24 25  2  0  0  0  0
 24 51  1  0  0  0  0
 25 26  1  0  0  0  0
M  END
> <s_m_source_file>
AV-unprocessed.smi

> <i_m_source_file_index>
199

> <i_lp_mmshare_version>
43012

> <i_f3d_flags>
0

> <s_epik_input>
W0NIMl0xW0NIMl1PW0NAQEhdKFtDSDNdKVtDQEBdMShbT0hdKVtDSDJdbihbY0hdbjIpYyhjMjMpbltjSF1uYzNOKFtDQEBIXTQ1KVtDQEhdKFtDSDJdW0NIMl00KVtDQEhdKFtDSDJdNSlbQ0gyXVtPSF0=

> <s_epik_cmdline>
J2VwaWtfcHl0aG9uJywgJy1waCcsICc3LjAnLCAnLXRuJywgJzgnLCAnLW1hJywgJzIwMCcsICctbWV0YWxfYmluZGluZycsICctaW1hZScsICc8aW5maWxlLm1hZT4nLCAnLW9tYWUnLCAnPG91dGZpbGUubWFlPic=

> <r_lp_tautomer_probability>
1

> <r_epik_Ionization_Penalty>
0.00583903

> <r_epik_Ionization_Penalty_Charging>
0

> <r_epik_Ionization_Penalty_Neutral>
0.00583903

> <r_epik_State_Penalty>
-0

> <r_epik_Charging_Adjusted_Penalty>
0

> <i_epik_Tot_Q>
0

> <i_epik_Tot_abs_Q>
0

> <r_epik_Metal_State_Penalty>
-0

> <b_epik_Metal_Only>
0

> <s_lp_Force_Field>
OPLS_2005

> <r_lp_Energy>
83.6045

> <b_lp_Chiralities_Consistent>
1

> <s_lp_Variant>
AV-unprocessed.smi:199-3

> <Gold.Version>
5.8.1

> <Gold.Id.Protein>
6NUR|6NUR_protein|mol2

> <Gold.PLP.Fitness>
41.1295

> <Gold.PLP.PLP>
-33.9184

> <Gold.PLP.part.hbond>
-4.5371

> <Gold.PLP.part.metal>
0.0000

> <Gold.PLP.part.buried>
1.4299

> <Gold.PLP.part.nonpolar>
-33.9032

> <Gold.PLP.part.repulsive>
3.3342

> <Gold.PLP.ligand.clash>
0.0000

> <Gold.PLP.ligand.torsion>
1.4244

> <Gold.PLP.Chemscore.Hbond>
2.7944

> <Gold.PLP.Chemscore.CHOScore>
0.5311

> <Gold.PLP.Chemscore.Metal>
0.0000

> <Gold.Chemscore.Hbonds>
donor molecule, donor type, donor heavy atom, donor atom, acceptor molecule, acceptor atom, score
      L1  H    21    48       P1 10186  0.81
      P1  H  7954  7966       L1    11  0.10
      P1  H  7989  7998       L1     3  0.99
      P1  H 10785 10796       L1    21  0.89
      L1  C    10    38       P1  7957  0.55

> <Gold.PLP.Chemscore.Internal.Correction>
0.0835

> <Gold.Rescore>
     Score         DG    S(hbond)    S(metal)    S(lipo)     H(rot)  DE(clash)    DE(int)     intcor
      7.86     -15.83       2.21        0.00      92.55       3.07       3.02       4.95       ----

> <Gold.Chemscore.Fitness>
7.8569

> <Gold.Chemscore.DG>
-15.8295

> <Gold.Chemscore.ZeroCoef>
-5.4800

> <Gold.Chemscore.Hbond>
2.2118

> <Gold.Chemscore.Metal>
0.0000

> <Gold.Chemscore.Lipo>
92.5533

> <Gold.Chemscore.Internal_Hbond>
0.0000

> <Gold.Chemscore.DEClash>
3.0234

> <Gold.Chemscore.DEInternal>
4.9493

> <Gold.Chemscore.Rot>
3.0729

> <Gold.Chemscore.Internal.Correction>
   9.000000E+99

> <Gold.Chemscore.Hbonds>
donor molecule, donor type, donor heavy atom, donor atom, acceptor molecule, acceptor atom, score
      L1  H    21    48       P1 10186  0.75
      P1  H  7989  7998       L1     3  0.28
      P1  H 10785 10796       L1    21  0.86

> <Gold.Chemscore.Hbond.Weighted>
-7.3875

> <Gold.Chemscore.Metal.Weighted>
-0.0000

> <Gold.Chemscore.Lipo.Weighted>
-10.8287

> <Gold.Chemscore.Internal_Hbond.Weighted>
0.0000

> <Gold.Chemscore.DEClash.Weighted>
3.0234

> <Gold.Chemscore.DEInternal.Weighted>
4.9493

> <Gold.Chemscore.Rot.Weighted>
7.8667

> <Gold.Chemscore.Internal.Correction.Weighted>
   9.000000E+99

> <Gold.Protein.RotatedTorsions>
[ 6907 6896 6895 6894 ] final  123.19 input  -60.11 | X-H torsion
[ 7974 7965 7964 7962 ] final   77.89 input  175.53 | X-H torsion
[ 8008 7997 7996 7995 ] final -176.85 input   59.86 | X-H torsion
[ 10167 10162 10161 10158 ] final   76.78 input  -65.29 | X-H torsion
[ 10718 10713 10712 10709 ] final   16.16 input   66.30 | X-H torsion
[ 10763 10752 10751 10750 ] final  -12.94 input  -60.55 | X-H torsion
[ 11005 11000 10999 10996 ] final  158.28 input  -57.11 | X-H torsion

> <Gold.Protein.ActiveResidues>
 VAL166  LYS551  ARG553  GLY616  TRP617  ASP618  TYR619  PRO620  LYS621  CYS622 
 ASP623  PHE694  ASN695  SER759  ASP760  ASP761  ALA762  ILE779  LEU786  VAL792 
 PHE793  MET794  SER795  GLU796  ALA797  LYS798  CYS799  TRP800  GLU811  SER814 

> <Gold.Protein.RotatedAtoms>
  152.4182  133.7073  159.6458 H   0  0  0  0  0  0  0  0  0  0  0  0  # atno 6907 bound_to 6896
  150.8059  133.8501  159.3211 H   0  0  0  0  0  0  0  0  0  0  0  0  # atno 6908 bound_to 6896
  151.6225  135.1032  160.0156 H   0  0  0  0  0  0  0  0  0  0  0  0  # atno 6909 bound_to 6896
  145.6842  139.2533  143.1797 H   0  0  0  0  0  0  0  0  0  0  0  0  # atno 7974 bound_to 7965
  155.9998  140.1218  157.0558 H   0  0  0  0  0  0  0  0  0  0  0  0  # atno 8008 bound_to 7997
  154.4238  140.1109  156.5750 H   0  0  0  0  0  0  0  0  0  0  0  0  # atno 8009 bound_to 7997
  155.6228  140.3472  155.4660 H   0  0  0  0  0  0  0  0  0  0  0  0  # atno 8010 bound_to 7997
  139.9886  144.5773  150.7837 H   0  0  0  0  0  0  0  0  0  0  0  0  # atno 10167 bound_to 10162
  157.0639  130.6320  149.5791 H   0  0  0  0  0  0  0  0  0  0  0  0  # atno 10718 bound_to 10713
  153.5059  135.7017  153.5807 H   0  0  0  0  0  0  0  0  0  0  0  0  # atno 10763 bound_to 10752
  153.3918  135.3894  155.1928 H   0  0  0  0  0  0  0  0  0  0  0  0  # atno 10764 bound_to 10752
  154.8707  135.3860  154.4534 H   0  0  0  0  0  0  0  0  0  0  0  0  # atno 10765 bound_to 10752
  140.1850  134.8448  157.2847 H   0  0  0  0  0  0  0  0  0  0  0  0  # atno 11005 bound_to 11000
  146.0938  140.7624  142.9582 LP  0  0  0  0  0  0  0  0  0  0  0  0  # atno 17320 bound_to 7965
  144.7016  140.3679  143.7151 LP  0  0  0  0  0  0  0  0  0  0  0  0  # atno 17321 bound_to 7965
  140.7463  143.2888  151.3387 LP  0  0  0  0  0  0  0  0  0  0  0  0  # atno 17342 bound_to 10162
  139.6356  144.0636  152.2513 LP  0  0  0  0  0  0  0  0  0  0  0  0  # atno 17343 bound_to 10162
  155.9970  130.5041  150.7519 LP  0  0  0  0  0  0  0  0  0  0  0  0  # atno 17370 bound_to 10713
  157.4933  131.0912  151.0401 LP  0  0  0  0  0  0  0  0  0  0  0  0  # atno 17371 bound_to 10713
  140.2224  134.4008  155.7560 LP  0  0  0  0  0  0  0  0  0  0  0  0  # atno 17394 bound_to 11000
  141.2224  133.7172  156.8511 LP  0  0  0  0  0  0  0  0  0  0  0  0  # atno 17395 bound_to 11000

$$$$
