AV-unprocessed.smi:3328|AV-procd|sdf|12794|dock7
  -GOLD-   2272019143D 1   1.00000     0.00000
 Structure written by MMmdl.
 40 41  0  0  0  0  0  0  0  0  1 V2000
  145.2112  131.8854  150.6460 C   0  0  0  0  0  0  0  0  0  0  0  0
  144.8639  133.0738  151.4953 C   0  0  0  0  0  0  0  0  0  0  0  0
  143.8744  133.1580  152.5153 C   0  0  0  0  0  0  0  0  0  0  0  0
  143.8187  134.3526  153.0794 N   0  0  0  0  0  0  0  0  0  0  0  0
  144.7621  135.0753  152.4387 N   0  0  0  0  0  0  0  0  0  0  0  0
  144.9857  136.4644  152.8097 C   0  0  0  0  0  0  0  0  0  0  0  0
  143.8423  137.0851  153.6532 C   0  0  1  0  0  0  0  0  0  0  0  0
  144.3554  138.0576  154.7274 C   0  0  0  0  0  0  0  0  0  0  0  0
  142.8819  137.8097  152.8285 N   0  0  0  0  0  0  0  0  0  0  0  0
  141.5737  137.9241  153.4583 C   0  0  0  0  0  0  0  0  0  0  0  0
  140.4806  137.9852  152.3778 C   0  0  0  0  0  0  0  0  0  0  0  0
  139.1492  137.7392  152.9314 N   0  0  0  0  0  0  0  0  0  0  0  0
  138.0596  138.6665  152.6766 C   0  0  0  0  0  0  0  0  0  0  0  0
  136.8156  138.0139  153.2972 C   0  0  0  0  0  0  0  0  0  0  0  0
  137.3195  136.7982  154.0834 C   0  0  0  0  0  0  0  0  0  0  0  0
  138.7897  136.7134  153.7114 C   0  0  0  0  0  0  0  0  0  0  0  0
  139.5225  135.8035  154.0966 O   0  0  0  0  0  0  0  0  0  0  0  0
  145.4143  134.3243  151.4835 C   0  0  0  0  0  0  0  0  0  0  0  0
  144.3305  131.2872  150.4111 H   0  0  0  0  0  0  0  0  0  0  0  0
  145.9224  131.2285  151.1468 H   0  0  0  0  0  0  0  0  0  0  0  0
  145.6593  132.1823  149.6974 H   0  0  0  0  0  0  0  0  0  0  0  0
  143.1996  132.3894  152.8617 H   0  0  0  0  0  0  0  0  0  0  0  0
  145.9455  136.5404  153.3207 H   0  0  0  0  0  0  0  0  0  0  0  0
  145.1027  137.0381  151.8896 H   0  0  0  0  0  0  0  0  0  0  0  0
  143.3137  136.2807  154.1668 H   0  0  0  0  0  0  0  0  0  0  0  0
  145.0887  137.5737  155.3728 H   0  0  0  0  0  0  0  0  0  0  0  0
  143.5402  138.4048  155.3633 H   0  0  0  0  0  0  0  0  0  0  0  0
  144.8271  138.9376  154.2887 H   0  0  0  0  0  0  0  0  0  0  0  0
  143.2334  138.7358  152.6319 H   0  0  0  0  0  0  0  0  0  0  0  0
  141.3823  137.0908  154.1328 H   0  0  0  0  0  0  0  0  0  0  0  0
  141.5512  138.8336  154.0593 H   0  0  0  0  0  0  0  0  0  0  0  0
  140.4857  138.9718  151.9121 H   0  0  0  0  0  0  0  0  0  0  0  0
  140.6922  137.2730  151.5788 H   0  0  0  0  0  0  0  0  0  0  0  0
  138.2774  139.6257  153.1477 H   0  0  0  0  0  0  0  0  0  0  0  0
  137.9314  138.8317  151.6060 H   0  0  0  0  0  0  0  0  0  0  0  0
  136.2802  138.7127  153.9408 H   0  0  0  0  0  0  0  0  0  0  0  0
  136.1252  137.6972  152.5148 H   0  0  0  0  0  0  0  0  0  0  0  0
  137.2190  136.9458  155.1592 H   0  0  0  0  0  0  0  0  0  0  0  0
  136.7938  135.8847  153.8037 H   0  0  0  0  0  0  0  0  0  0  0  0
  146.2057  134.7401  150.8773 H   0  0  0  0  0  0  0  0  0  0  0  0
  1  2  1  0  0  0  0
  1 19  1  0  0  0  0
  1 20  1  0  0  0  0
  1 21  1  0  0  0  0
  2 18  2  0  0  0  0
  2  3  1  0  0  0  0
  3  4  2  0  0  0  0
  3 22  1  0  0  0  0
  4  5  1  0  0  0  0
  5  6  1  0  0  0  0
  5 18  1  0  0  0  0
  6  7  1  0  0  0  0
  6 23  1  0  0  0  0
  6 24  1  0  0  0  0
  7  8  1  0  0  0  0
  7  9  1  0  0  0  0
  7 25  1  0  0  0  0
  8 26  1  0  0  0  0
  8 27  1  0  0  0  0
  8 28  1  0  0  0  0
  9 10  1  0  0  0  0
  9 29  1  0  0  0  0
 10 11  1  0  0  0  0
 10 30  1  0  0  0  0
 10 31  1  0  0  0  0
 11 12  1  0  0  0  0
 11 32  1  0  0  0  0
 11 33  1  0  0  0  0
 12 16  1  0  0  0  0
 12 13  1  0  0  0  0
 13 14  1  0  0  0  0
 13 34  1  0  0  0  0
 13 35  1  0  0  0  0
 14 15  1  0  0  0  0
 14 36  1  0  0  0  0
 14 37  1  0  0  0  0
 15 16  1  0  0  0  0
 15 38  1  0  0  0  0
 15 39  1  0  0  0  0
 16 17  2  0  0  0  0
 18 40  1  0  0  0  0
M  END
> <s_m_source_file>
AV-unprocessed.smi

> <i_m_source_file_index>
3328

> <i_lp_mmshare_version>
43012

> <i_f3d_flags>
0

> <s_epik_input>
W0NIM11jMVtjSF1ubihbY0hdMSlbQ0gyXVtDQEhdKFtDSDNdKVtOSF1bQ0gyXVtDSDJdTjJbQ0gyXVtDSDJdW0NIMl1DMj1P

> <s_epik_cmdline>
J2VwaWtfcHl0aG9uJywgJy1waCcsICc3LjAnLCAnLXRuJywgJzgnLCAnLW1hJywgJzIwMCcsICctbWV0YWxfYmluZGluZycsICctaW1hZScsICc8aW5maWxlLm1hZT4nLCAnLW9tYWUnLCAnPG91dGZpbGUubWFlPic=

> <r_lp_tautomer_probability>
1

> <r_epik_Ionization_Penalty>
2.53591

> <r_epik_Ionization_Penalty_Charging>
0

> <r_epik_Ionization_Penalty_Neutral>
2.53591

> <r_epik_State_Penalty>
2.70334

> <r_epik_Charging_Adjusted_Penalty>
2.70334

> <i_epik_Tot_Q>
0

> <i_epik_Tot_abs_Q>
0

> <r_epik_Metal_State_Penalty>
2.70327

> <b_epik_Metal_Only>
0

> <s_lp_Force_Field>
OPLS_2005

> <r_lp_Energy>
23.1303

> <b_lp_Chiralities_Consistent>
1

> <s_lp_Variant>
AV-unprocessed.smi:3328-4

> <Gold.Version>
5.8.1

> <Gold.Id.Protein>
6NUR|6NUR_protein|mol2

> <Gold.PLP.Fitness>
42.4176

> <Gold.PLP.PLP>
-35.3605

> <Gold.PLP.part.hbond>
-2.6168

> <Gold.PLP.part.metal>
0.0000

> <Gold.PLP.part.buried>
-2.5557

> <Gold.PLP.part.nonpolar>
-30.4243

> <Gold.PLP.part.repulsive>
0.2653

> <Gold.PLP.ligand.clash>
0.0000

> <Gold.PLP.ligand.torsion>
1.2032

> <Gold.PLP.Chemscore.Hbond>
2.0000

> <Gold.PLP.Chemscore.CHOScore>
1.1279

> <Gold.PLP.Chemscore.Metal>
0.0000

> <Gold.Chemscore.Hbonds>
donor molecule, donor type, donor heavy atom, donor atom, acceptor molecule, acceptor atom, score
      L1  H     9    29       P1 10175  1.00
      P1  H 11000 11005       L1    17  0.57
      L1  C     3    22       P1 10957  0.50

> <Gold.PLP.Chemscore.Internal.Correction>
0.0798

> <Gold.Rescore>
     Score         DG    S(hbond)    S(metal)    S(lipo)     H(rot)  DE(clash)    DE(int)     intcor
     12.72     -15.98       2.00        0.00      74.07       1.89       0.48       2.79       ----

> <Gold.Chemscore.Fitness>
12.7188

> <Gold.Chemscore.DG>
-15.9821

> <Gold.Chemscore.ZeroCoef>
-5.4800

> <Gold.Chemscore.Hbond>
1.9998

> <Gold.Chemscore.Metal>
0.0000

> <Gold.Chemscore.Lipo>
74.0692

> <Gold.Chemscore.Internal_Hbond>
0.0000

> <Gold.Chemscore.DEClash>
0.4778

> <Gold.Chemscore.DEInternal>
2.7854

> <Gold.Chemscore.Rot>
1.8920

> <Gold.Chemscore.Internal.Correction>
   9.000000E+99

> <Gold.Chemscore.Hbonds>
donor molecule, donor type, donor heavy atom, donor atom, acceptor molecule, acceptor atom, score
      L1  H     9    29       P1 10175  1.00
      P1  H 11000 11005       L1    17  0.58

> <Gold.Chemscore.Hbond.Weighted>
-6.6794

> <Gold.Chemscore.Metal.Weighted>
-0.0000

> <Gold.Chemscore.Lipo.Weighted>
-8.6661

> <Gold.Chemscore.Internal_Hbond.Weighted>
0.0000

> <Gold.Chemscore.DEClash.Weighted>
0.4778

> <Gold.Chemscore.DEInternal.Weighted>
2.7854

> <Gold.Chemscore.Rot.Weighted>
4.8435

> <Gold.Chemscore.Internal.Correction.Weighted>
   9.000000E+99

> <Gold.Protein.RotatedTorsions>
[ 6907 6896 6895 6894 ] final  -30.84 input  -60.11 | X-H torsion
[ 7974 7965 7964 7962 ] final  137.31 input  175.53 | X-H torsion
[ 8008 7997 7996 7995 ] final  123.59 input   59.86 | X-H torsion
[ 10167 10162 10161 10158 ] final -139.99 input  -65.29 | X-H torsion
[ 10718 10713 10712 10709 ] final    0.99 input   66.30 | X-H torsion
[ 10763 10752 10751 10750 ] final  -98.85 input  -60.55 | X-H torsion
[ 11005 11000 10999 10996 ] final   61.15 input  -57.11 | X-H torsion

> <Gold.Protein.ActiveResidues>
 VAL166  LYS551  ARG553  GLY616  TRP617  ASP618  TYR619  PRO620  LYS621  CYS622 
 ASP623  PHE694  ASN695  SER759  ASP760  ASP761  ALA762  ILE779  LEU786  VAL792 
 PHE793  MET794  SER795  GLU796  ALA797  LYS798  CYS799  TRP800  GLU811  SER814 

> <Gold.Protein.RotatedAtoms>
  151.1002  134.9967  159.8444 H   0  0  0  0  0  0  0  0  0  0  0  0  # atno 6907 bound_to 6896
  152.5436  134.1960  159.8703 H   0  0  0  0  0  0  0  0  0  0  0  0  # atno 6908 bound_to 6896
  151.2002  133.4571  159.2629 H   0  0  0  0  0  0  0  0  0  0  0  0  # atno 6909 bound_to 6896
  144.9480  139.4852  143.5539 H   0  0  0  0  0  0  0  0  0  0  0  0  # atno 7974 bound_to 7965
  156.2771  140.2759  156.1652 H   0  0  0  0  0  0  0  0  0  0  0  0  # atno 8008 bound_to 7997
  155.0712  140.0387  157.2627 H   0  0  0  0  0  0  0  0  0  0  0  0  # atno 8009 bound_to 7997
  154.7038  140.2654  155.6699 H   0  0  0  0  0  0  0  0  0  0  0  0  # atno 8010 bound_to 7997
  139.8325  143.7428  152.2665 H   0  0  0  0  0  0  0  0  0  0  0  0  # atno 10167 bound_to 10162
  156.8416  130.5523  149.5677 H   0  0  0  0  0  0  0  0  0  0  0  0  # atno 10718 bound_to 10713
  154.7449  135.4994  153.9186 H   0  0  0  0  0  0  0  0  0  0  0  0  # atno 10763 bound_to 10752
  153.1081  135.6702  153.9557 H   0  0  0  0  0  0  0  0  0  0  0  0  # atno 10764 bound_to 10752
  153.9324  135.3076  155.3424 H   0  0  0  0  0  0  0  0  0  0  0  0  # atno 10765 bound_to 10752
  140.0181  134.6194  155.9680 H   0  0  0  0  0  0  0  0  0  0  0  0  # atno 11005 bound_to 11000
  146.3310  139.8546  142.8867 LP  0  0  0  0  0  0  0  0  0  0  0  0  # atno 17320 bound_to 7965
  145.2888  141.0161  143.3675 LP  0  0  0  0  0  0  0  0  0  0  0  0  # atno 17321 bound_to 7965
  139.7640  144.7498  151.0322 LP  0  0  0  0  0  0  0  0  0  0  0  0  # atno 17342 bound_to 10162
  140.7805  143.4719  151.0134 LP  0  0  0  0  0  0  0  0  0  0  0  0  # atno 17343 bound_to 10162
  156.0877  130.5871  150.9678 LP  0  0  0  0  0  0  0  0  0  0  0  0  # atno 17370 bound_to 10713
  157.6352  131.0917  150.8362 LP  0  0  0  0  0  0  0  0  0  0  0  0  # atno 17371 bound_to 10713
  141.1756  133.6540  156.4816 LP  0  0  0  0  0  0  0  0  0  0  0  0  # atno 17394 bound_to 11000
  140.4435  134.6994  157.5004 LP  0  0  0  0  0  0  0  0  0  0  0  0  # atno 17395 bound_to 11000

$$$$
