AV-unprocessed.smi:3337|AV-procd|sdf|12867|dock5
  -GOLD-   2272019263D 1   1.00000     0.00000
 Structure written by MMmdl.
 46 47  0  0  0  0  0  0  0  0  2 V2000
  153.7486  141.0017  161.0599 C   0  0  0  0  0  0  0  0  0  0  0  0
  153.2872  141.9946  159.9836 C   0  0  2  0  0  0  0  0  0  0  0  0
  152.8030  143.3136  160.6078 C   0  0  0  0  0  0  0  0  0  0  0  0
  152.3294  144.2870  159.5160 C   0  0  2  0  0  0  0  0  0  0  0  0
  151.8197  145.6026  160.1218 C   0  0  0  0  0  0  0  0  0  0  0  0
  151.2554  143.6189  158.6362 C   0  0  0  0  0  0  0  0  0  0  0  0
  151.7478  142.3483  158.0429 N   0  3  2  0  0  0  0  0  0  0  0  0
  150.7707  141.7707  157.0850 C   0  0  0  0  0  0  0  0  0  0  0  0
  150.6152  142.6170  155.8063 C   0  0  0  0  0  0  0  0  0  0  0  0
  149.4117  142.2477  155.0707 N   0  0  0  0  0  0  0  0  0  0  0  0
  149.2430  141.0951  154.4019 C   0  0  0  0  0  0  0  0  0  0  0  0
  150.1132  140.2254  154.3449 O   0  0  0  0  0  0  0  0  0  0  0  0
  147.8959  140.9123  153.6804 C   0  0  1  0  0  0  0  0  0  0  0  0
  147.4659  139.4353  153.5697 C   0  0  0  0  0  0  0  0  0  0  0  0
  146.8622  141.7319  154.3013 N   0  0  0  0  0  0  0  0  0  0  0  0
  146.2019  142.7887  153.8232 C   0  0  0  0  0  0  0  0  0  0  0  0
  145.3434  143.3210  154.6816 N   0  0  0  0  0  0  0  0  0  0  0  0
  145.5406  142.4887  155.7470 C   0  0  0  0  0  0  0  0  0  0  0  0
  146.4470  141.5264  155.5762 N   0  0  0  0  0  0  0  0  0  0  0  0
  152.1848  141.3892  159.0925 C   0  0  0  0  0  0  0  0  0  0  0  0
  152.9316  140.7365  161.7317 H   0  0  0  0  0  0  0  0  0  0  0  0
  154.5521  141.4233  161.6645 H   0  0  0  0  0  0  0  0  0  0  0  0
  154.1234  140.0811  160.6119 H   0  0  0  0  0  0  0  0  0  0  0  0
  154.1488  142.2156  159.3515 H   0  0  0  0  0  0  0  0  0  0  0  0
  151.9885  143.1155  161.3066 H   0  0  0  0  0  0  0  0  0  0  0  0
  153.6070  143.7682  161.1882 H   0  0  0  0  0  0  0  0  0  0  0  0
  153.1842  144.5270  158.8816 H   0  0  0  0  0  0  0  0  0  0  0  0
  150.9617  145.4338  160.7734 H   0  0  0  0  0  0  0  0  0  0  0  0
  151.5137  146.3020  159.3436 H   0  0  0  0  0  0  0  0  0  0  0  0
  152.5955  146.0889  160.7137 H   0  0  0  0  0  0  0  0  0  0  0  0
  150.3548  143.4209  159.2201 H   0  0  0  0  0  0  0  0  0  0  0  0
  150.9707  144.3060  157.8381 H   0  0  0  0  0  0  0  0  0  0  0  0
  151.0556  140.7464  156.8390 H   0  0  0  0  0  0  0  0  0  0  0  0
  149.7971  141.7091  157.5732 H   0  0  0  0  0  0  0  0  0  0  0  0
  150.5949  143.6809  156.0494 H   0  0  0  0  0  0  0  0  0  0  0  0
  151.4593  142.4677  155.1341 H   0  0  0  0  0  0  0  0  0  0  0  0
  148.6493  142.9101  155.0756 H   0  0  0  0  0  0  0  0  0  0  0  0
  148.0312  141.2847  152.6637 H   0  0  0  0  0  0  0  0  0  0  0  0
  148.2167  138.8433  153.0451 H   0  0  0  0  0  0  0  0  0  0  0  0
  146.5331  139.3437  153.0127 H   0  0  0  0  0  0  0  0  0  0  0  0
  147.3104  138.9803  154.5487 H   0  0  0  0  0  0  0  0  0  0  0  0
  146.3544  143.1792  152.8276 H   0  0  0  0  0  0  0  0  0  0  0  0
  145.0041  142.5993  156.6780 H   0  0  0  0  0  0  0  0  0  0  0  0
  152.5693  140.4798  158.6329 H   0  0  0  0  0  0  0  0  0  0  0  0
  151.3256  141.0965  159.6984 H   0  0  0  0  0  0  0  0  0  0  0  0
  152.5670  142.5897  157.5038 H   0  0  0  0  0  0  0  0  0  0  0  0
  1  2  1  0  0  0  0
  1 21  1  0  0  0  0
  1 22  1  0  0  0  0
  1 23  1  0  0  0  0
  2 20  1  0  0  0  0
  2  3  1  0  0  0  0
  2 24  1  0  0  0  0
  3  4  1  0  0  0  0
  3 25  1  0  0  0  0
  3 26  1  0  0  0  0
  4  5  1  0  0  0  0
  4  6  1  0  0  0  0
  4 27  1  0  0  0  0
  5 28  1  0  0  0  0
  5 29  1  0  0  0  0
  5 30  1  0  0  0  0
  6  7  1  0  0  0  0
  6 31  1  0  0  0  0
  6 32  1  0  0  0  0
  7  8  1  0  0  0  0
  7 20  1  0  0  0  0
  7 46  1  0  0  0  0
  8  9  1  0  0  0  0
  8 33  1  0  0  0  0
  8 34  1  0  0  0  0
  9 10  1  0  0  0  0
  9 35  1  0  0  0  0
  9 36  1  0  0  0  0
 10 11  1  0  0  0  0
 10 37  1  0  0  0  0
 11 12  2  0  0  0  0
 11 13  1  0  0  0  0
 13 14  1  0  0  0  0
 13 15  1  0  0  0  0
 13 38  1  0  0  0  0
 14 39  1  0  0  0  0
 14 40  1  0  0  0  0
 14 41  1  0  0  0  0
 15 19  1  0  0  0  0
 15 16  1  0  0  0  0
 16 17  2  0  0  0  0
 16 42  1  0  0  0  0
 17 18  1  0  0  0  0
 18 19  2  0  0  0  0
 18 43  1  0  0  0  0
 20 44  1  0  0  0  0
 20 45  1  0  0  0  0
M  CHG  1   7   1
M  END
> <s_m_source_file>
AV-unprocessed.smi

> <i_m_source_file_index>
3337

> <i_lp_mmshare_version>
43012

> <i_f3d_flags>
0

> <s_epik_input>
W0NIM11bQ0BASF0xW0NIMl1bQ0BASF0oW0NIM10pW0NIMl1OKFtDSDJdMSlbQ0gyXVtDSDJdW05IXUMoPU8pW0NASF0oW0NIM10pbjJbY0hdbltjSF1uMg==

> <s_epik_cmdline>
J2VwaWtfcHl0aG9uJywgJy1waCcsICc3LjAnLCAnLXRuJywgJzgnLCAnLW1hJywgJzIwMCcsICctbWV0YWxfYmluZGluZycsICctaW1hZScsICc8aW5maWxlLm1hZT4nLCAnLW9tYWUnLCAnPG91dGZpbGUubWFlPic=

> <r_lp_tautomer_probability>
1

> <r_epik_Ionization_Penalty>
0.00175613

> <r_epik_Ionization_Penalty_Charging>
0.00174812

> <r_epik_Ionization_Penalty_Neutral>
8.01354e-06

> <r_epik_State_Penalty>
0.00118332

> <r_epik_Charging_Adjusted_Penalty>
0.00293143

> <i_epik_Tot_Q>
1

> <i_epik_Tot_abs_Q>
1

> <r_epik_Metal_State_Penalty>
-0

> <b_epik_Metal_Only>
0

> <s_lp_Force_Field>
OPLS_2005

> <r_lp_Energy>
22.1533

> <b_lp_Chiralities_Consistent>
1

> <s_lp_Variant>
AV-unprocessed.smi:3337-7

> <Gold.Version>
5.8.1

> <Gold.Id.Protein>
6NUR|6NUR_protein|mol2

> <Gold.PLP.Fitness>
47.7532

> <Gold.PLP.PLP>
-45.1659

> <Gold.PLP.part.hbond>
-2.0000

> <Gold.PLP.part.metal>
0.0000

> <Gold.PLP.part.buried>
-3.7215

> <Gold.PLP.part.nonpolar>
-39.7497

> <Gold.PLP.part.repulsive>
0.7084

> <Gold.PLP.ligand.clash>
0.0000

> <Gold.PLP.ligand.torsion>
0.9415

> <Gold.PLP.Chemscore.Hbond>
1.4400

> <Gold.PLP.Chemscore.CHOScore>
0.0000

> <Gold.PLP.Chemscore.Metal>
0.0000

> <Gold.Chemscore.Hbonds>
donor molecule, donor type, donor heavy atom, donor atom, acceptor molecule, acceptor atom, score
      L1  H    10    37       P1  8028  0.46
      P1  H  7989  7998       L1    12  0.99

> <Gold.PLP.Chemscore.Internal.Correction>
0.1504

> <Gold.Rescore>
     Score         DG    S(hbond)    S(metal)    S(lipo)     H(rot)  DE(clash)    DE(int)     intcor
     13.06     -15.89       1.24        0.00     108.55       2.51       1.89       0.94       ----

> <Gold.Chemscore.Fitness>
13.0609

> <Gold.Chemscore.DG>
-15.8917

> <Gold.Chemscore.ZeroCoef>
-5.4800

> <Gold.Chemscore.Hbond>
1.2408

> <Gold.Chemscore.Metal>
0.0000

> <Gold.Chemscore.Lipo>
108.5506

> <Gold.Chemscore.Internal_Hbond>
0.0000

> <Gold.Chemscore.DEClash>
1.8863

> <Gold.Chemscore.DEInternal>
0.9445

> <Gold.Chemscore.Rot>
2.5129

> <Gold.Chemscore.Internal.Correction>
   9.000000E+99

> <Gold.Chemscore.Hbonds>
donor molecule, donor type, donor heavy atom, donor atom, acceptor molecule, acceptor atom, score
      L1  H    10    37       P1  8028  0.46
      P1  H  7989  7998       L1    12  0.69

> <Gold.Chemscore.Hbond.Weighted>
-4.1443

> <Gold.Chemscore.Metal.Weighted>
-0.0000

> <Gold.Chemscore.Lipo.Weighted>
-12.7004

> <Gold.Chemscore.Internal_Hbond.Weighted>
0.0000

> <Gold.Chemscore.DEClash.Weighted>
1.8863

> <Gold.Chemscore.DEInternal.Weighted>
0.9445

> <Gold.Chemscore.Rot.Weighted>
6.4331

> <Gold.Chemscore.Internal.Correction.Weighted>
   9.000000E+99

> <Gold.Protein.RotatedTorsions>
[ 6907 6896 6895 6894 ] final -170.45 input  -60.11 | X-H torsion
[ 7974 7965 7964 7962 ] final   99.51 input  175.53 | X-H torsion
[ 8008 7997 7996 7995 ] final -144.32 input   59.86 | X-H torsion
[ 10167 10162 10161 10158 ] final    8.40 input  -65.29 | X-H torsion
[ 10718 10713 10712 10709 ] final   -2.90 input   66.30 | X-H torsion
[ 10763 10752 10751 10750 ] final  164.56 input  -60.55 | X-H torsion
[ 11005 11000 10999 10996 ] final   -8.13 input  -57.11 | X-H torsion

> <Gold.Protein.ActiveResidues>
 VAL166  LYS551  ARG553  GLY616  TRP617  ASP618  TYR619  PRO620  LYS621  CYS622 
 ASP623  PHE694  ASN695  SER759  ASP760  ASP761  ALA762  ILE779  LEU786  VAL792 
 PHE793  MET794  SER795  GLU796  ALA797  LYS798  CYS799  TRP800  GLU811  SER814 

> <Gold.Protein.RotatedAtoms>
  151.5080  133.3491  159.2879 H   0  0  0  0  0  0  0  0  0  0  0  0  # atno 6907 bound_to 6896
  150.8730  134.8110  159.7180 H   0  0  0  0  0  0  0  0  0  0  0  0  # atno 6908 bound_to 6896
  152.4712  134.4967  159.9764 H   0  0  0  0  0  0  0  0  0  0  0  0  # atno 6909 bound_to 6896
  145.3978  139.2352  143.3316 H   0  0  0  0  0  0  0  0  0  0  0  0  # atno 7974 bound_to 7965
  155.5251  140.0595  157.2899 H   0  0  0  0  0  0  0  0  0  0  0  0  # atno 8008 bound_to 7997
  154.4504  140.1946  156.0483 H   0  0  0  0  0  0  0  0  0  0  0  0  # atno 8009 bound_to 7997
  156.0692  140.3262  155.7558 H   0  0  0  0  0  0  0  0  0  0  0  0  # atno 8010 bound_to 7997
  140.6316  143.7980  150.7303 H   0  0  0  0  0  0  0  0  0  0  0  0  # atno 10167 bound_to 10162
  156.7840  130.5340  149.5746 H   0  0  0  0  0  0  0  0  0  0  0  0  # atno 10718 bound_to 10713
  154.3108  135.2757  155.2567 H   0  0  0  0  0  0  0  0  0  0  0  0  # atno 10763 bound_to 10752
  154.4963  135.5820  153.6500 H   0  0  0  0  0  0  0  0  0  0  0  0  # atno 10764 bound_to 10752
  152.9888  135.6147  154.3285 H   0  0  0  0  0  0  0  0  0  0  0  0  # atno 10765 bound_to 10752
  140.7202  133.8835  155.8815 H   0  0  0  0  0  0  0  0  0  0  0  0  # atno 11005 bound_to 11000
  146.2766  140.4671  142.8793 LP  0  0  0  0  0  0  0  0  0  0  0  0  # atno 17320 bound_to 7965
  144.8395  140.6834  143.6239 LP  0  0  0  0  0  0  0  0  0  0  0  0  # atno 17321 bound_to 7965
  140.1592  143.4290  152.2078 LP  0  0  0  0  0  0  0  0  0  0  0  0  # atno 17342 bound_to 10162
  139.5530  144.7352  151.4378 LP  0  0  0  0  0  0  0  0  0  0  0  0  # atno 17343 bound_to 10162
  156.1200  130.6103  151.0180 LP  0  0  0  0  0  0  0  0  0  0  0  0  # atno 17370 bound_to 10713
  157.6633  131.0876  150.7788 LP  0  0  0  0  0  0  0  0  0  0  0  0  # atno 17371 bound_to 10713
  141.0010  134.1150  157.4317 LP  0  0  0  0  0  0  0  0  0  0  0  0  # atno 17394 bound_to 11000
  139.8850  135.0068  156.6405 LP  0  0  0  0  0  0  0  0  0  0  0  0  # atno 17395 bound_to 11000

$$$$
