AV-unprocessed.smi:1867|AV-procd|sdf|7560|dock6
  -GOLD-   22720 9273D 1   1.00000     0.00000
 Structure written by MMmdl.
 52 55  0  0  0  0  0  0  0  0  2 V2000
  147.0823  136.3335  155.7650 O   0  0  0  0  0  0  0  0  0  0  0  0
  147.7229  136.2406  154.7204 C   0  0  0  0  0  0  0  0  0  0  0  0
  148.7421  137.0495  154.3704 N   0  0  0  0  0  0  0  0  0  0  0  0
  149.3432  138.0908  155.1268 C   0  0  0  0  0  0  0  0  0  0  0  0
  149.4377  138.0965  156.5375 C   0  0  0  0  0  0  0  0  0  0  0  0
  150.0805  139.1754  157.1738 C   0  0  0  0  0  0  0  0  0  0  0  0
  150.6218  140.2193  156.3863 C   0  0  0  0  0  0  0  0  0  0  0  0
  151.2671  141.3212  156.9822 N   0  0  0  0  0  0  0  0  0  0  0  0
  150.9886  142.6928  156.5886 C   0  0  0  0  0  0  0  0  0  0  0  0
  151.7980  143.5497  157.5618 C   0  0  0  0  0  0  0  0  0  0  0  0
  151.8189  142.7065  158.8367 C   0  0  0  0  0  0  0  0  0  0  0  0
  151.8284  141.2618  158.3258 C   0  0  0  0  0  0  0  0  0  0  0  0
  150.5361  140.2069  155.0346 N   0  0  0  0  0  0  0  0  0  0  0  0
  149.9212  139.1697  154.4292 C   0  0  0  0  0  0  0  0  0  0  0  0
  147.4121  135.3139  153.7970 N   0  0  0  0  0  0  0  0  0  0  0  0
  146.3673  134.2918  153.8635 C   0  0  2  0  0  0  0  0  0  0  0  0
  146.8406  132.9441  154.4432 C   0  0  0  0  0  0  0  0  0  0  0  0
  146.1282  131.8642  153.6043 C   0  0  0  0  0  0  0  0  0  0  0  0
  145.2323  132.6045  152.6954 N   0  3  2  0  0  0  0  0  0  0  0  0
  144.8378  131.9328  151.4380 C   0  0  0  0  0  0  0  0  0  0  0  0
  143.8426  132.8299  150.6742 C   0  0  0  0  0  0  0  0  0  0  0  0
  144.3988  134.2537  150.4644 C   0  0  0  0  0  0  0  0  0  0  0  0
  144.8819  134.8646  151.7943 C   0  0  0  0  0  0  0  0  0  0  0  0
  145.8773  133.9062  152.4681 C   0  0  1  0  0  0  0  0  0  0  0  0
  149.1042  136.9299  153.4360 H   0  0  0  0  0  0  0  0  0  0  0  0
  149.0463  137.2929  157.1417 H   0  0  0  0  0  0  0  0  0  0  0  0
  150.1499  139.1820  158.2511 H   0  0  0  0  0  0  0  0  0  0  0  0
  151.2765  142.8832  155.5542 H   0  0  0  0  0  0  0  0  0  0  0  0
  149.9215  142.8913  156.6955 H   0  0  0  0  0  0  0  0  0  0  0  0
  152.8150  143.6737  157.1872 H   0  0  0  0  0  0  0  0  0  0  0  0
  151.3694  144.5409  157.7113 H   0  0  0  0  0  0  0  0  0  0  0  0
  152.6668  142.9324  159.4837 H   0  0  0  0  0  0  0  0  0  0  0  0
  150.9057  142.8858  159.4059 H   0  0  0  0  0  0  0  0  0  0  0  0
  151.2589  140.6096  158.9890 H   0  0  0  0  0  0  0  0  0  0  0  0
  152.8482  140.8809  158.2624 H   0  0  0  0  0  0  0  0  0  0  0  0
  149.8866  139.2067  153.3501 H   0  0  0  0  0  0  0  0  0  0  0  0
  147.9302  135.3578  152.9312 H   0  0  0  0  0  0  0  0  0  0  0  0
  145.5163  134.6576  154.4418 H   0  0  0  0  0  0  0  0  0  0  0  0
  147.9219  132.8286  154.3516 H   0  0  0  0  0  0  0  0  0  0  0  0
  146.5922  132.8640  155.5022 H   0  0  0  0  0  0  0  0  0  0  0  0
  146.8600  131.2948  153.0291 H   0  0  0  0  0  0  0  0  0  0  0  0
  145.5622  131.1645  154.2199 H   0  0  0  0  0  0  0  0  0  0  0  0
  145.7208  131.7358  150.8280 H   0  0  0  0  0  0  0  0  0  0  0  0
  144.3794  130.9696  151.6648 H   0  0  0  0  0  0  0  0  0  0  0  0
  143.5947  132.3794  149.7127 H   0  0  0  0  0  0  0  0  0  0  0  0
  142.9087  132.8890  151.2348 H   0  0  0  0  0  0  0  0  0  0  0  0
  145.2300  134.2171  149.7591 H   0  0  0  0  0  0  0  0  0  0  0  0
  143.6383  134.8911  150.0121 H   0  0  0  0  0  0  0  0  0  0  0  0
  145.3503  135.8328  151.6148 H   0  0  0  0  0  0  0  0  0  0  0  0
  144.0291  135.0453  152.4504 H   0  0  0  0  0  0  0  0  0  0  0  0
  146.7390  133.7564  151.8128 H   0  0  0  0  0  0  0  0  0  0  0  0
  144.3863  132.7915  153.2146 H   0  0  0  0  0  0  0  0  0  0  0  0
  1  2  2  0  0  0  0
  2  3  1  0  0  0  0
  2 15  1  0  0  0  0
  3  4  1  0  0  0  0
  3 25  1  0  0  0  0
  4 14  1  0  0  0  0
  4  5  2  0  0  0  0
  5  6  1  0  0  0  0
  5 26  1  0  0  0  0
  6  7  2  0  0  0  0
  6 27  1  0  0  0  0
  7  8  1  0  0  0  0
  7 13  1  0  0  0  0
  8 12  1  0  0  0  0
  8  9  1  0  0  0  0
  9 10  1  0  0  0  0
  9 28  1  0  0  0  0
  9 29  1  0  0  0  0
 10 11  1  0  0  0  0
 10 30  1  0  0  0  0
 10 31  1  0  0  0  0
 11 12  1  0  0  0  0
 11 32  1  0  0  0  0
 11 33  1  0  0  0  0
 12 34  1  0  0  0  0
 12 35  1  0  0  0  0
 13 14  2  0  0  0  0
 14 36  1  0  0  0  0
 15 16  1  0  0  0  0
 15 37  1  0  0  0  0
 16 24  1  0  0  0  0
 16 17  1  0  0  0  0
 16 38  1  0  0  0  0
 17 18  1  0  0  0  0
 17 39  1  0  0  0  0
 17 40  1  0  0  0  0
 18 19  1  0  0  0  0
 18 41  1  0  0  0  0
 18 42  1  0  0  0  0
 19 24  1  0  0  0  0
 19 20  1  0  0  0  0
 19 52  1  0  0  0  0
 20 21  1  0  0  0  0
 20 43  1  0  0  0  0
 20 44  1  0  0  0  0
 21 22  1  0  0  0  0
 21 45  1  0  0  0  0
 21 46  1  0  0  0  0
 22 23  1  0  0  0  0
 22 47  1  0  0  0  0
 22 48  1  0  0  0  0
 23 24  1  0  0  0  0
 23 49  1  0  0  0  0
 23 50  1  0  0  0  0
 24 51  1  0  0  0  0
M  CHG  1  19   1
M  END
> <s_m_source_file>
AV-unprocessed.smi

> <i_m_source_file_index>
1867

> <i_lp_mmshare_version>
43012

> <i_f3d_flags>
0

> <s_epik_input>
W0NIMl0xW0NIMl1bQ0gyXVtDSDJdW0NASF0oTjEyKVtDQEBIXShbQ0gyXVtDSDJdMilbTkhdQyg9TylbTkhdYzNbY0hdW2NIXWMobltjSF0zKU40W0NIMl1bQ0gyXVtDSDJdW0NIMl00

> <s_epik_cmdline>
J2VwaWtfcHl0aG9uJywgJy1waCcsICc3LjAnLCAnLXRuJywgJzgnLCAnLW1hJywgJzIwMCcsICctbWV0YWxfYmluZGluZycsICctaW1hZScsICc8aW5maWxlLm1hZT4nLCAnLW9tYWUnLCAnPG91dGZpbGUubWFlPic=

> <r_lp_tautomer_probability>
1

> <r_epik_Ionization_Penalty>
0.0751123

> <r_epik_Ionization_Penalty_Charging>
0.000974069

> <r_epik_Ionization_Penalty_Neutral>
0.0741382

> <r_epik_State_Penalty>
0.0647261

> <r_epik_Charging_Adjusted_Penalty>
0.0657002

> <i_epik_Tot_Q>
1

> <i_epik_Tot_abs_Q>
1

> <r_epik_Metal_State_Penalty>
0.0580571

> <b_epik_Metal_Only>
0

> <s_lp_Force_Field>
OPLS_2005

> <r_lp_Energy>
71.0604

> <b_lp_Chiralities_Consistent>
1

> <s_lp_Variant>
AV-unprocessed.smi:1867-1

> <Gold.Version>
5.8.1

> <Gold.Id.Protein>
6NUR|6NUR_protein|mol2

> <Gold.PLP.Fitness>
43.4334

> <Gold.PLP.PLP>
-33.3754

> <Gold.PLP.part.hbond>
-3.0000

> <Gold.PLP.part.metal>
0.0000

> <Gold.PLP.part.buried>
-4.6705

> <Gold.PLP.part.nonpolar>
-25.5919

> <Gold.PLP.part.repulsive>
0.0909

> <Gold.PLP.ligand.clash>
0.0000

> <Gold.PLP.ligand.torsion>
1.0483

> <Gold.PLP.Chemscore.Hbond>
3.0000

> <Gold.PLP.Chemscore.CHOScore>
1.0000

> <Gold.PLP.Chemscore.Metal>
0.0000

> <Gold.Chemscore.Hbonds>
donor molecule, donor type, donor heavy atom, donor atom, acceptor molecule, acceptor atom, score
      L1  H     3    25       P1  7948  1.00
      L1  H    15    37       P1  7948  1.00
      P1  H  7989  7998       L1    13  0.95
      L1  C    14    36       P1  7957  1.00

> <Gold.PLP.Chemscore.Internal.Correction>
0.1545

> <Gold.Rescore>
     Score         DG    S(hbond)    S(metal)    S(lipo)     H(rot)  DE(clash)    DE(int)     intcor
     20.22     -21.43       2.37        0.00      90.60       1.00       0.22       0.99       ----

> <Gold.Chemscore.Fitness>
20.2228

> <Gold.Chemscore.DG>
-21.4308

> <Gold.Chemscore.ZeroCoef>
-5.4800

> <Gold.Chemscore.Hbond>
2.3686

> <Gold.Chemscore.Metal>
0.0000

> <Gold.Chemscore.Lipo>
90.5962

> <Gold.Chemscore.Internal_Hbond>
0.0000

> <Gold.Chemscore.DEClash>
0.2188

> <Gold.Chemscore.DEInternal>
0.9892

> <Gold.Chemscore.Rot>
1.0000

> <Gold.Chemscore.Internal.Correction>
   9.000000E+99

> <Gold.Chemscore.Hbonds>
donor molecule, donor type, donor heavy atom, donor atom, acceptor molecule, acceptor atom, score
      L1  H     3    25       P1  7948  0.95
      L1  H    15    37       P1  7948  0.95
      P1  H  7989  7998       L1    13  0.21

> <Gold.Chemscore.Hbond.Weighted>
-7.9110

> <Gold.Chemscore.Metal.Weighted>
-0.0000

> <Gold.Chemscore.Lipo.Weighted>
-10.5998

> <Gold.Chemscore.Internal_Hbond.Weighted>
0.0000

> <Gold.Chemscore.DEClash.Weighted>
0.2188

> <Gold.Chemscore.DEInternal.Weighted>
0.9892

> <Gold.Chemscore.Rot.Weighted>
2.5600

> <Gold.Chemscore.Internal.Correction.Weighted>
   9.000000E+99

> <Gold.Protein.RotatedTorsions>
[ 6907 6896 6895 6894 ] final   42.31 input  -60.11 | X-H torsion
[ 7974 7965 7964 7962 ] final   10.58 input  175.53 | X-H torsion
[ 8008 7997 7996 7995 ] final -102.97 input   59.86 | X-H torsion
[ 10167 10162 10161 10158 ] final  -62.34 input  -65.29 | X-H torsion
[ 10718 10713 10712 10709 ] final -148.84 input   66.30 | X-H torsion
[ 10763 10752 10751 10750 ] final   80.23 input  -60.55 | X-H torsion
[ 11005 11000 10999 10996 ] final   55.85 input  -57.11 | X-H torsion

> <Gold.Protein.ActiveResidues>
 VAL166  LYS551  ARG553  GLY616  TRP617  ASP618  TYR619  PRO620  LYS621  CYS622 
 ASP623  PHE694  ASN695  SER759  ASP760  ASP761  ALA762  ILE779  LEU786  VAL792 
 PHE793  MET794  SER795  GLU796  ALA797  LYS798  CYS799  TRP800  GLU811  SER814 

> <Gold.Protein.RotatedAtoms>
  152.2062  134.8543  160.0502 H   0  0  0  0  0  0  0  0  0  0  0  0  # atno 6907 bound_to 6896
  151.9378  133.3624  159.3962 H   0  0  0  0  0  0  0  0  0  0  0  0  # atno 6908 bound_to 6896
  150.6966  134.4395  159.5330 H   0  0  0  0  0  0  0  0  0  0  0  0  # atno 6909 bound_to 6896
  146.2386  139.9612  142.8458 H   0  0  0  0  0  0  0  0  0  0  0  0  # atno 7974 bound_to 7965
  154.8642  140.0425  157.1684 H   0  0  0  0  0  0  0  0  0  0  0  0  # atno 8008 bound_to 7997
  154.8807  140.2972  155.5406 H   0  0  0  0  0  0  0  0  0  0  0  0  # atno 8009 bound_to 7997
  156.2999  140.2412  156.3809 H   0  0  0  0  0  0  0  0  0  0  0  0  # atno 8010 bound_to 7997
  140.5946  143.2348  151.6065 H   0  0  0  0  0  0  0  0  0  0  0  0  # atno 10167 bound_to 10162
  156.4255  130.8050  151.2274 H   0  0  0  0  0  0  0  0  0  0  0  0  # atno 10718 bound_to 10713
  153.1016  135.4810  154.8877 H   0  0  0  0  0  0  0  0  0  0  0  0  # atno 10763 bound_to 10752
  154.7385  135.3076  154.8772 H   0  0  0  0  0  0  0  0  0  0  0  0  # atno 10764 bound_to 10752
  153.9387  135.6836  153.4798 H   0  0  0  0  0  0  0  0  0  0  0  0  # atno 10765 bound_to 10752
  140.0575  134.5650  155.9191 H   0  0  0  0  0  0  0  0  0  0  0  0  # atno 11005 bound_to 11000
  145.1769  140.9748  143.4289 LP  0  0  0  0  0  0  0  0  0  0  0  0  # atno 17320 bound_to 7965
  144.9977  139.3628  143.6183 LP  0  0  0  0  0  0  0  0  0  0  0  0  # atno 17321 bound_to 7965
  139.5249  144.3089  152.1010 LP  0  0  0  0  0  0  0  0  0  0  0  0  # atno 17342 bound_to 10162
  140.2259  144.4418  150.6321 LP  0  0  0  0  0  0  0  0  0  0  0  0  # atno 17343 bound_to 10162
  157.7508  131.0215  150.3751 LP  0  0  0  0  0  0  0  0  0  0  0  0  # atno 17370 bound_to 10713
  156.4078  130.3928  149.6913 LP  0  0  0  0  0  0  0  0  0  0  0  0  # atno 17371 bound_to 10713
  141.1958  133.6589  156.5662 LP  0  0  0  0  0  0  0  0  0  0  0  0  # atno 17394 bound_to 11000
  140.3822  134.7513  157.4668 LP  0  0  0  0  0  0  0  0  0  0  0  0  # atno 17395 bound_to 11000

$$$$
