AV-unprocessed.smi:3223|AV-procd|sdf|12308|dock1
  -GOLD-   2272018153D 1   1.00000     0.00000
 Structure written by MMmdl.
 43 43  0  0  0  0  0  0  0  0  2 V2000
  144.7648  132.2119  150.1528 C   0  0  0  0  0  0  0  0  0  0  0  0
  144.9596  133.4365  150.9995 C   0  0  0  0  0  0  0  0  0  0  0  0
  144.5901  133.6244  152.3617 C   0  0  0  0  0  0  0  0  0  0  0  0
  144.9062  134.8254  152.8188 N   0  0  0  0  0  0  0  0  0  0  0  0
  145.4859  135.4436  151.7681 N   0  0  0  0  0  0  0  0  0  0  0  0
  145.9784  136.8013  151.9112 C   0  0  0  0  0  0  0  0  0  0  0  0
  145.7241  137.3862  153.3165 C   0  0  1  0  0  0  0  0  0  0  0  0
  146.7203  136.8104  154.3318 C   0  0  0  0  0  0  0  0  0  0  0  0
  145.8308  138.8633  153.3103 N   0  3  0  0  0  0  0  0  0  0  0  0
  147.1059  139.3972  152.7882 C   0  0  0  0  0  0  0  0  0  0  0  0
  147.3668  140.8137  153.3250 C   0  0  0  0  0  0  0  0  0  0  0  0
  148.3849  140.8280  154.4680 C   0  0  0  0  0  0  0  0  0  0  0  0
  148.0941  141.3390  155.5495 O   0  0  0  0  0  0  0  0  0  0  0  0
  149.5782  140.2692  154.2111 N   0  0  0  0  0  0  0  0  0  0  0  0
  150.6901  140.1738  155.1530 C   0  0  0  0  0  0  0  0  0  0  0  0
  151.7409  139.1767  154.6406 C   0  0  0  0  0  0  0  0  0  0  0  0
  150.1559  139.7740  156.5346 C   0  0  0  0  0  0  0  0  0  0  0  0
  145.5297  134.6296  150.6566 C   0  0  0  0  0  0  0  0  0  0  0  0
  143.9039  131.6277  150.4787 H   0  0  0  0  0  0  0  0  0  0  0  0
  145.6333  131.5544  150.1934 H   0  0  0  0  0  0  0  0  0  0  0  0
  144.6017  132.4658  149.1053 H   0  0  0  0  0  0  0  0  0  0  0  0
  144.1053  132.9262  153.0281 H   0  0  0  0  0  0  0  0  0  0  0  0
  147.0489  136.7887  151.7013 H   0  0  0  0  0  0  0  0  0  0  0  0
  145.5215  137.4290  151.1441 H   0  0  0  0  0  0  0  0  0  0  0  0
  144.7243  137.0974  153.6458 H   0  0  0  0  0  0  0  0  0  0  0  0
  146.6437  135.7239  154.3843 H   0  0  0  0  0  0  0  0  0  0  0  0
  146.5310  137.2002  155.3326 H   0  0  0  0  0  0  0  0  0  0  0  0
  147.7486  137.0588  154.0660 H   0  0  0  0  0  0  0  0  0  0  0  0
  145.0881  139.2281  152.7314 H   0  0  0  0  0  0  0  0  0  0  0  0
  147.9207  138.7291  153.0681 H   0  0  0  0  0  0  0  0  0  0  0  0
  147.0651  139.4123  151.6980 H   0  0  0  0  0  0  0  0  0  0  0  0
  147.7127  141.4579  152.5147 H   0  0  0  0  0  0  0  0  0  0  0  0
  146.4376  141.2480  153.6960 H   0  0  0  0  0  0  0  0  0  0  0  0
  149.7302  139.8785  153.2924 H   0  0  0  0  0  0  0  0  0  0  0  0
  151.1607  141.1535  155.2522 H   0  0  0  0  0  0  0  0  0  0  0  0
  152.5822  139.1062  155.3305 H   0  0  0  0  0  0  0  0  0  0  0  0
  152.1376  139.4818  153.6717 H   0  0  0  0  0  0  0  0  0  0  0  0
  151.3190  138.1774  154.5284 H   0  0  0  0  0  0  0  0  0  0  0  0
  150.9626  139.7254  157.2666 H   0  0  0  0  0  0  0  0  0  0  0  0
  149.6724  138.7968  156.5076 H   0  0  0  0  0  0  0  0  0  0  0  0
  149.4260  140.4980  156.8987 H   0  0  0  0  0  0  0  0  0  0  0  0
  145.9615  134.9617  149.7238 H   0  0  0  0  0  0  0  0  0  0  0  0
  145.6953  139.1974  154.2542 H   0  0  0  0  0  0  0  0  0  0  0  0
  1  2  1  0  0  0  0
  1 19  1  0  0  0  0
  1 20  1  0  0  0  0
  1 21  1  0  0  0  0
  2 18  2  0  0  0  0
  2  3  1  0  0  0  0
  3  4  2  0  0  0  0
  3 22  1  0  0  0  0
  4  5  1  0  0  0  0
  5  6  1  0  0  0  0
  5 18  1  0  0  0  0
  6  7  1  0  0  0  0
  6 23  1  0  0  0  0
  6 24  1  0  0  0  0
  7  8  1  0  0  0  0
  7  9  1  0  0  0  0
  7 25  1  0  0  0  0
  8 26  1  0  0  0  0
  8 27  1  0  0  0  0
  8 28  1  0  0  0  0
  9 10  1  0  0  0  0
  9 29  1  0  0  0  0
  9 43  1  0  0  0  0
 10 11  1  0  0  0  0
 10 30  1  0  0  0  0
 10 31  1  0  0  0  0
 11 12  1  0  0  0  0
 11 32  1  0  0  0  0
 11 33  1  0  0  0  0
 12 13  2  0  0  0  0
 12 14  1  0  0  0  0
 14 15  1  0  0  0  0
 14 34  1  0  0  0  0
 15 16  1  0  0  0  0
 15 17  1  0  0  0  0
 15 35  1  0  0  0  0
 16 36  1  0  0  0  0
 16 37  1  0  0  0  0
 16 38  1  0  0  0  0
 17 39  1  0  0  0  0
 17 40  1  0  0  0  0
 17 41  1  0  0  0  0
 18 42  1  0  0  0  0
M  CHG  1   9   1
M  END
> <s_m_source_file>
AV-unprocessed.smi

> <i_m_source_file_index>
3223

> <i_lp_mmshare_version>
43012

> <i_f3d_flags>
0

> <s_epik_input>
W0NIM11jMVtjSF1ubihbY0hdMSlbQ0gyXVtDQEhdKFtDSDNdKVtOSF1bQ0gyXVtDSDJdQyg9TylbTkhdW0NIXShbQ0gzXSlbQ0gzXQ==

> <s_epik_cmdline>
J2VwaWtfcHl0aG9uJywgJy1waCcsICc3LjAnLCAnLXRuJywgJzgnLCAnLW1hJywgJzIwMCcsICctbWV0YWxfYmluZGluZycsICctaW1hZScsICc8aW5maWxlLm1hZT4nLCAnLW9tYWUnLCAnPG91dGZpbGUubWFlPic=

> <r_lp_tautomer_probability>
1

> <r_epik_Ionization_Penalty>
0.0057861

> <r_epik_Ionization_Penalty_Charging>
0.00577767

> <r_epik_Ionization_Penalty_Neutral>
8.4224e-06

> <r_epik_State_Penalty>
0.00424195

> <r_epik_Charging_Adjusted_Penalty>
0.0100196

> <i_epik_Tot_Q>
1

> <i_epik_Tot_abs_Q>
1

> <r_epik_Metal_State_Penalty>
-0

> <b_epik_Metal_Only>
0

> <s_lp_Force_Field>
OPLS_2005

> <r_lp_Energy>
5.87618

> <b_lp_Chiralities_Consistent>
1

> <s_lp_Variant>
AV-unprocessed.smi:3223-2

> <Gold.Version>
5.8.1

> <Gold.Id.Protein>
6NUR|6NUR_protein|mol2

> <Gold.PLP.Fitness>
45.0482

> <Gold.PLP.PLP>
-31.8538

> <Gold.PLP.part.hbond>
-2.0000

> <Gold.PLP.part.metal>
0.0000

> <Gold.PLP.part.buried>
-0.3153

> <Gold.PLP.part.nonpolar>
-28.7952

> <Gold.PLP.part.repulsive>
0.3234

> <Gold.PLP.ligand.clash>
0.0000

> <Gold.PLP.ligand.torsion>
0.8103

> <Gold.PLP.Chemscore.Hbond>
2.8800

> <Gold.PLP.Chemscore.CHOScore>
2.0000

> <Gold.PLP.Chemscore.Metal>
0.0000

> <Gold.Chemscore.Hbonds>
donor molecule, donor type, donor heavy atom, donor atom, acceptor molecule, acceptor atom, score
      L1  H     9    29       P1 10175  2.00
      L1  H    14    34       P1  7957  0.73
      L1  C     3    22       P1 10957  0.98
      L1  C    18    42       P1  7921  1.00

> <Gold.PLP.Chemscore.Internal.Correction>
0.1750

> <Gold.Rescore>
     Score         DG    S(hbond)    S(metal)    S(lipo)     H(rot)  DE(clash)    DE(int)     intcor
     12.37     -14.99       1.90        0.00      74.85       2.19       0.32       2.31       ----

> <Gold.Chemscore.Fitness>
12.3696

> <Gold.Chemscore.DG>
-14.9935

> <Gold.Chemscore.ZeroCoef>
-5.4800

> <Gold.Chemscore.Hbond>
1.9010

> <Gold.Chemscore.Metal>
0.0000

> <Gold.Chemscore.Lipo>
74.8539

> <Gold.Chemscore.Internal_Hbond>
0.0000

> <Gold.Chemscore.DEClash>
0.3184

> <Gold.Chemscore.DEInternal>
2.3055

> <Gold.Chemscore.Rot>
2.1850

> <Gold.Chemscore.Internal.Correction>
   9.000000E+99

> <Gold.Chemscore.Hbonds>
donor molecule, donor type, donor heavy atom, donor atom, acceptor molecule, acceptor atom, score
      L1  H     9    29       P1 10175  0.94
      L1  H    14    34       P1  7957  0.69

> <Gold.Chemscore.Hbond.Weighted>
-6.3492

> <Gold.Chemscore.Metal.Weighted>
-0.0000

> <Gold.Chemscore.Lipo.Weighted>
-8.7579

> <Gold.Chemscore.Internal_Hbond.Weighted>
0.0000

> <Gold.Chemscore.DEClash.Weighted>
0.3184

> <Gold.Chemscore.DEInternal.Weighted>
2.3055

> <Gold.Chemscore.Rot.Weighted>
5.5936

> <Gold.Chemscore.Internal.Correction.Weighted>
   9.000000E+99

> <Gold.Protein.RotatedTorsions>
[ 6907 6896 6895 6894 ] final  -11.95 input  -60.11 | X-H torsion
[ 7974 7965 7964 7962 ] final  -24.82 input  175.53 | X-H torsion
[ 8008 7997 7996 7995 ] final -164.17 input   59.86 | X-H torsion
[ 10167 10162 10161 10158 ] final  114.75 input  -65.29 | X-H torsion
[ 10718 10713 10712 10709 ] final  128.87 input   66.30 | X-H torsion
[ 10763 10752 10751 10750 ] final  -24.91 input  -60.55 | X-H torsion
[ 11005 11000 10999 10996 ] final  150.62 input  -57.11 | X-H torsion

> <Gold.Protein.ActiveResidues>
 VAL166  LYS551  ARG553  GLY616  TRP617  ASP618  TYR619  PRO620  LYS621  CYS622 
 ASP623  PHE694  ASN695  SER759  ASP760  ASP761  ALA762  ILE779  LEU786  VAL792 
 PHE793  MET794  SER795  GLU796  ALA797  LYS798  CYS799  TRP800  GLU811  SER814 

> <Gold.Protein.RotatedAtoms>
  151.3782  135.0935  159.9487 H   0  0  0  0  0  0  0  0  0  0  0  0  # atno 6907 bound_to 6896
  152.5116  133.9098  159.7492 H   0  0  0  0  0  0  0  0  0  0  0  0  # atno 6908 bound_to 6896
  150.9526  133.6477  159.2798 H   0  0  0  0  0  0  0  0  0  0  0  0  # atno 6909 bound_to 6896
  146.1530  140.4803  142.8603 H   0  0  0  0  0  0  0  0  0  0  0  0  # atno 7974 bound_to 7965
  155.8317  140.0935  157.1788 H   0  0  0  0  0  0  0  0  0  0  0  0  # atno 8008 bound_to 7997
  154.3980  140.1417  156.3683 H   0  0  0  0  0  0  0  0  0  0  0  0  # atno 8009 bound_to 7997
  155.8158  140.3448  155.5487 H   0  0  0  0  0  0  0  0  0  0  0  0  # atno 8010 bound_to 7997
  139.6366  144.7120  151.2322 H   0  0  0  0  0  0  0  0  0  0  0  0  # atno 10167 bound_to 10162
  157.5205  131.1098  150.9160 H   0  0  0  0  0  0  0  0  0  0  0  0  # atno 10718 bound_to 10713
  153.6914  135.6961  153.5089 H   0  0  0  0  0  0  0  0  0  0  0  0  # atno 10763 bound_to 10752
  153.2410  135.4306  155.0697 H   0  0  0  0  0  0  0  0  0  0  0  0  # atno 10764 bound_to 10752
  154.8371  135.3508  154.6456 H   0  0  0  0  0  0  0  0  0  0  0  0  # atno 10765 bound_to 10752
  140.1147  134.8901  157.1987 H   0  0  0  0  0  0  0  0  0  0  0  0  # atno 11005 bound_to 11000
  144.7928  140.6065  143.6530 LP  0  0  0  0  0  0  0  0  0  0  0  0  # atno 17320 bound_to 7965
  145.4776  139.1498  143.3779 LP  0  0  0  0  0  0  0  0  0  0  0  0  # atno 17321 bound_to 7965
  140.7468  143.6385  150.8356 LP  0  0  0  0  0  0  0  0  0  0  0  0  # atno 17342 bound_to 10162
  140.0017  143.5737  152.2873 LP  0  0  0  0  0  0  0  0  0  0  0  0  # atno 17343 bound_to 10162
  156.9772  130.5513  149.5294 LP  0  0  0  0  0  0  0  0  0  0  0  0  # atno 17370 bound_to 10713
  156.0350  130.5438  150.8631 LP  0  0  0  0  0  0  0  0  0  0  0  0  # atno 17371 bound_to 10713
  140.3044  134.3095  155.7282 LP  0  0  0  0  0  0  0  0  0  0  0  0  # atno 17394 bound_to 11000
  141.2138  133.7611  156.9686 LP  0  0  0  0  0  0  0  0  0  0  0  0  # atno 17395 bound_to 11000

$$$$
