AV-unprocessed.smi:2986|AV-procd|sdf|11382|dock3
  -GOLD-   2272016303D 1   1.00000     0.00000
 Structure written by MMmdl.
 43 45  0  0  0  0  0  0  0  0  2 V2000
  153.1805  138.6451  154.4602 C   0  0  0  0  0  0  0  0  0  0  0  0
  152.7707  139.5527  155.4680 O   0  0  0  0  0  0  0  0  0  0  0  0
  151.7153  139.0413  156.2625 C   0  0  0  0  0  0  0  0  0  0  0  0
  151.7048  139.7877  157.6013 C   0  0  0  0  0  0  0  0  0  0  0  0
  151.3602  141.2059  157.4388 N   0  0  0  0  0  0  0  0  0  0  0  0
  150.6166  141.8330  156.4862 C   0  0  0  0  0  0  0  0  0  0  0  0
  149.8154  141.0706  155.1140 S   0  0  0  0  0  0  0  0  0  0  0  0
  148.0827  141.5943  155.2575 C   0  0  0  0  0  0  0  0  0  0  0  0
  147.5095  141.3602  156.6551 C   0  0  0  0  0  0  0  0  0  0  0  0
  147.3028  140.2089  157.0359 O   0  0  0  0  0  0  0  0  0  0  0  0
  147.2558  142.4674  157.3755 N   0  0  0  0  0  0  0  0  0  0  0  0
  146.6668  142.5691  158.6610 C   0  0  0  0  0  0  0  0  0  0  0  0
  146.6779  143.7162  159.5064 C   0  0  0  0  0  0  0  0  0  0  0  0
  145.9822  143.2936  160.6037 C   0  0  0  0  0  0  0  0  0  0  0  0
  145.5985  143.9598  161.8802 C   0  0  0  0  0  0  0  0  0  0  0  0
  145.5833  142.0030  160.4440 O   0  0  0  0  0  0  0  0  0  0  0  0
  146.0244  141.5477  159.1961 N   0  0  0  0  0  0  0  0  0  0  0  0
  150.5689  143.1565  156.7995 N   0  3  0  0  0  0  0  0  0  0  0  0
  151.3052  143.3841  157.9635 C   0  0  0  0  0  0  0  0  0  0  0  0
  151.5538  144.5571  158.6697 C   0  0  0  0  0  0  0  0  0  0  0  0
  152.3528  144.4420  159.8263 C   0  0  0  0  0  0  0  0  0  0  0  0
  152.8699  143.1974  160.2414 C   0  0  0  0  0  0  0  0  0  0  0  0
  152.6094  142.0141  159.5193 C   0  0  0  0  0  0  0  0  0  0  0  0
  151.8187  142.1364  158.3773 C   0  0  0  0  0  0  0  0  0  0  0  0
  153.9847  139.0883  153.8731 H   0  0  0  0  0  0  0  0  0  0  0  0
  152.3590  138.4106  153.7820 H   0  0  0  0  0  0  0  0  0  0  0  0
  153.5526  137.7161  154.8942 H   0  0  0  0  0  0  0  0  0  0  0  0
  150.7631  139.1734  155.7461 H   0  0  0  0  0  0  0  0  0  0  0  0
  151.8558  137.9722  156.4302 H   0  0  0  0  0  0  0  0  0  0  0  0
  150.9755  139.3391  158.2760 H   0  0  0  0  0  0  0  0  0  0  0  0
  152.6713  139.7151  158.1011 H   0  0  0  0  0  0  0  0  0  0  0  0
  148.0162  142.6540  155.0074 H   0  0  0  0  0  0  0  0  0  0  0  0
  147.4841  141.0551  154.5230 H   0  0  0  0  0  0  0  0  0  0  0  0
  147.4693  143.3476  156.9288 H   0  0  0  0  0  0  0  0  0  0  0  0
  147.1126  144.6920  159.3507 H   0  0  0  0  0  0  0  0  0  0  0  0
  145.9352  144.9965  161.8954 H   0  0  0  0  0  0  0  0  0  0  0  0
  146.0435  143.4464  162.7325 H   0  0  0  0  0  0  0  0  0  0  0  0
  144.5160  143.9544  162.0083 H   0  0  0  0  0  0  0  0  0  0  0  0
  151.1589  145.5118  158.3541 H   0  0  0  0  0  0  0  0  0  0  0  0
  152.5737  145.3261  160.4068 H   0  0  0  0  0  0  0  0  0  0  0  0
  153.4791  143.1488  161.1325 H   0  0  0  0  0  0  0  0  0  0  0  0
  153.0106  141.0656  159.8448 H   0  0  0  0  0  0  0  0  0  0  0  0
  150.0694  143.8492  156.2569 H   0  0  0  0  0  0  0  0  0  0  0  0
  1  2  1  0  0  0  0
  1 25  1  0  0  0  0
  1 26  1  0  0  0  0
  1 27  1  0  0  0  0
  2  3  1  0  0  0  0
  3  4  1  0  0  0  0
  3 28  1  0  0  0  0
  3 29  1  0  0  0  0
  4  5  1  0  0  0  0
  4 30  1  0  0  0  0
  4 31  1  0  0  0  0
  5 24  1  0  0  0  0
  5  6  1  0  0  0  0
  6  7  1  0  0  0  0
  6 18  2  0  0  0  0
  7  8  1  0  0  0  0
  8  9  1  0  0  0  0
  8 32  1  0  0  0  0
  8 33  1  0  0  0  0
  9 10  2  0  0  0  0
  9 11  1  0  0  0  0
 11 12  1  0  0  0  0
 11 34  1  0  0  0  0
 12 17  2  0  0  0  0
 12 13  1  0  0  0  0
 13 14  2  0  0  0  0
 13 35  1  0  0  0  0
 14 15  1  0  0  0  0
 14 16  1  0  0  0  0
 15 36  1  0  0  0  0
 15 37  1  0  0  0  0
 15 38  1  0  0  0  0
 16 17  1  0  0  0  0
 18 19  1  0  0  0  0
 18 43  1  0  0  0  0
 19 24  2  0  0  0  0
 19 20  1  0  0  0  0
 20 21  2  0  0  0  0
 20 39  1  0  0  0  0
 21 22  1  0  0  0  0
 21 40  1  0  0  0  0
 22 23  2  0  0  0  0
 22 41  1  0  0  0  0
 23 24  1  0  0  0  0
 23 42  1  0  0  0  0
M  CHG  1  18   1
M  END
> <s_m_source_file>
AV-unprocessed.smi

> <i_m_source_file_index>
2986

> <i_lp_mmshare_version>
43012

> <i_f3d_flags>
0

> <s_epik_input>
W2NIXTFbY0hdW2NIXVtjSF1jKGMxMiluKFtDSDJdW0NIMl1PW0NIM10pYyhuMilTW0NIMl1DKD1PKVtOSF1jM1tjSF1jKFtDSDNdKW9uMw==

> <s_epik_cmdline>
J2VwaWtfcHl0aG9uJywgJy1waCcsICc3LjAnLCAnLXRuJywgJzgnLCAnLW1hJywgJzIwMCcsICctbWV0YWxfYmluZGluZycsICctaW1hZScsICc8aW5maWxlLm1hZT4nLCAnLW9tYWUnLCAnPG91dGZpbGUubWFlPic=

> <r_epik_Ionization_Penalty>
1.88527

> <r_epik_Ionization_Penalty_Charging>
1.88465

> <r_epik_Ionization_Penalty_Neutral>
0.000624705

> <r_epik_State_Penalty>
2.00469

> <r_epik_Charging_Adjusted_Penalty>
3.88934

> <i_epik_Tot_Q>
1

> <i_epik_Tot_abs_Q>
1

> <r_epik_Metal_State_Penalty>
2.24687

> <b_epik_Metal_Only>
0

> <s_lp_Force_Field>
OPLS_2005

> <r_lp_Energy>
12.3116

> <b_lp_Chiralities_Consistent>
1

> <s_lp_Variant>
AV-unprocessed.smi:2986-2

> <Gold.Version>
5.8.1

> <Gold.Id.Protein>
6NUR|6NUR_protein|mol2

> <Gold.PLP.Fitness>
58.0075

> <Gold.PLP.PLP>
-50.0907

> <Gold.PLP.part.hbond>
-4.6194

> <Gold.PLP.part.metal>
0.0000

> <Gold.PLP.part.buried>
-6.7526

> <Gold.PLP.part.nonpolar>
-38.6048

> <Gold.PLP.part.repulsive>
0.0728

> <Gold.PLP.ligand.clash>
0.0000

> <Gold.PLP.ligand.torsion>
0.6851

> <Gold.PLP.Chemscore.Hbond>
3.0609

> <Gold.PLP.Chemscore.CHOScore>
0.0000

> <Gold.PLP.Chemscore.Metal>
0.0000

> <Gold.Chemscore.Hbonds>
donor molecule, donor type, donor heavy atom, donor atom, acceptor molecule, acceptor atom, score
      L1  H    11    34       P1  8028  0.05
      L1  H    18    43       P1  8028  2.00
      P1  H  7997  8008       L1     2  1.00

> <Gold.PLP.Chemscore.Internal.Correction>
0.1042

> <Gold.Rescore>
     Score         DG    S(hbond)    S(metal)    S(lipo)     H(rot)  DE(clash)    DE(int)     intcor
     17.37     -19.33       1.88        0.00     116.10       2.35       0.10       1.86       ----

> <Gold.Chemscore.Fitness>
17.3658

> <Gold.Chemscore.DG>
-19.3263

> <Gold.Chemscore.ZeroCoef>
-5.4800

> <Gold.Chemscore.Hbond>
1.8763

> <Gold.Chemscore.Metal>
0.0000

> <Gold.Chemscore.Lipo>
116.0992

> <Gold.Chemscore.Internal_Hbond>
0.0000

> <Gold.Chemscore.DEClash>
0.1037

> <Gold.Chemscore.DEInternal>
1.8568

> <Gold.Chemscore.Rot>
2.3453

> <Gold.Chemscore.Internal.Correction>
   9.000000E+99

> <Gold.Chemscore.Hbonds>
donor molecule, donor type, donor heavy atom, donor atom, acceptor molecule, acceptor atom, score
      L1  H    18    43       P1  8028  0.97
      P1  H  7997  8008       L1     2  0.52

> <Gold.Chemscore.Hbond.Weighted>
-6.2667

> <Gold.Chemscore.Metal.Weighted>
-0.0000

> <Gold.Chemscore.Lipo.Weighted>
-13.5836

> <Gold.Chemscore.Internal_Hbond.Weighted>
0.0000

> <Gold.Chemscore.DEClash.Weighted>
0.1037

> <Gold.Chemscore.DEInternal.Weighted>
1.8568

> <Gold.Chemscore.Rot.Weighted>
6.0040

> <Gold.Chemscore.Internal.Correction.Weighted>
   9.000000E+99

> <Gold.Protein.RotatedTorsions>
[ 6907 6896 6895 6894 ] final -149.53 input  -60.11 | X-H torsion
[ 7974 7965 7964 7962 ] final  167.34 input  175.53 | X-H torsion
[ 8008 7997 7996 7995 ] final  -45.14 input   59.86 | X-H torsion
[ 10167 10162 10161 10158 ] final  -88.44 input  -65.29 | X-H torsion
[ 10718 10713 10712 10709 ] final    9.41 input   66.30 | X-H torsion
[ 10763 10752 10751 10750 ] final  164.58 input  -60.55 | X-H torsion
[ 11005 11000 10999 10996 ] final  126.19 input  -57.11 | X-H torsion

> <Gold.Protein.ActiveResidues>
 VAL166  LYS551  ARG553  GLY616  TRP617  ASP618  TYR619  PRO620  LYS621  CYS622 
 ASP623  PHE694  ASN695  SER759  ASP760  ASP761  ALA762  ILE779  LEU786  VAL792 
 PHE793  MET794  SER795  GLU796  ALA797  LYS798  CYS799  TRP800  GLU811  SER814 

> <Gold.Protein.RotatedAtoms>
  151.1854  133.4699  159.2594 H   0  0  0  0  0  0  0  0  0  0  0  0  # atno 6907 bound_to 6896
  151.1217  135.0083  159.8551 H   0  0  0  0  0  0  0  0  0  0  0  0  # atno 6908 bound_to 6896
  152.5456  134.1765  159.8671 H   0  0  0  0  0  0  0  0  0  0  0  0  # atno 6909 bound_to 6896
  144.7428  139.8747  143.6391 H   0  0  0  0  0  0  0  0  0  0  0  0  # atno 7974 bound_to 7965
  154.3999  140.1404  156.3798 H   0  0  0  0  0  0  0  0  0  0  0  0  # atno 8008 bound_to 7997
  155.8015  140.3476  155.5384 H   0  0  0  0  0  0  0  0  0  0  0  0  # atno 8009 bound_to 7997
  155.8479  140.0937  157.1684 H   0  0  0  0  0  0  0  0  0  0  0  0  # atno 8010 bound_to 7997
  140.3747  143.2777  151.9458 H   0  0  0  0  0  0  0  0  0  0  0  0  # atno 10167 bound_to 10162
  156.9659  130.5951  149.5665 H   0  0  0  0  0  0  0  0  0  0  0  0  # atno 10718 bound_to 10713
  154.3110  135.2757  155.2566 H   0  0  0  0  0  0  0  0  0  0  0  0  # atno 10763 bound_to 10752
  154.4961  135.5821  153.6499 H   0  0  0  0  0  0  0  0  0  0  0  0  # atno 10764 bound_to 10752
  152.9888  135.6146  154.3288 H   0  0  0  0  0  0  0  0  0  0  0  0  # atno 10765 bound_to 10752
  139.9443  134.9631  156.8670 H   0  0  0  0  0  0  0  0  0  0  0  0  # atno 11005 bound_to 11000
  146.1255  139.4280  143.0201 LP  0  0  0  0  0  0  0  0  0  0  0  0  # atno 17320 bound_to 7965
  145.7241  141.0065  143.1386 LP  0  0  0  0  0  0  0  0  0  0  0  0  # atno 17321 bound_to 7965
  139.4800  144.5875  151.7829 LP  0  0  0  0  0  0  0  0  0  0  0  0  # atno 17342 bound_to 10162
  140.4998  144.1185  150.5968 LP  0  0  0  0  0  0  0  0  0  0  0  0  # atno 17343 bound_to 10162
  156.0302  130.5394  150.8515 LP  0  0  0  0  0  0  0  0  0  0  0  0  # atno 17370 bound_to 10713
  157.5626  131.0946  150.9537 LP  0  0  0  0  0  0  0  0  0  0  0  0  # atno 17371 bound_to 10713
  140.5872  134.0296  155.7486 LP  0  0  0  0  0  0  0  0  0  0  0  0  # atno 17394 bound_to 11000
  141.1089  133.9649  157.2946 LP  0  0  0  0  0  0  0  0  0  0  0  0  # atno 17395 bound_to 11000

$$$$
