AV-unprocessed.smi:246|AV-procd|sdf|1884|dock8
  -GOLD-   2262020533D 1   1.00000     0.00000
 Structure written by MMmdl.
 57 60  0  0  0  0  0  0  0  0  1 V2000
  155.3559  139.0554  162.1874 C   0  0  0  0  0  0  0  0  0  0  0  0
  155.5254  140.1735  163.2254 C   0  0  0  0  0  0  0  0  0  0  0  0
  155.2916  141.4563  162.6618 O   0  0  0  0  0  0  0  0  0  0  0  0
  154.0127  141.6070  162.0629 C   0  0  0  0  0  0  0  0  0  0  0  0
  154.1312  141.3218  160.5632 C   0  0  0  0  0  0  0  0  0  0  0  0
  153.7268  142.4781  159.8465 O   0  0  0  0  0  0  0  0  0  0  0  0
  152.3821  142.4330  159.3928 C   0  0  1  0  0  0  0  0  0  0  0  0
  152.0740  143.4565  158.2964 C   0  0  0  0  0  0  0  0  0  0  0  0
  150.9202  142.8203  157.5167 C   0  0  0  0  0  0  0  0  0  0  0  0
  151.0352  141.3844  157.7485 N   0  0  0  0  0  0  0  0  0  0  0  0
  150.5957  140.4705  156.8431 C   0  0  0  0  0  0  0  0  0  0  0  0
  150.3414  140.8929  155.5758 N   0  0  0  0  0  0  0  0  0  0  0  0
  149.9131  140.0370  154.6442 C   0  0  0  0  0  0  0  0  0  0  0  0
  149.6713  138.7313  154.7606 N   0  0  0  0  0  0  0  0  0  0  0  0
  149.9128  138.2977  156.0300 C   0  0  0  0  0  0  0  0  0  0  0  0
  150.3677  139.0893  157.1248 C   0  0  0  0  0  0  0  0  0  0  0  0
  150.4866  138.2874  158.2562 N   0  0  0  0  0  0  0  0  0  0  0  0
  150.1347  137.0980  157.8528 C   0  0  0  0  0  0  0  0  0  0  0  0
  149.7837  137.0131  156.5258 N   0  0  0  0  0  0  0  0  0  0  0  0
  149.3711  135.8206  155.8088 C   0  0  0  0  0  0  0  0  0  0  0  0
  150.5355  135.1276  155.0691 C   0  0  2  0  0  0  0  0  0  0  0  0
  151.0027  136.0284  154.0850 O   0  0  0  0  0  0  0  0  0  0  0  0
  150.1568  133.7911  154.3916 C   0  0  1  0  0  0  0  0  0  0  0  0
  149.9166  132.6318  155.3625 C   0  0  0  0  0  0  0  0  0  0  0  0
  148.9821  131.7026  154.6026 C   0  0  0  0  0  0  0  0  0  0  0  0
  148.4816  132.5544  153.4347 C   0  0  0  0  0  0  0  0  0  0  0  0
  148.8927  133.8756  153.7500 O   0  0  0  0  0  0  0  0  0  0  0  0
  152.1019  141.1014  158.6960 C   0  0  0  0  0  0  0  0  0  0  0  0
  151.6845  142.5530  160.2240 H   0  0  0  0  0  0  0  0  0  0  0  0
  155.6291  138.0900  162.6136 H   0  0  0  0  0  0  0  0  0  0  0  0
  155.9937  139.2276  161.3203 H   0  0  0  0  0  0  0  0  0  0  0  0
  154.3272  138.9770  161.8380 H   0  0  0  0  0  0  0  0  0  0  0  0
  154.8866  140.0051  164.0934 H   0  0  0  0  0  0  0  0  0  0  0  0
  156.5525  140.1592  163.5905 H   0  0  0  0  0  0  0  0  0  0  0  0
  153.2743  140.9430  162.5119 H   0  0  0  0  0  0  0  0  0  0  0  0
  153.6664  142.6308  162.2112 H   0  0  0  0  0  0  0  0  0  0  0  0
  155.1691  141.0918  160.3180 H   0  0  0  0  0  0  0  0  0  0  0  0
  153.5294  140.4530  160.2939 H   0  0  0  0  0  0  0  0  0  0  0  0
  151.8257  144.4438  158.6866 H   0  0  0  0  0  0  0  0  0  0  0  0
  152.9392  143.5619  157.6401 H   0  0  0  0  0  0  0  0  0  0  0  0
  149.9588  143.1612  157.9024 H   0  0  0  0  0  0  0  0  0  0  0  0
  150.9775  143.0842  156.4599 H   0  0  0  0  0  0  0  0  0  0  0  0
  149.7399  140.4591  153.6653 H   0  0  0  0  0  0  0  0  0  0  0  0
  150.1337  136.2434  158.5134 H   0  0  0  0  0  0  0  0  0  0  0  0
  148.9132  135.1325  156.5209 H   0  0  0  0  0  0  0  0  0  0  0  0
  148.5895  136.1041  155.1027 H   0  0  0  0  0  0  0  0  0  0  0  0
  151.3554  134.9537  155.7670 H   0  0  0  0  0  0  0  0  0  0  0  0
  150.2659  136.3180  153.5691 H   0  0  0  0  0  0  0  0  0  0  0  0
  150.9128  133.5082  153.6562 H   0  0  0  0  0  0  0  0  0  0  0  0
  150.8415  132.1419  155.6683 H   0  0  0  0  0  0  0  0  0  0  0  0
  149.4158  132.9926  156.2622 H   0  0  0  0  0  0  0  0  0  0  0  0
  149.5029  130.8163  154.2387 H   0  0  0  0  0  0  0  0  0  0  0  0
  148.1616  131.3728  155.2408 H   0  0  0  0  0  0  0  0  0  0  0  0
  148.9549  132.2448  152.5018 H   0  0  0  0  0  0  0  0  0  0  0  0
  147.4007  132.4982  153.3041 H   0  0  0  0  0  0  0  0  0  0  0  0
  152.9832  140.7610  158.1502 H   0  0  0  0  0  0  0  0  0  0  0  0
  151.8174  140.3319  159.4140 H   0  0  0  0  0  0  0  0  0  0  0  0
  1  2  1  0  0  0  0
  1 30  1  0  0  0  0
  1 31  1  0  0  0  0
  1 32  1  0  0  0  0
  2  3  1  0  0  0  0
  2 33  1  0  0  0  0
  2 34  1  0  0  0  0
  3  4  1  0  0  0  0
  4  5  1  0  0  0  0
  4 35  1  0  0  0  0
  4 36  1  0  0  0  0
  5  6  1  0  0  0  0
  5 37  1  0  0  0  0
  5 38  1  0  0  0  0
  6  7  1  0  0  0  0
  7 29  1  0  0  0  0
  7 28  1  0  0  0  0
  7  8  1  0  0  0  0
  8  9  1  0  0  0  0
  8 39  1  0  0  0  0
  8 40  1  0  0  0  0
  9 10  1  0  0  0  0
  9 41  1  0  0  0  0
  9 42  1  0  0  0  0
 10 11  1  0  0  0  0
 10 28  1  0  0  0  0
 11 16  1  0  0  0  0
 11 12  2  0  0  0  0
 12 13  1  0  0  0  0
 13 14  2  0  0  0  0
 13 43  1  0  0  0  0
 14 15  1  0  0  0  0
 15 19  1  0  0  0  0
 15 16  2  0  0  0  0
 16 17  1  0  0  0  0
 17 18  2  0  0  0  0
 18 19  1  0  0  0  0
 18 44  1  0  0  0  0
 19 20  1  0  0  0  0
 20 21  1  0  0  0  0
 20 45  1  0  0  0  0
 20 46  1  0  0  0  0
 21 22  1  0  0  0  0
 21 23  1  0  0  0  0
 21 47  1  0  0  0  0
 22 48  1  0  0  0  0
 23 27  1  0  0  0  0
 23 24  1  0  0  0  0
 23 49  1  0  0  0  0
 24 25  1  0  0  0  0
 24 50  1  0  0  0  0
 24 51  1  0  0  0  0
 25 26  1  0  0  0  0
 25 52  1  0  0  0  0
 25 53  1  0  0  0  0
 26 27  1  0  0  0  0
 26 54  1  0  0  0  0
 26 55  1  0  0  0  0
 28 56  1  0  0  0  0
 28 57  1  0  0  0  0
M  END
> <s_m_source_file>
AV-unprocessed.smi

> <i_m_source_file_index>
246

> <i_lp_mmshare_version>
43012

> <i_f3d_flags>
0

> <s_epik_input>
W0NIM11bQ0gyXU9bQ0gyXVtDSDJdT1tDQEhdMVtDSDJdW0NIMl1OKFtDSDJdMSljKG5bY0hdbjIpYyhjMjMpbltjSF1uM1tDSDJdW0NASF0oW09IXSlbQ0BASF00W0NIMl1bQ0gyXVtDSDJdTzQ=

> <s_epik_cmdline>
J2VwaWtfcHl0aG9uJywgJy1waCcsICc3LjAnLCAnLXRuJywgJzgnLCAnLW1hJywgJzIwMCcsICctbWV0YWxfYmluZGluZycsICctaW1hZScsICc8aW5maWxlLm1hZT4nLCAnLW9tYWUnLCAnPG91dGZpbGUubWFlPic=

> <r_lp_tautomer_probability>
1

> <r_epik_Ionization_Penalty>
0.0024631

> <r_epik_Ionization_Penalty_Charging>
0

> <r_epik_Ionization_Penalty_Neutral>
0.0024631

> <r_epik_State_Penalty>
0.00162428

> <r_epik_Charging_Adjusted_Penalty>
0.00162428

> <i_epik_Tot_Q>
0

> <i_epik_Tot_abs_Q>
0

> <r_epik_Metal_State_Penalty>
-0

> <b_epik_Metal_Only>
0

> <s_lp_Force_Field>
OPLS_2005

> <r_lp_Energy>
49.6926

> <b_lp_Chiralities_Consistent>
1

> <s_lp_Variant>
AV-unprocessed.smi:246-5

> <Gold.Version>
5.8.1

> <Gold.Id.Protein>
6NUR|6NUR_protein|mol2

> <Gold.PLP.Fitness>
47.8778

> <Gold.PLP.PLP>
-43.8777

> <Gold.PLP.part.hbond>
-3.7464

> <Gold.PLP.part.metal>
0.0000

> <Gold.PLP.part.buried>
-4.2572

> <Gold.PLP.part.nonpolar>
-36.3324

> <Gold.PLP.part.repulsive>
1.2682

> <Gold.PLP.ligand.clash>
0.0000

> <Gold.PLP.ligand.torsion>
1.9713

> <Gold.PLP.Chemscore.Hbond>
1.4558

> <Gold.PLP.Chemscore.CHOScore>
1.0000

> <Gold.PLP.Chemscore.Metal>
0.0000

> <Gold.Chemscore.Hbonds>
donor molecule, donor type, donor heavy atom, donor atom, acceptor molecule, acceptor atom, score
      L1  H    22    48       P1  7948  0.37
      P1  H 10752 10764       L1    22  0.85
      L1  C    13    43       P1  7957  0.98

> <Gold.PLP.Chemscore.Internal.Correction>
0.5754

> <Gold.Rescore>
     Score         DG    S(hbond)    S(metal)    S(lipo)     H(rot)  DE(clash)    DE(int)     intcor
      9.96     -12.38       0.98        0.00      98.80       3.10       0.15       2.27       ----

> <Gold.Chemscore.Fitness>
9.9605

> <Gold.Chemscore.DG>
-12.3846

> <Gold.Chemscore.ZeroCoef>
-5.4800

> <Gold.Chemscore.Hbond>
0.9842

> <Gold.Chemscore.Metal>
0.0000

> <Gold.Chemscore.Lipo>
98.8045

> <Gold.Chemscore.Internal_Hbond>
0.0000

> <Gold.Chemscore.DEClash>
0.1544

> <Gold.Chemscore.DEInternal>
2.2698

> <Gold.Chemscore.Rot>
3.1026

> <Gold.Chemscore.Internal.Correction>
   9.000000E+99

> <Gold.Chemscore.Hbonds>
donor molecule, donor type, donor heavy atom, donor atom, acceptor molecule, acceptor atom, score
      L1  H    22    48       P1  7948  0.01
      P1  H 10752 10764       L1    22  0.14

> <Gold.Chemscore.Hbond.Weighted>
-3.2871

> <Gold.Chemscore.Metal.Weighted>
-0.0000

> <Gold.Chemscore.Lipo.Weighted>
-11.5601

> <Gold.Chemscore.Internal_Hbond.Weighted>
0.0000

> <Gold.Chemscore.DEClash.Weighted>
0.1544

> <Gold.Chemscore.DEInternal.Weighted>
2.2698

> <Gold.Chemscore.Rot.Weighted>
7.9426

> <Gold.Chemscore.Internal.Correction.Weighted>
   9.000000E+99

> <Gold.Protein.RotatedTorsions>
[ 6907 6896 6895 6894 ] final  128.67 input  -60.11 | X-H torsion
[ 7974 7965 7964 7962 ] final   98.16 input  175.53 | X-H torsion
[ 8008 7997 7996 7995 ] final  155.61 input   59.86 | X-H torsion
[ 10167 10162 10161 10158 ] final    9.80 input  -65.29 | X-H torsion
[ 10718 10713 10712 10709 ] final  169.98 input   66.30 | X-H torsion
[ 10763 10752 10751 10750 ] final  -77.96 input  -60.55 | X-H torsion
[ 11005 11000 10999 10996 ] final  101.39 input  -57.11 | X-H torsion

> <Gold.Protein.ActiveResidues>
 VAL166  LYS551  ARG553  GLY616  TRP617  ASP618  TYR619  PRO620  LYS621  CYS622 
 ASP623  PHE694  ASN695  SER759  ASP760  ASP761  ALA762  ILE779  LEU786  VAL792 
 PHE793  MET794  SER795  GLU796  ALA797  LYS798  CYS799  TRP800  GLU811  SER814 

> <Gold.Protein.RotatedAtoms>
  152.3697  133.6403  159.6077 H   0  0  0  0  0  0  0  0  0  0  0  0  # atno 6907 bound_to 6896
  150.7660  133.9289  159.3430 H   0  0  0  0  0  0  0  0  0  0  0  0  # atno 6908 bound_to 6896
  151.7114  135.0913  160.0319 H   0  0  0  0  0  0  0  0  0  0  0  0  # atno 6909 bound_to 6896
  145.4159  139.2327  143.3222 H   0  0  0  0  0  0  0  0  0  0  0  0  # atno 7974 bound_to 7965
  156.2469  140.1935  156.6828 H   0  0  0  0  0  0  0  0  0  0  0  0  # atno 8008 bound_to 7997
  154.6309  140.0596  156.9757 H   0  0  0  0  0  0  0  0  0  0  0  0  # atno 8009 bound_to 7997
  155.1712  140.3268  155.4395 H   0  0  0  0  0  0  0  0  0  0  0  0  # atno 8010 bound_to 7997
  140.6233  143.8156  150.7202 H   0  0  0  0  0  0  0  0  0  0  0  0  # atno 10167 bound_to 10162
  157.0147  131.0214  151.2792 H   0  0  0  0  0  0  0  0  0  0  0  0  # atno 10718 bound_to 10713
  154.5197  135.5746  153.6671 H   0  0  0  0  0  0  0  0  0  0  0  0  # atno 10763 bound_to 10752
  152.9914  135.6179  154.2770 H   0  0  0  0  0  0  0  0  0  0  0  0  # atno 10764 bound_to 10752
  154.2691  135.2854  155.2725 H   0  0  0  0  0  0  0  0  0  0  0  0  # atno 10765 bound_to 10752
  139.8773  134.9181  156.4899 H   0  0  0  0  0  0  0  0  0  0  0  0  # atno 11005 bound_to 11000
  146.2681  140.4877  142.8825 LP  0  0  0  0  0  0  0  0  0  0  0  0  # atno 17320 bound_to 7965
  144.8277  140.6656  143.6311 LP  0  0  0  0  0  0  0  0  0  0  0  0  # atno 17321 bound_to 7965
  140.1751  143.4161  152.1973 LP  0  0  0  0  0  0  0  0  0  0  0  0  # atno 17342 bound_to 10162
  139.5458  144.7297  151.4589 LP  0  0  0  0  0  0  0  0  0  0  0  0  # atno 17343 bound_to 10162
  157.5294  130.8049  149.7899 LP  0  0  0  0  0  0  0  0  0  0  0  0  # atno 17370 bound_to 10713
  156.0123  130.3828  150.2223 LP  0  0  0  0  0  0  0  0  0  0  0  0  # atno 17371 bound_to 10713
  140.8666  133.8020  155.9320 LP  0  0  0  0  0  0  0  0  0  0  0  0  # atno 17394 bound_to 11000
  140.8995  134.2395  157.5049 LP  0  0  0  0  0  0  0  0  0  0  0  0  # atno 17395 bound_to 11000

$$$$
