AV-unprocessed.smi:91|AV-procd|sdf|837|dock3
  -GOLD-   2262017263D 1   1.00000     0.00000
 Structure written by MMmdl.
 60 63  0  0  0  0  0  0  0  0  1 V2000
  151.4378  140.1071  155.7105 C   0  0  0  0  0  0  0  0  0  0  0  0
  150.6142  139.9634  156.8541 O   0  0  0  0  0  0  0  0  0  0  0  0
  150.1336  141.2080  157.3371 C   0  0  0  0  0  0  0  0  0  0  0  0
  151.2784  142.0024  157.9806 C   0  0  2  0  0  0  0  0  0  0  0  0
  151.9097  141.2802  159.1842 C   0  0  0  0  0  0  0  0  0  0  0  0
  152.9085  142.1414  159.8058 N   0  0  0  0  0  0  0  0  0  0  0  0
  153.7873  141.5893  160.6790 C   0  0  0  0  0  0  0  0  0  0  0  0
  153.9275  142.1122  161.9267 N   0  0  0  0  0  0  0  0  0  0  0  0
  154.7955  141.5752  162.7893 C   0  0  0  0  0  0  0  0  0  0  0  0
  155.6048  140.5286  162.6166 N   0  0  0  0  0  0  0  0  0  0  0  0
  155.4613  139.9930  161.3708 C   0  0  0  0  0  0  0  0  0  0  0  0
  154.5847  140.4572  160.3497 C   0  0  0  0  0  0  0  0  0  0  0  0
  154.7038  139.6529  159.2220 N   0  0  0  0  0  0  0  0  0  0  0  0
  155.6034  138.7683  159.5548 C   0  0  0  0  0  0  0  0  0  0  0  0
  156.1063  138.8944  160.8293 N   0  0  0  0  0  0  0  0  0  0  0  0
  157.1036  138.0401  161.4504 C   0  0  0  0  0  0  0  0  0  0  0  0
  156.6889  136.5480  161.4737 C   0  0  2  0  0  0  0  0  0  0  0  0
  156.5344  135.9546  160.0520 C   0  0  0  0  0  0  0  0  0  0  0  0
  156.1914  134.5845  160.0988 O   0  0  0  0  0  0  0  0  0  0  0  0
  155.4326  136.3170  162.3510 C   0  0  1  0  0  0  0  0  0  0  0  0
  155.6187  136.6195  163.8277 C   0  0  0  0  0  0  0  0  0  0  0  0
  154.1798  136.7653  164.3077 C   0  0  0  0  0  0  0  0  0  0  0  0
  153.4727  137.3389  163.2147 O   0  0  0  0  0  0  0  0  0  0  0  0
  154.2487  137.2355  162.0245 C   0  0  0  0  0  0  0  0  0  0  0  0
  152.3734  143.4403  160.1980 C   0  0  0  0  0  0  0  0  0  0  0  0
  151.7269  144.1585  158.9928 C   0  0  0  0  0  0  0  0  0  0  0  0
  150.9091  145.3626  159.4843 C   0  0  0  0  0  0  0  0  0  0  0  0
  152.7863  144.6442  157.9805 C   0  0  0  0  0  0  0  0  0  0  0  0
  150.7796  143.2831  158.3698 O   0  0  0  0  0  0  0  0  0  0  0  0
  151.7803  139.1268  155.3796 H   0  0  0  0  0  0  0  0  0  0  0  0
  152.3169  140.7139  155.9318 H   0  0  0  0  0  0  0  0  0  0  0  0
  150.8920  140.5688  154.8868 H   0  0  0  0  0  0  0  0  0  0  0  0
  149.7094  141.7810  156.5111 H   0  0  0  0  0  0  0  0  0  0  0  0
  149.3366  141.0492  158.0651 H   0  0  0  0  0  0  0  0  0  0  0  0
  152.0400  142.1425  157.2136 H   0  0  0  0  0  0  0  0  0  0  0  0
  151.1470  141.0280  159.9224 H   0  0  0  0  0  0  0  0  0  0  0  0
  152.3664  140.3462  158.8540 H   0  0  0  0  0  0  0  0  0  0  0  0
  154.8483  142.0524  163.7567 H   0  0  0  0  0  0  0  0  0  0  0  0
  155.9229  137.9890  158.8781 H   0  0  0  0  0  0  0  0  0  0  0  0
  158.0340  138.1726  160.8983 H   0  0  0  0  0  0  0  0  0  0  0  0
  157.2951  138.3994  162.4621 H   0  0  0  0  0  0  0  0  0  0  0  0
  157.5080  136.0014  161.9435 H   0  0  0  0  0  0  0  0  0  0  0  0
  155.7707  136.4870  159.4855 H   0  0  0  0  0  0  0  0  0  0  0  0
  157.4571  136.0638  159.4826 H   0  0  0  0  0  0  0  0  0  0  0  0
  155.4015  134.4885  160.6088 H   0  0  0  0  0  0  0  0  0  0  0  0
  155.1016  135.2818  162.2517 H   0  0  0  0  0  0  0  0  0  0  0  0
  156.1575  135.8378  164.3637 H   0  0  0  0  0  0  0  0  0  0  0  0
  156.1551  137.5600  163.9616 H   0  0  0  0  0  0  0  0  0  0  0  0
  153.7503  135.7864  164.5247 H   0  0  0  0  0  0  0  0  0  0  0  0
  154.0980  137.3792  165.2048 H   0  0  0  0  0  0  0  0  0  0  0  0
  154.5942  138.2353  161.7581 H   0  0  0  0  0  0  0  0  0  0  0  0
  153.6456  136.8577  161.1985 H   0  0  0  0  0  0  0  0  0  0  0  0
  151.6258  143.2741  160.9751 H   0  0  0  0  0  0  0  0  0  0  0  0
  153.1394  144.0772  160.6395 H   0  0  0  0  0  0  0  0  0  0  0  0
  151.5410  146.0912  159.9934 H   0  0  0  0  0  0  0  0  0  0  0  0
  150.1319  145.0531  160.1840 H   0  0  0  0  0  0  0  0  0  0  0  0
  150.4186  145.8715  158.6541 H   0  0  0  0  0  0  0  0  0  0  0  0
  153.4313  145.4021  158.4265 H   0  0  0  0  0  0  0  0  0  0  0  0
  152.3164  145.0868  157.1017 H   0  0  0  0  0  0  0  0  0  0  0  0
  153.4368  143.8399  157.6386 H   0  0  0  0  0  0  0  0  0  0  0  0
  1  2  1  0  0  0  0
  1 30  1  0  0  0  0
  1 31  1  0  0  0  0
  1 32  1  0  0  0  0
  2  3  1  0  0  0  0
  3  4  1  0  0  0  0
  3 33  1  0  0  0  0
  3 34  1  0  0  0  0
  4 29  1  0  0  0  0
  4  5  1  0  0  0  0
  4 35  1  0  0  0  0
  5  6  1  0  0  0  0
  5 36  1  0  0  0  0
  5 37  1  0  0  0  0
  6  7  1  0  0  0  0
  6 25  1  0  0  0  0
  7 12  1  0  0  0  0
  7  8  2  0  0  0  0
  8  9  1  0  0  0  0
  9 10  2  0  0  0  0
  9 38  1  0  0  0  0
 10 11  1  0  0  0  0
 11 15  1  0  0  0  0
 11 12  2  0  0  0  0
 12 13  1  0  0  0  0
 13 14  2  0  0  0  0
 14 15  1  0  0  0  0
 14 39  1  0  0  0  0
 15 16  1  0  0  0  0
 16 17  1  0  0  0  0
 16 40  1  0  0  0  0
 16 41  1  0  0  0  0
 17 18  1  0  0  0  0
 17 20  1  0  0  0  0
 17 42  1  0  0  0  0
 18 19  1  0  0  0  0
 18 43  1  0  0  0  0
 18 44  1  0  0  0  0
 19 45  1  0  0  0  0
 20 24  1  0  0  0  0
 20 21  1  0  0  0  0
 20 46  1  0  0  0  0
 21 22  1  0  0  0  0
 21 47  1  0  0  0  0
 21 48  1  0  0  0  0
 22 23  1  0  0  0  0
 22 49  1  0  0  0  0
 22 50  1  0  0  0  0
 23 24  1  0  0  0  0
 24 51  1  0  0  0  0
 24 52  1  0  0  0  0
 25 26  1  0  0  0  0
 25 53  1  0  0  0  0
 25 54  1  0  0  0  0
 26 27  1  0  0  0  0
 26 28  1  0  0  0  0
 26 29  1  0  0  0  0
 27 55  1  0  0  0  0
 27 56  1  0  0  0  0
 27 57  1  0  0  0  0
 28 58  1  0  0  0  0
 28 59  1  0  0  0  0
 28 60  1  0  0  0  0
M  END
> <s_m_source_file>
AV-unprocessed.smi

> <i_m_source_file_index>
91

> <i_lp_mmshare_version>
43012

> <i_f3d_flags>
0

> <s_epik_input>
W0NIM11PW0NIMl1bQ0BASF0oTzEpW0NIMl1OKFtDSDJdQzEoW0NIM10pW0NIM10pYyhuW2NIXW4yKWMoYzIzKW5bY0hdbjNbQ0gyXVtDQEhdKFtDSDJdW09IXSlbQ0BASF00W0NIMl1bQ0gyXU9bQ0gyXTQ=

> <s_epik_cmdline>
J2VwaWtfcHl0aG9uJywgJy1waCcsICc3LjAnLCAnLXRuJywgJzgnLCAnLW1hJywgJzIwMCcsICctbWV0YWxfYmluZGluZycsICctaW1hZScsICc8aW5maWxlLm1hZT4nLCAnLW9tYWUnLCAnPG91dGZpbGUubWFlPic=

> <r_lp_tautomer_probability>
1

> <r_epik_Ionization_Penalty>
8.63591e-05

> <r_epik_Ionization_Penalty_Charging>
0

> <r_epik_Ionization_Penalty_Neutral>
8.63591e-05

> <r_epik_State_Penalty>
-0

> <r_epik_Charging_Adjusted_Penalty>
0

> <i_epik_Tot_Q>
0

> <i_epik_Tot_abs_Q>
0

> <r_epik_Metal_State_Penalty>
-0

> <b_epik_Metal_Only>
0

> <s_lp_Force_Field>
OPLS_2005

> <r_lp_Energy>
47.5582

> <b_lp_Chiralities_Consistent>
1

> <s_lp_Variant>
AV-unprocessed.smi:91-5

> <Gold.Version>
5.8.1

> <Gold.Id.Protein>
6NUR|6NUR_protein|mol2

> <Gold.PLP.Fitness>
50.8703

> <Gold.PLP.PLP>
-48.0223

> <Gold.PLP.part.hbond>
-2.5647

> <Gold.PLP.part.metal>
0.0000

> <Gold.PLP.part.buried>
-3.0172

> <Gold.PLP.part.nonpolar>
-41.7457

> <Gold.PLP.part.repulsive>
0.1394

> <Gold.PLP.ligand.clash>
0.0000

> <Gold.PLP.ligand.torsion>
0.3499

> <Gold.PLP.Chemscore.Hbond>
1.0000

> <Gold.PLP.Chemscore.CHOScore>
0.0000

> <Gold.PLP.Chemscore.Metal>
0.0000

> <Gold.Chemscore.Hbonds>
donor molecule, donor type, donor heavy atom, donor atom, acceptor molecule, acceptor atom, score
      P1  H  7997  8008       L1    13  1.00

> <Gold.PLP.Chemscore.Internal.Correction>
0.5478

> <Gold.Rescore>
     Score         DG    S(hbond)    S(metal)    S(lipo)     H(rot)  DE(clash)    DE(int)     intcor
     10.00     -13.52       0.54        0.00     119.55       3.03       0.82       2.69       ----

> <Gold.Chemscore.Fitness>
10.0014

> <Gold.Chemscore.DG>
-13.5184

> <Gold.Chemscore.ZeroCoef>
-5.4800

> <Gold.Chemscore.Hbond>
0.5401

> <Gold.Chemscore.Metal>
0.0000

> <Gold.Chemscore.Lipo>
119.5506

> <Gold.Chemscore.Internal_Hbond>
0.0000

> <Gold.Chemscore.DEClash>
0.8228

> <Gold.Chemscore.DEInternal>
2.6942

> <Gold.Chemscore.Rot>
3.0284

> <Gold.Chemscore.Internal.Correction>
   9.000000E+99

> <Gold.Chemscore.Hbonds>
donor molecule, donor type, donor heavy atom, donor atom, acceptor molecule, acceptor atom, score
      P1  H  7997  8008       L1    13  0.34

> <Gold.Chemscore.Hbond.Weighted>
-1.8038

> <Gold.Chemscore.Metal.Weighted>
-0.0000

> <Gold.Chemscore.Lipo.Weighted>
-13.9874

> <Gold.Chemscore.Internal_Hbond.Weighted>
0.0000

> <Gold.Chemscore.DEClash.Weighted>
0.8228

> <Gold.Chemscore.DEInternal.Weighted>
2.6942

> <Gold.Chemscore.Rot.Weighted>
7.7528

> <Gold.Chemscore.Internal.Correction.Weighted>
   9.000000E+99

> <Gold.Protein.RotatedTorsions>
[ 6907 6896 6895 6894 ] final  119.45 input  -60.11 | X-H torsion
[ 7974 7965 7964 7962 ] final  136.94 input  175.53 | X-H torsion
[ 8008 7997 7996 7995 ] final -124.09 input   59.86 | X-H torsion
[ 10167 10162 10161 10158 ] final  -56.20 input  -65.29 | X-H torsion
[ 10718 10713 10712 10709 ] final  149.98 input   66.30 | X-H torsion
[ 10763 10752 10751 10750 ] final   52.76 input  -60.55 | X-H torsion
[ 11005 11000 10999 10996 ] final   -7.95 input  -57.11 | X-H torsion

> <Gold.Protein.ActiveResidues>
 VAL166  LYS551  ARG553  GLY616  TRP617  ASP618  TYR619  PRO620  LYS621  CYS622 
 ASP623  PHE694  ASN695  SER759  ASP760  ASP761  ALA762  ILE779  LEU786  VAL792 
 PHE793  MET794  SER795  GLU796  ALA797  LYS798  CYS799  TRP800  GLU811  SER814 

> <Gold.Protein.RotatedAtoms>
  152.4471  133.7557  159.6718 H   0  0  0  0  0  0  0  0  0  0  0  0  # atno 6907 bound_to 6896
  150.8373  133.7982  159.3080 H   0  0  0  0  0  0  0  0  0  0  0  0  # atno 6908 bound_to 6896
  151.5617  135.1068  160.0026 H   0  0  0  0  0  0  0  0  0  0  0  0  # atno 6909 bound_to 6896
  144.9516  139.4812  143.5523 H   0  0  0  0  0  0  0  0  0  0  0  0  # atno 7974 bound_to 7965
  155.1911  140.0413  157.2900 H   0  0  0  0  0  0  0  0  0  0  0  0  # atno 8008 bound_to 7997
  154.6138  140.2483  155.7607 H   0  0  0  0  0  0  0  0  0  0  0  0  # atno 8009 bound_to 7997
  156.2394  140.2909  156.0413 H   0  0  0  0  0  0  0  0  0  0  0  0  # atno 8010 bound_to 7997
  140.6331  143.2469  151.5190 H   0  0  0  0  0  0  0  0  0  0  0  0  # atno 10167 bound_to 10162
  157.2892  131.0850  151.1474 H   0  0  0  0  0  0  0  0  0  0  0  0  # atno 10718 bound_to 10713
  152.9791  135.5801  154.4631 H   0  0  0  0  0  0  0  0  0  0  0  0  # atno 10763 bound_to 10752
  154.4204  135.2771  155.1981 H   0  0  0  0  0  0  0  0  0  0  0  0  # atno 10764 bound_to 10752
  154.3732  135.6163  153.5805 H   0  0  0  0  0  0  0  0  0  0  0  0  # atno 10765 bound_to 10752
  140.7182  133.8851  155.8801 H   0  0  0  0  0  0  0  0  0  0  0  0  # atno 11005 bound_to 11000
  146.3323  139.8605  142.8857 LP  0  0  0  0  0  0  0  0  0  0  0  0  # atno 17320 bound_to 7965
  145.2835  141.0146  143.3703 LP  0  0  0  0  0  0  0  0  0  0  0  0  # atno 17321 bound_to 7965
  139.5543  144.2315  152.1585 LP  0  0  0  0  0  0  0  0  0  0  0  0  # atno 17342 bound_to 10162
  140.1564  144.5066  150.6657 LP  0  0  0  0  0  0  0  0  0  0  0  0  # atno 17343 bound_to 10162
  157.2877  130.6781  149.6098 LP  0  0  0  0  0  0  0  0  0  0  0  0  # atno 17370 bound_to 10713
  155.9666  130.4430  150.5405 LP  0  0  0  0  0  0  0  0  0  0  0  0  # atno 17371 bound_to 10713
  141.0026  134.1129  157.4302 LP  0  0  0  0  0  0  0  0  0  0  0  0  # atno 17394 bound_to 11000
  139.8854  135.0072  156.6435 LP  0  0  0  0  0  0  0  0  0  0  0  0  # atno 17395 bound_to 11000

$$$$
