AV-unprocessed.smi:2467|AV-procd|sdf|9725|dock7
  -GOLD-   2272013363D 1   1.00000     0.00000
 Structure written by MMmdl.
 46 47  0  0  0  0  0  0  0  0  1 V2000
  152.5093  139.2968  155.0459 C   0  0  0  0  0  0  0  0  0  0  0  0
  151.0487  138.8848  155.2878 C   0  0  0  0  0  0  0  0  0  0  0  0
  150.0053  139.6629  154.4470 C   0  0  0  0  0  0  0  0  0  0  0  0
  149.7906  141.0934  155.0037 C   0  0  0  0  0  0  0  0  0  0  0  0
  150.7520  141.4875  156.1355 C   0  0  0  0  0  0  0  0  0  0  0  0
  148.6743  138.8755  154.3241 C   0  0  2  0  0  0  0  0  0  0  0  0
  147.6492  139.4934  153.3437 C   0  0  0  0  0  0  0  0  0  0  0  0
  146.3669  138.6482  153.2782 C   0  0  1  0  0  0  0  0  0  0  0  0
  146.6335  137.3907  152.5850 N   0  0  0  0  0  0  0  0  0  0  0  0
  145.7204  136.5044  152.1594 C   0  0  0  0  0  0  0  0  0  0  0  0
  144.5107  136.6759  152.2998 O   0  0  0  0  0  0  0  0  0  0  0  0
  146.2052  135.3928  151.5646 N   0  0  0  0  0  0  0  0  0  0  0  0
  145.5481  134.2580  151.0004 C   0  0  0  0  0  0  0  0  0  0  0  0
  146.4220  133.2694  150.4939 C   0  0  0  0  0  0  0  0  0  0  0  0
  145.8915  132.1013  149.9129 C   0  0  0  0  0  0  0  0  0  0  0  0
  144.4951  131.9481  149.8529 C   0  0  0  0  0  0  0  0  0  0  0  0
  143.6931  132.9769  150.3787 C   0  0  0  0  0  0  0  0  0  0  0  0
  144.2009  134.0970  150.9350 N   0  0  0  0  0  0  0  0  0  0  0  0
  145.8459  138.4071  154.7068 C   0  0  0  0  0  0  0  0  0  0  0  0
  146.9547  137.8613  155.6237 C   0  0  0  0  0  0  0  0  0  0  0  0
  148.0792  138.7353  155.6126 O   0  0  0  0  0  0  0  0  0  0  0  0
  153.1661  138.8144  155.7700 H   0  0  0  0  0  0  0  0  0  0  0  0
  152.6395  140.3743  155.1496 H   0  0  0  0  0  0  0  0  0  0  0  0
  152.8599  139.0061  154.0564 H   0  0  0  0  0  0  0  0  0  0  0  0
  150.9396  137.8130  155.1184 H   0  0  0  0  0  0  0  0  0  0  0  0
  150.8516  139.0378  156.3476 H   0  0  0  0  0  0  0  0  0  0  0  0
  150.4118  139.7631  153.4394 H   0  0  0  0  0  0  0  0  0  0  0  0
  149.9228  141.8279  154.2121 H   0  0  0  0  0  0  0  0  0  0  0  0
  148.7610  141.2092  155.3443 H   0  0  0  0  0  0  0  0  0  0  0  0
  150.6144  142.5345  156.4063 H   0  0  0  0  0  0  0  0  0  0  0  0
  151.7913  141.3603  155.8320 H   0  0  0  0  0  0  0  0  0  0  0  0
  150.5887  140.8997  157.0380 H   0  0  0  0  0  0  0  0  0  0  0  0
  148.9076  137.8801  153.9492 H   0  0  0  0  0  0  0  0  0  0  0  0
  147.3755  140.4987  153.6598 H   0  0  0  0  0  0  0  0  0  0  0  0
  148.0866  139.5931  152.3493 H   0  0  0  0  0  0  0  0  0  0  0  0
  145.6162  139.1997  152.7095 H   0  0  0  0  0  0  0  0  0  0  0  0
  147.6050  137.1637  152.4242 H   0  0  0  0  0  0  0  0  0  0  0  0
  147.2120  135.3653  151.4953 H   0  0  0  0  0  0  0  0  0  0  0  0
  147.4933  133.4005  150.5477 H   0  0  0  0  0  0  0  0  0  0  0  0
  146.5462  131.3367  149.5214 H   0  0  0  0  0  0  0  0  0  0  0  0
  144.0508  131.0661  149.4158 H   0  0  0  0  0  0  0  0  0  0  0  0
  142.6162  132.8990  150.3537 H   0  0  0  0  0  0  0  0  0  0  0  0
  145.4817  139.3497  155.1173 H   0  0  0  0  0  0  0  0  0  0  0  0
  144.9919  137.7288  154.6998 H   0  0  0  0  0  0  0  0  0  0  0  0
  146.5857  137.7792  156.6462 H   0  0  0  0  0  0  0  0  0  0  0  0
  147.2575  136.8588  155.3172 H   0  0  0  0  0  0  0  0  0  0  0  0
  1  2  1  0  0  0  0
  1 22  1  0  0  0  0
  1 23  1  0  0  0  0
  1 24  1  0  0  0  0
  2  3  1  0  0  0  0
  2 25  1  0  0  0  0
  2 26  1  0  0  0  0
  3  4  1  0  0  0  0
  3  6  1  0  0  0  0
  3 27  1  0  0  0  0
  4  5  1  0  0  0  0
  4 28  1  0  0  0  0
  4 29  1  0  0  0  0
  5 30  1  0  0  0  0
  5 31  1  0  0  0  0
  5 32  1  0  0  0  0
  6 21  1  0  0  0  0
  6  7  1  0  0  0  0
  6 33  1  0  0  0  0
  7  8  1  0  0  0  0
  7 34  1  0  0  0  0
  7 35  1  0  0  0  0
  8  9  1  0  0  0  0
  8 19  1  0  0  0  0
  8 36  1  0  0  0  0
  9 10  1  0  0  0  0
  9 37  1  0  0  0  0
 10 11  2  0  0  0  0
 10 12  1  0  0  0  0
 12 13  1  0  0  0  0
 12 38  1  0  0  0  0
 13 18  1  0  0  0  0
 13 14  2  0  0  0  0
 14 15  1  0  0  0  0
 14 39  1  0  0  0  0
 15 16  2  0  0  0  0
 15 40  1  0  0  0  0
 16 17  1  0  0  0  0
 16 41  1  0  0  0  0
 17 18  2  0  0  0  0
 17 42  1  0  0  0  0
 19 20  1  0  0  0  0
 19 43  1  0  0  0  0
 19 44  1  0  0  0  0
 20 21  1  0  0  0  0
 20 45  1  0  0  0  0
 20 46  1  0  0  0  0
M  END
> <s_m_source_file>
AV-unprocessed.smi

> <i_m_source_file_index>
2467

> <i_lp_mmshare_version>
43012

> <i_f3d_flags>
0

> <s_epik_input>
W0NIM11bQ0gyXVtDSF0oW0NIMl1bQ0gzXSlbQ0BASF0xW0NIMl1bQ0BIXShbQ0gyXVtDSDJdTzEpW05IXUMoPU8pW05IXWMyW2NIXVtjSF1bY0hdW2NIXW4y

> <s_epik_cmdline>
J2VwaWtfcHl0aG9uJywgJy1waCcsICc3LjAnLCAnLXRuJywgJzgnLCAnLW1hJywgJzIwMCcsICctbWV0YWxfYmluZGluZycsICctaW1hZScsICc8aW5maWxlLm1hZT4nLCAnLW9tYWUnLCAnPG91dGZpbGUubWFlPic=

> <r_lp_tautomer_probability>
1

> <r_epik_Ionization_Penalty>
4.80427e-05

> <r_epik_Ionization_Penalty_Charging>
0

> <r_epik_Ionization_Penalty_Neutral>
4.80427e-05

> <r_epik_State_Penalty>
-0

> <r_epik_Charging_Adjusted_Penalty>
0

> <i_epik_Tot_Q>
0

> <i_epik_Tot_abs_Q>
0

> <r_epik_Metal_State_Penalty>
-0

> <b_epik_Metal_Only>
0

> <s_lp_Force_Field>
OPLS_2005

> <r_lp_Energy>
18.1019

> <b_lp_Chiralities_Consistent>
1

> <s_lp_Variant>
AV-unprocessed.smi:2467-1

> <Gold.Version>
5.8.1

> <Gold.Id.Protein>
6NUR|6NUR_protein|mol2

> <Gold.PLP.Fitness>
43.3755

> <Gold.PLP.PLP>
-36.2575

> <Gold.PLP.part.hbond>
-2.0000

> <Gold.PLP.part.metal>
0.0000

> <Gold.PLP.part.buried>
0.4533

> <Gold.PLP.part.nonpolar>
-34.0672

> <Gold.PLP.part.repulsive>
0.4752

> <Gold.PLP.ligand.clash>
0.0000

> <Gold.PLP.ligand.torsion>
0.9893

> <Gold.PLP.Chemscore.Hbond>
2.0000

> <Gold.PLP.Chemscore.CHOScore>
0.9952

> <Gold.PLP.Chemscore.Metal>
0.0000

> <Gold.Chemscore.Hbonds>
donor molecule, donor type, donor heavy atom, donor atom, acceptor molecule, acceptor atom, score
      L1  H     9    37       P1  7948  1.00
      L1  H    12    38       P1  7948  1.00
      L1  C    17    42       P1 10186  1.00

> <Gold.PLP.Chemscore.Internal.Correction>
0.1108

> <Gold.Rescore>
     Score         DG    S(hbond)    S(metal)    S(lipo)     H(rot)  DE(clash)    DE(int)     intcor
     16.65     -18.98       1.94        0.00      92.60       1.49       0.05       2.28       ----

> <Gold.Chemscore.Fitness>
16.6464

> <Gold.Chemscore.DG>
-18.9823

> <Gold.Chemscore.ZeroCoef>
-5.4800

> <Gold.Chemscore.Hbond>
1.9374

> <Gold.Chemscore.Metal>
0.0000

> <Gold.Chemscore.Lipo>
92.6034

> <Gold.Chemscore.Internal_Hbond>
0.0000

> <Gold.Chemscore.DEClash>
0.0522

> <Gold.Chemscore.DEInternal>
2.2837

> <Gold.Chemscore.Rot>
1.4856

> <Gold.Chemscore.Internal.Correction>
   9.000000E+99

> <Gold.Chemscore.Hbonds>
donor molecule, donor type, donor heavy atom, donor atom, acceptor molecule, acceptor atom, score
      L1  H     9    37       P1  7948  0.99
      L1  H    12    38       P1  7948  0.89

> <Gold.Chemscore.Hbond.Weighted>
-6.4708

> <Gold.Chemscore.Metal.Weighted>
-0.0000

> <Gold.Chemscore.Lipo.Weighted>
-10.8346

> <Gold.Chemscore.Internal_Hbond.Weighted>
0.0000

> <Gold.Chemscore.DEClash.Weighted>
0.0522

> <Gold.Chemscore.DEInternal.Weighted>
2.2837

> <Gold.Chemscore.Rot.Weighted>
3.8031

> <Gold.Chemscore.Internal.Correction.Weighted>
   9.000000E+99

> <Gold.Protein.RotatedTorsions>
[ 6907 6896 6895 6894 ] final  -46.63 input  -60.11 | X-H torsion
[ 7974 7965 7964 7962 ] final  -89.33 input  175.53 | X-H torsion
[ 8008 7997 7996 7995 ] final  158.76 input   59.86 | X-H torsion
[ 10167 10162 10161 10158 ] final  -25.81 input  -65.29 | X-H torsion
[ 10718 10713 10712 10709 ] final  -14.18 input   66.30 | X-H torsion
[ 10763 10752 10751 10750 ] final -119.95 input  -60.55 | X-H torsion
[ 11005 11000 10999 10996 ] final  -90.60 input  -57.11 | X-H torsion

> <Gold.Protein.ActiveResidues>
 VAL166  LYS551  ARG553  GLY616  TRP617  ASP618  TYR619  PRO620  LYS621  CYS622 
 ASP623  PHE694  ASN695  SER759  ASP760  ASP761  ALA762  ILE779  LEU786  VAL792 
 PHE793  MET794  SER795  GLU796  ALA797  LYS798  CYS799  TRP800  GLU811  SER814 

> <Gold.Protein.RotatedAtoms>
  150.9093  134.8509  159.7413 H   0  0  0  0  0  0  0  0  0  0  0  0  # atno 6907 bound_to 6896
  152.4935  134.4384  159.9545 H   0  0  0  0  0  0  0  0  0  0  0  0  # atno 6908 bound_to 6896
  151.4428  133.3599  159.2819 H   0  0  0  0  0  0  0  0  0  0  0  0  # atno 6909 bound_to 6896
  145.4412  140.9559  143.2074 H   0  0  0  0  0  0  0  0  0  0  0  0  # atno 7974 bound_to 7965
  156.2282  140.1849  156.7309 H   0  0  0  0  0  0  0  0  0  0  0  0  # atno 8008 bound_to 7997
  154.5977  140.0641  156.9354 H   0  0  0  0  0  0  0  0  0  0  0  0  # atno 8009 bound_to 7997
  155.2227  140.3308  155.4316 H   0  0  0  0  0  0  0  0  0  0  0  0  # atno 8010 bound_to 7997
  140.7285  143.4233  151.0917 H   0  0  0  0  0  0  0  0  0  0  0  0  # atno 10167 bound_to 10162
  156.6196  130.4872  149.6170 H   0  0  0  0  0  0  0  0  0  0  0  0  # atno 10718 bound_to 10713
  154.8631  135.4220  154.2381 H   0  0  0  0  0  0  0  0  0  0  0  0  # atno 10763 bound_to 10752
  153.3352  135.6990  153.6919 H   0  0  0  0  0  0  0  0  0  0  0  0  # atno 10764 bound_to 10752
  153.5920  135.3553  155.2887 H   0  0  0  0  0  0  0  0  0  0  0  0  # atno 10765 bound_to 10752
  141.1562  133.7702  156.9761 H   0  0  0  0  0  0  0  0  0  0  0  0  # atno 11005 bound_to 11000
  144.8120  139.5944  143.7025 LP  0  0  0  0  0  0  0  0  0  0  0  0  # atno 17320 bound_to 7965
  146.2555  139.6293  142.9398 LP  0  0  0  0  0  0  0  0  0  0  0  0  # atno 17321 bound_to 7965
  139.7881  143.8258  152.3148 LP  0  0  0  0  0  0  0  0  0  0  0  0  # atno 17342 bound_to 10162
  139.8232  144.7286  150.9545 LP  0  0  0  0  0  0  0  0  0  0  0  0  # atno 17343 bound_to 10162
  156.2322  130.6801  151.1475 LP  0  0  0  0  0  0  0  0  0  0  0  0  # atno 17370 bound_to 10713
  157.7231  131.0668  150.6049 LP  0  0  0  0  0  0  0  0  0  0  0  0  # atno 17371 bound_to 10713
  140.1097  134.9484  157.2046 LP  0  0  0  0  0  0  0  0  0  0  0  0  # atno 17394 bound_to 11000
  140.3210  134.2916  155.7246 LP  0  0  0  0  0  0  0  0  0  0  0  0  # atno 17395 bound_to 11000

$$$$
