AV-unprocessed.smi:266|AV-procd|sdf|2035|dock10
  -GOLD-   2262021243D 1   1.00000     0.00000
 Structure written by MMmdl.
 52 55  0  0  0  0  0  0  0  0  1 V2000
  145.3888  136.1056  152.7689 C   0  0  0  0  0  0  0  0  0  0  0  0
  144.2564  135.5452  151.8942 C   0  0  2  0  0  0  0  0  0  0  0  0
  143.2715  134.9900  152.7617 O   0  0  0  0  0  0  0  0  0  0  0  0
  142.6234  133.9233  152.0922 C   0  0  0  0  0  0  0  0  0  0  0  0
  143.7784  133.2375  151.3789 C   0  0  0  0  0  0  0  0  0  0  0  0
  144.6328  134.4090  150.9009 C   0  0  1  0  0  0  0  0  0  0  0  0
  144.1659  134.7906  149.6171 O   0  0  0  0  0  0  0  0  0  0  0  0
  146.1420  134.0694  150.7804 C   0  0  0  0  0  0  0  0  0  0  0  0
  146.6030  133.1138  151.7765 N   0  0  0  0  0  0  0  0  0  0  0  0
  147.3368  133.3919  152.9070 C   0  0  0  0  0  0  0  0  0  0  0  0
  147.6308  132.3584  153.6470 N   0  0  0  0  0  0  0  0  0  0  0  0
  147.0467  131.2847  152.9847 C   0  0  0  0  0  0  0  0  0  0  0  0
  146.9695  129.8816  153.2262 C   0  0  0  0  0  0  0  0  0  0  0  0
  147.5103  129.2356  154.2870 N   0  0  0  0  0  0  0  0  0  0  0  0
  148.4238  128.1769  153.8800 C   0  0  0  0  0  0  0  0  0  0  0  0
  147.8769  130.0096  155.4729 C   0  0  0  0  0  0  0  0  0  0  0  0
  149.3567  129.8581  155.8870 C   0  0  1  0  0  0  0  0  0  0  0  0
  150.3276  130.5854  154.9344 C   0  0  0  0  0  0  0  0  0  0  0  0
  151.7127  130.6261  155.5866 C   0  0  0  0  0  0  0  0  0  0  0  0
  151.4056  130.7788  157.3853 S   0  0  0  0  0  0  0  0  0  0  0  0
  152.1168  129.6987  158.0856 O   0  0  0  0  0  0  0  0  0  0  0  0
  151.5682  132.1823  157.7942 O   0  0  0  0  0  0  0  0  0  0  0  0
  149.6168  130.3855  157.3060 C   0  0  0  0  0  0  0  0  0  0  0  0
  146.3110  129.1204  152.3163 N   0  0  0  0  0  0  0  0  0  0  0  0
  145.7426  129.6889  151.2492 C   0  0  0  0  0  0  0  0  0  0  0  0
  145.7203  130.9771  150.9029 N   0  0  0  0  0  0  0  0  0  0  0  0
  146.3967  131.7452  151.8042 C   0  0  0  0  0  0  0  0  0  0  0  0
  146.1769  136.5531  152.1631 H   0  0  0  0  0  0  0  0  0  0  0  0
  145.8337  135.3304  153.3930 H   0  0  0  0  0  0  0  0  0  0  0  0
  145.0101  136.8817  153.4343 H   0  0  0  0  0  0  0  0  0  0  0  0
  143.7918  136.3769  151.3610 H   0  0  0  0  0  0  0  0  0  0  0  0
  142.1055  133.2646  152.7896 H   0  0  0  0  0  0  0  0  0  0  0  0
  141.8974  134.3182  151.3798 H   0  0  0  0  0  0  0  0  0  0  0  0
  144.3301  132.6427  152.1075 H   0  0  0  0  0  0  0  0  0  0  0  0
  143.4561  132.5685  150.5797 H   0  0  0  0  0  0  0  0  0  0  0  0
  144.8303  134.5754  148.9807 H   0  0  0  0  0  0  0  0  0  0  0  0
  146.3629  133.6611  149.7933 H   0  0  0  0  0  0  0  0  0  0  0  0
  146.7460  134.9710  150.8833 H   0  0  0  0  0  0  0  0  0  0  0  0
  147.6551  134.3917  153.1641 H   0  0  0  0  0  0  0  0  0  0  0  0
  147.9039  127.4174  153.2951 H   0  0  0  0  0  0  0  0  0  0  0  0
  148.8591  127.6850  154.7502 H   0  0  0  0  0  0  0  0  0  0  0  0
  149.2377  128.5803  153.2761 H   0  0  0  0  0  0  0  0  0  0  0  0
  147.6741  131.0619  155.2706 H   0  0  0  0  0  0  0  0  0  0  0  0
  147.2215  129.7381  156.3001 H   0  0  0  0  0  0  0  0  0  0  0  0
  149.6351  128.8040  155.8935 H   0  0  0  0  0  0  0  0  0  0  0  0
  150.3672  130.1099  153.9538 H   0  0  0  0  0  0  0  0  0  0  0  0
  149.9800  131.6074  154.7785 H   0  0  0  0  0  0  0  0  0  0  0  0
  152.2489  129.6927  155.4134 H   0  0  0  0  0  0  0  0  0  0  0  0
  152.3279  131.4542  155.2347 H   0  0  0  0  0  0  0  0  0  0  0  0
  149.0657  131.3079  157.4908 H   0  0  0  0  0  0  0  0  0  0  0  0
  149.3552  129.6644  158.0806 H   0  0  0  0  0  0  0  0  0  0  0  0
  145.2320  129.0153  150.5768 H   0  0  0  0  0  0  0  0  0  0  0  0
  1  2  1  0  0  0  0
  1 28  1  0  0  0  0
  1 29  1  0  0  0  0
  1 30  1  0  0  0  0
  2  6  1  0  0  0  0
  2  3  1  0  0  0  0
  2 31  1  0  0  0  0
  3  4  1  0  0  0  0
  4  5  1  0  0  0  0
  4 32  1  0  0  0  0
  4 33  1  0  0  0  0
  5  6  1  0  0  0  0
  5 34  1  0  0  0  0
  5 35  1  0  0  0  0
  6  7  1  0  0  0  0
  6  8  1  0  0  0  0
  7 36  1  0  0  0  0
  8  9  1  0  0  0  0
  8 37  1  0  0  0  0
  8 38  1  0  0  0  0
  9 27  1  0  0  0  0
  9 10  1  0  0  0  0
 10 11  2  0  0  0  0
 10 39  1  0  0  0  0
 11 12  1  0  0  0  0
 12 27  2  0  0  0  0
 12 13  1  0  0  0  0
 13 14  1  0  0  0  0
 13 24  2  0  0  0  0
 14 15  1  0  0  0  0
 14 16  1  0  0  0  0
 15 40  1  0  0  0  0
 15 41  1  0  0  0  0
 15 42  1  0  0  0  0
 16 17  1  0  0  0  0
 16 43  1  0  0  0  0
 16 44  1  0  0  0  0
 17 23  1  0  0  0  0
 17 18  1  0  0  0  0
 17 45  1  0  0  0  0
 18 19  1  0  0  0  0
 18 46  1  0  0  0  0
 18 47  1  0  0  0  0
 19 20  1  0  0  0  0
 19 48  1  0  0  0  0
 19 49  1  0  0  0  0
 20 21  2  0  0  0  0
 20 22  2  0  0  0  0
 20 23  1  0  0  0  0
 23 50  1  0  0  0  0
 23 51  1  0  0  0  0
 24 25  1  0  0  0  0
 25 26  2  0  0  0  0
 25 52  1  0  0  0  0
 26 27  1  0  0  0  0
M  END
> <s_m_source_file>
AV-unprocessed.smi

> <i_m_source_file_index>
266

> <i_lp_mmshare_version>
43012

> <i_f3d_flags>
0

> <s_epik_input>
W0NIMl0xW0NIMl1PW0NAQEhdKFtDSDNdKVtDQEBdMShbT0hdKVtDSDJdbihbY0hdbjIpYyhjMjMpbltjSF1uYzNOKFtDSDNdKVtDSDJdW0NAQEhdKFtDSDJdNClbQ0gyXVtDSDJdUzQoPU8pPU8=

> <s_epik_cmdline>
J2VwaWtfcHl0aG9uJywgJy1waCcsICc3LjAnLCAnLXRuJywgJzgnLCAnLW1hJywgJzIwMCcsICctbWV0YWxfYmluZGluZycsICctaW1hZScsICc8aW5maWxlLm1hZT4nLCAnLW9tYWUnLCAnPG91dGZpbGUubWFlPic=

> <r_lp_tautomer_probability>
1

> <r_epik_Ionization_Penalty>
0.00155497

> <r_epik_Ionization_Penalty_Charging>
0

> <r_epik_Ionization_Penalty_Neutral>
0.00155497

> <r_epik_State_Penalty>
-0

> <r_epik_Charging_Adjusted_Penalty>
0

> <i_epik_Tot_Q>
0

> <i_epik_Tot_abs_Q>
0

> <r_epik_Metal_State_Penalty>
-0

> <b_epik_Metal_Only>
0

> <s_lp_Force_Field>
OPLS_2005

> <r_lp_Energy>
31.7586

> <b_lp_Chiralities_Consistent>
1

> <s_lp_Variant>
AV-unprocessed.smi:266-5

> <Gold.Version>
5.8.1

> <Gold.Id.Protein>
6NUR|6NUR_protein|mol2

> <Gold.PLP.Fitness>
41.3738

> <Gold.PLP.PLP>
-35.1882

> <Gold.PLP.part.hbond>
-2.6678

> <Gold.PLP.part.metal>
0.0000

> <Gold.PLP.part.buried>
-6.0525

> <Gold.PLP.part.nonpolar>
-26.1494

> <Gold.PLP.part.repulsive>
0.5265

> <Gold.PLP.ligand.clash>
0.0000

> <Gold.PLP.ligand.torsion>
1.7058

> <Gold.PLP.Chemscore.Hbond>
2.0000

> <Gold.PLP.Chemscore.CHOScore>
1.0000

> <Gold.PLP.Chemscore.Metal>
0.0000

> <Gold.Chemscore.Hbonds>
donor molecule, donor type, donor heavy atom, donor atom, acceptor molecule, acceptor atom, score
      L1  H     7    36       P1  7921  1.00
      P1  H  6896  6907       L1    22  1.00
      L1  C    10    39       P1  7948  0.90

> <Gold.PLP.Chemscore.Internal.Correction>
0.5972

> <Gold.Rescore>
     Score         DG    S(hbond)    S(metal)    S(lipo)     H(rot)  DE(clash)    DE(int)     intcor
      9.03     -11.70       1.99        0.00      56.87       2.76       0.02       2.64       ----

> <Gold.Chemscore.Fitness>
9.0293

> <Gold.Chemscore.DG>
-11.6952

> <Gold.Chemscore.ZeroCoef>
-5.4800

> <Gold.Chemscore.Hbond>
1.9869

> <Gold.Chemscore.Metal>
0.0000

> <Gold.Chemscore.Lipo>
56.8715

> <Gold.Chemscore.Internal_Hbond>
0.0000

> <Gold.Chemscore.DEClash>
0.0249

> <Gold.Chemscore.DEInternal>
2.6410

> <Gold.Chemscore.Rot>
2.7637

> <Gold.Chemscore.Internal.Correction>
   9.000000E+99

> <Gold.Chemscore.Hbonds>
donor molecule, donor type, donor heavy atom, donor atom, acceptor molecule, acceptor atom, score
      L1  H     7    36       P1  7921  0.99
      P1  H  6896  6907       L1    22  1.00

> <Gold.Chemscore.Hbond.Weighted>
-6.6362

> <Gold.Chemscore.Metal.Weighted>
-0.0000

> <Gold.Chemscore.Lipo.Weighted>
-6.6540

> <Gold.Chemscore.Internal_Hbond.Weighted>
0.0000

> <Gold.Chemscore.DEClash.Weighted>
0.0249

> <Gold.Chemscore.DEInternal.Weighted>
2.6410

> <Gold.Chemscore.Rot.Weighted>
7.0750

> <Gold.Chemscore.Internal.Correction.Weighted>
   9.000000E+99

> <Gold.Protein.RotatedTorsions>
[ 6907 6896 6895 6894 ] final -171.40 input  -60.11 | X-H torsion
[ 7974 7965 7964 7962 ] final  -42.92 input  175.53 | X-H torsion
[ 8008 7997 7996 7995 ] final  174.90 input   59.86 | X-H torsion
[ 10167 10162 10161 10158 ] final  120.34 input  -65.29 | X-H torsion
[ 10718 10713 10712 10709 ] final  122.57 input   66.30 | X-H torsion
[ 10763 10752 10751 10750 ] final   56.86 input  -60.55 | X-H torsion
[ 11005 11000 10999 10996 ] final  108.30 input  -57.11 | X-H torsion

> <Gold.Protein.ActiveResidues>
 VAL166  LYS551  ARG553  GLY616  TRP617  ASP618  TYR619  PRO620  LYS621  CYS622 
 ASP623  PHE694  ASN695  SER759  ASP760  ASP761  ALA762  ILE779  LEU786  VAL792 
 PHE793  MET794  SER795  GLU796  ALA797  LYS798  CYS799  TRP800  GLU811  SER814 

> <Gold.Protein.RotatedAtoms>
  151.5232  133.3462  159.2904 H   0  0  0  0  0  0  0  0  0  0  0  0  # atno 6907 bound_to 6896
  150.8639  134.8000  159.7115 H   0  0  0  0  0  0  0  0  0  0  0  0  # atno 6908 bound_to 6896
  152.4650  134.5106  159.9804 H   0  0  0  0  0  0  0  0  0  0  0  0  # atno 6909 bound_to 6896
  146.0069  140.7009  142.9243 H   0  0  0  0  0  0  0  0  0  0  0  0  # atno 7974 bound_to 7965
  156.0927  140.1423  156.9571 H   0  0  0  0  0  0  0  0  0  0  0  0  # atno 8008 bound_to 7997
  154.4652  140.0929  156.7047 H   0  0  0  0  0  0  0  0  0  0  0  0  # atno 8009 bound_to 7997
  155.4893  140.3447  155.4354 H   0  0  0  0  0  0  0  0  0  0  0  0  # atno 8010 bound_to 7997
  139.5988  144.7050  151.3112 H   0  0  0  0  0  0  0  0  0  0  0  0  # atno 10167 bound_to 10162
  157.5732  131.1081  150.8328 H   0  0  0  0  0  0  0  0  0  0  0  0  # atno 10718 bound_to 10713
  152.9839  135.5661  154.5298 H   0  0  0  0  0  0  0  0  0  0  0  0  # atno 10763 bound_to 10752
  154.4771  135.2787  155.1601 H   0  0  0  0  0  0  0  0  0  0  0  0  # atno 10764 bound_to 10752
  154.3125  135.6285  153.5525 H   0  0  0  0  0  0  0  0  0  0  0  0  # atno 10765 bound_to 10752
  139.8842  134.9426  156.5951 H   0  0  0  0  0  0  0  0  0  0  0  0  # atno 11005 bound_to 11000
  144.6939  140.3331  143.7212 LP  0  0  0  0  0  0  0  0  0  0  0  0  # atno 17320 bound_to 7965
  145.7402  139.1762  143.2380 LP  0  0  0  0  0  0  0  0  0  0  0  0  # atno 17321 bound_to 7965
  140.7233  143.7074  150.7796 LP  0  0  0  0  0  0  0  0  0  0  0  0  # atno 17342 bound_to 10162
  140.0646  143.5121  152.2610 LP  0  0  0  0  0  0  0  0  0  0  0  0  # atno 17343 bound_to 10162
  156.8794  130.5174  149.5292 LP  0  0  0  0  0  0  0  0  0  0  0  0  # atno 17370 bound_to 10713
  156.0777  130.5795  150.9505 LP  0  0  0  0  0  0  0  0  0  0  0  0  # atno 17371 bound_to 10713
  140.7926  133.8570  155.8659 LP  0  0  0  0  0  0  0  0  0  0  0  0  # atno 17394 bound_to 11000
  140.9664  134.1589  157.4613 LP  0  0  0  0  0  0  0  0  0  0  0  0  # atno 17395 bound_to 11000

$$$$
