AV-unprocessed.smi:3132|AV-procd|sdf|11930|dock8
  -GOLD-   2272017313D 1   1.00000     0.00000
 Structure written by MMmdl.
 34 35  0  0  0  0  0  0  0  0  2 V2000
  149.5597  141.4038  156.9947 C   0  0  0  0  0  0  0  0  0  0  0  0
  150.9134  140.7189  157.2242 C   0  0  1  0  0  0  0  0  0  0  0  0
  151.6403  140.4590  155.8863 C   0  0  0  0  0  0  0  0  0  0  0  0
  151.2700  139.1823  155.2667 N   0  0  0  0  0  0  0  0  0  0  0  0
  151.6269  137.9228  155.6761 C   0  0  0  0  0  0  0  0  0  0  0  0
  151.0398  137.0466  154.8000 C   0  0  0  0  0  0  0  0  0  0  0  0
  150.3558  137.8077  153.8903 N   0  3  0  0  0  0  0  0  0  0  0  0
  150.5015  139.1063  154.1726 C   0  0  0  0  0  0  0  0  0  0  0  0
  151.7196  141.5563  158.1114 N   0  0  0  0  0  0  0  0  0  0  0  0
  152.8566  141.1881  158.7233 C   0  0  0  0  0  0  0  0  0  0  0  0
  153.3691  140.0768  158.5823 O   0  0  0  0  0  0  0  0  0  0  0  0
  153.5080  142.2397  159.6335 C   0  0  2  0  0  0  0  0  0  0  0  0
  153.5659  141.8223  161.1169 C   0  0  0  0  0  0  0  0  0  0  0  0
  152.8025  142.9161  161.8437 C   0  0  0  0  0  0  0  0  0  0  0  0
  151.8943  143.4735  160.7578 C   0  0  0  0  0  0  0  0  0  0  0  0
  152.7188  143.4279  159.6025 O   0  0  0  0  0  0  0  0  0  0  0  0
  148.9115  140.7913  156.3675 H   0  0  0  0  0  0  0  0  0  0  0  0
  149.6809  142.3702  156.5040 H   0  0  0  0  0  0  0  0  0  0  0  0
  149.0387  141.5715  157.9382 H   0  0  0  0  0  0  0  0  0  0  0  0
  150.7095  139.7628  157.7099 H   0  0  0  0  0  0  0  0  0  0  0  0
  151.4057  141.2457  155.1678 H   0  0  0  0  0  0  0  0  0  0  0  0
  152.7225  140.4704  156.0237 H   0  0  0  0  0  0  0  0  0  0  0  0
  152.2493  137.7482  156.5417 H   0  0  0  0  0  0  0  0  0  0  0  0
  151.0567  135.9672  154.7567 H   0  0  0  0  0  0  0  0  0  0  0  0
  150.0737  139.9305  153.6302 H   0  0  0  0  0  0  0  0  0  0  0  0
  151.3720  142.4870  158.2936 H   0  0  0  0  0  0  0  0  0  0  0  0
  154.5066  142.4835  159.2675 H   0  0  0  0  0  0  0  0  0  0  0  0
  153.0927  140.8550  161.2921 H   0  0  0  0  0  0  0  0  0  0  0  0
  154.5922  141.7484  161.4783 H   0  0  0  0  0  0  0  0  0  0  0  0
  152.2538  142.5512  162.7121 H   0  0  0  0  0  0  0  0  0  0  0  0
  153.4932  143.6912  162.1784 H   0  0  0  0  0  0  0  0  0  0  0  0
  151.0182  142.8388  160.6168 H   0  0  0  0  0  0  0  0  0  0  0  0
  151.5546  144.4873  160.9695 H   0  0  0  0  0  0  0  0  0  0  0  0
  149.8148  137.4434  153.1161 H   0  0  0  0  0  0  0  0  0  0  0  0
  1  2  1  0  0  0  0
  1 17  1  0  0  0  0
  1 18  1  0  0  0  0
  1 19  1  0  0  0  0
  2  3  1  0  0  0  0
  2  9  1  0  0  0  0
  2 20  1  0  0  0  0
  3  4  1  0  0  0  0
  3 21  1  0  0  0  0
  3 22  1  0  0  0  0
  4  8  1  0  0  0  0
  4  5  1  0  0  0  0
  5  6  2  0  0  0  0
  5 23  1  0  0  0  0
  6  7  1  0  0  0  0
  6 24  1  0  0  0  0
  7  8  2  0  0  0  0
  7 34  1  0  0  0  0
  8 25  1  0  0  0  0
  9 10  1  0  0  0  0
  9 26  1  0  0  0  0
 10 11  2  0  0  0  0
 10 12  1  0  0  0  0
 12 16  1  0  0  0  0
 12 13  1  0  0  0  0
 12 27  1  0  0  0  0
 13 14  1  0  0  0  0
 13 28  1  0  0  0  0
 13 29  1  0  0  0  0
 14 15  1  0  0  0  0
 14 30  1  0  0  0  0
 14 31  1  0  0  0  0
 15 16  1  0  0  0  0
 15 32  1  0  0  0  0
 15 33  1  0  0  0  0
M  CHG  1   7   1
M  END
> <s_m_source_file>
AV-unprocessed.smi

> <i_m_source_file_index>
3132

> <i_lp_mmshare_version>
43012

> <i_f3d_flags>
0

> <s_epik_input>
W2NIXTFuW2NIXVtjSF1uMVtDSDJdW0NAQEhdKFtDSDNdKVtOSF1DKD1PKVtDQEBIXTJbQ0gyXVtDSDJdW0NIMl1PMg==

> <s_epik_cmdline>
J2VwaWtfcHl0aG9uJywgJy1waCcsICc3LjAnLCAnLXRuJywgJzgnLCAnLW1hJywgJzIwMCcsICctbWV0YWxfYmluZGluZycsICctaW1hZScsICc8aW5maWxlLm1hZT4nLCAnLW9tYWUnLCAnPG91dGZpbGUubWFlPic=

> <r_lp_tautomer_probability>
1

> <r_epik_Ionization_Penalty>
0.250802

> <r_epik_Ionization_Penalty_Charging>
0

> <r_epik_Ionization_Penalty_Neutral>
0.250802

> <r_epik_State_Penalty>
0.242139

> <r_epik_Charging_Adjusted_Penalty>
0.242139

> <i_epik_Tot_Q>
1

> <i_epik_Tot_abs_Q>
1

> <r_epik_Metal_State_Penalty>
0.533361

> <b_epik_Metal_Only>
0

> <s_lp_Force_Field>
OPLS_2005

> <r_lp_Energy>
21.4246

> <b_lp_Chiralities_Consistent>
1

> <s_lp_Variant>
AV-unprocessed.smi:3132-2

> <Gold.Version>
5.8.1

> <Gold.Id.Protein>
6NUR|6NUR_protein|mol2

> <Gold.PLP.Fitness>
46.3197

> <Gold.PLP.PLP>
-35.6181

> <Gold.PLP.part.hbond>
-2.6821

> <Gold.PLP.part.metal>
0.0000

> <Gold.PLP.part.buried>
-4.4159

> <Gold.PLP.part.nonpolar>
-27.7009

> <Gold.PLP.part.repulsive>
0.1452

> <Gold.PLP.ligand.clash>
0.0000

> <Gold.PLP.ligand.torsion>
0.5982

> <Gold.PLP.Chemscore.Hbond>
3.0000

> <Gold.PLP.Chemscore.CHOScore>
0.9616

> <Gold.PLP.Chemscore.Metal>
0.0000

> <Gold.Chemscore.Hbonds>
donor molecule, donor type, donor heavy atom, donor atom, acceptor molecule, acceptor atom, score
      L1  H     7    34       P1  7948  2.00
      P1  H  7997  8010       L1    11  1.00
      L1  C     8    25       P1  7957  0.94

> <Gold.PLP.Chemscore.Internal.Correction>
0.0134

> <Gold.Rescore>
     Score         DG    S(hbond)    S(metal)    S(lipo)     H(rot)  DE(clash)    DE(int)     intcor
     14.59     -15.22       1.81        0.00      73.77       1.93       0.05       0.58       ----

> <Gold.Chemscore.Fitness>
14.5863

> <Gold.Chemscore.DG>
-15.2226

> <Gold.Chemscore.ZeroCoef>
-5.4800

> <Gold.Chemscore.Hbond>
1.8128

> <Gold.Chemscore.Metal>
0.0000

> <Gold.Chemscore.Lipo>
73.7684

> <Gold.Chemscore.Internal_Hbond>
0.0000

> <Gold.Chemscore.DEClash>
0.0547

> <Gold.Chemscore.DEInternal>
0.5816

> <Gold.Chemscore.Rot>
1.9308

> <Gold.Chemscore.Internal.Correction>
   9.000000E+99

> <Gold.Chemscore.Hbonds>
donor molecule, donor type, donor heavy atom, donor atom, acceptor molecule, acceptor atom, score
      L1  H     7    34       P1  7948  0.45
      P1  H  7997  8010       L1    11  0.77

> <Gold.Chemscore.Hbond.Weighted>
-6.0546

> <Gold.Chemscore.Metal.Weighted>
-0.0000

> <Gold.Chemscore.Lipo.Weighted>
-8.6309

> <Gold.Chemscore.Internal_Hbond.Weighted>
0.0000

> <Gold.Chemscore.DEClash.Weighted>
0.0547

> <Gold.Chemscore.DEInternal.Weighted>
0.5816

> <Gold.Chemscore.Rot.Weighted>
4.9429

> <Gold.Chemscore.Internal.Correction.Weighted>
   9.000000E+99

> <Gold.Protein.RotatedTorsions>
[ 6907 6896 6895 6894 ] final   13.17 input  -60.11 | X-H torsion
[ 7974 7965 7964 7962 ] final  -53.54 input  175.53 | X-H torsion
[ 8008 7997 7996 7995 ] final   27.66 input   59.86 | X-H torsion
[ 10167 10162 10161 10158 ] final   73.98 input  -65.29 | X-H torsion
[ 10718 10713 10712 10709 ] final  115.46 input   66.30 | X-H torsion
[ 10763 10752 10751 10750 ] final   33.25 input  -60.55 | X-H torsion
[ 11005 11000 10999 10996 ] final  107.03 input  -57.11 | X-H torsion

> <Gold.Protein.ActiveResidues>
 VAL166  LYS551  ARG553  GLY616  TRP617  ASP618  TYR619  PRO620  LYS621  CYS622 
 ASP623  PHE694  ASN695  SER759  ASP760  ASP761  ALA762  ILE779  LEU786  VAL792 
 PHE793  MET794  SER795  GLU796  ALA797  LYS798  CYS799  TRP800  GLU811  SER814 

> <Gold.Protein.RotatedAtoms>
  151.7821  135.0759  160.0374 H   0  0  0  0  0  0  0  0  0  0  0  0  # atno 6907 bound_to 6896
  152.3216  133.5855  159.5756 H   0  0  0  0  0  0  0  0  0  0  0  0  # atno 6908 bound_to 6896
  150.7372  133.9919  159.3652 H   0  0  0  0  0  0  0  0  0  0  0  0  # atno 6909 bound_to 6896
  145.8957  140.8035  142.9769 H   0  0  0  0  0  0  0  0  0  0  0  0  # atno 7974 bound_to 7965
  155.0464  140.3175  155.4707 H   0  0  0  0  0  0  0  0  0  0  0  0  # atno 8008 bound_to 7997
  156.2844  140.2154  156.5533 H   0  0  0  0  0  0  0  0  0  0  0  0  # atno 8009 bound_to 7997
  154.7246  140.0486  157.0659 H   0  0  0  0  0  0  0  0  0  0  0  0  # atno 8010 bound_to 7997
  140.0187  144.5558  150.7599 H   0  0  0  0  0  0  0  0  0  0  0  0  # atno 10167 bound_to 10162
  157.6221  131.1013  150.7333 H   0  0  0  0  0  0  0  0  0  0  0  0  # atno 10718 bound_to 10713
  153.0221  135.6392  154.1483 H   0  0  0  0  0  0  0  0  0  0  0  0  # atno 10763 bound_to 10752
  154.1216  135.2846  155.3208 H   0  0  0  0  0  0  0  0  0  0  0  0  # atno 10764 bound_to 10752
  154.6259  135.5509  153.7689 H   0  0  0  0  0  0  0  0  0  0  0  0  # atno 10765 bound_to 10752
  139.8822  134.9388  156.5756 H   0  0  0  0  0  0  0  0  0  0  0  0  # atno 11005 bound_to 11000
  144.6733  140.1599  143.7423 LP  0  0  0  0  0  0  0  0  0  0  0  0  # atno 17320 bound_to 7965
  145.8853  139.2345  143.1581 LP  0  0  0  0  0  0  0  0  0  0  0  0  # atno 17321 bound_to 7965
  140.7351  143.2737  151.3807 LP  0  0  0  0  0  0  0  0  0  0  0  0  # atno 17342 bound_to 10162
  139.6155  144.1012  152.2341 LP  0  0  0  0  0  0  0  0  0  0  0  0  # atno 17343 bound_to 10162
  156.7688  130.4822  149.5422 LP  0  0  0  0  0  0  0  0  0  0  0  0  # atno 17370 bound_to 10713
  156.1371  130.6219  151.0416 LP  0  0  0  0  0  0  0  0  0  0  0  0  # atno 17371 bound_to 10713
  140.8065  133.8463  155.8772 LP  0  0  0  0  0  0  0  0  0  0  0  0  # atno 17394 bound_to 11000
  140.9545  134.1736  157.4702 LP  0  0  0  0  0  0  0  0  0  0  0  0  # atno 17395 bound_to 11000

$$$$
