AV-unprocessed.smi:507|AV-procd|sdf|2756|dock3
  -GOLD-   2262023223D 1   1.00000     0.00000
 Structure written by MMmdl.
 33 34  0  0  0  0  0  0  0  0  1 V2000
  153.1382  142.6912  161.7449 C   0  0  0  0  0  0  0  0  0  0  0  0
  152.5260  142.3692  160.3929 C   0  0  0  0  0  0  0  0  0  0  0  0
  152.5742  141.0402  159.9149 C   0  0  0  0  0  0  0  0  0  0  0  0
  152.0181  140.7004  158.6622 C   0  0  0  0  0  0  0  0  0  0  0  0
  151.9542  139.4821  158.0080 N   0  0  0  0  0  0  0  0  0  0  0  0
  151.3212  139.8136  156.8862 C   0  0  0  0  0  0  0  0  0  0  0  0
  150.9670  141.1044  156.7359 N   0  0  0  0  0  0  0  0  0  0  0  0
  150.2815  141.7004  155.6025 C   0  0  0  0  0  0  0  0  0  0  0  0
  149.4366  140.6800  154.8146 C   0  0  2  0  0  0  0  0  0  0  0  0
  150.2927  139.9337  153.9716 O   0  0  0  0  0  0  0  0  0  0  0  0
  148.3737  141.3724  153.9431 C   0  0  0  0  0  0  0  0  0  0  0  0
  147.7147  140.4468  153.0102 N   0  0  0  0  0  0  0  0  0  0  0  0
  151.4092  141.7352  157.8935 C   0  0  0  0  0  0  0  0  0  0  0  0
  151.3542  143.0609  158.3583 C   0  0  0  0  0  0  0  0  0  0  0  0
  151.9126  143.3827  159.6132 C   0  0  0  0  0  0  0  0  0  0  0  0
  151.8452  144.8166  160.1083 C   0  0  0  0  0  0  0  0  0  0  0  0
  153.5591  141.8014  162.2141 H   0  0  0  0  0  0  0  0  0  0  0  0
  152.3847  143.0988  162.4191 H   0  0  0  0  0  0  0  0  0  0  0  0
  153.9395  143.4226  161.6371 H   0  0  0  0  0  0  0  0  0  0  0  0
  153.0408  140.2675  160.5082 H   0  0  0  0  0  0  0  0  0  0  0  0
  151.1014  139.0752  156.1290 H   0  0  0  0  0  0  0  0  0  0  0  0
  149.6464  142.5027  155.9797 H   0  0  0  0  0  0  0  0  0  0  0  0
  151.0214  142.1688  154.9513 H   0  0  0  0  0  0  0  0  0  0  0  0
  148.9568  139.9997  155.5198 H   0  0  0  0  0  0  0  0  0  0  0  0
  149.8404  139.7596  153.1605 H   0  0  0  0  0  0  0  0  0  0  0  0
  147.6075  141.7941  154.5946 H   0  0  0  0  0  0  0  0  0  0  0  0
  148.8049  142.2186  153.4069 H   0  0  0  0  0  0  0  0  0  0  0  0
  147.0275  140.9405  152.4424 H   0  0  0  0  0  0  0  0  0  0  0  0
  148.3951  140.0395  152.3701 H   0  0  0  0  0  0  0  0  0  0  0  0
  150.8836  143.8222  157.7540 H   0  0  0  0  0  0  0  0  0  0  0  0
  151.3393  145.4619  159.3895 H   0  0  0  0  0  0  0  0  0  0  0  0
  152.8480  145.2135  160.2673 H   0  0  0  0  0  0  0  0  0  0  0  0
  151.2974  144.8699  161.0493 H   0  0  0  0  0  0  0  0  0  0  0  0
  1  2  1  0  0  0  0
  1 17  1  0  0  0  0
  1 18  1  0  0  0  0
  1 19  1  0  0  0  0
  2 15  1  0  0  0  0
  2  3  2  0  0  0  0
  3  4  1  0  0  0  0
  3 20  1  0  0  0  0
  4 13  2  0  0  0  0
  4  5  1  0  0  0  0
  5  6  2  0  0  0  0
  6  7  1  0  0  0  0
  6 21  1  0  0  0  0
  7  8  1  0  0  0  0
  7 13  1  0  0  0  0
  8  9  1  0  0  0  0
  8 22  1  0  0  0  0
  8 23  1  0  0  0  0
  9 10  1  0  0  0  0
  9 11  1  0  0  0  0
  9 24  1  0  0  0  0
 10 25  1  0  0  0  0
 11 12  1  0  0  0  0
 11 26  1  0  0  0  0
 11 27  1  0  0  0  0
 12 28  1  0  0  0  0
 12 29  1  0  0  0  0
 13 14  1  0  0  0  0
 14 15  2  0  0  0  0
 14 30  1  0  0  0  0
 15 16  1  0  0  0  0
 16 31  1  0  0  0  0
 16 32  1  0  0  0  0
 16 33  1  0  0  0  0
M  END
> <s_m_source_file>
AV-unprocessed.smi

> <i_m_source_file_index>
507

> <i_lp_mmshare_version>
43012

> <i_f3d_flags>
0

> <s_epik_input>
W0NIM11jKFtjSF0xKWMoW0NIM10pW2NIXWMoYzEyKW4oW2NIXW4yKVtDSDJdW0NASF0oW09IXSlbQ0gyXVtOSDJd

> <s_epik_cmdline>
J2VwaWtfcHl0aG9uJywgJy1waCcsICc3LjAnLCAnLXRuJywgJzgnLCAnLW1hJywgJzIwMCcsICctbWV0YWxfYmluZGluZycsICctaW1hZScsICc8aW5maWxlLm1hZT4nLCAnLW9tYWUnLCAnPG91dGZpbGUubWFlPic=

> <r_epik_Ionization_Penalty>
2.36719

> <r_epik_Ionization_Penalty_Charging>
0

> <r_epik_Ionization_Penalty_Neutral>
2.36719

> <r_epik_State_Penalty>
2.51088

> <r_epik_Charging_Adjusted_Penalty>
2.51088

> <i_epik_Tot_Q>
0

> <i_epik_Tot_abs_Q>
0

> <r_epik_Metal_State_Penalty>
2.40105

> <b_epik_Metal_Only>
0

> <s_lp_Force_Field>
OPLS_2005

> <r_lp_Energy>
13.3161

> <b_lp_Chiralities_Consistent>
1

> <s_lp_Variant>
AV-unprocessed.smi:507-5

> <Gold.Version>
5.8.1

> <Gold.Id.Protein>
6NUR|6NUR_protein|mol2

> <Gold.PLP.Fitness>
47.9702

> <Gold.PLP.PLP>
-40.1061

> <Gold.PLP.part.hbond>
-3.0000

> <Gold.PLP.part.metal>
0.0000

> <Gold.PLP.part.buried>
-4.6784

> <Gold.PLP.part.nonpolar>
-32.3441

> <Gold.PLP.part.repulsive>
0.0000

> <Gold.PLP.ligand.clash>
0.0000

> <Gold.PLP.ligand.torsion>
0.5709

> <Gold.PLP.Chemscore.Hbond>
3.0000

> <Gold.PLP.Chemscore.CHOScore>
0.0000

> <Gold.PLP.Chemscore.Metal>
0.0000

> <Gold.Chemscore.Hbonds>
donor molecule, donor type, donor heavy atom, donor atom, acceptor molecule, acceptor atom, score
      L1  H    10    25       P1  7957  1.00
      L1  H    12    29       P1  7957  1.00
      P1  H  7989  7998       L1    10  1.00

> <Gold.PLP.Chemscore.Internal.Correction>
0.0060

> <Gold.Rescore>
     Score         DG    S(hbond)    S(metal)    S(lipo)     H(rot)  DE(clash)    DE(int)     intcor
     19.37     -20.06       2.55        0.00      99.89       2.20       0.05       0.64       ----

> <Gold.Chemscore.Fitness>
19.3706

> <Gold.Chemscore.DG>
-20.0559

> <Gold.Chemscore.ZeroCoef>
-5.4800

> <Gold.Chemscore.Hbond>
2.5531

> <Gold.Chemscore.Metal>
0.0000

> <Gold.Chemscore.Lipo>
99.8888

> <Gold.Chemscore.Internal_Hbond>
0.0000

> <Gold.Chemscore.DEClash>
0.0490

> <Gold.Chemscore.DEInternal>
0.6363

> <Gold.Chemscore.Rot>
2.2025

> <Gold.Chemscore.Internal.Correction>
   9.000000E+99

> <Gold.Chemscore.Hbonds>
donor molecule, donor type, donor heavy atom, donor atom, acceptor molecule, acceptor atom, score
      L1  H    10    25       P1  7957  0.89
      L1  H    12    29       P1  7957  0.98
      P1  H  7989  7998       L1    10  0.29

> <Gold.Chemscore.Hbond.Weighted>
-8.5272

> <Gold.Chemscore.Metal.Weighted>
-0.0000

> <Gold.Chemscore.Lipo.Weighted>
-11.6870

> <Gold.Chemscore.Internal_Hbond.Weighted>
0.0000

> <Gold.Chemscore.DEClash.Weighted>
0.0490

> <Gold.Chemscore.DEInternal.Weighted>
0.6363

> <Gold.Chemscore.Rot.Weighted>
5.6383

> <Gold.Chemscore.Internal.Correction.Weighted>
   9.000000E+99

> <Gold.Protein.RotatedTorsions>
[ 6907 6896 6895 6894 ] final -165.06 input  -60.11 | X-H torsion
[ 7974 7965 7964 7962 ] final   97.98 input  175.53 | X-H torsion
[ 8008 7997 7996 7995 ] final -100.02 input   59.86 | X-H torsion
[ 10167 10162 10161 10158 ] final  178.46 input  -65.29 | X-H torsion
[ 10718 10713 10712 10709 ] final  -89.85 input   66.30 | X-H torsion
[ 10763 10752 10751 10750 ] final  -13.21 input  -60.55 | X-H torsion
[ 11005 11000 10999 10996 ] final   -1.57 input  -57.11 | X-H torsion

> <Gold.Protein.ActiveResidues>
 VAL166  LYS551  ARG553  GLY616  TRP617  ASP618  TYR619  PRO620  LYS621  CYS622 
 ASP623  PHE694  ASN695  SER759  ASP760  ASP761  ALA762  ILE779  LEU786  VAL792 
 PHE793  MET794  SER795  GLU796  ALA797  LYS798  CYS799  TRP800  GLU811  SER814 

> <Gold.Protein.RotatedAtoms>
  151.4217  133.3696  159.2756 H   0  0  0  0  0  0  0  0  0  0  0  0  # atno 6907 bound_to 6896
  150.9288  134.8705  159.7548 H   0  0  0  0  0  0  0  0  0  0  0  0  # atno 6908 bound_to 6896
  152.5018  134.4161  159.9517 H   0  0  0  0  0  0  0  0  0  0  0  0  # atno 6909 bound_to 6896
  145.4183  139.2325  143.3210 H   0  0  0  0  0  0  0  0  0  0  0  0  # atno 7974 bound_to 7965
  154.8229  140.0444  157.1423 H   0  0  0  0  0  0  0  0  0  0  0  0  # atno 8008 bound_to 7997
  154.9239  140.3030  155.5182 H   0  0  0  0  0  0  0  0  0  0  0  0  # atno 8009 bound_to 7997
  156.2981  140.2335  156.4292 H   0  0  0  0  0  0  0  0  0  0  0  0  # atno 8010 bound_to 7997
  139.5295  144.2677  152.0654 H   0  0  0  0  0  0  0  0  0  0  0  0  # atno 10167 bound_to 10162
  155.9985  130.4888  150.5234 H   0  0  0  0  0  0  0  0  0  0  0  0  # atno 10718 bound_to 10713
  153.5099  135.7016  153.5786 H   0  0  0  0  0  0  0  0  0  0  0  0  # atno 10763 bound_to 10752
  153.3881  135.3903  155.1904 H   0  0  0  0  0  0  0  0  0  0  0  0  # atno 10764 bound_to 10752
  154.8704  135.3851  154.4578 H   0  0  0  0  0  0  0  0  0  0  0  0  # atno 10765 bound_to 10752
  140.6488  133.9423  155.8368 H   0  0  0  0  0  0  0  0  0  0  0  0  # atno 11005 bound_to 11000
  146.2670  140.4904  142.8830 LP  0  0  0  0  0  0  0  0  0  0  0  0  # atno 17320 bound_to 7965
  144.8263  140.6633  143.6320 LP  0  0  0  0  0  0  0  0  0  0  0  0  # atno 17321 bound_to 7965
  140.2139  144.4535  150.6373 LP  0  0  0  0  0  0  0  0  0  0  0  0  # atno 17342 bound_to 10162
  140.6463  143.2214  151.6179 LP  0  0  0  0  0  0  0  0  0  0  0  0  # atno 17343 bound_to 10162
  157.3192  131.0678  151.1944 LP  0  0  0  0  0  0  0  0  0  0  0  0  # atno 17370 bound_to 10713
  157.2863  130.6774  149.6091 LP  0  0  0  0  0  0  0  0  0  0  0  0  # atno 17371 bound_to 10713
  141.0552  134.0426  157.3731 LP  0  0  0  0  0  0  0  0  0  0  0  0  # atno 17394 bound_to 11000
  139.9053  135.0177  156.7458 LP  0  0  0  0  0  0  0  0  0  0  0  0  # atno 17395 bound_to 11000

$$$$
