AV-unprocessed.smi:1379|AV-procd|sdf|5598|dock7
  -GOLD-   22720 5203D 1   1.00000     0.00000
 Structure written by MMmdl.
 34 35  0  0  0  0  0  0  0  0  1 V2000
  154.9136  134.4396  159.8371 C   0  0  0  0  0  0  0  0  0  0  0  0
  154.1167  135.5368  160.2461 O   0  0  0  0  0  0  0  0  0  0  0  0
  154.3216  135.8796  161.6085 C   0  0  0  0  0  0  0  0  0  0  0  0
  154.1743  137.3919  161.7895 C   0  0  0  0  0  0  0  0  0  0  0  0
  154.3000  137.8968  162.9053 O   0  0  0  0  0  0  0  0  0  0  0  0
  153.8867  138.0766  160.6673 N   0  0  0  0  0  0  0  0  0  0  0  0
  153.6878  139.4746  160.5039 C   0  0  0  0  0  0  0  0  0  0  0  0
  154.2111  140.4635  161.3708 C   0  0  0  0  0  0  0  0  0  0  0  0
  153.9553  141.8193  161.0901 C   0  0  0  0  0  0  0  0  0  0  0  0
  153.1958  142.1487  159.9489 C   0  0  0  0  0  0  0  0  0  0  0  0
  152.9399  143.5012  159.6762 N   0  0  0  0  0  0  0  0  0  0  0  0
  152.2203  143.7721  158.4423 C   0  0  0  0  0  0  0  0  0  0  0  0
  151.7415  145.2209  158.5623 C   0  0  0  0  0  0  0  0  0  0  0  0
  151.7226  145.5043  160.0694 C   0  0  0  0  0  0  0  0  0  0  0  0
  152.2190  144.2099  160.7201 C   0  0  0  0  0  0  0  0  0  0  0  0
  152.7034  141.2081  159.1079 N   0  0  0  0  0  0  0  0  0  0  0  0
  152.9509  139.9100  159.3831 C   0  0  0  0  0  0  0  0  0  0  0  0
  154.7243  134.2210  158.7863 H   0  0  0  0  0  0  0  0  0  0  0  0
  154.6785  133.5450  160.4150 H   0  0  0  0  0  0  0  0  0  0  0  0
  155.9760  134.6601  159.9490 H   0  0  0  0  0  0  0  0  0  0  0  0
  153.5935  135.3685  162.2408 H   0  0  0  0  0  0  0  0  0  0  0  0
  155.3196  135.5757  161.9286 H   0  0  0  0  0  0  0  0  0  0  0  0
  153.7359  137.5193  159.8387 H   0  0  0  0  0  0  0  0  0  0  0  0
  154.8105  140.2151  162.2324 H   0  0  0  0  0  0  0  0  0  0  0  0
  154.3418  142.5918  161.7387 H   0  0  0  0  0  0  0  0  0  0  0  0
  152.8639  143.6323  157.5733 H   0  0  0  0  0  0  0  0  0  0  0  0
  151.3647  143.1032  158.3395 H   0  0  0  0  0  0  0  0  0  0  0  0
  152.4439  145.8936  158.0684 H   0  0  0  0  0  0  0  0  0  0  0  0
  150.7643  145.3617  158.0994 H   0  0  0  0  0  0  0  0  0  0  0  0
  152.3969  146.3297  160.3007 H   0  0  0  0  0  0  0  0  0  0  0  0
  150.7292  145.7757  160.4278 H   0  0  0  0  0  0  0  0  0  0  0  0
  151.3727  143.6165  161.0694 H   0  0  0  0  0  0  0  0  0  0  0  0
  152.8638  144.4117  161.5758 H   0  0  0  0  0  0  0  0  0  0  0  0
  152.5409  139.1944  158.6854 H   0  0  0  0  0  0  0  0  0  0  0  0
  1  2  1  0  0  0  0
  1 18  1  0  0  0  0
  1 19  1  0  0  0  0
  1 20  1  0  0  0  0
  2  3  1  0  0  0  0
  3  4  1  0  0  0  0
  3 21  1  0  0  0  0
  3 22  1  0  0  0  0
  4  5  2  0  0  0  0
  4  6  1  0  0  0  0
  6  7  1  0  0  0  0
  6 23  1  0  0  0  0
  7 17  1  0  0  0  0
  7  8  2  0  0  0  0
  8  9  1  0  0  0  0
  8 24  1  0  0  0  0
  9 10  2  0  0  0  0
  9 25  1  0  0  0  0
 10 11  1  0  0  0  0
 10 16  1  0  0  0  0
 11 15  1  0  0  0  0
 11 12  1  0  0  0  0
 12 13  1  0  0  0  0
 12 26  1  0  0  0  0
 12 27  1  0  0  0  0
 13 14  1  0  0  0  0
 13 28  1  0  0  0  0
 13 29  1  0  0  0  0
 14 15  1  0  0  0  0
 14 30  1  0  0  0  0
 14 31  1  0  0  0  0
 15 32  1  0  0  0  0
 15 33  1  0  0  0  0
 16 17  2  0  0  0  0
 17 34  1  0  0  0  0
M  END
> <s_m_source_file>
AV-unprocessed.smi

> <i_m_source_file_index>
1379

> <i_lp_mmshare_version>
43012

> <i_f3d_flags>
0

> <s_epik_input>
W0NIM11PW0NIMl1DKD1PKVtOSF1jMVtjSF1bY0hdYyhuW2NIXTEpTjJbQ0gyXVtDSDJdW0NIMl1bQ0gyXTI=

> <s_epik_cmdline>
J2VwaWtfcHl0aG9uJywgJy1waCcsICc3LjAnLCAnLXRuJywgJzgnLCAnLW1hJywgJzIwMCcsICctbWV0YWxfYmluZGluZycsICctaW1hZScsICc8aW5maWxlLm1hZT4nLCAnLW9tYWUnLCAnPG91dGZpbGUubWFlPic=

> <r_lp_tautomer_probability>
1

> <r_epik_Ionization_Penalty>
0.0264378

> <r_epik_Ionization_Penalty_Charging>
0

> <r_epik_Ionization_Penalty_Neutral>
0.0264378

> <r_epik_State_Penalty>
0.0211097

> <r_epik_Charging_Adjusted_Penalty>
0.0211097

> <i_epik_Tot_Q>
0

> <i_epik_Tot_abs_Q>
0

> <r_epik_Metal_State_Penalty>
0.0201313

> <b_epik_Metal_Only>
0

> <s_lp_Force_Field>
OPLS_2005

> <r_lp_Energy>
37.8316

> <b_lp_Chiralities_Consistent>
1

> <s_lp_Variant>
AV-unprocessed.smi:1379-1

> <Gold.Version>
5.8.1

> <Gold.Id.Protein>
6NUR|6NUR_protein|mol2

> <Gold.PLP.Fitness>
39.8270

> <Gold.PLP.PLP>
-37.5085

> <Gold.PLP.part.hbond>
-0.9825

> <Gold.PLP.part.metal>
0.0000

> <Gold.PLP.part.buried>
-5.6664

> <Gold.PLP.part.nonpolar>
-30.5014

> <Gold.PLP.part.repulsive>
0.0226

> <Gold.PLP.ligand.clash>
0.0000

> <Gold.PLP.ligand.torsion>
0.3500

> <Gold.PLP.Chemscore.Hbond>
1.0000

> <Gold.PLP.Chemscore.CHOScore>
0.0000

> <Gold.PLP.Chemscore.Metal>
0.0000

> <Gold.Chemscore.Hbonds>
donor molecule, donor type, donor heavy atom, donor atom, acceptor molecule, acceptor atom, score
      P1  H  6896  6907       L1     2  0.65

> <Gold.PLP.Chemscore.Internal.Correction>
0.0185

> <Gold.Rescore>
     Score         DG    S(hbond)    S(metal)    S(lipo)     H(rot)  DE(clash)    DE(int)     intcor
     13.71     -15.35       0.93        0.00      88.82       1.42       0.01       1.63       ----

> <Gold.Chemscore.Fitness>
13.7097

> <Gold.Chemscore.DG>
-15.3475

> <Gold.Chemscore.ZeroCoef>
-5.4800

> <Gold.Chemscore.Hbond>
0.9276

> <Gold.Chemscore.Metal>
0.0000

> <Gold.Chemscore.Lipo>
88.8232

> <Gold.Chemscore.Internal_Hbond>
0.0000

> <Gold.Chemscore.DEClash>
0.0103

> <Gold.Chemscore.DEInternal>
1.6274

> <Gold.Chemscore.Rot>
1.4153

> <Gold.Chemscore.Internal.Correction>
   9.000000E+99

> <Gold.Chemscore.Hbonds>
donor molecule, donor type, donor heavy atom, donor atom, acceptor molecule, acceptor atom, score
      P1  H  6896  6907       L1     2  0.05

> <Gold.Chemscore.Hbond.Weighted>
-3.0983

> <Gold.Chemscore.Metal.Weighted>
-0.0000

> <Gold.Chemscore.Lipo.Weighted>
-10.3923

> <Gold.Chemscore.Internal_Hbond.Weighted>
0.0000

> <Gold.Chemscore.DEClash.Weighted>
0.0103

> <Gold.Chemscore.DEInternal.Weighted>
1.6274

> <Gold.Chemscore.Rot.Weighted>
3.6231

> <Gold.Chemscore.Internal.Correction.Weighted>
   9.000000E+99

> <Gold.Protein.RotatedTorsions>
[ 6907 6896 6895 6894 ] final   65.02 input  -60.11 | X-H torsion
[ 7974 7965 7964 7962 ] final  144.70 input  175.53 | X-H torsion
[ 8008 7997 7996 7995 ] final   69.39 input   59.86 | X-H torsion
[ 10167 10162 10161 10158 ] final   37.21 input  -65.29 | X-H torsion
[ 10718 10713 10712 10709 ] final  -17.41 input   66.30 | X-H torsion
[ 10763 10752 10751 10750 ] final  148.12 input  -60.55 | X-H torsion
[ 11005 11000 10999 10996 ] final  135.55 input  -57.11 | X-H torsion

> <Gold.Protein.ActiveResidues>
 VAL166  LYS551  ARG553  GLY616  TRP617  ASP618  TYR619  PRO620  LYS621  CYS622 
 ASP623  PHE694  ASN695  SER759  ASP760  ASP761  ALA762  ILE779  LEU786  VAL792 
 PHE793  MET794  SER795  GLU796  ALA797  LYS798  CYS799  TRP800  GLU811  SER814 

> <Gold.Protein.RotatedAtoms>
  152.4376  134.5655  159.9906 H   0  0  0  0  0  0  0  0  0  0  0  0  # atno 6907 bound_to 6896
  151.5761  133.3378  159.3007 H   0  0  0  0  0  0  0  0  0  0  0  0  # atno 6908 bound_to 6896
  150.8277  134.7550  159.6891 H   0  0  0  0  0  0  0  0  0  0  0  0  # atno 6909 bound_to 6896
  144.8814  139.5693  143.5841 H   0  0  0  0  0  0  0  0  0  0  0  0  # atno 7974 bound_to 7965
  155.7230  140.3493  155.5024 H   0  0  0  0  0  0  0  0  0  0  0  0  # atno 8008 bound_to 7997
  155.9253  140.1074  157.1197 H   0  0  0  0  0  0  0  0  0  0  0  0  # atno 8009 bound_to 7997
  154.4076  140.1241  156.4718 H   0  0  0  0  0  0  0  0  0  0  0  0  # atno 8010 bound_to 7997
  140.4054  144.1666  150.6136 H   0  0  0  0  0  0  0  0  0  0  0  0  # atno 10167 bound_to 10162
  156.5740  130.4757  149.6350 H   0  0  0  0  0  0  0  0  0  0  0  0  # atno 10718 bound_to 10713
  154.0495  135.2883  155.3342 H   0  0  0  0  0  0  0  0  0  0  0  0  # atno 10763 bound_to 10752
  154.6878  135.5238  153.8354 H   0  0  0  0  0  0  0  0  0  0  0  0  # atno 10764 bound_to 10752
  153.0567  135.6598  154.0692 H   0  0  0  0  0  0  0  0  0  0  0  0  # atno 10765 bound_to 10752
  139.9987  134.9487  157.0023 H   0  0  0  0  0  0  0  0  0  0  0  0  # atno 11005 bound_to 11000
  146.2997  139.7387  142.9100 LP  0  0  0  0  0  0  0  0  0  0  0  0  # atno 17320 bound_to 7965
  145.3947  141.0377  143.3104 LP  0  0  0  0  0  0  0  0  0  0  0  0  # atno 17321 bound_to 7965
  140.4695  143.2418  151.9109 LP  0  0  0  0  0  0  0  0  0  0  0  0  # atno 17342 bound_to 10162
  139.4783  144.5385  151.8563 LP  0  0  0  0  0  0  0  0  0  0  0  0  # atno 17343 bound_to 10162
  156.2690  130.7006  151.1797 LP  0  0  0  0  0  0  0  0  0  0  0  0  # atno 17370 bound_to 10713
  157.7342  131.0584  150.5538 LP  0  0  0  0  0  0  0  0  0  0  0  0  # atno 17371 bound_to 10713
  140.4769  134.1329  155.7211 LP  0  0  0  0  0  0  0  0  0  0  0  0  # atno 17394 bound_to 11000
  141.1625  133.8766  157.1808 LP  0  0  0  0  0  0  0  0  0  0  0  0  # atno 17395 bound_to 11000

$$$$
