#       Name:                AV-unprocessed.smi:2893
#       Creating user name   scv26
#       Creation time:       Fri Mar 27 15:59:48 2020


#       File generated by GOLD software.
#

@<TRIPOS>MOLECULE
AV-unprocessed.smi:2893
    43    45     1
SMALL
NO_CHARGES


@<TRIPOS>ATOM
      1 ****        -6.3548  -0.6087   1.6166 C.3            1 S1                 0.0000
      2 ****        -5.6890  -0.6996   0.2369 C.3            1 S1                 0.0000
      3 ****        -4.2471  -0.5003   0.3208 N.am           1 S1                 0.0000
      4 ****        -3.6317   0.6914   0.4134 C.2            1 S1                 0.0000
      5 ****        -4.2386   1.7627   0.4510 O.2            1 S1                 0.0000
      6 ****        -2.1302   0.6498   0.5161 C.ar           1 S1                 0.0000
      7 ****        -1.4209   1.7748   0.9902 C.ar           1 S1                 0.0000
      8 ****        -0.0195   1.6891   1.0529 C.ar           1 S1                 0.0000
      9 ****         0.5828   0.4874   0.6346 C.ar           1 S1                 0.0000
     10 ****         1.9791   0.3748   0.6897 N.pl3          1 S1                 0.0000
     11 ****         2.6721  -0.7673   0.1009 C.3            1 S1                 0.0000
     12 ****         4.1698  -0.7868   0.4161 C.3            1 S1                 0.0000
     13 ****         4.7860  -0.9074  -0.9850 C.3            1 S1                 0.0000
     14 ****         4.7093   0.4199  -1.7502 C.3            1 S1                 0.0000
     15 ****         3.2200   0.5027  -2.0782 C.3            1 S1                 0.0000
     16 ****         2.6804  -0.7891  -1.4409 C.3            1 S1                 0.0000
     17 ****         3.7846  -1.6511  -1.6592 O.3            1 S1                 0.0000
     18 ****        -0.1515  -0.5604   0.1873 N.ar           1 S1                 0.0000
     19 ****        -1.4847  -0.4783   0.1250 N.ar           1 S1                 0.0000
     20 ****        -7.4260  -0.7970   1.5424 H              1 S1                 0.0000
     21 ****        -6.2236   0.3797   2.0582 H              1 S1                 0.0000
     22 ****        -5.9358  -1.3425   2.3057 H              1 S1                 0.0000
     23 ****        -5.8708  -1.6844  -0.1939 H              1 S1                 0.0000
     24 ****        -6.1315   0.0258  -0.4477 H              1 S1                 0.0000
     25 ****        -3.6675  -1.3275   0.3050 H              1 S1                 0.0000
     26 ****        -1.9278   2.6773   1.2998 H              1 S1                 0.0000
     27 ****         0.5706   2.5204   1.4099 H              1 S1                 0.0000
     28 ****         2.5276   1.1682   0.9883 H              1 S1                 0.0000
     29 ****         2.2280  -1.6907   0.4755 H              1 S1                 0.0000
     30 ****         4.5217   0.1032   0.9400 H              1 S1                 0.0000
     31 ****         4.4156  -1.6567   1.0259 H              1 S1                 0.0000
     32 ****         5.7742  -1.3678  -0.9961 H              1 S1                 0.0000
     33 ****         5.0609   1.2641  -1.1562 H              1 S1                 0.0000
     34 ****         5.3001   0.3753  -2.6659 H              1 S1                 0.0000
     35 ****         2.7470   1.4037  -1.6875 H              1 S1                 0.0000
     36 ****         3.0701   0.4867  -3.1582 H              1 S1                 0.0000
     37 ****         1.7495  -1.1428  -1.8847 H              1 S1                 0.0000
     38 ****        -5.2378   1.7730   0.4123 LP             1 S1                 0.0000
     39 ****        -3.7320   2.6222   0.5203 LP             1 S1                 0.0000
     40 ****         3.6447  -2.5511  -1.2464 LP             1 S1                 0.0000
     41 ****         3.9892  -1.7588  -2.6321 LP             1 S1                 0.0000
     42 ****         0.3075  -1.4016  -0.0984 LP             1 S1                 0.0000
     43 ****        -2.0124  -1.2572  -0.2137 LP             1 S1                 0.0000
@<TRIPOS>BOND
    1    1    2 1     
    2    1   20 1     
    3    1   21 1     
    4    1   22 1     
    5    2    3 1     
    6    2   23 1     
    7    2   24 1     
    8    3    4 am    
    9    3   25 1     
   10    4    5 2     
   11    4    6 1     
   12    6   19 ar    
   13    6    7 ar    
   14    7    8 ar    
   15    7   26 1     
   16    8    9 ar    
   17    8   27 1     
   18    9   10 1     
   19    9   18 ar    
   20   10   11 1     
   21   10   28 1     
   22   11   16 1     
   23   11   12 1     
   24   11   29 1     
   25   12   13 1     
   26   12   30 1     
   27   12   31 1     
   28   13   17 1     
   29   13   14 1     
   30   13   32 1     
   31   14   15 1     
   32   14   33 1     
   33   14   34 1     
   34   15   16 1     
   35   15   35 1     
   36   15   36 1     
   37   16   17 1     
   38   16   37 1     
   39   18   19 ar    
   40    5   38 1     
   41    5   39 1     
   42   17   40 1     
   43   17   41 1     
   44   18   42 1     
   45   19   43 1     
@<TRIPOS>SUBSTRUCTURE
      1 S1             1
@<TRIPOS>SET
LONE_PAIRS      STATIC     ATOMS    <user>   **** ""
6 38 39 40 41 42 43
DONOR_HYDROGENS      STATIC     ATOMS    <user>   **** ""
2 25 28
ATOM$BLUE        STATIC     ATOMS    COLORGROUP SYSTEM
6 38 39 40 41 42 43
ATOM$RED        STATIC     ATOMS    COLORGROUP SYSTEM
2 25 28
