AV-unprocessed.smi:105|AV-procd|sdf|1009|dock5
  -GOLD-   2262018 03D 1   1.00000     0.00000
 Structure written by MMmdl.
 42 45  0  0  0  0  0  0  0  0  1 V2000
  152.0638  144.8084  160.1600 C   0  0  0  0  0  0  0  0  0  0  0  0
  152.4622  143.6195  160.8013 C   0  0  0  0  0  0  0  0  0  0  0  0
  152.4468  142.3995  160.0975 C   0  0  0  0  0  0  0  0  0  0  0  0
  152.0302  142.3625  158.7503 C   0  0  0  0  0  0  0  0  0  0  0  0
  152.0222  141.0431  157.9944 C   0  0  0  0  0  0  0  0  0  0  0  0
  151.4761  141.1093  156.6426 N   0  0  0  0  0  0  0  0  0  0  0  0
  151.1481  139.9797  155.9775 C   0  0  0  0  0  0  0  0  0  0  0  0
  150.5525  140.0319  154.7570 N   0  0  0  0  0  0  0  0  0  0  0  0
  150.2272  138.9012  154.1228 C   0  0  0  0  0  0  0  0  0  0  0  0
  150.4008  137.6396  154.5230 N   0  0  0  0  0  0  0  0  0  0  0  0
  150.9981  137.5845  155.7486 C   0  0  0  0  0  0  0  0  0  0  0  0
  151.3992  138.7000  156.5365 C   0  0  0  0  0  0  0  0  0  0  0  0
  151.9680  138.2655  157.7263 N   0  0  0  0  0  0  0  0  0  0  0  0
  151.9035  136.9639  157.6495 C   0  0  0  0  0  0  0  0  0  0  0  0
  151.3402  136.4674  156.4946 N   0  0  0  0  0  0  0  0  0  0  0  0
  151.1376  135.0650  156.1696 C   0  0  2  0  0  0  0  0  0  0  0  0
  150.4270  134.8756  154.8133 C   0  0  0  0  0  0  0  0  0  0  0  0
  150.2517  133.3723  154.5671 C   0  0  0  0  0  0  0  0  0  0  0  0
  149.4875  132.7510  155.7407 C   0  0  0  0  0  0  0  0  0  0  0  0
  150.1967  133.0898  157.0624 C   0  0  0  0  0  0  0  0  0  0  0  0
  150.3539  134.5015  157.1806 O   0  0  0  0  0  0  0  0  0  0  0  0
  151.6352  143.5572  158.1101 C   0  0  0  0  0  0  0  0  0  0  0  0
  151.6507  144.7769  158.8140 C   0  0  0  0  0  0  0  0  0  0  0  0
  152.0759  145.7438  160.6996 H   0  0  0  0  0  0  0  0  0  0  0  0
  152.7798  143.6433  161.8332 H   0  0  0  0  0  0  0  0  0  0  0  0
  152.7530  141.4917  160.5967 H   0  0  0  0  0  0  0  0  0  0  0  0
  153.0507  140.6890  157.9241 H   0  0  0  0  0  0  0  0  0  0  0  0
  151.4800  140.2892  158.5668 H   0  0  0  0  0  0  0  0  0  0  0  0
  151.2121  142.0293  156.3204 H   0  0  0  0  0  0  0  0  0  0  0  0
  149.7591  139.0255  153.1575 H   0  0  0  0  0  0  0  0  0  0  0  0
  152.2688  136.3266  158.4418 H   0  0  0  0  0  0  0  0  0  0  0  0
  152.1164  134.5814  156.1699 H   0  0  0  0  0  0  0  0  0  0  0  0
  149.4594  135.3778  154.8305 H   0  0  0  0  0  0  0  0  0  0  0  0
  151.0272  135.3323  154.0259 H   0  0  0  0  0  0  0  0  0  0  0  0
  149.7140  133.2026  153.6339 H   0  0  0  0  0  0  0  0  0  0  0  0
  151.2262  132.8944  154.4601 H   0  0  0  0  0  0  0  0  0  0  0  0
  148.4682  133.1383  155.7630 H   0  0  0  0  0  0  0  0  0  0  0  0
  149.4116  131.6704  155.6169 H   0  0  0  0  0  0  0  0  0  0  0  0
  149.6098  132.7281  157.9068 H   0  0  0  0  0  0  0  0  0  0  0  0
  151.1699  132.5995  157.1187 H   0  0  0  0  0  0  0  0  0  0  0  0
  151.3185  143.5421  157.0774 H   0  0  0  0  0  0  0  0  0  0  0  0
  151.3466  145.6885  158.3211 H   0  0  0  0  0  0  0  0  0  0  0  0
  1 23  1  0  0  0  0
  1  2  2  0  0  0  0
  1 24  1  0  0  0  0
  2  3  1  0  0  0  0
  2 25  1  0  0  0  0
  3  4  2  0  0  0  0
  3 26  1  0  0  0  0
  4  5  1  0  0  0  0
  4 22  1  0  0  0  0
  5  6  1  0  0  0  0
  5 27  1  0  0  0  0
  5 28  1  0  0  0  0
  6  7  1  0  0  0  0
  6 29  1  0  0  0  0
  7 12  1  0  0  0  0
  7  8  2  0  0  0  0
  8  9  1  0  0  0  0
  9 10  2  0  0  0  0
  9 30  1  0  0  0  0
 10 11  1  0  0  0  0
 11 15  1  0  0  0  0
 11 12  2  0  0  0  0
 12 13  1  0  0  0  0
 13 14  2  0  0  0  0
 14 15  1  0  0  0  0
 14 31  1  0  0  0  0
 15 16  1  0  0  0  0
 16 21  1  0  0  0  0
 16 17  1  0  0  0  0
 16 32  1  0  0  0  0
 17 18  1  0  0  0  0
 17 33  1  0  0  0  0
 17 34  1  0  0  0  0
 18 19  1  0  0  0  0
 18 35  1  0  0  0  0
 18 36  1  0  0  0  0
 19 20  1  0  0  0  0
 19 37  1  0  0  0  0
 19 38  1  0  0  0  0
 20 21  1  0  0  0  0
 20 39  1  0  0  0  0
 20 40  1  0  0  0  0
 22 23  2  0  0  0  0
 22 41  1  0  0  0  0
 23 42  1  0  0  0  0
M  END
> <s_m_source_file>
AV-unprocessed.smi

> <i_m_source_file_index>
105

> <i_lp_mmshare_version>
43012

> <i_f3d_flags>
0

> <s_epik_input>
W2NIXTFbY0hdW2NIXVtjSF1bY0hdYzFbQ0gyXVtOSF1jKG5bY0hdbjIpYyhjMjMpbltjSF1uM1tDQEBIXTRbQ0gyXVtDSDJdW0NIMl1bQ0gyXU80

> <s_epik_cmdline>
J2VwaWtfcHl0aG9uJywgJy1waCcsICc3LjAnLCAnLXRuJywgJzgnLCAnLW1hJywgJzIwMCcsICctbWV0YWxfYmluZGluZycsICctaW1hZScsICc8aW5maWxlLm1hZT4nLCAnLW9tYWUnLCAnPG91dGZpbGUubWFlPic=

> <r_lp_tautomer_probability>
1

> <r_epik_Ionization_Penalty>
0.000653933

> <r_epik_Ionization_Penalty_Charging>
0

> <r_epik_Ionization_Penalty_Neutral>
0.000653933

> <r_epik_State_Penalty>
-0

> <r_epik_Charging_Adjusted_Penalty>
0

> <i_epik_Tot_Q>
0

> <i_epik_Tot_abs_Q>
0

> <r_epik_Metal_State_Penalty>
-0

> <b_epik_Metal_Only>
0

> <s_epik_Chemistry_Notes>
This compound contains an acetal/aminal-like group ( X-CH(R)-Y where X, Y are N, S, or O) that may be acid/base labile, releasing an aldehyde.

> <s_lp_Force_Field>
OPLS_2005

> <r_lp_Energy>
24.2362

> <b_lp_Chiralities_Consistent>
1

> <s_lp_Variant>
AV-unprocessed.smi:105-1

> <Gold.Version>
5.8.1

> <Gold.Id.Protein>
6NUR|6NUR_protein|mol2

> <Gold.PLP.Fitness>
47.1329

> <Gold.PLP.PLP>
-41.3587

> <Gold.PLP.part.hbond>
-1.6646

> <Gold.PLP.part.metal>
0.0000

> <Gold.PLP.part.buried>
-5.2133

> <Gold.PLP.part.nonpolar>
-34.2266

> <Gold.PLP.part.repulsive>
0.4058

> <Gold.PLP.ligand.clash>
0.0000

> <Gold.PLP.ligand.torsion>
0.1211

> <Gold.PLP.Chemscore.Hbond>
1.0000

> <Gold.PLP.Chemscore.CHOScore>
1.0000

> <Gold.PLP.Chemscore.Metal>
0.0000

> <Gold.Chemscore.Hbonds>
donor molecule, donor type, donor heavy atom, donor atom, acceptor molecule, acceptor atom, score
      P1  H  7989  7998       L1     8  1.00
      L1  C     9    30       P1  7957  1.00

> <Gold.PLP.Chemscore.Internal.Correction>
0.0165

> <Gold.Rescore>
     Score         DG    S(hbond)    S(metal)    S(lipo)     H(rot)  DE(clash)    DE(int)     intcor
     13.09     -16.06       0.86        0.00     100.00       1.55       0.03       2.94       ----

> <Gold.Chemscore.Fitness>
13.0861

> <Gold.Chemscore.DG>
-16.0567

> <Gold.Chemscore.ZeroCoef>
-5.4800

> <Gold.Chemscore.Hbond>
0.8552

> <Gold.Chemscore.Metal>
0.0000

> <Gold.Chemscore.Lipo>
100.0022

> <Gold.Chemscore.Internal_Hbond>
0.0000

> <Gold.Chemscore.DEClash>
0.0260

> <Gold.Chemscore.DEInternal>
2.9447

> <Gold.Chemscore.Rot>
1.5547

> <Gold.Chemscore.Internal.Correction>
   9.000000E+99

> <Gold.Chemscore.Hbonds>
donor molecule, donor type, donor heavy atom, donor atom, acceptor molecule, acceptor atom, score
      P1  H  7989  7998       L1     8  0.28

> <Gold.Chemscore.Hbond.Weighted>
-2.8564

> <Gold.Chemscore.Metal.Weighted>
-0.0000

> <Gold.Chemscore.Lipo.Weighted>
-11.7003

> <Gold.Chemscore.Internal_Hbond.Weighted>
0.0000

> <Gold.Chemscore.DEClash.Weighted>
0.0260

> <Gold.Chemscore.DEInternal.Weighted>
2.9447

> <Gold.Chemscore.Rot.Weighted>
3.9800

> <Gold.Chemscore.Internal.Correction.Weighted>
   9.000000E+99

> <Gold.Protein.RotatedTorsions>
[ 6907 6896 6895 6894 ] final -136.29 input  -60.11 | X-H torsion
[ 7974 7965 7964 7962 ] final -108.49 input  175.53 | X-H torsion
[ 8008 7997 7996 7995 ] final  -41.31 input   59.86 | X-H torsion
[ 10167 10162 10161 10158 ] final  145.38 input  -65.29 | X-H torsion
[ 10718 10713 10712 10709 ] final -136.48 input   66.30 | X-H torsion
[ 10763 10752 10751 10750 ] final  -62.15 input  -60.55 | X-H torsion
[ 11005 11000 10999 10996 ] final  161.93 input  -57.11 | X-H torsion

> <Gold.Protein.ActiveResidues>
 VAL166  LYS551  ARG553  GLY616  TRP617  ASP618  TYR619  PRO620  LYS621  CYS622 
 ASP623  PHE694  ASN695  SER759  ASP760  ASP761  ALA762  ILE779  LEU786  VAL792 
 PHE793  MET794  SER795  GLU796  ALA797  LYS798  CYS799  TRP800  GLU811  SER814 

> <Gold.Protein.RotatedAtoms>
  151.0082  133.5990  159.2685 H   0  0  0  0  0  0  0  0  0  0  0  0  # atno 6907 bound_to 6896
  151.3151  135.0803  159.9296 H   0  0  0  0  0  0  0  0  0  0  0  0  # atno 6908 bound_to 6896
  152.5292  133.9740  159.7829 H   0  0  0  0  0  0  0  0  0  0  0  0  # atno 6909 bound_to 6896
  145.1922  140.9020  143.3418 H   0  0  0  0  0  0  0  0  0  0  0  0  # atno 7974 bound_to 7965
  154.4005  140.1502  156.3170 H   0  0  0  0  0  0  0  0  0  0  0  0  # atno 8008 bound_to 7997
  155.8563  140.3455  155.5705 H   0  0  0  0  0  0  0  0  0  0  0  0  # atno 8009 bound_to 7997
  155.7929  140.0859  157.1990 H   0  0  0  0  0  0  0  0  0  0  0  0  # atno 8010 bound_to 7997
  139.4927  144.5906  151.6689 H   0  0  0  0  0  0  0  0  0  0  0  0  # atno 10167 bound_to 10162
  156.2775  130.7301  151.1288 H   0  0  0  0  0  0  0  0  0  0  0  0  # atno 10718 bound_to 10713
  154.2955  135.6245  153.5403 H   0  0  0  0  0  0  0  0  0  0  0  0  # atno 10763 bound_to 10752
  152.9847  135.5666  154.5343 H   0  0  0  0  0  0  0  0  0  0  0  0  # atno 10764 bound_to 10752
  154.4962  135.2869  155.1433 H   0  0  0  0  0  0  0  0  0  0  0  0  # atno 10765 bound_to 10752
  140.2207  134.8198  157.3217 H   0  0  0  0  0  0  0  0  0  0  0  0  # atno 11005 bound_to 11000
  145.0029  139.3581  143.6158 LP  0  0  0  0  0  0  0  0  0  0  0  0  # atno 17320 bound_to 7965
  146.3434  139.9260  142.8760 LP  0  0  0  0  0  0  0  0  0  0  0  0  # atno 17321 bound_to 7965
  140.5532  144.0391  150.6136 LP  0  0  0  0  0  0  0  0  0  0  0  0  # atno 17342 bound_to 10162
  140.3452  143.2995  152.0545 LP  0  0  0  0  0  0  0  0  0  0  0  0  # atno 17343 bound_to 10162
  157.7304  131.0616  150.5728 LP  0  0  0  0  0  0  0  0  0  0  0  0  # atno 17370 bound_to 10713
  156.5831  130.4309  149.5969 LP  0  0  0  0  0  0  0  0  0  0  0  0  # atno 17371 bound_to 10713
  140.1853  134.4439  155.7748 LP  0  0  0  0  0  0  0  0  0  0  0  0  # atno 17394 bound_to 11000
  141.2223  133.7002  156.7936 LP  0  0  0  0  0  0  0  0  0  0  0  0  # atno 17395 bound_to 11000

$$$$
