#       Name:                AV-unprocessed.smi:1715
#       Creating user name   scv26
#       Creation time:       Fri Mar 27 08:11:55 2020


#       File generated by GOLD software.
#

@<TRIPOS>MOLECULE
AV-unprocessed.smi:1715
    46    47     1
SMALL
NO_CHARGES


@<TRIPOS>ATOM
      1 ****        -2.5358  -2.3276  -3.1647 C.3            1 S1                 0.0000
      2 ****        -2.2966  -1.3253  -2.0304 C.3            1 S1                 0.0000
      3 ****        -1.8002  -2.0133  -0.7428 C.3            1 S1                 0.0000
      4 ****        -1.6457  -1.0368   0.3630 N.4            1 S1                 1.0000
      5 ****        -0.4177  -0.2054   0.2556 C.3            1 S1                 0.0000
      6 ****         0.0393   0.3410   1.6217 C.3            1 S1                 0.0000
      7 ****         1.2660   1.1209   1.5019 N.am           1 S1                 0.0000
      8 ****         2.4949   0.6008   1.3717 C.2            1 S1                 0.0000
      9 ****         2.7192  -0.6096   1.3448 O.2            1 S1                 0.0000
     10 ****         3.4264   1.5626   1.2681 N.am           1 S1                 0.0000
     11 ****         4.8239   1.3916   1.1004 C.2            1 S1                 0.0000
     12 ****         5.7563   2.4533   0.9455 C.2            1 S1                 0.0000
     13 ****         6.9925   1.9953   0.8091 N.2            1 S1                 0.0000
     14 ****         6.8585   0.6515   0.8773 N.pl3          1 S1                 0.0000
     15 ****         5.5565   0.2384   1.0545 C.2            1 S1                 0.0000
     16 ****        -2.9030  -0.2695   0.5551 C.3            1 S1                 0.0000
     17 ****        -3.3996   0.3539  -0.7679 C.3            1 S1                 0.0000
     18 ****        -4.7652   1.0306  -0.6061 C.3            1 S1                 0.0000
     19 ****        -3.5280  -0.6673  -1.7519 O.3            1 S1                 0.0000
     20 ****         7.6563   0.0363   0.8026 H              1 S1                 0.0000
     21 ****        -1.6163  -2.8530  -3.4241 H              1 S1                 0.0000
     22 ****        -2.8930  -1.8219  -4.0621 H              1 S1                 0.0000
     23 ****        -3.2802  -3.0731  -2.8839 H              1 S1                 0.0000
     24 ****        -1.5638  -0.5919  -2.3712 H              1 S1                 0.0000
     25 ****        -2.5237  -2.7683  -0.4313 H              1 S1                 0.0000
     26 ****        -0.8638  -2.5445  -0.9187 H              1 S1                 0.0000
     27 ****         0.3853  -0.8212  -0.1512 H              1 S1                 0.0000
     28 ****        -0.5622   0.6094  -0.4539 H              1 S1                 0.0000
     29 ****        -0.7189   0.9938   2.0522 H              1 S1                 0.0000
     30 ****         0.1859  -0.4753   2.3312 H              1 S1                 0.0000
     31 ****         1.1734   2.1262   1.5192 H              1 S1                 0.0000
     32 ****         3.1023   2.5182   1.3007 H              1 S1                 0.0000
     33 ****         5.5808   3.5189   0.9261 H              1 S1                 0.0000
     34 ****         5.2863  -0.8045   1.1297 H              1 S1                 0.0000
     35 ****        -3.6590  -0.9586   0.9344 H              1 S1                 0.0000
     36 ****        -2.7821   0.4964   1.3205 H              1 S1                 0.0000
     37 ****        -2.6909   1.1033  -1.1225 H              1 S1                 0.0000
     38 ****        -4.7201   1.8353   0.1282 H              1 S1                 0.0000
     39 ****        -5.5230   0.3188  -0.2771 H              1 S1                 0.0000
     40 ****        -5.1009   1.4609  -1.5500 H              1 S1                 0.0000
     41 ****        -1.5137  -1.5899   1.1981 H              1 S1                 0.0000
     42 ****         1.9635  -1.2600   1.4221 LP             1 S1                 0.0000
     43 ****         3.6570  -0.9423   1.2456 LP             1 S1                 0.0000
     44 ****         7.8326   2.5231   0.6842 LP             1 S1                 0.0000
     45 ****        -4.1854  -1.3457  -1.4240 LP             1 S1                 0.0000
     46 ****        -3.8680  -0.2552  -2.5972 LP             1 S1                 0.0000
@<TRIPOS>BOND
    1    1    2 1     
    2    1   21 1     
    3    1   22 1     
    4    1   23 1     
    5    2   19 1     
    6    2    3 1     
    7    2   24 1     
    8    3    4 1     
    9    3   25 1     
   10    3   26 1     
   11    4    5 1     
   12    4   16 1     
   13    4   41 1     
   14    5    6 1     
   15    5   27 1     
   16    5   28 1     
   17    6    7 1     
   18    6   29 1     
   19    6   30 1     
   20    7    8 am    
   21    7   31 1     
   22    8    9 2     
   23    8   10 am    
   24   10   11 1     
   25   10   32 1     
   26   11   15 2     
   27   11   12 1     
   28   12   13 2     
   29   12   33 1     
   30   13   14 1     
   31   14   20 1     
   32   14   15 1     
   33   15   34 1     
   34   16   17 1     
   35   16   35 1     
   36   16   36 1     
   37   17   18 1     
   38   17   19 1     
   39   17   37 1     
   40   18   38 1     
   41   18   39 1     
   42   18   40 1     
   43    9   42 1     
   44    9   43 1     
   45   13   44 1     
   46   19   45 1     
   47   19   46 1     
@<TRIPOS>SUBSTRUCTURE
      1 S1             1
@<TRIPOS>SET
LONE_PAIRS      STATIC     ATOMS    <user>   **** ""
5 42 43 44 45 46
DONOR_HYDROGENS      STATIC     ATOMS    <user>   **** ""
4 41 31 32 20
ATOM$BLUE        STATIC     ATOMS    COLORGROUP SYSTEM
5 42 43 44 45 46
ATOM$RED        STATIC     ATOMS    COLORGROUP SYSTEM
4 41 31 32 20
