AV-unprocessed.smi:193|AV-procd|sdf|1503|dock5
  -GOLD-   2262019333D 1   1.00000     0.00000
 Structure written by MMmdl.
 62 66  0  0  0  0  0  0  0  0  2 V2000
  146.1691  141.4620  156.4866 C   0  0  0  0  0  0  0  0  0  0  0  0
  147.4242  140.5781  156.4664 C   0  0  1  0  0  0  0  0  0  0  0  0
  147.0671  139.1700  155.9401 C   0  0  0  0  0  0  0  0  0  0  0  0
  148.2158  138.2671  155.8629 N   0  0  0  0  0  0  0  0  0  0  0  0
  148.7058  137.6305  156.9712 C   0  0  0  0  0  0  0  0  0  0  0  0
  150.0004  137.2117  156.9392 N   0  0  0  0  0  0  0  0  0  0  0  0
  150.5580  136.6011  157.9865 C   0  0  0  0  0  0  0  0  0  0  0  0
  150.0107  136.3078  159.1639 N   0  0  0  0  0  0  0  0  0  0  0  0
  148.7107  136.7114  159.2157 C   0  0  0  0  0  0  0  0  0  0  0  0
  147.9830  137.3708  158.1798 C   0  0  0  0  0  0  0  0  0  0  0  0
  146.6881  137.6194  158.6262 N   0  0  0  0  0  0  0  0  0  0  0  0
  146.6532  137.1387  159.8375 C   0  0  0  0  0  0  0  0  0  0  0  0
  147.8261  136.5687  160.2701 N   0  0  0  0  0  0  0  0  0  0  0  0
  148.0704  135.9559  161.5672 C   0  0  0  0  0  0  0  0  0  0  0  0
  146.9385  135.0076  162.0351 C   0  0  0  0  0  0  0  0  0  0  0  0
  147.3571  134.4065  163.2487 O   0  0  0  0  0  0  0  0  0  0  0  0
  145.6074  135.7488  162.2905 C   0  0  0  0  0  0  0  0  0  0  0  0
  144.4436  134.7764  162.5528 C   0  0  0  0  0  0  0  0  0  0  0  0
  144.3281  133.8492  161.4803 O   0  0  0  0  0  0  0  0  0  0  0  0
  145.4800  133.0271  161.3368 C   0  0  0  0  0  0  0  0  0  0  0  0
  146.7058  133.8928  160.9955 C   0  0  0  0  0  0  0  0  0  0  0  0
  149.0936  138.4661  154.7042 C   0  0  0  0  0  0  0  0  0  0  0  0
  150.1945  139.5290  154.9211 C   0  0  0  0  0  0  0  0  0  0  0  0
  149.8512  140.5704  155.9237 N   0  3  1  0  0  0  0  0  0  0  0  0
  150.9744  141.5071  156.1537 C   0  0  1  0  0  0  0  0  0  0  0  0
  150.7988  142.3922  157.3680 C   0  0  0  0  0  0  0  0  0  0  0  0
  151.7743  141.2372  157.4166 C   0  0  1  0  0  0  0  0  0  0  0  0
  151.5098  140.0632  158.3429 C   0  0  0  0  0  0  0  0  0  0  0  0
  148.5574  141.2509  155.6637 C   0  0  0  0  0  0  0  0  0  0  0  0
  145.7756  141.6161  155.4812 H   0  0  0  0  0  0  0  0  0  0  0  0
  146.3825  142.4417  156.9146 H   0  0  0  0  0  0  0  0  0  0  0  0
  145.3801  141.0081  157.0874 H   0  0  0  0  0  0  0  0  0  0  0  0
  147.7617  140.4893  157.4995 H   0  0  0  0  0  0  0  0  0  0  0  0
  146.2659  138.7196  156.5234 H   0  0  0  0  0  0  0  0  0  0  0  0
  146.6451  139.2671  154.9391 H   0  0  0  0  0  0  0  0  0  0  0  0
  151.5909  136.3097  157.8648 H   0  0  0  0  0  0  0  0  0  0  0  0
  145.7647  137.1819  160.4511 H   0  0  0  0  0  0  0  0  0  0  0  0
  149.0141  135.4114  161.5117 H   0  0  0  0  0  0  0  0  0  0  0  0
  148.2250  136.7523  162.2969 H   0  0  0  0  0  0  0  0  0  0  0  0
  147.0448  134.9341  163.9680 H   0  0  0  0  0  0  0  0  0  0  0  0
  145.7009  136.4407  163.1283 H   0  0  0  0  0  0  0  0  0  0  0  0
  145.3604  136.3556  161.4184 H   0  0  0  0  0  0  0  0  0  0  0  0
  144.5805  134.2440  163.4952 H   0  0  0  0  0  0  0  0  0  0  0  0
  143.5087  135.3306  162.6383 H   0  0  0  0  0  0  0  0  0  0  0  0
  145.6458  132.4498  162.2477 H   0  0  0  0  0  0  0  0  0  0  0  0
  145.2989  132.3078  160.5378 H   0  0  0  0  0  0  0  0  0  0  0  0
  146.5462  134.3426  160.0145 H   0  0  0  0  0  0  0  0  0  0  0  0
  147.5927  133.2646  160.9016 H   0  0  0  0  0  0  0  0  0  0  0  0
  149.5311  137.5222  154.3770 H   0  0  0  0  0  0  0  0  0  0  0  0
  148.4726  138.7851  153.8664 H   0  0  0  0  0  0  0  0  0  0  0  0
  151.0981  139.0247  155.2643 H   0  0  0  0  0  0  0  0  0  0  0  0
  150.4516  139.9941  153.9685 H   0  0  0  0  0  0  0  0  0  0  0  0
  151.4546  141.9051  155.2615 H   0  0  0  0  0  0  0  0  0  0  0  0
  151.2189  143.3948  157.3240 H   0  0  0  0  0  0  0  0  0  0  0  0
  149.8780  142.3018  157.9419 H   0  0  0  0  0  0  0  0  0  0  0  0
  152.8280  141.5037  157.3591 H   0  0  0  0  0  0  0  0  0  0  0  0
  150.4412  139.8924  158.4756 H   0  0  0  0  0  0  0  0  0  0  0  0
  151.9448  140.2591  159.3229 H   0  0  0  0  0  0  0  0  0  0  0  0
  151.9621  139.1563  157.9416 H   0  0  0  0  0  0  0  0  0  0  0  0
  148.3334  141.2785  154.5961 H   0  0  0  0  0  0  0  0  0  0  0  0
  148.6292  142.2929  155.9787 H   0  0  0  0  0  0  0  0  0  0  0  0
  149.7276  140.0860  156.8012 H   0  0  0  0  0  0  0  0  0  0  0  0
  1  2  1  0  0  0  0
  1 30  1  0  0  0  0
  1 31  1  0  0  0  0
  1 32  1  0  0  0  0
  2 29  1  0  0  0  0
  2  3  1  0  0  0  0
  2 33  1  0  0  0  0
  3  4  1  0  0  0  0
  3 34  1  0  0  0  0
  3 35  1  0  0  0  0
  4  5  1  0  0  0  0
  4 22  1  0  0  0  0
  5 10  1  0  0  0  0
  5  6  2  0  0  0  0
  6  7  1  0  0  0  0
  7  8  2  0  0  0  0
  7 36  1  0  0  0  0
  8  9  1  0  0  0  0
  9 13  1  0  0  0  0
  9 10  2  0  0  0  0
 10 11  1  0  0  0  0
 11 12  2  0  0  0  0
 12 13  1  0  0  0  0
 12 37  1  0  0  0  0
 13 14  1  0  0  0  0
 14 15  1  0  0  0  0
 14 38  1  0  0  0  0
 14 39  1  0  0  0  0
 15 21  1  0  0  0  0
 15 16  1  0  0  0  0
 15 17  1  0  0  0  0
 16 40  1  0  0  0  0
 17 18  1  0  0  0  0
 17 41  1  0  0  0  0
 17 42  1  0  0  0  0
 18 19  1  0  0  0  0
 18 43  1  0  0  0  0
 18 44  1  0  0  0  0
 19 20  1  0  0  0  0
 20 21  1  0  0  0  0
 20 45  1  0  0  0  0
 20 46  1  0  0  0  0
 21 47  1  0  0  0  0
 21 48  1  0  0  0  0
 22 23  1  0  0  0  0
 22 49  1  0  0  0  0
 22 50  1  0  0  0  0
 23 24  1  0  0  0  0
 23 51  1  0  0  0  0
 23 52  1  0  0  0  0
 24 25  1  0  0  0  0
 24 29  1  0  0  0  0
 24 62  1  0  0  0  0
 25 27  1  0  0  0  0
 25 26  1  0  0  0  0
 25 53  1  0  0  0  0
 26 27  1  0  0  0  0
 26 54  1  0  0  0  0
 26 55  1  0  0  0  0
 27 28  1  0  0  0  0
 27 56  1  0  0  0  0
 28 57  1  0  0  0  0
 28 58  1  0  0  0  0
 28 59  1  0  0  0  0
 29 60  1  0  0  0  0
 29 61  1  0  0  0  0
M  CHG  1  24   1
M  END
> <s_m_source_file>
AV-unprocessed.smi

> <i_m_source_file_index>
193

> <i_lp_mmshare_version>
43012

> <i_f3d_flags>
0

> <s_epik_input>
W0NIM11bQ0BASF0xW0NIMl1bQ0BIXTFOKFtDSDJdMilbQ0gyXVtDSDJdTihbQ0gyXVtDQEhdMltDSDNdKWMobltjSF1uMyljKGMzNCluW2NIXW40W0NIMl1DNShbT0hdKVtDSDJdW0NIMl1PW0NIMl1bQ0gyXTU=

> <s_epik_cmdline>
J2VwaWtfcHl0aG9uJywgJy1waCcsICc3LjAnLCAnLXRuJywgJzgnLCAnLW1hJywgJzIwMCcsICctbWV0YWxfYmluZGluZycsICctaW1hZScsICc8aW5maWxlLm1hZT4nLCAnLW9tYWUnLCAnPG91dGZpbGUubWFlPic=

> <r_lp_tautomer_probability>
1

> <r_epik_Ionization_Penalty>
0.0540825

> <r_epik_Ionization_Penalty_Charging>
0.0538476

> <r_epik_Ionization_Penalty_Neutral>
0.000234891

> <r_epik_State_Penalty>
0.0200719

> <r_epik_Charging_Adjusted_Penalty>
0.0739194

> <i_epik_Tot_Q>
1

> <i_epik_Tot_abs_Q>
1

> <r_epik_Metal_State_Penalty>
0.0199414

> <b_epik_Metal_Only>
0

> <s_lp_Force_Field>
OPLS_2005

> <r_lp_Energy>
52.5482

> <b_lp_Chiralities_Consistent>
1

> <s_lp_Variant>
AV-unprocessed.smi:193-8

> <Gold.Version>
5.8.1

> <Gold.Id.Protein>
6NUR|6NUR_protein|mol2

> <Gold.PLP.Fitness>
39.6241

> <Gold.PLP.PLP>
-37.2315

> <Gold.PLP.part.hbond>
-2.6743

> <Gold.PLP.part.metal>
0.0000

> <Gold.PLP.part.buried>
-5.5357

> <Gold.PLP.part.nonpolar>
-28.8787

> <Gold.PLP.part.repulsive>
0.1111

> <Gold.PLP.ligand.clash>
0.0000

> <Gold.PLP.ligand.torsion>
1.0015

> <Gold.PLP.Chemscore.Hbond>
1.0000

> <Gold.PLP.Chemscore.CHOScore>
0.0000

> <Gold.PLP.Chemscore.Metal>
0.0000

> <Gold.Chemscore.Hbonds>
donor molecule, donor type, donor heavy atom, donor atom, acceptor molecule, acceptor atom, score
      P1  H  6896  6909       L1     8  1.00

> <Gold.PLP.Chemscore.Internal.Correction>
1.3958

> <Gold.Rescore>
     Score         DG    S(hbond)    S(metal)    S(lipo)     H(rot)  DE(clash)    DE(int)     intcor
     12.10     -13.77       0.95        0.00      85.92       1.93       0.09       1.58       ----

> <Gold.Chemscore.Fitness>
12.0970

> <Gold.Chemscore.DG>
-13.7665

> <Gold.Chemscore.ZeroCoef>
-5.4800

> <Gold.Chemscore.Hbond>
0.9498

> <Gold.Chemscore.Metal>
0.0000

> <Gold.Chemscore.Lipo>
85.9196

> <Gold.Chemscore.Internal_Hbond>
0.0000

> <Gold.Chemscore.DEClash>
0.0937

> <Gold.Chemscore.DEInternal>
1.5758

> <Gold.Chemscore.Rot>
1.9290

> <Gold.Chemscore.Internal.Correction>
   9.000000E+99

> <Gold.Chemscore.Hbonds>
donor molecule, donor type, donor heavy atom, donor atom, acceptor molecule, acceptor atom, score
      P1  H  6896  6909       L1     8  0.50

> <Gold.Chemscore.Hbond.Weighted>
-3.1722

> <Gold.Chemscore.Metal.Weighted>
-0.0000

> <Gold.Chemscore.Lipo.Weighted>
-10.0526

> <Gold.Chemscore.Internal_Hbond.Weighted>
0.0000

> <Gold.Chemscore.DEClash.Weighted>
0.0937

> <Gold.Chemscore.DEInternal.Weighted>
1.5758

> <Gold.Chemscore.Rot.Weighted>
4.9383

> <Gold.Chemscore.Internal.Correction.Weighted>
   9.000000E+99

> <Gold.Protein.RotatedTorsions>
[ 6907 6896 6895 6894 ] final   68.16 input  -60.11 | X-H torsion
[ 7974 7965 7964 7962 ] final    7.10 input  175.53 | X-H torsion
[ 8008 7997 7996 7995 ] final  112.03 input   59.86 | X-H torsion
[ 10167 10162 10161 10158 ] final   26.98 input  -65.29 | X-H torsion
[ 10718 10713 10712 10709 ] final  -93.38 input   66.30 | X-H torsion
[ 10763 10752 10751 10750 ] final   -5.24 input  -60.55 | X-H torsion
[ 11005 11000 10999 10996 ] final -177.94 input  -57.11 | X-H torsion

> <Gold.Protein.ActiveResidues>
 VAL166  LYS551  ARG553  GLY616  TRP617  ASP618  TYR619  PRO620  LYS621  CYS622 
 ASP623  PHE694  ASN695  SER759  ASP760  ASP761  ALA762  ILE779  LEU786  VAL792 
 PHE793  MET794  SER795  GLU796  ALA797  LYS798  CYS799  TRP800  GLU811  SER814 

> <Gold.Protein.RotatedAtoms>
  152.4602  134.5202  159.9779 H   0  0  0  0  0  0  0  0  0  0  0  0  # atno 6907 bound_to 6896
  151.5253  133.3453  159.2916 H   0  0  0  0  0  0  0  0  0  0  0  0  # atno 6908 bound_to 6896
  150.8561  134.7930  159.7109 H   0  0  0  0  0  0  0  0  0  0  0  0  # atno 6909 bound_to 6896
  146.2429  140.0133  142.8404 H   0  0  0  0  0  0  0  0  0  0  0  0  # atno 7974 bound_to 7965
  156.2165  140.3007  155.9851 H   0  0  0  0  0  0  0  0  0  0  0  0  # atno 8008 bound_to 7997
  155.2592  140.0429  157.3012 H   0  0  0  0  0  0  0  0  0  0  0  0  # atno 8009 bound_to 7997
  154.5775  140.2366  155.8109 H   0  0  0  0  0  0  0  0  0  0  0  0  # atno 8010 bound_to 7997
  140.4977  144.0365  150.6320 H   0  0  0  0  0  0  0  0  0  0  0  0  # atno 10167 bound_to 10162
  156.0013  130.5024  150.5767 H   0  0  0  0  0  0  0  0  0  0  0  0  # atno 10718 bound_to 10713
  153.3958  135.7003  153.6462 H   0  0  0  0  0  0  0  0  0  0  0  0  # atno 10763 bound_to 10752
  153.5015  135.3651  155.2543 H   0  0  0  0  0  0  0  0  0  0  0  0  # atno 10764 bound_to 10752
  154.8706  135.4113  154.3283 H   0  0  0  0  0  0  0  0  0  0  0  0  # atno 10765 bound_to 10752
  140.4354  134.6481  157.4732 H   0  0  0  0  0  0  0  0  0  0  0  0  # atno 11005 bound_to 11000
  145.1307  140.9516  143.4546 LP  0  0  0  0  0  0  0  0  0  0  0  0  # atno 17320 bound_to 7965
  145.0390  139.3276  143.5986 LP  0  0  0  0  0  0  0  0  0  0  0  0  # atno 17321 bound_to 7965
  140.3652  143.2885  152.0339 LP  0  0  0  0  0  0  0  0  0  0  0  0  # atno 17342 bound_to 10162
  139.4865  144.6272  151.7141 LP  0  0  0  0  0  0  0  0  0  0  0  0  # atno 17343 bound_to 10162
  157.3654  131.0757  151.1602 LP  0  0  0  0  0  0  0  0  0  0  0  0  # atno 17370 bound_to 10713
  157.2373  130.6553  149.5875 LP  0  0  0  0  0  0  0  0  0  0  0  0  # atno 17371 bound_to 10713
  140.0106  134.6696  155.9387 LP  0  0  0  0  0  0  0  0  0  0  0  0  # atno 17394 bound_to 11000
  141.1728  133.6538  156.4716 LP  0  0  0  0  0  0  0  0  0  0  0  0  # atno 17395 bound_to 11000

$$$$
