AV-unprocessed.smi:1749|AV-procd|sdf|7048|dock1
  -GOLD-   22720 8263D 1   1.00000     0.00000
 Structure written by MMmdl.
 31 32  0  0  0  0  0  0  0  0  2 V2000
  150.6493  142.3906  157.6082 C   0  0  0  0  0  0  0  0  0  0  0  0
  150.7191  140.9556  158.1493 C   0  0  2  0  0  0  0  0  0  0  0  0
  152.1461  140.5931  158.6031 C   0  0  0  0  0  0  0  0  0  0  0  0
  152.2204  139.1551  159.1401 C   0  0  0  0  0  0  0  0  0  0  0  0
  151.7077  138.1431  158.1013 C   0  0  0  0  0  0  0  0  0  0  0  0
  150.2820  138.4825  157.6187 C   0  0  1  0  0  0  0  0  0  0  0  0
  149.3018  138.2782  158.6832 N   0  0  0  0  0  0  0  0  0  0  0  0
  148.9932  137.1152  159.2887 C   0  0  0  0  0  0  0  0  0  0  0  0
  149.5618  136.0852  158.9283 O   0  0  0  0  0  0  0  0  0  0  0  0
  148.0612  137.1468  160.2777 N   0  5  0  0  0  0  0  0  0  0  0  0
  147.6294  136.0330  160.8988 C   0  0  0  0  0  0  0  0  0  0  0  0
  147.2781  134.9240  160.2277 N   0  0  0  0  0  0  0  0  0  0  0  0
  146.8768  133.8873  161.0589 N   0  0  0  0  0  0  0  0  0  0  0  0
  146.9245  134.2465  162.3415 C   0  0  0  0  0  0  0  0  0  0  0  0
  147.4646  135.8833  162.6505 S   0  0  0  0  0  0  0  0  0  0  0  0
  150.2072  139.9359  157.1093 C   0  0  0  0  0  0  0  0  0  0  0  0
  151.2831  142.5148  156.7296 H   0  0  0  0  0  0  0  0  0  0  0  0
  150.9763  143.1097  158.3596 H   0  0  0  0  0  0  0  0  0  0  0  0
  149.6299  142.6527  157.3236 H   0  0  0  0  0  0  0  0  0  0  0  0
  150.0674  140.9080  159.0231 H   0  0  0  0  0  0  0  0  0  0  0  0
  152.8383  140.7039  157.7671 H   0  0  0  0  0  0  0  0  0  0  0  0
  152.4804  141.2879  159.3743 H   0  0  0  0  0  0  0  0  0  0  0  0
  153.2476  138.9146  159.4151 H   0  0  0  0  0  0  0  0  0  0  0  0
  151.6316  139.0745  160.0550 H   0  0  0  0  0  0  0  0  0  0  0  0
  152.3825  138.1398  157.2446 H   0  0  0  0  0  0  0  0  0  0  0  0
  151.7411  137.1343  158.5145 H   0  0  0  0  0  0  0  0  0  0  0  0
  150.0264  137.8239  156.7868 H   0  0  0  0  0  0  0  0  0  0  0  0
  148.8194  139.1031  159.0082 H   0  0  0  0  0  0  0  0  0  0  0  0
  146.6374  133.5444  163.1102 H   0  0  0  0  0  0  0  0  0  0  0  0
  149.1815  140.1745  156.8240 H   0  0  0  0  0  0  0  0  0  0  0  0
  150.8015  140.0225  156.1986 H   0  0  0  0  0  0  0  0  0  0  0  0
  1  2  1  0  0  0  0
  1 17  1  0  0  0  0
  1 18  1  0  0  0  0
  1 19  1  0  0  0  0
  2 16  1  0  0  0  0
  2  3  1  0  0  0  0
  2 20  1  0  0  0  0
  3  4  1  0  0  0  0
  3 21  1  0  0  0  0
  3 22  1  0  0  0  0
  4  5  1  0  0  0  0
  4 23  1  0  0  0  0
  4 24  1  0  0  0  0
  5  6  1  0  0  0  0
  5 25  1  0  0  0  0
  5 26  1  0  0  0  0
  6  7  1  0  0  0  0
  6 16  1  0  0  0  0
  6 27  1  0  0  0  0
  7  8  1  0  0  0  0
  7 28  1  0  0  0  0
  8  9  2  0  0  0  0
  8 10  1  0  0  0  0
 10 11  1  0  0  0  0
 11 15  1  0  0  0  0
 11 12  2  0  0  0  0
 12 13  1  0  0  0  0
 13 14  2  0  0  0  0
 14 15  1  0  0  0  0
 14 29  1  0  0  0  0
 16 30  1  0  0  0  0
 16 31  1  0  0  0  0
M  CHG  1  10  -1
M  END
> <s_m_source_file>
AV-unprocessed.smi

> <i_m_source_file_index>
1749

> <i_lp_mmshare_version>
43012

> <i_f3d_flags>
0

> <s_epik_input>
W0NIM11bQ0BASF0xW0NIMl1bQ0gyXVtDSDJdW0NASF0oW0NIMl0xKVtOSF1DKD1PKVtOSF1jMm5uW2NIXXMy

> <s_epik_cmdline>
J2VwaWtfcHl0aG9uJywgJy1waCcsICc3LjAnLCAnLXRuJywgJzgnLCAnLW1hJywgJzIwMCcsICctbWV0YWxfYmluZGluZycsICctaW1hZScsICc8aW5maWxlLm1hZT4nLCAnLW9tYWUnLCAnPG91dGZpbGUubWFlPic=

> <r_lp_tautomer_probability>
1

> <r_epik_Ionization_Penalty>
4.55442

> <r_epik_Ionization_Penalty_Charging>
4.5081

> <r_epik_Ionization_Penalty_Neutral>
0.0463156

> <r_epik_State_Penalty>
4.50781

> <r_epik_Charging_Adjusted_Penalty>
9.01591

> <i_epik_Tot_Q>
-1

> <i_epik_Tot_abs_Q>
1

> <r_epik_Metal_State_Penalty>
0.823335

> <b_epik_Metal_Only>
1

> <s_lp_Force_Field>
OPLS_2005

> <r_lp_Energy>
7.79414

> <b_lp_Chiralities_Consistent>
1

> <s_lp_Variant>
AV-unprocessed.smi:1749-5

> <Gold.Version>
5.8.1

> <Gold.Id.Protein>
6NUR|6NUR_protein|mol2

> <Gold.PLP.Fitness>
37.2548

> <Gold.PLP.PLP>
-26.8682

> <Gold.PLP.part.hbond>
-3.0000

> <Gold.PLP.part.metal>
0.0000

> <Gold.PLP.part.buried>
-4.1503

> <Gold.PLP.part.nonpolar>
-20.7643

> <Gold.PLP.part.repulsive>
0.2170

> <Gold.PLP.ligand.clash>
0.0000

> <Gold.PLP.ligand.torsion>
0.4207

> <Gold.PLP.Chemscore.Hbond>
3.7400

> <Gold.PLP.Chemscore.CHOScore>
0.0000

> <Gold.PLP.Chemscore.Metal>
0.0000

> <Gold.Chemscore.Hbonds>
donor molecule, donor type, donor heavy atom, donor atom, acceptor molecule, acceptor atom, score
      P1  H  6896  6907       L1     9  1.00
      P1  H  6931  6943       L1    10  0.87
      P1  H  6934  6947       L1    10  0.98

> <Gold.PLP.Chemscore.Internal.Correction>
0.0082

> <Gold.Rescore>
     Score         DG    S(hbond)    S(metal)    S(lipo)     H(rot)  DE(clash)    DE(int)     intcor
     13.32     -15.06       1.75        0.00      53.73       1.00       0.00       1.74       ----

> <Gold.Chemscore.Fitness>
13.3200

> <Gold.Chemscore.DG>
-15.0607

> <Gold.Chemscore.ZeroCoef>
-5.4800

> <Gold.Chemscore.Hbond>
1.7527

> <Gold.Chemscore.Metal>
0.0000

> <Gold.Chemscore.Lipo>
53.7333

> <Gold.Chemscore.Internal_Hbond>
0.0000

> <Gold.Chemscore.DEClash>
0.0000

> <Gold.Chemscore.DEInternal>
1.7406

> <Gold.Chemscore.Rot>
1.0000

> <Gold.Chemscore.Internal.Correction>
   9.000000E+99

> <Gold.Chemscore.Hbonds>
donor molecule, donor type, donor heavy atom, donor atom, acceptor molecule, acceptor atom, score
      P1  H  6896  6907       L1     9  0.97
      P1  H  6931  6943       L1    10  0.08
      P1  H  6934  6947       L1    10  0.45

> <Gold.Chemscore.Hbond.Weighted>
-5.8539

> <Gold.Chemscore.Metal.Weighted>
-0.0000

> <Gold.Chemscore.Lipo.Weighted>
-6.2868

> <Gold.Chemscore.Internal_Hbond.Weighted>
0.0000

> <Gold.Chemscore.DEClash.Weighted>
0.0000

> <Gold.Chemscore.DEInternal.Weighted>
1.7406

> <Gold.Chemscore.Rot.Weighted>
2.5600

> <Gold.Chemscore.Internal.Correction.Weighted>
   9.000000E+99

> <Gold.Protein.RotatedTorsions>
[ 6907 6896 6895 6894 ] final  -70.45 input  -60.11 | X-H torsion
[ 7974 7965 7964 7962 ] final -156.02 input  175.53 | X-H torsion
[ 8008 7997 7996 7995 ] final  -47.84 input   59.86 | X-H torsion
[ 10167 10162 10161 10158 ] final -122.78 input  -65.29 | X-H torsion
[ 10718 10713 10712 10709 ] final    6.53 input   66.30 | X-H torsion
[ 10763 10752 10751 10750 ] final -149.76 input  -60.55 | X-H torsion
[ 11005 11000 10999 10996 ] final   95.96 input  -57.11 | X-H torsion

> <Gold.Protein.ActiveResidues>
 VAL166  LYS551  ARG553  GLY616  TRP617  ASP618  TYR619  PRO620  LYS621  CYS622 
 ASP623  PHE694  ASN695  SER759  ASP760  ASP761  ALA762  ILE779  LEU786  VAL792 
 PHE793  MET794  SER795  GLU796  ALA797  LYS798  CYS799  TRP800  GLU811  SER814 

> <Gold.Protein.RotatedAtoms>
  150.7257  134.5452  159.5766 H   0  0  0  0  0  0  0  0  0  0  0  0  # atno 6907 bound_to 6896
  152.2953  134.7672  160.0378 H   0  0  0  0  0  0  0  0  0  0  0  0  # atno 6908 bound_to 6896
  151.8271  133.3367  159.3638 H   0  0  0  0  0  0  0  0  0  0  0  0  # atno 6909 bound_to 6896
  144.7612  140.4168  143.5975 H   0  0  0  0  0  0  0  0  0  0  0  0  # atno 7974 bound_to 7965
  154.4021  140.1336  156.4240 H   0  0  0  0  0  0  0  0  0  0  0  0  # atno 8008 bound_to 7997
  155.7615  140.3486  155.5180 H   0  0  0  0  0  0  0  0  0  0  0  0  # atno 8009 bound_to 7997
  155.8855  140.0994  157.1446 H   0  0  0  0  0  0  0  0  0  0  0  0  # atno 8010 bound_to 7997
  140.0106  143.5446  152.2265 H   0  0  0  0  0  0  0  0  0  0  0  0  # atno 10167 bound_to 10162
  156.9236  130.5800  149.5648 H   0  0  0  0  0  0  0  0  0  0  0  0  # atno 10718 bound_to 10713
  154.8158  135.3301  154.7179 H   0  0  0  0  0  0  0  0  0  0  0  0  # atno 10763 bound_to 10752
  153.7820  135.6917  153.4891 H   0  0  0  0  0  0  0  0  0  0  0  0  # atno 10764 bound_to 10752
  153.1974  135.4529  155.0172 H   0  0  0  0  0  0  0  0  0  0  0  0  # atno 10765 bound_to 10752
  139.8785  134.8926  156.4088 H   0  0  0  0  0  0  0  0  0  0  0  0  # atno 11005 bound_to 11000
  145.6612  139.1582  143.2807 LP  0  0  0  0  0  0  0  0  0  0  0  0  # atno 17320 bound_to 7965
  146.1677  140.6693  142.9248 LP  0  0  0  0  0  0  0  0  0  0  0  0  # atno 17321 bound_to 7965
  139.6208  144.7628  151.2745 LP  0  0  0  0  0  0  0  0  0  0  0  0  # atno 17342 bound_to 10162
  140.7383  143.6652  150.8129 LP  0  0  0  0  0  0  0  0  0  0  0  0  # atno 17343 bound_to 10162
  156.0479  130.5553  150.8924 LP  0  0  0  0  0  0  0  0  0  0  0  0  # atno 17370 bound_to 10713
  157.5892  131.0945  150.9147 LP  0  0  0  0  0  0  0  0  0  0  0  0  # atno 17371 bound_to 10713
  140.9215  133.7642  155.9912 LP  0  0  0  0  0  0  0  0  0  0  0  0  # atno 17394 bound_to 11000
  140.8434  134.3039  157.5304 LP  0  0  0  0  0  0  0  0  0  0  0  0  # atno 17395 bound_to 11000

$$$$
