#       Name:                AV-unprocessed.smi:225
#       Creating user name   scv26
#       Creation time:       Thu Mar 26 20:20:23 2020


#       File generated by GOLD software.
#

@<TRIPOS>MOLECULE
AV-unprocessed.smi:225
    66    69     1
SMALL
NO_CHARGES


@<TRIPOS>ATOM
      1 ****        -1.8249  -2.9640   4.7585 O.3            1 S1                 0.0000
      2 ****        -1.1194  -2.2463   3.7700 C.3            1 S1                 0.0000
      3 ****        -2.0661  -1.9123   2.6046 C.3            1 S1                 0.0000
      4 ****        -1.4204  -1.1149   1.5578 N.3            1 S1                 0.0000
      5 ****        -2.2841  -0.2955   0.7063 C.3            1 S1                 0.0000
      6 ****        -2.8181   0.9686   1.4129 C.3            1 S1                 0.0000
      7 ****        -3.8605   1.6837   0.5304 C.3            1 S1                 0.0000
      8 ****        -4.4145   2.9457   1.2124 C.3            1 S1                 0.0000
      9 ****        -3.2846   3.9118   1.5992 C.3            1 S1                 0.0000
     10 ****        -2.2353   3.2112   2.4759 C.3            1 S1                 0.0000
     11 ****        -1.6876   1.9501   1.7886 C.3            1 S1                 0.0000
     12 ****        -0.3868  -1.6802   0.8815 C.ar           1 S1                 0.0000
     13 ****        -0.3519  -3.0261   0.6884 N.ar           1 S1                 0.0000
     14 ****         0.6572  -3.5856   0.0144 C.ar           1 S1                 0.0000
     15 ****         1.7139  -2.9955  -0.5472 N.ar           1 S1                 0.0000
     16 ****         1.6825  -1.6448  -0.3615 C.ar           1 S1                 0.0000
     17 ****         0.6804  -0.9132   0.3361 C.ar           1 S1                 0.0000
     18 ****         0.9932   0.4403   0.3308 N.2            1 S1                 0.0000
     19 ****         2.1116   0.5067  -0.3380 C.2            1 S1                 0.0000
     20 ****         2.5925  -0.6981  -0.7987 N.pl3          1 S1                 0.0000
     21 ****         3.8054  -0.9159  -1.5715 C.3            1 S1                 0.0000
     22 ****         3.5847  -0.8232  -3.0994 C.3            1 S1                 0.0000
     23 ****         2.6773  -1.8355  -3.4991 O.3            1 S1                 0.0000
     24 ****         3.0431   0.5246  -3.5707 C.3            1 S1                 0.0000
     25 ****         3.6809   0.6883  -4.9430 C.3            1 S1                 0.0000
     26 ****         4.9853   0.1755  -4.7354 O.3            1 S1                 0.0000
     27 ****         4.8848  -0.9825  -3.9134 C.3            1 S1                 0.0000
     28 ****        -1.2312  -3.1624   5.4664 H              1 S1                 0.0000
     29 ****        -0.7207  -1.3327   4.2119 H              1 S1                 0.0000
     30 ****        -0.2716  -2.8473   3.4415 H              1 S1                 0.0000
     31 ****        -2.4727  -2.8280   2.1731 H              1 S1                 0.0000
     32 ****        -2.9237  -1.3669   2.9966 H              1 S1                 0.0000
     33 ****        -1.7736  -0.0041  -0.2130 H              1 S1                 0.0000
     34 ****        -3.1246  -0.9166   0.3941 H              1 S1                 0.0000
     35 ****        -3.3246   0.6714   2.3310 H              1 S1                 0.0000
     36 ****        -3.4107   1.9560  -0.4255 H              1 S1                 0.0000
     37 ****        -4.6828   1.0052   0.3009 H              1 S1                 0.0000
     38 ****        -5.1206   3.4467   0.5497 H              1 S1                 0.0000
     39 ****        -4.9750   2.6631   2.1042 H              1 S1                 0.0000
     40 ****        -2.8088   4.2975   0.6966 H              1 S1                 0.0000
     41 ****        -3.6950   4.7739   2.1257 H              1 S1                 0.0000
     42 ****        -1.4181   3.8981   2.6971 H              1 S1                 0.0000
     43 ****        -2.6801   2.9409   3.4344 H              1 S1                 0.0000
     44 ****        -0.9692   1.4641   2.4494 H              1 S1                 0.0000
     45 ****        -1.1377   2.2385   0.8919 H              1 S1                 0.0000
     46 ****         0.6103  -4.6594  -0.0913 H              1 S1                 0.0000
     47 ****         2.6173   1.4442  -0.5172 H              1 S1                 0.0000
     48 ****         4.5452  -0.1800  -1.2540 H              1 S1                 0.0000
     49 ****         4.2138  -1.8923  -1.3067 H              1 S1                 0.0000
     50 ****         2.5573  -1.7786  -4.4346 H              1 S1                 0.0000
     51 ****         1.9537   0.5807  -3.5914 H              1 S1                 0.0000
     52 ****         3.4040   1.3244  -2.9229 H              1 S1                 0.0000
     53 ****         3.1622   0.0898  -5.6935 H              1 S1                 0.0000
     54 ****         3.7031   1.7250  -5.2792 H              1 S1                 0.0000
     55 ****         5.7690  -1.0512  -3.2791 H              1 S1                 0.0000
     56 ****         4.8669  -1.8729  -4.5442 H              1 S1                 0.0000
     57 ****        -2.1811  -3.8134   4.3689 LP             1 S1                 0.0000
     58 ****        -2.5841  -2.4100   5.1002 LP             1 S1                 0.0000
     59 ****        -0.9750  -0.4537   2.1614 LP             1 S1                 0.0000
     60 ****        -1.0853  -3.6000   1.0527 LP             1 S1                 0.0000
     61 ****         2.4357  -3.4809  -1.0406 LP             1 S1                 0.0000
     62 ****         0.4791   1.1915   0.7447 LP             1 S1                 0.0000
     63 ****         1.7999  -1.7032  -3.0379 LP             1 S1                 0.0000
     64 ****         3.0472  -2.7334  -3.2606 LP             1 S1                 0.0000
     65 ****         5.5511   0.8641  -4.2818 LP             1 S1                 0.0000
     66 ****         5.3966  -0.0680  -5.6138 LP             1 S1                 0.0000
@<TRIPOS>BOND
    1    1    2 1     
    2    1   28 1     
    3    2    3 1     
    4    2   29 1     
    5    2   30 1     
    6    3    4 1     
    7    3   31 1     
    8    3   32 1     
    9    4    5 1     
   10    4   12 1     
   11    5    6 1     
   12    5   33 1     
   13    5   34 1     
   14    6   11 1     
   15    6    7 1     
   16    6   35 1     
   17    7    8 1     
   18    7   36 1     
   19    7   37 1     
   20    8    9 1     
   21    8   38 1     
   22    8   39 1     
   23    9   10 1     
   24    9   40 1     
   25    9   41 1     
   26   10   11 1     
   27   10   42 1     
   28   10   43 1     
   29   11   44 1     
   30   11   45 1     
   31   12   17 ar    
   32   12   13 ar    
   33   13   14 ar    
   34   14   15 ar    
   35   14   46 1     
   36   15   16 ar    
   37   16   20 1     
   38   16   17 ar    
   39   17   18 1     
   40   18   19 2     
   41   19   20 1     
   42   19   47 1     
   43   20   21 1     
   44   21   22 1     
   45   21   48 1     
   46   21   49 1     
   47   22   27 1     
   48   22   23 1     
   49   22   24 1     
   50   23   50 1     
   51   24   25 1     
   52   24   51 1     
   53   24   52 1     
   54   25   26 1     
   55   25   53 1     
   56   25   54 1     
   57   26   27 1     
   58   27   55 1     
   59   27   56 1     
   60    1   57 1     
   61    1   58 1     
   62    4   59 1     
   63   13   60 1     
   64   15   61 1     
   65   18   62 1     
   66   23   63 1     
   67   23   64 1     
   68   26   65 1     
   69   26   66 1     
@<TRIPOS>SUBSTRUCTURE
      1 S1             1
@<TRIPOS>SET
LONE_PAIRS      STATIC     ATOMS    <user>   **** ""
10 57 58 59 60 61 62 63 64 65 66
DONOR_HYDROGENS      STATIC     ATOMS    <user>   **** ""
2 28 50
ATOM$BLUE        STATIC     ATOMS    COLORGROUP SYSTEM
10 57 58 59 60 61 62 63 64 65 66
ATOM$RED        STATIC     ATOMS    COLORGROUP SYSTEM
2 28 50
