AV-unprocessed.smi:1616|AV-procd|sdf|6482|dock8
  -GOLD-   22720 7143D 1   1.00000     0.00000
 Structure written by MMmdl.
 38 39  0  0  0  0  0  0  0  0  1 V2000
  150.4283  144.8572  159.5338 C   0  0  0  0  0  0  0  0  0  0  0  0
  151.2132  143.6033  159.2575 C   0  0  0  0  0  0  0  0  0  0  0  0
  151.0034  143.0260  158.1205 N   0  0  0  0  0  0  0  0  0  0  0  0
  151.6663  141.8660  157.7691 N   0  0  0  0  0  0  0  0  0  0  0  0
  151.2868  141.3369  156.4506 C   0  0  0  0  0  0  0  0  0  0  0  0
  149.8261  140.8675  156.3729 C   0  0  0  0  0  0  0  0  0  0  0  0
  149.3817  140.0396  157.1699 O   0  0  0  0  0  0  0  0  0  0  0  0
  149.0858  141.4247  155.4020 N   0  0  0  0  0  0  0  0  0  0  0  0
  147.6767  141.1469  155.1421 C   0  0  2  0  0  0  0  0  0  0  0  0
  147.5312  140.4227  153.7945 C   0  0  0  0  0  0  0  0  0  0  0  0
  146.8233  142.4006  155.1779 C   0  0  0  0  0  0  0  0  0  0  0  0
  145.3157  142.3187  155.1595 C   0  0  0  0  0  0  0  0  0  0  0  0
  146.0596  142.8582  153.9582 C   0  0  0  0  0  0  0  0  0  0  0  0
  152.5854  141.2294  158.5511 C   0  0  0  0  0  0  0  0  0  0  0  0
  153.1526  140.1946  158.1974 O   0  0  0  0  0  0  0  0  0  0  0  0
  152.8212  141.8914  159.8363 C   0  0  0  0  0  0  0  0  0  0  0  0
  153.7756  141.2574  160.6875 C   0  0  0  0  0  0  0  0  0  0  0  0
  154.5508  140.7614  161.3900 N   0  0  0  0  0  0  0  0  0  0  0  0
  152.1742  143.0290  160.1937 C   0  0  0  0  0  0  0  0  0  0  0  0
  152.3802  143.7537  161.5170 C   0  0  0  0  0  0  0  0  0  0  0  0
  151.0950  145.7096  159.6663 H   0  0  0  0  0  0  0  0  0  0  0  0
  149.8323  144.7485  160.4402 H   0  0  0  0  0  0  0  0  0  0  0  0
  149.7444  145.0974  158.7180 H   0  0  0  0  0  0  0  0  0  0  0  0
  151.4374  142.0994  155.6841 H   0  0  0  0  0  0  0  0  0  0  0  0
  151.9452  140.5116  156.1728 H   0  0  0  0  0  0  0  0  0  0  0  0
  149.5329  142.0970  154.7956 H   0  0  0  0  0  0  0  0  0  0  0  0
  147.3022  140.4812  155.9222 H   0  0  0  0  0  0  0  0  0  0  0  0
  146.4884  140.1748  153.5937 H   0  0  0  0  0  0  0  0  0  0  0  0
  148.0963  139.4901  153.7819 H   0  0  0  0  0  0  0  0  0  0  0  0
  147.8904  141.0408  152.9709 H   0  0  0  0  0  0  0  0  0  0  0  0
  147.2458  143.1959  155.7896 H   0  0  0  0  0  0  0  0  0  0  0  0
  144.8621  141.3337  155.0684 H   0  0  0  0  0  0  0  0  0  0  0  0
  144.7666  143.0299  155.7728 H   0  0  0  0  0  0  0  0  0  0  0  0
  146.0058  143.9287  153.7720 H   0  0  0  0  0  0  0  0  0  0  0  0
  146.0983  142.2311  153.0698 H   0  0  0  0  0  0  0  0  0  0  0  0
  153.1430  143.2791  162.1333 H   0  0  0  0  0  0  0  0  0  0  0  0
  151.4544  143.7668  162.0928 H   0  0  0  0  0  0  0  0  0  0  0  0
  152.6943  144.7840  161.3465 H   0  0  0  0  0  0  0  0  0  0  0  0
  1  2  1  0  0  0  0
  1 21  1  0  0  0  0
  1 22  1  0  0  0  0
  1 23  1  0  0  0  0
  2 19  1  0  0  0  0
  2  3  2  0  0  0  0
  3  4  1  0  0  0  0
  4  5  1  0  0  0  0
  4 14  1  0  0  0  0
  5  6  1  0  0  0  0
  5 24  1  0  0  0  0
  5 25  1  0  0  0  0
  6  7  2  0  0  0  0
  6  8  1  0  0  0  0
  8  9  1  0  0  0  0
  8 26  1  0  0  0  0
  9 10  1  0  0  0  0
  9 11  1  0  0  0  0
  9 27  1  0  0  0  0
 10 28  1  0  0  0  0
 10 29  1  0  0  0  0
 10 30  1  0  0  0  0
 11 13  1  0  0  0  0
 11 12  1  0  0  0  0
 11 31  1  0  0  0  0
 12 13  1  0  0  0  0
 12 32  1  0  0  0  0
 12 33  1  0  0  0  0
 13 34  1  0  0  0  0
 13 35  1  0  0  0  0
 14 15  2  0  0  0  0
 14 16  1  0  0  0  0
 16 17  1  0  0  0  0
 16 19  2  0  0  0  0
 17 18  3  0  0  0  0
 19 20  1  0  0  0  0
 20 36  1  0  0  0  0
 20 37  1  0  0  0  0
 20 38  1  0  0  0  0
M  END
> <s_m_source_file>
AV-unprocessed.smi

> <i_m_source_file_index>
1616

> <i_lp_mmshare_version>
43012

> <i_f3d_flags>
0

> <s_epik_input>
TiNDYyhjMVtDSDNdKWMoPU8pbihuYzFbQ0gzXSlbQ0gyXUMoPU8pW05IXVtDQEhdKFtDSDNdKVtDSF0yW0NIMl1bQ0gyXTI=

> <s_epik_cmdline>
J2VwaWtfcHl0aG9uJywgJy1waCcsICc3LjAnLCAnLXRuJywgJzgnLCAnLW1hJywgJzIwMCcsICctbWV0YWxfYmluZGluZycsICctaW1hZScsICc8aW5maWxlLm1hZT4nLCAnLW9tYWUnLCAnPG91dGZpbGUubWFlPic=

> <r_lp_tautomer_probability>
1

> <r_epik_Ionization_Penalty>
1.93246e-08

> <r_epik_Ionization_Penalty_Charging>
2.27031e-11

> <r_epik_Ionization_Penalty_Neutral>
1.93019e-08

> <r_epik_State_Penalty>
-0

> <r_epik_Charging_Adjusted_Penalty>
2.27031e-11

> <i_epik_Tot_Q>
0

> <i_epik_Tot_abs_Q>
0

> <r_epik_Metal_State_Penalty>
-0

> <b_epik_Metal_Only>
0

> <s_lp_Force_Field>
OPLS_2005

> <r_lp_Energy>
28.018

> <b_lp_Chiralities_Consistent>
1

> <s_lp_Variant>
AV-unprocessed.smi:1616-1

> <Gold.Version>
5.8.1

> <Gold.Id.Protein>
6NUR|6NUR_protein|mol2

> <Gold.PLP.Fitness>
42.6585

> <Gold.PLP.PLP>
-40.3277

> <Gold.PLP.part.hbond>
-1.0561

> <Gold.PLP.part.metal>
0.0000

> <Gold.PLP.part.buried>
-5.7246

> <Gold.PLP.part.nonpolar>
-32.8642

> <Gold.PLP.part.repulsive>
0.2276

> <Gold.PLP.ligand.clash>
0.0000

> <Gold.PLP.ligand.torsion>
0.8664

> <Gold.PLP.Chemscore.Hbond>
1.0000

> <Gold.PLP.Chemscore.CHOScore>
0.0000

> <Gold.PLP.Chemscore.Metal>
0.0000

> <Gold.Chemscore.Hbonds>
donor molecule, donor type, donor heavy atom, donor atom, acceptor molecule, acceptor atom, score
      P1  H  7997  8009       L1    15  0.93

> <Gold.PLP.Chemscore.Internal.Correction>
1.0635

> <Gold.Rescore>
     Score         DG    S(hbond)    S(metal)    S(lipo)     H(rot)  DE(clash)    DE(int)     intcor
     13.45     -14.40       0.94        0.00      86.10       1.68       0.03       0.92       ----

> <Gold.Chemscore.Fitness>
13.4486

> <Gold.Chemscore.DG>
-14.4018

> <Gold.Chemscore.ZeroCoef>
-5.4800

> <Gold.Chemscore.Hbond>
0.9434

> <Gold.Chemscore.Metal>
0.0000

> <Gold.Chemscore.Lipo>
86.1023

> <Gold.Chemscore.Internal_Hbond>
0.0000

> <Gold.Chemscore.DEClash>
0.0288

> <Gold.Chemscore.DEInternal>
0.9244

> <Gold.Chemscore.Rot>
1.6809

> <Gold.Chemscore.Internal.Correction>
   9.000000E+99

> <Gold.Chemscore.Hbonds>
donor molecule, donor type, donor heavy atom, donor atom, acceptor molecule, acceptor atom, score
      P1  H  7997  8009       L1    15  0.91

> <Gold.Chemscore.Hbond.Weighted>
-3.1509

> <Gold.Chemscore.Metal.Weighted>
-0.0000

> <Gold.Chemscore.Lipo.Weighted>
-10.0740

> <Gold.Chemscore.Internal_Hbond.Weighted>
0.0000

> <Gold.Chemscore.DEClash.Weighted>
0.0288

> <Gold.Chemscore.DEInternal.Weighted>
0.9244

> <Gold.Chemscore.Rot.Weighted>
4.3030

> <Gold.Chemscore.Internal.Correction.Weighted>
   9.000000E+99

> <Gold.Protein.RotatedTorsions>
[ 6907 6896 6895 6894 ] final    0.25 input  -60.11 | X-H torsion
[ 7974 7965 7964 7962 ] final -125.73 input  175.53 | X-H torsion
[ 8008 7997 7996 7995 ] final  149.47 input   59.86 | X-H torsion
[ 10167 10162 10161 10158 ] final  124.54 input  -65.29 | X-H torsion
[ 10718 10713 10712 10709 ] final  -93.82 input   66.30 | X-H torsion
[ 10763 10752 10751 10750 ] final  148.15 input  -60.55 | X-H torsion
[ 11005 11000 10999 10996 ] final  163.71 input  -57.11 | X-H torsion

> <Gold.Protein.ActiveResidues>
 VAL166  LYS551  ARG553  GLY616  TRP617  ASP618  TYR619  PRO620  LYS621  CYS622 
 ASP623  PHE694  ASN695  SER759  ASP760  ASP761  ALA762  ILE779  LEU786  VAL792 
 PHE793  MET794  SER795  GLU796  ALA797  LYS798  CYS799  TRP800  GLU811  SER814 

> <Gold.Protein.RotatedAtoms>
  151.5733  135.1061  160.0000 H   0  0  0  0  0  0  0  0  0  0  0  0  # atno 6907 bound_to 6896
  152.4390  133.7409  159.6651 H   0  0  0  0  0  0  0  0  0  0  0  0  # atno 6908 bound_to 6896
  150.8292  133.8050  159.3129 H   0  0  0  0  0  0  0  0  0  0  0  0  # atno 6909 bound_to 6896
  144.9945  140.7763  143.4533 H   0  0  0  0  0  0  0  0  0  0  0  0  # atno 7974 bound_to 7965
  156.2754  140.2101  156.5862 H   0  0  0  0  0  0  0  0  0  0  0  0  # atno 8008 bound_to 7997
  154.7019  140.0520  157.0489 H   0  0  0  0  0  0  0  0  0  0  0  0  # atno 8009 bound_to 7997
  155.0724  140.3178  155.4629 H   0  0  0  0  0  0  0  0  0  0  0  0  # atno 8010 bound_to 7997
  139.5736  144.6952  151.3713 H   0  0  0  0  0  0  0  0  0  0  0  0  # atno 10167 bound_to 10162
  156.0018  130.5042  150.5833 H   0  0  0  0  0  0  0  0  0  0  0  0  # atno 10718 bound_to 10713
  154.0500  135.2882  155.3342 H   0  0  0  0  0  0  0  0  0  0  0  0  # atno 10763 bound_to 10752
  154.6875  135.5239  153.8349 H   0  0  0  0  0  0  0  0  0  0  0  0  # atno 10764 bound_to 10752
  153.0564  135.6597  154.0697 H   0  0  0  0  0  0  0  0  0  0  0  0  # atno 10765 bound_to 10752
  140.2386  134.8069  157.3388 H   0  0  0  0  0  0  0  0  0  0  0  0  # atno 11005 bound_to 11000
  145.2238  139.2146  143.5079 LP  0  0  0  0  0  0  0  0  0  0  0  0  # atno 17320 bound_to 7965
  146.3439  140.2102  142.8590 LP  0  0  0  0  0  0  0  0  0  0  0  0  # atno 17321 bound_to 7965
  140.7019  143.7610  150.7418 LP  0  0  0  0  0  0  0  0  0  0  0  0  # atno 17342 bound_to 10162
  140.1123  143.4688  152.2363 LP  0  0  0  0  0  0  0  0  0  0  0  0  # atno 17343 bound_to 10162
  157.3710  131.0765  151.1558 LP  0  0  0  0  0  0  0  0  0  0  0  0  # atno 17370 bound_to 10713
  157.2311  130.6525  149.5850 LP  0  0  0  0  0  0  0  0  0  0  0  0  # atno 17371 bound_to 10713
  140.1677  134.4648  155.7852 LP  0  0  0  0  0  0  0  0  0  0  0  0  # atno 17394 bound_to 11000
  141.2212  133.6928  156.7653 LP  0  0  0  0  0  0  0  0  0  0  0  0  # atno 17395 bound_to 11000

$$$$
