AV-unprocessed.smi:2069|AV-procd|sdf|8434|dock2
  -GOLD-   2272011133D 1   1.00000     0.00000
 Structure written by MMmdl.
 39 40  0  0  0  0  0  0  0  0  2 V2000
  149.8683  142.5354  158.1760 C   0  0  0  0  0  0  0  0  0  0  0  0
  149.8573  141.7718  156.8962 C   0  0  0  0  0  0  0  0  0  0  0  0
  150.9660  141.2539  156.3536 N   0  0  0  0  0  0  0  0  0  0  0  0
  150.7069  140.5827  155.1669 N   0  0  0  0  0  0  0  0  0  0  0  0
  149.4054  140.6131  154.8495 C   0  0  0  0  0  0  0  0  0  0  0  0
  148.8615  139.9993  153.6903 N   0  0  0  0  0  0  0  0  0  0  0  0
  147.6949  139.3427  153.5658 C   0  0  0  0  0  0  0  0  0  0  0  0
  146.8882  139.1408  154.4739 O   0  0  0  0  0  0  0  0  0  0  0  0
  147.5032  138.9246  152.3065 N   0  0  0  0  0  0  0  0  0  0  0  0
  146.3267  138.1944  151.8435 C   0  0  0  0  0  0  0  0  0  0  0  0
  145.8603  137.0983  152.8387 C   0  0  1  0  0  0  0  0  0  0  0  0
  144.3506  137.2619  153.1406 C   0  0  0  0  0  0  0  0  0  0  0  0
  146.2238  135.7393  152.3198 N   0  3  0  0  0  0  0  0  0  0  0  0
  146.1750  134.6941  153.3790 C   0  0  0  0  0  0  0  0  0  0  0  0
  146.6483  133.3355  152.8379 C   0  0  0  0  0  0  0  0  0  0  0  0
  145.8362  132.9576  151.7364 O   0  0  0  0  0  0  0  0  0  0  0  0
  145.9393  133.8885  150.6693 C   0  0  0  0  0  0  0  0  0  0  0  0
  145.4562  135.2743  151.1315 C   0  0  0  0  0  0  0  0  0  0  0  0
  148.3814  141.4734  155.9861 S   0  0  0  0  0  0  0  0  0  0  0  0
  150.8139  143.0653  158.2950 H   0  0  0  0  0  0  0  0  0  0  0  0
  149.7390  141.8536  159.0167 H   0  0  0  0  0  0  0  0  0  0  0  0
  149.0578  143.2641  158.1871 H   0  0  0  0  0  0  0  0  0  0  0  0
  149.4241  140.0781  152.8559 H   0  0  0  0  0  0  0  0  0  0  0  0
  148.2152  139.1285  151.6204 H   0  0  0  0  0  0  0  0  0  0  0  0
  145.5246  138.9172  151.6916 H   0  0  0  0  0  0  0  0  0  0  0  0
  146.5511  137.7856  150.8590 H   0  0  0  0  0  0  0  0  0  0  0  0
  146.3841  137.2344  153.7864 H   0  0  0  0  0  0  0  0  0  0  0  0
  144.1149  138.2672  153.4888 H   0  0  0  0  0  0  0  0  0  0  0  0
  144.0168  136.5920  153.9330 H   0  0  0  0  0  0  0  0  0  0  0  0
  143.7437  137.0738  152.2543 H   0  0  0  0  0  0  0  0  0  0  0  0
  146.7977  134.9628  154.2302 H   0  0  0  0  0  0  0  0  0  0  0  0
  145.1544  134.6036  153.7543 H   0  0  0  0  0  0  0  0  0  0  0  0
  147.6976  133.3752  152.5407 H   0  0  0  0  0  0  0  0  0  0  0  0
  146.5658  132.5739  153.6136 H   0  0  0  0  0  0  0  0  0  0  0  0
  146.9689  133.9359  150.3104 H   0  0  0  0  0  0  0  0  0  0  0  0
  145.3294  133.5379  149.8365 H   0  0  0  0  0  0  0  0  0  0  0  0
  144.3922  135.2402  151.3713 H   0  0  0  0  0  0  0  0  0  0  0  0
  145.5826  135.9590  150.2935 H   0  0  0  0  0  0  0  0  0  0  0  0
  147.1843  135.8037  152.0145 H   0  0  0  0  0  0  0  0  0  0  0  0
  1  2  1  0  0  0  0
  1 20  1  0  0  0  0
  1 21  1  0  0  0  0
  1 22  1  0  0  0  0
  2 19  1  0  0  0  0
  2  3  2  0  0  0  0
  3  4  1  0  0  0  0
  4  5  2  0  0  0  0
  5  6  1  0  0  0  0
  5 19  1  0  0  0  0
  6  7  1  0  0  0  0
  6 23  1  0  0  0  0
  7  8  2  0  0  0  0
  7  9  1  0  0  0  0
  9 10  1  0  0  0  0
  9 24  1  0  0  0  0
 10 11  1  0  0  0  0
 10 25  1  0  0  0  0
 10 26  1  0  0  0  0
 11 12  1  0  0  0  0
 11 13  1  0  0  0  0
 11 27  1  0  0  0  0
 12 28  1  0  0  0  0
 12 29  1  0  0  0  0
 12 30  1  0  0  0  0
 13 18  1  0  0  0  0
 13 14  1  0  0  0  0
 13 39  1  0  0  0  0
 14 15  1  0  0  0  0
 14 31  1  0  0  0  0
 14 32  1  0  0  0  0
 15 16  1  0  0  0  0
 15 33  1  0  0  0  0
 15 34  1  0  0  0  0
 16 17  1  0  0  0  0
 17 18  1  0  0  0  0
 17 35  1  0  0  0  0
 17 36  1  0  0  0  0
 18 37  1  0  0  0  0
 18 38  1  0  0  0  0
M  CHG  1  13   1
M  END
> <s_m_source_file>
AV-unprocessed.smi

> <i_m_source_file_index>
2069

> <i_lp_mmshare_version>
43012

> <i_f3d_flags>
0

> <s_epik_input>
W0NIM11jMW5uYyhzMSlbTkhdQyg9TylbTkhdW0NIMl1bQ0BIXShbQ0gzXSlOMltDSDJdW0NIMl1PW0NIMl1bQ0gyXTI=

> <s_epik_cmdline>
J2VwaWtfcHl0aG9uJywgJy1waCcsICc3LjAnLCAnLXRuJywgJzgnLCAnLW1hJywgJzIwMCcsICctbWV0YWxfYmluZGluZycsICctaW1hZScsICc8aW5maWxlLm1hZT4nLCAnLW9tYWUnLCAnPG91dGZpbGUubWFlPic=

> <r_lp_tautomer_probability>
1

> <r_epik_Ionization_Penalty>
0.70016

> <r_epik_Ionization_Penalty_Charging>
0.695697

> <r_epik_Ionization_Penalty_Neutral>
0.00446266

> <r_epik_State_Penalty>
0.717972

> <r_epik_Charging_Adjusted_Penalty>
1.41367

> <i_epik_Tot_Q>
1

> <i_epik_Tot_abs_Q>
1

> <r_epik_Metal_State_Penalty>
1.06969

> <b_epik_Metal_Only>
0

> <s_lp_Force_Field>
OPLS_2005

> <r_lp_Energy>
18.8851

> <b_lp_Chiralities_Consistent>
1

> <s_lp_Variant>
AV-unprocessed.smi:2069-4

> <Gold.Version>
5.8.1

> <Gold.Id.Protein>
6NUR|6NUR_protein|mol2

> <Gold.PLP.Fitness>
41.3642

> <Gold.PLP.PLP>
-28.9584

> <Gold.PLP.part.hbond>
-4.9603

> <Gold.PLP.part.metal>
0.0000

> <Gold.PLP.part.buried>
-2.2721

> <Gold.PLP.part.nonpolar>
-22.3225

> <Gold.PLP.part.repulsive>
0.5557

> <Gold.PLP.ligand.clash>
0.0000

> <Gold.PLP.ligand.torsion>
1.2413

> <Gold.PLP.Chemscore.Hbond>
4.9440

> <Gold.PLP.Chemscore.CHOScore>
0.0000

> <Gold.PLP.Chemscore.Metal>
0.0000

> <Gold.Chemscore.Hbonds>
donor molecule, donor type, donor heavy atom, donor atom, acceptor molecule, acceptor atom, score
      L1  H     6    23       P1  7957  1.00
      L1  H     9    24       P1  7957  1.00
      L1  H    13    39       P1  7948  2.00
      P1  H  7989  7998       L1     4  0.96

> <Gold.PLP.Chemscore.Internal.Correction>
0.0563

> <Gold.Rescore>
     Score         DG    S(hbond)    S(metal)    S(lipo)     H(rot)  DE(clash)    DE(int)     intcor
     16.47     -19.04       3.60        0.00      49.26       1.65       0.05       2.52       ----

> <Gold.Chemscore.Fitness>
16.4696

> <Gold.Chemscore.DG>
-19.0378

> <Gold.Chemscore.ZeroCoef>
-5.4800

> <Gold.Chemscore.Hbond>
3.5964

> <Gold.Chemscore.Metal>
0.0000

> <Gold.Chemscore.Lipo>
49.2637

> <Gold.Chemscore.Internal_Hbond>
0.0000

> <Gold.Chemscore.DEClash>
0.0506

> <Gold.Chemscore.DEInternal>
2.5175

> <Gold.Chemscore.Rot>
1.6476

> <Gold.Chemscore.Internal.Correction>
   9.000000E+99

> <Gold.Chemscore.Hbonds>
donor molecule, donor type, donor heavy atom, donor atom, acceptor molecule, acceptor atom, score
      L1  H     6    23       P1  7957  0.96
      L1  H     9    24       P1  7957  0.86
      L1  H    13    39       P1  7948  1.00
      P1  H  7989  7998       L1     4  0.46

> <Gold.Chemscore.Hbond.Weighted>
-12.0118

> <Gold.Chemscore.Metal.Weighted>
-0.0000

> <Gold.Chemscore.Lipo.Weighted>
-5.7639

> <Gold.Chemscore.Internal_Hbond.Weighted>
0.0000

> <Gold.Chemscore.DEClash.Weighted>
0.0506

> <Gold.Chemscore.DEInternal.Weighted>
2.5175

> <Gold.Chemscore.Rot.Weighted>
4.2179

> <Gold.Chemscore.Internal.Correction.Weighted>
   9.000000E+99

> <Gold.Protein.RotatedTorsions>
[ 6907 6896 6895 6894 ] final  -14.30 input  -60.11 | X-H torsion
[ 7974 7965 7964 7962 ] final   50.49 input  175.53 | X-H torsion
[ 8008 7997 7996 7995 ] final -107.71 input   59.86 | X-H torsion
[ 10167 10162 10161 10158 ] final    2.24 input  -65.29 | X-H torsion
[ 10718 10713 10712 10709 ] final   63.42 input   66.30 | X-H torsion
[ 10763 10752 10751 10750 ] final   34.49 input  -60.55 | X-H torsion
[ 11005 11000 10999 10996 ] final   -4.95 input  -57.11 | X-H torsion

> <Gold.Protein.ActiveResidues>
 VAL166  LYS551  ARG553  GLY616  TRP617  ASP618  TYR619  PRO620  LYS621  CYS622 
 ASP623  PHE694  ASN695  SER759  ASP760  ASP761  ALA762  ILE779  LEU786  VAL792 
 PHE793  MET794  SER795  GLU796  ALA797  LYS798  CYS799  TRP800  GLU811  SER814 

> <Gold.Protein.RotatedAtoms>
  151.3415  135.0864  159.9372 H   0  0  0  0  0  0  0  0  0  0  0  0  # atno 6907 bound_to 6896
  152.5210  133.9443  159.7652 H   0  0  0  0  0  0  0  0  0  0  0  0  # atno 6908 bound_to 6896
  150.9801  133.6201  159.2754 H   0  0  0  0  0  0  0  0  0  0  0  0  # atno 6909 bound_to 6896
  146.0006  139.4436  143.0017 H   0  0  0  0  0  0  0  0  0  0  0  0  # atno 7974 bound_to 7965
  154.9333  140.0404  157.2059 H   0  0  0  0  0  0  0  0  0  0  0  0  # atno 8008 bound_to 7997
  154.8139  140.2872  155.5812 H   0  0  0  0  0  0  0  0  0  0  0  0  # atno 8009 bound_to 7997
  156.2974  140.2531  156.3033 H   0  0  0  0  0  0  0  0  0  0  0  0  # atno 8010 bound_to 7997
  140.6645  143.7217  150.7800 H   0  0  0  0  0  0  0  0  0  0  0  0  # atno 10167 bound_to 10162
  157.5970  130.9104  149.9713 H   0  0  0  0  0  0  0  0  0  0  0  0  # atno 10718 bound_to 10713
  153.0162  135.6359  154.1677 H   0  0  0  0  0  0  0  0  0  0  0  0  # atno 10763 bound_to 10752
  154.1415  135.2834  155.3161 H   0  0  0  0  0  0  0  0  0  0  0  0  # atno 10764 bound_to 10752
  154.6121  135.5553  153.7545 H   0  0  0  0  0  0  0  0  0  0  0  0  # atno 10765 bound_to 10752
  140.6858  133.9114  155.8585 H   0  0  0  0  0  0  0  0  0  0  0  0  # atno 11005 bound_to 11000
  145.7493  140.9979  143.1259 LP  0  0  0  0  0  0  0  0  0  0  0  0  # atno 17320 bound_to 7965
  144.6918  139.9194  143.7467 LP  0  0  0  0  0  0  0  0  0  0  0  0  # atno 17321 bound_to 7965
  140.0892  143.4894  152.2488 LP  0  0  0  0  0  0  0  0  0  0  0  0  # atno 17342 bound_to 10162
  139.5889  144.7542  151.3451 LP  0  0  0  0  0  0  0  0  0  0  0  0  # atno 17343 bound_to 10162
  156.1034  130.3654  150.0177 LP  0  0  0  0  0  0  0  0  0  0  0  0  # atno 17370 bound_to 10713
  156.8288  130.9385  151.3638 LP  0  0  0  0  0  0  0  0  0  0  0  0  # atno 17371 bound_to 10713
  141.0281  134.0795  157.4045 LP  0  0  0  0  0  0  0  0  0  0  0  0  # atno 17394 bound_to 11000
  139.8938  135.0132  156.6918 LP  0  0  0  0  0  0  0  0  0  0  0  0  # atno 17395 bound_to 11000

$$$$
