AV-unprocessed.smi:986|AV-procd|sdf|4320|dock8
  -GOLD-   22720 2223D 1   1.00000     0.00000
 Structure written by MMmdl.
 31 31  0  0  0  0  0  0  0  0  1 V2000
  154.4673  140.7213  161.3335 C   0  0  0  0  0  0  0  0  0  0  0  0
  153.5871  141.4127  160.2801 C   0  0  0  0  0  0  0  0  0  0  0  0
  152.7452  142.5360  160.8996 C   0  0  0  0  0  0  0  0  0  0  0  0
  152.7004  140.4474  159.6405 N   0  0  0  0  0  0  0  0  0  0  0  0
  153.0771  139.4437  158.8282 C   0  0  0  0  0  0  0  0  0  0  0  0
  154.2519  139.2334  158.5288 O   0  0  0  0  0  0  0  0  0  0  0  0
  151.9839  138.5284  158.2508 C   0  0  0  0  0  0  0  0  0  0  0  0
  151.7677  138.6843  156.8126 N   0  0  0  0  0  0  0  0  0  0  0  0
  152.4258  138.0167  155.8508 C   0  0  0  0  0  0  0  0  0  0  0  0
  153.3524  137.2393  156.0757 O   0  0  0  0  0  0  0  0  0  0  0  0
  151.9415  138.2383  154.4182 C   0  0  0  0  0  0  0  0  0  0  0  0
  150.7199  139.0236  154.4078 N   0  0  0  0  0  0  0  0  0  0  0  0
  149.4739  138.6873  154.0678 C   0  0  0  0  0  0  0  0  0  0  0  0
  148.6049  139.6838  154.1626 N   0  0  0  0  0  0  0  0  0  0  0  0
  149.4396  140.6732  154.5999 C   0  0  0  0  0  0  0  0  0  0  0  0
  150.7180  140.3310  154.7598 N   0  0  0  0  0  0  0  0  0  0  0  0
  155.1320  141.4368  161.8179 H   0  0  0  0  0  0  0  0  0  0  0  0
  155.0917  139.9483  160.8847 H   0  0  0  0  0  0  0  0  0  0  0  0
  153.8619  140.2514  162.1095 H   0  0  0  0  0  0  0  0  0  0  0  0
  154.2326  141.8568  159.5201 H   0  0  0  0  0  0  0  0  0  0  0  0
  153.3800  143.2958  161.3559 H   0  0  0  0  0  0  0  0  0  0  0  0
  152.0793  142.1515  161.6730 H   0  0  0  0  0  0  0  0  0  0  0  0
  152.1303  143.0297  160.1463 H   0  0  0  0  0  0  0  0  0  0  0  0
  151.7149  140.5417  159.8387 H   0  0  0  0  0  0  0  0  0  0  0  0
  152.2681  137.4928  158.4391 H   0  0  0  0  0  0  0  0  0  0  0  0
  151.0532  138.6965  158.7953 H   0  0  0  0  0  0  0  0  0  0  0  0
  151.0254  139.3086  156.5328 H   0  0  0  0  0  0  0  0  0  0  0  0
  152.7043  138.7607  153.8393 H   0  0  0  0  0  0  0  0  0  0  0  0
  151.7609  137.2806  153.9275 H   0  0  0  0  0  0  0  0  0  0  0  0
  149.1987  137.6965  153.7369 H   0  0  0  0  0  0  0  0  0  0  0  0
  149.0953  141.6767  154.8030 H   0  0  0  0  0  0  0  0  0  0  0  0
  1  2  1  0  0  0  0
  1 17  1  0  0  0  0
  1 18  1  0  0  0  0
  1 19  1  0  0  0  0
  2  3  1  0  0  0  0
  2  4  1  0  0  0  0
  2 20  1  0  0  0  0
  3 21  1  0  0  0  0
  3 22  1  0  0  0  0
  3 23  1  0  0  0  0
  4  5  1  0  0  0  0
  4 24  1  0  0  0  0
  5  6  2  0  0  0  0
  5  7  1  0  0  0  0
  7  8  1  0  0  0  0
  7 25  1  0  0  0  0
  7 26  1  0  0  0  0
  8  9  1  0  0  0  0
  8 27  1  0  0  0  0
  9 10  2  0  0  0  0
  9 11  1  0  0  0  0
 11 12  1  0  0  0  0
 11 28  1  0  0  0  0
 11 29  1  0  0  0  0
 12 16  1  0  0  0  0
 12 13  1  0  0  0  0
 13 14  2  0  0  0  0
 13 30  1  0  0  0  0
 14 15  1  0  0  0  0
 15 16  2  0  0  0  0
 15 31  1  0  0  0  0
M  END
> <s_m_source_file>
AV-unprocessed.smi

> <i_m_source_file_index>
986

> <i_lp_mmshare_version>
43012

> <i_f3d_flags>
0

> <s_epik_input>
W0NIM11bQ0hdKFtDSDNdKVtOSF1DKD1PKVtDSDJdW05IXUMoPU8pW0NIMl1uMVtjSF1uW2NIXW4x

> <s_epik_cmdline>
J2VwaWtfcHl0aG9uJywgJy1waCcsICc3LjAnLCAnLXRuJywgJzgnLCAnLW1hJywgJzIwMCcsICctbWV0YWxfYmluZGluZycsICctaW1hZScsICc8aW5maWxlLm1hZT4nLCAnLW9tYWUnLCAnPG91dGZpbGUubWFlPic=

> <r_lp_tautomer_probability>
1

> <r_epik_Ionization_Penalty>
7.25916e-06

> <r_epik_Ionization_Penalty_Charging>
0

> <r_epik_Ionization_Penalty_Neutral>
7.25916e-06

> <r_epik_State_Penalty>
-0

> <r_epik_Charging_Adjusted_Penalty>
0

> <i_epik_Tot_Q>
0

> <i_epik_Tot_abs_Q>
0

> <r_epik_Metal_State_Penalty>
-0

> <b_epik_Metal_Only>
0

> <s_lp_Force_Field>
OPLS_2005

> <r_lp_Energy>
0.116245

> <b_lp_Chiralities_Consistent>
1

> <s_lp_Variant>
AV-unprocessed.smi:986-1

> <Gold.Version>
5.8.1

> <Gold.Id.Protein>
6NUR|6NUR_protein|mol2

> <Gold.PLP.Fitness>
40.7758

> <Gold.PLP.PLP>
-30.9844

> <Gold.PLP.part.hbond>
-3.0000

> <Gold.PLP.part.metal>
0.0000

> <Gold.PLP.part.buried>
-3.1599

> <Gold.PLP.part.nonpolar>
-24.6840

> <Gold.PLP.part.repulsive>
0.4073

> <Gold.PLP.ligand.clash>
0.0000

> <Gold.PLP.ligand.torsion>
0.4813

> <Gold.PLP.Chemscore.Hbond>
2.5760

> <Gold.PLP.Chemscore.CHOScore>
1.0000

> <Gold.PLP.Chemscore.Metal>
0.0000

> <Gold.Chemscore.Hbonds>
donor molecule, donor type, donor heavy atom, donor atom, acceptor molecule, acceptor atom, score
      P1  H  7989  7998       L1    16  0.85
      P1  H  7997  8008       L1     6  1.00
      P1  H 10752 10764       L1    10  0.50
      L1  C    13    30       P1  7948  1.00

> <Gold.PLP.Chemscore.Internal.Correction>
0.0260

> <Gold.Rescore>
     Score         DG    S(hbond)    S(metal)    S(lipo)     H(rot)  DE(clash)    DE(int)     intcor
     11.62     -12.28       2.89        0.00      41.95       3.03       0.00       0.66       ----

> <Gold.Chemscore.Fitness>
11.6192

> <Gold.Chemscore.DG>
-12.2759

> <Gold.Chemscore.ZeroCoef>
-5.4800

> <Gold.Chemscore.Hbond>
2.8900

> <Gold.Chemscore.Metal>
0.0000

> <Gold.Chemscore.Lipo>
41.9459

> <Gold.Chemscore.Internal_Hbond>
0.0000

> <Gold.Chemscore.DEClash>
0.0000

> <Gold.Chemscore.DEInternal>
0.6567

> <Gold.Chemscore.Rot>
3.0329

> <Gold.Chemscore.Internal.Correction>
   9.000000E+99

> <Gold.Chemscore.Hbonds>
donor molecule, donor type, donor heavy atom, donor atom, acceptor molecule, acceptor atom, score
      P1  H  7989  7998       L1    16  0.11
      P1  H  7997  8008       L1     6  0.99
      P1  H 10752 10764       L1    10  0.48

> <Gold.Chemscore.Hbond.Weighted>
-9.6526

> <Gold.Chemscore.Metal.Weighted>
-0.0000

> <Gold.Chemscore.Lipo.Weighted>
-4.9077

> <Gold.Chemscore.Internal_Hbond.Weighted>
0.0000

> <Gold.Chemscore.DEClash.Weighted>
0.0000

> <Gold.Chemscore.DEInternal.Weighted>
0.6567

> <Gold.Chemscore.Rot.Weighted>
7.7643

> <Gold.Chemscore.Internal.Correction.Weighted>
   9.000000E+99

> <Gold.Protein.RotatedTorsions>
[ 6907 6896 6895 6894 ] final  152.33 input  -60.11 | X-H torsion
[ 7974 7965 7964 7962 ] final   25.98 input  175.53 | X-H torsion
[ 8008 7997 7996 7995 ] final -116.12 input   59.86 | X-H torsion
[ 10167 10162 10161 10158 ] final   81.98 input  -65.29 | X-H torsion
[ 10718 10713 10712 10709 ] final   70.17 input   66.30 | X-H torsion
[ 10763 10752 10751 10750 ] final   -9.98 input  -60.55 | X-H torsion
[ 11005 11000 10999 10996 ] final  -81.99 input  -57.11 | X-H torsion

> <Gold.Protein.ActiveResidues>
 VAL166  LYS551  ARG553  GLY616  TRP617  ASP618  TYR619  PRO620  LYS621  CYS622 
 ASP623  PHE694  ASN695  SER759  ASP760  ASP761  ALA762  ILE779  LEU786  VAL792 
 PHE793  MET794  SER795  GLU796  ALA797  LYS798  CYS799  TRP800  GLU811  SER814 

> <Gold.Protein.RotatedAtoms>
  152.0882  133.4187  159.4531 H   0  0  0  0  0  0  0  0  0  0  0  0  # atno 6907 bound_to 6896
  150.6862  134.2902  159.4673 H   0  0  0  0  0  0  0  0  0  0  0  0  # atno 6908 bound_to 6896
  152.0751  134.9508  160.0625 H   0  0  0  0  0  0  0  0  0  0  0  0  # atno 6909 bound_to 6896
  146.1861  139.7391  142.8865 H   0  0  0  0  0  0  0  0  0  0  0  0  # atno 7974 bound_to 7965
  155.0628  140.0393  157.2582 H   0  0  0  0  0  0  0  0  0  0  0  0  # atno 8008 bound_to 7997
  154.7046  140.2680  155.6663 H   0  0  0  0  0  0  0  0  0  0  0  0  # atno 8009 bound_to 7997
  156.2771  140.2734  156.1668 H   0  0  0  0  0  0  0  0  0  0  0  0  # atno 8010 bound_to 7997
  139.9336  144.6136  150.8321 H   0  0  0  0  0  0  0  0  0  0  0  0  # atno 10167 bound_to 10162
  157.6386  130.9464  150.0614 H   0  0  0  0  0  0  0  0  0  0  0  0  # atno 10718 bound_to 10713
  153.4626  135.7016  153.6041 H   0  0  0  0  0  0  0  0  0  0  0  0  # atno 10763 bound_to 10752
  153.4329  135.3798  155.2181 H   0  0  0  0  0  0  0  0  0  0  0  0  # atno 10764 bound_to 10752
  154.8727  135.3955  154.4054 H   0  0  0  0  0  0  0  0  0  0  0  0  # atno 10765 bound_to 10752
  141.1665  133.7222  156.8504 H   0  0  0  0  0  0  0  0  0  0  0  0  # atno 11005 bound_to 11000
  145.3934  141.0375  143.3111 LP  0  0  0  0  0  0  0  0  0  0  0  0  # atno 17320 bound_to 7965
  144.8400  139.5488  143.6905 LP  0  0  0  0  0  0  0  0  0  0  0  0  # atno 17321 bound_to 7965
  140.7631  143.3214  151.2615 LP  0  0  0  0  0  0  0  0  0  0  0  0  # atno 17342 bound_to 10162
  139.6762  143.9933  152.2782 LP  0  0  0  0  0  0  0  0  0  0  0  0  # atno 17343 bound_to 10162
  156.1646  130.3644  149.9251 LP  0  0  0  0  0  0  0  0  0  0  0  0  # atno 17370 bound_to 10713
  156.7241  130.9018  151.3620 LP  0  0  0  0  0  0  0  0  0  0  0  0  # atno 17371 bound_to 10713
  140.1920  134.8959  157.3071 LP  0  0  0  0  0  0  0  0  0  0  0  0  # atno 17394 bound_to 11000
  140.2280  134.3943  155.7534 LP  0  0  0  0  0  0  0  0  0  0  0  0  # atno 17395 bound_to 11000

$$$$
