#       Name:                AV-unprocessed.smi:2024
#       Creating user name   scv26
#       Creation time:       Fri Mar 27 10:45:24 2020


#       File generated by GOLD software.
#

@<TRIPOS>MOLECULE
AV-unprocessed.smi:2024
    48    49     1
SMALL
NO_CHARGES


@<TRIPOS>ATOM
      1 ****        -2.7735  -3.0069   2.7053 C.3            1 S1                 0.0000
      2 ****        -2.4193  -2.5190   1.3812 N.3            1 S1                 0.0000
      3 ****        -3.1016  -1.2657   1.0727 C.3            1 S1                 0.0000
      4 ****        -2.7342  -0.7531  -0.3318 C.3            1 S1                 0.0000
      5 ****        -1.2853  -0.5374  -0.4693 N.3            1 S1                 0.0000
      6 ****        -0.8617   0.0969  -1.7486 C.3            1 S1                 0.0000
      7 ****        -1.1882  -0.7677  -2.9897 C.3            1 S1                 0.0000
      8 ****        -1.5568   1.4682  -1.9455 C.3            1 S1                 0.0000
      9 ****         0.6682   0.3763  -1.7724 C.3            1 S1                 0.0000
     10 ****         1.1108   1.1417  -0.6100 N.am           1 S1                 0.0000
     11 ****         2.3793   1.4764  -0.3426 C.2            1 S1                 0.0000
     12 ****         3.2778   1.1427  -1.1187 O.2            1 S1                 0.0000
     13 ****         2.5293   2.1737   0.8066 N.pl3          1 S1                -1.0000
     14 ****         3.7526   2.5645   1.1990 C.2            1 S1                 0.0000
     15 ****         4.2263   3.7984   0.9906 N.2            1 S1                 0.0000
     16 ****         5.5185   3.9875   1.4842 C.2            1 S1                 0.0000
     17 ****         6.0369   2.8744   2.0914 C.2            1 S1                 0.0000
     18 ****         4.9111   1.5472   2.0602 S.3            1 S1                 0.0000
     19 ****        -0.6034  -1.8020  -0.1488 C.3            1 S1                 0.0000
     20 ****        -0.9794  -2.3115   1.2544 C.3            1 S1                 0.0000
     21 ****        -3.8480  -3.1772   2.7792 H              1 S1                 0.0000
     22 ****        -2.4888  -2.2914   3.4782 H              1 S1                 0.0000
     23 ****        -2.2720  -3.9521   2.9157 H              1 S1                 0.0000
     24 ****        -4.1808  -1.4105   1.1325 H              1 S1                 0.0000
     25 ****        -2.8469  -0.5079   1.8155 H              1 S1                 0.0000
     26 ****        -3.0858  -1.4670  -1.0770 H              1 S1                 0.0000
     27 ****        -3.2820   0.1728  -0.4971 H              1 S1                 0.0000
     28 ****        -0.8686  -0.2701  -3.9061 H              1 S1                 0.0000
     29 ****        -2.2567  -0.9566  -3.0917 H              1 S1                 0.0000
     30 ****        -0.6811  -1.7319  -2.9628 H              1 S1                 0.0000
     31 ****        -1.1280   2.0177  -2.7843 H              1 S1                 0.0000
     32 ****        -1.4590   2.0994  -1.0613 H              1 S1                 0.0000
     33 ****        -2.6199   1.3664  -2.1623 H              1 S1                 0.0000
     34 ****         1.2366  -0.5525  -1.8306 H              1 S1                 0.0000
     35 ****         0.9363   0.9328  -2.6722 H              1 S1                 0.0000
     36 ****         0.4000   1.4264   0.0480 H              1 S1                 0.0000
     37 ****         5.9935   4.9492   1.3593 H              1 S1                 0.0000
     38 ****         7.0052   2.7542   2.5530 H              1 S1                 0.0000
     39 ****        -0.8496  -2.5660  -0.8865 H              1 S1                 0.0000
     40 ****         0.4775  -1.6770  -0.1719 H              1 S1                 0.0000
     41 ****        -0.6354  -1.5978   2.0051 H              1 S1                 0.0000
     42 ****        -0.4543  -3.2468   1.4507 H              1 S1                 0.0000
     43 ****        -2.7106  -3.2230   0.7335 LP             1 S1                 0.0000
     44 ****        -1.0003   0.1594   0.1889 LP             1 S1                 0.0000
     45 ****         3.0579   0.6238  -1.9448 LP             1 S1                 0.0000
     46 ****         4.2263   1.3911  -0.9220 LP             1 S1                 0.0000
     47 ****         1.7297   2.3981   1.3636 LP             1 S1                 0.0000
     48 ****         3.7057   4.5151   0.5266 LP             1 S1                 0.0000
@<TRIPOS>BOND
    1    1    2 1     
    2    1   21 1     
    3    1   22 1     
    4    1   23 1     
    5    2   20 1     
    6    2    3 1     
    7    3    4 1     
    8    3   24 1     
    9    3   25 1     
   10    4    5 1     
   11    4   26 1     
   12    4   27 1     
   13    5    6 1     
   14    5   19 1     
   15    6    7 1     
   16    6    8 1     
   17    6    9 1     
   18    7   28 1     
   19    7   29 1     
   20    7   30 1     
   21    8   31 1     
   22    8   32 1     
   23    8   33 1     
   24    9   10 1     
   25    9   34 1     
   26    9   35 1     
   27   10   11 am    
   28   10   36 1     
   29   11   12 2     
   30   11   13 1     
   31   13   14 1     
   32   14   18 1     
   33   14   15 2     
   34   15   16 1     
   35   16   17 2     
   36   16   37 1     
   37   17   18 1     
   38   17   38 1     
   39   19   20 1     
   40   19   39 1     
   41   19   40 1     
   42   20   41 1     
   43   20   42 1     
   44    2   43 1     
   45    5   44 1     
   46   12   45 1     
   47   12   46 1     
   48   13   47 1     
   49   15   48 1     
@<TRIPOS>SUBSTRUCTURE
      1 S1             1
@<TRIPOS>SET
LONE_PAIRS      STATIC     ATOMS    <user>   **** ""
6 43 44 45 46 47 48
DONOR_HYDROGENS      STATIC     ATOMS    <user>   **** ""
1 36
ATOM$BLUE        STATIC     ATOMS    COLORGROUP SYSTEM
6 43 44 45 46 47 48
ATOM$RED        STATIC     ATOMS    COLORGROUP SYSTEM
1 36
