AV-unprocessed.smi:3183|AV-procd|sdf|12160|dock4
  -GOLD-   2272017593D 1   1.00000     0.00000
 Structure written by MMmdl.
 43 44  0  0  0  0  0  0  0  0  2 V2000
  150.6179  137.3941  154.3153 C   0  0  0  0  0  0  0  0  0  0  0  0
  150.8619  138.8735  154.6620 C   0  0  1  0  0  0  0  0  0  0  0  0
  149.5623  139.6790  154.4617 C   0  0  0  0  0  0  0  0  0  0  0  0
  149.7489  141.1695  154.7780 C   0  0  0  0  0  0  0  0  0  0  0  0
  150.2775  141.3718  156.2107 C   0  0  2  0  0  0  0  0  0  0  0  0
  150.5148  142.8018  156.5083 N   0  3  0  0  0  0  0  0  0  0  0  0
  150.6720  143.1333  157.9401 C   0  0  0  0  0  0  0  0  0  0  0  0
  152.1412  143.0166  158.3724 C   0  0  0  0  0  0  0  0  0  0  0  0
  152.3506  143.0289  159.8568 C   0  0  0  0  0  0  0  0  0  0  0  0
  152.7986  142.0537  160.7061 C   0  0  0  0  0  0  0  0  0  0  0  0
  152.7740  142.6676  161.9881 C   0  0  0  0  0  0  0  0  0  0  0  0
  152.3488  143.9171  161.9425 N   0  0  0  0  0  0  0  0  0  0  0  0
  152.0895  144.1429  160.6377 N   0  0  0  0  0  0  0  0  0  0  0  0
  151.5938  145.4500  160.2490 C   0  0  0  0  0  0  0  0  0  0  0  0
  151.5824  140.5797  156.4046 C   0  0  0  0  0  0  0  0  0  0  0  0
  151.4113  139.0772  156.0986 C   0  0  2  0  0  0  0  0  0  0  0  0
  152.7392  138.3381  156.3437 C   0  0  0  0  0  0  0  0  0  0  0  0
  149.9442  136.9244  155.0325 H   0  0  0  0  0  0  0  0  0  0  0  0
  151.5457  136.8227  154.3009 H   0  0  0  0  0  0  0  0  0  0  0  0
  150.1704  137.2933  153.3261 H   0  0  0  0  0  0  0  0  0  0  0  0
  151.6016  139.2571  153.9572 H   0  0  0  0  0  0  0  0  0  0  0  0
  149.2128  139.5711  153.4341 H   0  0  0  0  0  0  0  0  0  0  0  0
  148.7747  139.2705  155.0968 H   0  0  0  0  0  0  0  0  0  0  0  0
  150.4409  141.6107  154.0593 H   0  0  0  0  0  0  0  0  0  0  0  0
  148.7952  141.6792  154.6422 H   0  0  0  0  0  0  0  0  0  0  0  0
  149.5425  140.9920  156.9224 H   0  0  0  0  0  0  0  0  0  0  0  0
  151.3707  143.0702  156.0439 H   0  0  0  0  0  0  0  0  0  0  0  0
  150.3143  144.1462  158.1255 H   0  0  0  0  0  0  0  0  0  0  0  0
  150.0562  142.4561  158.5336 H   0  0  0  0  0  0  0  0  0  0  0  0
  152.5600  142.0964  157.9634 H   0  0  0  0  0  0  0  0  0  0  0  0
  152.7101  143.8348  157.9288 H   0  0  0  0  0  0  0  0  0  0  0  0
  153.1001  141.0480  160.4540 H   0  0  0  0  0  0  0  0  0  0  0  0
  153.0505  142.2449  162.9427 H   0  0  0  0  0  0  0  0  0  0  0  0
  151.5766  145.5543  159.1647 H   0  0  0  0  0  0  0  0  0  0  0  0
  152.2384  146.2267  160.6623 H   0  0  0  0  0  0  0  0  0  0  0  0
  150.5825  145.5866  160.6327 H   0  0  0  0  0  0  0  0  0  0  0  0
  152.3612  140.9945  155.7626 H   0  0  0  0  0  0  0  0  0  0  0  0
  151.9328  140.7054  157.4301 H   0  0  0  0  0  0  0  0  0  0  0  0
  150.6798  138.6765  156.8022 H   0  0  0  0  0  0  0  0  0  0  0  0
  153.5007  138.6387  155.6235 H   0  0  0  0  0  0  0  0  0  0  0  0
  152.6196  137.2572  156.2740 H   0  0  0  0  0  0  0  0  0  0  0  0
  153.1257  138.5474  157.3416 H   0  0  0  0  0  0  0  0  0  0  0  0
  149.7573  143.3456  156.1202 H   0  0  0  0  0  0  0  0  0  0  0  0
  1  2  1  0  0  0  0
  1 18  1  0  0  0  0
  1 19  1  0  0  0  0
  1 20  1  0  0  0  0
  2 16  1  0  0  0  0
  2  3  1  0  0  0  0
  2 21  1  0  0  0  0
  3  4  1  0  0  0  0
  3 22  1  0  0  0  0
  3 23  1  0  0  0  0
  4  5  1  0  0  0  0
  4 24  1  0  0  0  0
  4 25  1  0  0  0  0
  5  6  1  0  0  0  0
  5 15  1  0  0  0  0
  5 26  1  0  0  0  0
  6  7  1  0  0  0  0
  6 27  1  0  0  0  0
  6 43  1  0  0  0  0
  7  8  1  0  0  0  0
  7 28  1  0  0  0  0
  7 29  1  0  0  0  0
  8  9  1  0  0  0  0
  8 30  1  0  0  0  0
  8 31  1  0  0  0  0
  9 13  1  0  0  0  0
  9 10  2  0  0  0  0
 10 11  1  0  0  0  0
 10 32  1  0  0  0  0
 11 12  2  0  0  0  0
 11 33  1  0  0  0  0
 12 13  1  0  0  0  0
 13 14  1  0  0  0  0
 14 34  1  0  0  0  0
 14 35  1  0  0  0  0
 14 36  1  0  0  0  0
 15 16  1  0  0  0  0
 15 37  1  0  0  0  0
 15 38  1  0  0  0  0
 16 17  1  0  0  0  0
 16 39  1  0  0  0  0
 17 40  1  0  0  0  0
 17 41  1  0  0  0  0
 17 42  1  0  0  0  0
M  CHG  1   6   1
M  END
> <s_m_source_file>
AV-unprocessed.smi

> <i_m_source_file_index>
3183

> <i_lp_mmshare_version>
43012

> <i_f3d_flags>
0

> <s_epik_input>
W0NIM11bQ0BASF0xW0NIMl1bQ0gyXVtDQEhdKFtDSDJdW0NASF0xW0NIM10pW05IXVtDSDJdW0NIMl1jMltjSF1bY0hdbm4yW0NIM10=

> <s_epik_cmdline>
J2VwaWtfcHl0aG9uJywgJy1waCcsICc3LjAnLCAnLXRuJywgJzgnLCAnLW1hJywgJzIwMCcsICctbWV0YWxfYmluZGluZycsICctaW1hZScsICc8aW5maWxlLm1hZT4nLCAnLW9tYWUnLCAnPG91dGZpbGUubWFlPic=

> <r_lp_tautomer_probability>
1

> <r_epik_Ionization_Penalty>
0.000327718

> <r_epik_Ionization_Penalty_Charging>
0.000294043

> <r_epik_Ionization_Penalty_Neutral>
3.36755e-05

> <r_epik_State_Penalty>
-0

> <r_epik_Charging_Adjusted_Penalty>
0.000294043

> <i_epik_Tot_Q>
1

> <i_epik_Tot_abs_Q>
1

> <r_epik_Metal_State_Penalty>
-0

> <b_epik_Metal_Only>
0

> <s_lp_Force_Field>
OPLS_2005

> <r_lp_Energy>
12.5672

> <b_lp_Chiralities_Consistent>
1

> <s_lp_Variant>
AV-unprocessed.smi:3183-8

> <Gold.Version>
5.8.1

> <Gold.Id.Protein>
6NUR|6NUR_protein|mol2

> <Gold.PLP.Fitness>
49.8750

> <Gold.PLP.PLP>
-44.5974

> <Gold.PLP.part.hbond>
-1.0000

> <Gold.PLP.part.metal>
0.0000

> <Gold.PLP.part.buried>
-2.4070

> <Gold.PLP.part.nonpolar>
-41.0524

> <Gold.PLP.part.repulsive>
0.2527

> <Gold.PLP.ligand.clash>
0.0000

> <Gold.PLP.ligand.torsion>
0.3682

> <Gold.PLP.Chemscore.Hbond>
2.0000

> <Gold.PLP.Chemscore.CHOScore>
0.0000

> <Gold.PLP.Chemscore.Metal>
0.0000

> <Gold.Chemscore.Hbonds>
donor molecule, donor type, donor heavy atom, donor atom, acceptor molecule, acceptor atom, score
      L1  H     6    43       P1  8028  2.00

> <Gold.PLP.Chemscore.Internal.Correction>
0.0140

> <Gold.Rescore>
     Score         DG    S(hbond)    S(metal)    S(lipo)     H(rot)  DE(clash)    DE(int)     intcor
     18.73     -19.12       0.99        0.00     118.34       1.38       0.05       0.34       ----

> <Gold.Chemscore.Fitness>
18.7320

> <Gold.Chemscore.DG>
-19.1204

> <Gold.Chemscore.ZeroCoef>
-5.4800

> <Gold.Chemscore.Hbond>
0.9937

> <Gold.Chemscore.Metal>
0.0000

> <Gold.Chemscore.Lipo>
118.3432

> <Gold.Chemscore.Internal_Hbond>
0.0000

> <Gold.Chemscore.DEClash>
0.0515

> <Gold.Chemscore.DEInternal>
0.3369

> <Gold.Chemscore.Rot>
1.3768

> <Gold.Chemscore.Internal.Correction>
   9.000000E+99

> <Gold.Chemscore.Hbonds>
donor molecule, donor type, donor heavy atom, donor atom, acceptor molecule, acceptor atom, score
      L1  H     6    43       P1  8028  0.99

> <Gold.Chemscore.Hbond.Weighted>
-3.3190

> <Gold.Chemscore.Metal.Weighted>
-0.0000

> <Gold.Chemscore.Lipo.Weighted>
-13.8461

> <Gold.Chemscore.Internal_Hbond.Weighted>
0.0000

> <Gold.Chemscore.DEClash.Weighted>
0.0515

> <Gold.Chemscore.DEInternal.Weighted>
0.3369

> <Gold.Chemscore.Rot.Weighted>
3.5247

> <Gold.Chemscore.Internal.Correction.Weighted>
   9.000000E+99

> <Gold.Protein.RotatedTorsions>
[ 6907 6896 6895 6894 ] final  -59.08 input  -60.11 | X-H torsion
[ 7974 7965 7964 7962 ] final -134.72 input  175.53 | X-H torsion
[ 8008 7997 7996 7995 ] final  -98.67 input   59.86 | X-H torsion
[ 10167 10162 10161 10158 ] final  -89.74 input  -65.29 | X-H torsion
[ 10718 10713 10712 10709 ] final  -83.69 input   66.30 | X-H torsion
[ 10763 10752 10751 10750 ] final  -51.47 input  -60.55 | X-H torsion
[ 11005 11000 10999 10996 ] final -100.68 input  -57.11 | X-H torsion

> <Gold.Protein.ActiveResidues>
 VAL166  LYS551  ARG553  GLY616  TRP617  ASP618  TYR619  PRO620  LYS621  CYS622 
 ASP623  PHE694  ASN695  SER759  ASP760  ASP761  ALA762  ILE779  LEU786  VAL792 
 PHE793  MET794  SER795  GLU796  ALA797  LYS798  CYS799  TRP800  GLU811  SER814 

> <Gold.Protein.RotatedAtoms>
  150.7957  134.7015  159.6552 H   0  0  0  0  0  0  0  0  0  0  0  0  # atno 6907 bound_to 6896
  152.4069  134.6188  160.0055 H   0  0  0  0  0  0  0  0  0  0  0  0  # atno 6908 bound_to 6896
  151.6443  133.3287  159.3173 H   0  0  0  0  0  0  0  0  0  0  0  0  # atno 6909 bound_to 6896
  144.9078  140.6855  143.5044 H   0  0  0  0  0  0  0  0  0  0  0  0  # atno 7974 bound_to 7965
  154.8044  140.0453  157.1296 H   0  0  0  0  0  0  0  0  0  0  0  0  # atno 8008 bound_to 7997
  154.9441  140.3056  155.5086 H   0  0  0  0  0  0  0  0  0  0  0  0  # atno 8009 bound_to 7997
  156.2965  140.2300  156.4513 H   0  0  0  0  0  0  0  0  0  0  0  0  # atno 8010 bound_to 7997
  140.3618  143.2838  151.9605 H   0  0  0  0  0  0  0  0  0  0  0  0  # atno 10167 bound_to 10162
  156.0015  130.4674  150.4296 H   0  0  0  0  0  0  0  0  0  0  0  0  # atno 10718 bound_to 10713
  154.1271  135.6526  153.4914 H   0  0  0  0  0  0  0  0  0  0  0  0  # atno 10763 bound_to 10752
  153.0207  135.5284  154.7039 H   0  0  0  0  0  0  0  0  0  0  0  0  # atno 10764 bound_to 10752
  154.6263  135.2970  155.0239 H   0  0  0  0  0  0  0  0  0  0  0  0  # atno 10765 bound_to 10752
  141.1261  133.8418  157.1134 H   0  0  0  0  0  0  0  0  0  0  0  0  # atno 11005 bound_to 11000
  145.3506  139.1707  143.4436 LP  0  0  0  0  0  0  0  0  0  0  0  0  # atno 17320 bound_to 7965
  146.3142  140.3558  142.8660 LP  0  0  0  0  0  0  0  0  0  0  0  0  # atno 17321 bound_to 7965
  139.4813  144.5985  151.7647 LP  0  0  0  0  0  0  0  0  0  0  0  0  # atno 17342 bound_to 10162
  140.5119  144.1012  150.5997 LP  0  0  0  0  0  0  0  0  0  0  0  0  # atno 17343 bound_to 10162
  157.2346  131.0512  151.2472 LP  0  0  0  0  0  0  0  0  0  0  0  0  # atno 17370 bound_to 10713
  157.3679  130.7165  149.6545 LP  0  0  0  0  0  0  0  0  0  0  0  0  # atno 17371 bound_to 10713
  140.0261  134.9923  157.0689 LP  0  0  0  0  0  0  0  0  0  0  0  0  # atno 17394 bound_to 11000
  140.4360  134.1730  155.7171 LP  0  0  0  0  0  0  0  0  0  0  0  0  # atno 17395 bound_to 11000

$$$$
