AV-unprocessed.smi:21|AV-procd|sdf|160|dock6
  -GOLD-   2262015393D 1   1.00000     0.00000
 Structure written by MMmdl.
 61 64  0  0  0  0  0  0  0  0  1 V2000
  155.1367  140.3723  161.2567 C   0  0  0  0  0  0  0  0  0  0  0  0
  154.6134  141.6314  160.8635 O   0  0  0  0  0  0  0  0  0  0  0  0
  153.1935  141.6650  160.8343 C   0  0  2  0  0  0  0  0  0  0  0  0
  152.6216  140.8052  159.6946 C   0  0  0  0  0  0  0  0  0  0  0  0
  151.6184  141.7309  158.9929 C   0  0  2  0  0  0  0  0  0  0  0  0
  151.3132  141.3289  157.5315 C   0  0  0  0  0  0  0  0  0  0  0  0
  150.1745  140.4184  157.4019 N   0  0  0  0  0  0  0  0  0  0  0  0
  148.8355  140.9995  157.4090 C   0  0  0  0  0  0  0  0  0  0  0  0
  150.3234  139.1457  157.8568 C   0  0  0  0  0  0  0  0  0  0  0  0
  151.5565  138.7206  158.2434 N   0  0  0  0  0  0  0  0  0  0  0  0
  151.7447  137.4617  158.6485 C   0  0  0  0  0  0  0  0  0  0  0  0
  150.8530  136.4752  158.7446 N   0  0  0  0  0  0  0  0  0  0  0  0
  149.6092  136.8973  158.3799 C   0  0  0  0  0  0  0  0  0  0  0  0
  149.2557  138.2047  157.9392 C   0  0  0  0  0  0  0  0  0  0  0  0
  147.8886  138.2600  157.6909 N   0  0  0  0  0  0  0  0  0  0  0  0
  147.4640  137.0536  157.9476 C   0  0  0  0  0  0  0  0  0  0  0  0
  148.4372  136.1626  158.3379 N   0  0  0  0  0  0  0  0  0  0  0  0
  148.2489  134.7620  158.6710 C   0  0  0  0  0  0  0  0  0  0  0  0
  148.5767  134.3960  160.1463 C   0  0  1  0  0  0  0  0  0  0  0  0
  147.5814  135.1243  161.0824 C   0  0  0  0  0  0  0  0  0  0  0  0
  148.0286  136.4270  161.3979 O   0  0  0  0  0  0  0  0  0  0  0  0
  148.5864  132.8597  160.4114 C   0  0  2  0  0  0  0  0  0  0  0  0
  149.2804  132.0270  159.3430 C   0  0  0  0  0  0  0  0  0  0  0  0
  148.7426  130.6300  159.6149 C   0  0  0  0  0  0  0  0  0  0  0  0
  147.3883  130.8358  159.9797 O   0  0  0  0  0  0  0  0  0  0  0  0
  147.2099  132.1719  160.4382 C   0  0  0  0  0  0  0  0  0  0  0  0
  152.2083  143.0519  159.1387 N   0  0  0  0  0  0  0  0  0  0  0  0
  151.2880  144.1479  158.8656 C   0  0  0  0  0  0  0  0  0  0  0  0
  152.7041  143.0809  160.5035 C   0  0  0  0  0  0  0  0  0  0  0  0
  152.7838  141.3660  161.8009 H   0  0  0  0  0  0  0  0  0  0  0  0
  150.6887  141.7077  159.5642 H   0  0  0  0  0  0  0  0  0  0  0  0
  156.2256  140.4159  161.2637 H   0  0  0  0  0  0  0  0  0  0  0  0
  154.8377  139.5800  160.5697 H   0  0  0  0  0  0  0  0  0  0  0  0
  154.8070  140.1048  162.2614 H   0  0  0  0  0  0  0  0  0  0  0  0
  153.4155  140.5226  159.0010 H   0  0  0  0  0  0  0  0  0  0  0  0
  152.1597  139.8905  160.0655 H   0  0  0  0  0  0  0  0  0  0  0  0
  151.0717  142.2178  156.9496 H   0  0  0  0  0  0  0  0  0  0  0  0
  152.2110  140.9223  157.0717 H   0  0  0  0  0  0  0  0  0  0  0  0
  148.1179  140.3249  156.9408 H   0  0  0  0  0  0  0  0  0  0  0  0
  148.8230  141.9369  156.8524 H   0  0  0  0  0  0  0  0  0  0  0  0
  148.5055  141.2062  158.4276 H   0  0  0  0  0  0  0  0  0  0  0  0
  152.7561  137.2070  158.9288 H   0  0  0  0  0  0  0  0  0  0  0  0
  146.4259  136.7752  157.8394 H   0  0  0  0  0  0  0  0  0  0  0  0
  147.2111  134.5232  158.4375 H   0  0  0  0  0  0  0  0  0  0  0  0
  148.8573  134.1592  157.9957 H   0  0  0  0  0  0  0  0  0  0  0  0
  149.5708  134.7755  160.3858 H   0  0  0  0  0  0  0  0  0  0  0  0
  146.5919  135.1815  160.6276 H   0  0  0  0  0  0  0  0  0  0  0  0
  147.4685  134.6018  162.0311 H   0  0  0  0  0  0  0  0  0  0  0  0
  147.6463  136.6853  162.2229 H   0  0  0  0  0  0  0  0  0  0  0  0
  149.0886  132.6663  161.3609 H   0  0  0  0  0  0  0  0  0  0  0  0
  148.9804  132.3546  158.3466 H   0  0  0  0  0  0  0  0  0  0  0  0
  150.3683  132.0630  159.4049 H   0  0  0  0  0  0  0  0  0  0  0  0
  148.8296  129.9675  158.7534 H   0  0  0  0  0  0  0  0  0  0  0  0
  149.2696  130.1740  160.4538 H   0  0  0  0  0  0  0  0  0  0  0  0
  146.7741  132.1589  161.4360 H   0  0  0  0  0  0  0  0  0  0  0  0
  146.5070  132.6659  159.7672 H   0  0  0  0  0  0  0  0  0  0  0  0
  151.7705  145.1079  159.0528 H   0  0  0  0  0  0  0  0  0  0  0  0
  150.4002  144.0863  159.4964 H   0  0  0  0  0  0  0  0  0  0  0  0
  150.9672  144.1411  157.8242 H   0  0  0  0  0  0  0  0  0  0  0  0
  151.8930  143.3379  161.1870 H   0  0  0  0  0  0  0  0  0  0  0  0
  153.4832  143.8336  160.6268 H   0  0  0  0  0  0  0  0  0  0  0  0
  1  2  1  0  0  0  0
  1 32  1  0  0  0  0
  1 33  1  0  0  0  0
  1 34  1  0  0  0  0
  2  3  1  0  0  0  0
  3 30  1  0  0  0  0
  3 29  1  0  0  0  0
  3  4  1  0  0  0  0
  4  5  1  0  0  0  0
  4 35  1  0  0  0  0
  4 36  1  0  0  0  0
  5 31  1  0  0  0  0
  5  6  1  0  0  0  0
  5 27  1  0  0  0  0
  6  7  1  0  0  0  0
  6 37  1  0  0  0  0
  6 38  1  0  0  0  0
  7  8  1  0  0  0  0
  7  9  1  0  0  0  0
  8 39  1  0  0  0  0
  8 40  1  0  0  0  0
  8 41  1  0  0  0  0
  9 14  1  0  0  0  0
  9 10  2  0  0  0  0
 10 11  1  0  0  0  0
 11 12  2  0  0  0  0
 11 42  1  0  0  0  0
 12 13  1  0  0  0  0
 13 17  1  0  0  0  0
 13 14  2  0  0  0  0
 14 15  1  0  0  0  0
 15 16  2  0  0  0  0
 16 17  1  0  0  0  0
 16 43  1  0  0  0  0
 17 18  1  0  0  0  0
 18 19  1  0  0  0  0
 18 44  1  0  0  0  0
 18 45  1  0  0  0  0
 19 20  1  0  0  0  0
 19 22  1  0  0  0  0
 19 46  1  0  0  0  0
 20 21  1  0  0  0  0
 20 47  1  0  0  0  0
 20 48  1  0  0  0  0
 21 49  1  0  0  0  0
 22 26  1  0  0  0  0
 22 23  1  0  0  0  0
 22 50  1  0  0  0  0
 23 24  1  0  0  0  0
 23 51  1  0  0  0  0
 23 52  1  0  0  0  0
 24 25  1  0  0  0  0
 24 53  1  0  0  0  0
 24 54  1  0  0  0  0
 25 26  1  0  0  0  0
 26 55  1  0  0  0  0
 26 56  1  0  0  0  0
 27 28  1  0  0  0  0
 27 29  1  0  0  0  0
 28 57  1  0  0  0  0
 28 58  1  0  0  0  0
 28 59  1  0  0  0  0
 29 60  1  0  0  0  0
 29 61  1  0  0  0  0
M  END
> <s_m_source_file>
AV-unprocessed.smi

> <i_m_source_file_index>
21

> <i_lp_mmshare_version>
43012

> <i_f3d_flags>
0

> <s_epik_input>
W0NIM11PW0NASF0xW0NIMl1bQ0BIXShOKFtDSDNdKVtDSDJdMSlbQ0gyXU4oW0NIM10pYyhuW2NIXW4yKWMoYzIzKW5bY0hdbjNbQ0gyXVtDQEhdKFtDSDJdW09IXSlbQ0BASF00W0NIMl1bQ0gyXU9bQ0gyXTQ=

> <s_epik_cmdline>
J2VwaWtfcHl0aG9uJywgJy1waCcsICc3LjAnLCAnLXRuJywgJzgnLCAnLW1hJywgJzIwMCcsICctbWV0YWxfYmluZGluZycsICctaW1hZScsICc8aW5maWxlLm1hZT4nLCAnLW9tYWUnLCAnPG91dGZpbGUubWFlPic=

> <r_lp_tautomer_probability>
1

> <r_epik_Ionization_Penalty>
2.17574

> <r_epik_Ionization_Penalty_Charging>
0

> <r_epik_Ionization_Penalty_Neutral>
2.17574

> <r_epik_State_Penalty>
2.31336

> <r_epik_Charging_Adjusted_Penalty>
2.31336

> <i_epik_Tot_Q>
0

> <i_epik_Tot_abs_Q>
0

> <r_epik_Metal_State_Penalty>
2.31025

> <b_epik_Metal_Only>
0

> <s_lp_Force_Field>
OPLS_2005

> <r_lp_Energy>
69.8382

> <b_lp_Chiralities_Consistent>
1

> <s_lp_Variant>
AV-unprocessed.smi:21-40

> <Gold.Version>
5.8.1

> <Gold.Id.Protein>
6NUR|6NUR_protein|mol2

> <Gold.PLP.Fitness>
53.7028

> <Gold.PLP.PLP>
-49.0018

> <Gold.PLP.part.hbond>
-4.8610

> <Gold.PLP.part.metal>
0.0000

> <Gold.PLP.part.buried>
-5.7696

> <Gold.PLP.part.nonpolar>
-39.3574

> <Gold.PLP.part.repulsive>
0.0616

> <Gold.PLP.ligand.clash>
0.0000

> <Gold.PLP.ligand.torsion>
1.2884

> <Gold.PLP.Chemscore.Hbond>
2.1640

> <Gold.PLP.Chemscore.CHOScore>
0.0000

> <Gold.PLP.Chemscore.Metal>
0.0000

> <Gold.Chemscore.Hbonds>
donor molecule, donor type, donor heavy atom, donor atom, acceptor molecule, acceptor atom, score
      P1  H  6896  6908       L1    12  0.72

> <Gold.PLP.Chemscore.Internal.Correction>
0.7857

> <Gold.Rescore>
     Score         DG    S(hbond)    S(metal)    S(lipo)     H(rot)  DE(clash)    DE(int)     intcor
     10.71     -15.49       1.48        0.00     108.90       3.00       0.64       4.14       ----

> <Gold.Chemscore.Fitness>
10.7074

> <Gold.Chemscore.DG>
-15.4875

> <Gold.Chemscore.ZeroCoef>
-5.4800

> <Gold.Chemscore.Hbond>
1.4832

> <Gold.Chemscore.Metal>
0.0000

> <Gold.Chemscore.Lipo>
108.9033

> <Gold.Chemscore.Internal_Hbond>
0.0000

> <Gold.Chemscore.DEClash>
0.6390

> <Gold.Chemscore.DEInternal>
4.1410

> <Gold.Chemscore.Rot>
3.0031

> <Gold.Chemscore.Internal.Correction>
   9.000000E+99

> <Gold.Chemscore.Hbonds>
donor molecule, donor type, donor heavy atom, donor atom, acceptor molecule, acceptor atom, score
      P1  H  6896  6908       L1    12  0.63

> <Gold.Chemscore.Hbond.Weighted>
-4.9538

> <Gold.Chemscore.Metal.Weighted>
-0.0000

> <Gold.Chemscore.Lipo.Weighted>
-12.7417

> <Gold.Chemscore.Internal_Hbond.Weighted>
0.0000

> <Gold.Chemscore.DEClash.Weighted>
0.6390

> <Gold.Chemscore.DEInternal.Weighted>
4.1410

> <Gold.Chemscore.Rot.Weighted>
7.6880

> <Gold.Chemscore.Internal.Correction.Weighted>
   9.000000E+99

> <Gold.Protein.RotatedTorsions>
[ 6907 6896 6895 6894 ] final -172.77 input  -60.11 | X-H torsion
[ 7974 7965 7964 7962 ] final -149.86 input  175.53 | X-H torsion
[ 8008 7997 7996 7995 ] final   59.05 input   59.86 | X-H torsion
[ 10167 10162 10161 10158 ] final  156.75 input  -65.29 | X-H torsion
[ 10718 10713 10712 10709 ] final -153.54 input   66.30 | X-H torsion
[ 10763 10752 10751 10750 ] final -168.05 input  -60.55 | X-H torsion
[ 11005 11000 10999 10996 ] final  -68.74 input  -57.11 | X-H torsion

> <Gold.Protein.ActiveResidues>
 VAL166  LYS551  ARG553  GLY616  TRP617  ASP618  TYR619  PRO620  LYS621  CYS622 
 ASP623  PHE694  ASN695  SER759  ASP760  ASP761  ALA762  ILE779  LEU786  VAL792 
 PHE793  MET794  SER795  GLU796  ALA797  LYS798  CYS799  TRP800  GLU811  SER814 

> <Gold.Protein.RotatedAtoms>
  151.5453  133.3426  159.2942 H   0  0  0  0  0  0  0  0  0  0  0  0  # atno 6907 bound_to 6896
  150.8511  134.7839  159.7020 H   0  0  0  0  0  0  0  0  0  0  0  0  # atno 6908 bound_to 6896
  152.4557  134.5305  159.9861 H   0  0  0  0  0  0  0  0  0  0  0  0  # atno 6909 bound_to 6896
  144.7942  140.5008  143.5752 H   0  0  0  0  0  0  0  0  0  0  0  0  # atno 7974 bound_to 7965
  155.5600  140.3488  155.4489 H   0  0  0  0  0  0  0  0  0  0  0  0  # atno 8008 bound_to 7997
  156.0521  140.1320  157.0064 H   0  0  0  0  0  0  0  0  0  0  0  0  # atno 8009 bound_to 7997
  154.4439  140.1002  156.6377 H   0  0  0  0  0  0  0  0  0  0  0  0  # atno 8010 bound_to 7997
  139.4821  144.4981  151.8210 H   0  0  0  0  0  0  0  0  0  0  0  0  # atno 10167 bound_to 10162
  156.4872  130.8330  151.2555 H   0  0  0  0  0  0  0  0  0  0  0  0  # atno 10718 bound_to 10713
  154.6668  135.2933  154.9794 H   0  0  0  0  0  0  0  0  0  0  0  0  # atno 10763 bound_to 10752
  154.0835  135.6601  153.4845 H   0  0  0  0  0  0  0  0  0  0  0  0  # atno 10764 bound_to 10752
  153.0462  135.5203  154.7645 H   0  0  0  0  0  0  0  0  0  0  0  0  # atno 10765 bound_to 10752
  141.1538  133.6747  156.6492 H   0  0  0  0  0  0  0  0  0  0  0  0  # atno 11005 bound_to 11000
  145.5716  139.1484  143.3285 LP  0  0  0  0  0  0  0  0  0  0  0  0  # atno 17320 bound_to 7965
  146.2204  140.5849  142.9019 LP  0  0  0  0  0  0  0  0  0  0  0  0  # atno 17321 bound_to 7965
  140.4471  144.1907  150.5895 LP  0  0  0  0  0  0  0  0  0  0  0  0  # atno 17342 bound_to 10162
  140.4623  143.2444  151.9202 LP  0  0  0  0  0  0  0  0  0  0  0  0  # atno 17343 bound_to 10162
  157.7477  131.0025  150.3004 LP  0  0  0  0  0  0  0  0  0  0  0  0  # atno 17370 bound_to 10713
  156.3462  130.3823  149.7367 LP  0  0  0  0  0  0  0  0  0  0  0  0  # atno 17371 bound_to 10713
  140.3334  134.7910  157.4343 LP  0  0  0  0  0  0  0  0  0  0  0  0  # atno 17394 bound_to 11000
  140.0998  134.5488  155.8364 LP  0  0  0  0  0  0  0  0  0  0  0  0  # atno 17395 bound_to 11000

$$$$
