#       Name:                AV-unprocessed.smi:1648
#       Creating user name   scv26
#       Creation time:       Fri Mar 27 07:33:47 2020


#       File generated by GOLD software.
#

@<TRIPOS>MOLECULE
AV-unprocessed.smi:1648
    46    46     1
SMALL
NO_CHARGES


@<TRIPOS>ATOM
      1 ****        -1.4524   0.5890   2.5629 C.3            1 S1                 0.0000
      2 ****        -1.4639  -0.9230   2.3297 C.2            1 S1                 0.0000
      3 ****        -1.4471  -1.6821   3.2956 O.2            1 S1                 0.0000
      4 ****        -1.5035  -1.3954   1.0717 N.am           1 S1                 0.0000
      5 ****        -1.5204  -2.7982   0.6490 C.3            1 S1                 0.0000
      6 ****        -2.9903  -3.2521   0.5901 C.2            1 S1                 0.0000
      7 ****        -3.8088  -2.6273  -0.0863 O.2            1 S1                 0.0000
      8 ****        -3.3047  -4.3440   1.3054 N.am           1 S1                 0.0000
      9 ****        -4.6356  -4.9392   1.4150 C.3            1 S1                 0.0000
     10 ****        -4.4986  -6.4673   1.3883 C.3            1 S1                 0.0000
     11 ****        -5.3505  -4.4608   2.6974 C.3            1 S1                 0.0000
     12 ****        -5.6392  -3.0376   2.6846 N.pl3          1 S1                 0.0000
     13 ****        -6.5340  -2.3706   1.8578 C.2            1 S1                 0.0000
     14 ****        -6.4646  -1.0383   2.1965 C.2            1 S1                 0.0000
     15 ****        -5.5527  -0.8654   3.2352 N.2            1 S1                 0.0000
     16 ****        -5.1112  -2.0929   3.4752 C.2            1 S1                 0.0000
     17 ****        -0.8748  -2.9061  -0.7640 C.3            1 S1                 0.0000
     18 ****        -0.8899  -4.3444  -1.3231 C.3            1 S1                 0.0000
     19 ****         0.5728  -2.3768  -0.7740 C.3            1 S1                 0.0000
     20 ****        -0.6649   1.0726   1.9859 H              1 S1                 0.0000
     21 ****        -1.2792   0.8129   3.6159 H              1 S1                 0.0000
     22 ****        -2.4103   1.0248   2.2783 H              1 S1                 0.0000
     23 ****        -1.5655  -0.7123   0.3306 H              1 S1                 0.0000
     24 ****        -0.9570  -3.4211   1.3460 H              1 S1                 0.0000
     25 ****        -2.5651  -4.7924   1.8265 H              1 S1                 0.0000
     26 ****        -5.2393  -4.6579   0.5501 H              1 S1                 0.0000
     27 ****        -5.4751  -6.9495   1.4408 H              1 S1                 0.0000
     28 ****        -3.9034  -6.8287   2.2276 H              1 S1                 0.0000
     29 ****        -4.0167  -6.8018   0.4688 H              1 S1                 0.0000
     30 ****        -6.2978  -4.9883   2.8170 H              1 S1                 0.0000
     31 ****        -4.7513  -4.6929   3.5792 H              1 S1                 0.0000
     32 ****        -7.1203  -2.8834   1.1097 H              1 S1                 0.0000
     33 ****        -6.9989  -0.1979   1.7787 H              1 S1                 0.0000
     34 ****        -4.3812  -2.3076   4.2414 H              1 S1                 0.0000
     35 ****        -1.4442  -2.2838  -1.4569 H              1 S1                 0.0000
     36 ****        -0.3767  -5.0337  -0.6520 H              1 S1                 0.0000
     37 ****        -0.3903  -4.3935  -2.2910 H              1 S1                 0.0000
     38 ****        -1.9030  -4.7176  -1.4742 H              1 S1                 0.0000
     39 ****         1.2012  -2.9331  -0.0781 H              1 S1                 0.0000
     40 ****         0.6241  -1.3231  -0.4995 H              1 S1                 0.0000
     41 ****         1.0169  -2.4669  -1.7657 H              1 S1                 0.0000
     42 ****        -1.4261  -1.3101   4.2236 LP             1 S1                 0.0000
     43 ****        -1.4544  -2.6720   3.1537 LP             1 S1                 0.0000
     44 ****        -3.5198  -1.8202  -0.6012 LP             1 S1                 0.0000
     45 ****        -4.7621  -2.9272  -0.1205 LP             1 S1                 0.0000
     46 ****        -5.2920  -0.0152   3.6926 LP             1 S1                 0.0000
@<TRIPOS>BOND
    1    1    2 1     
    2    1   20 1     
    3    1   21 1     
    4    1   22 1     
    5    2    3 2     
    6    2    4 am    
    7    4    5 1     
    8    4   23 1     
    9    5    6 1     
   10    5   17 1     
   11    5   24 1     
   12    6    7 2     
   13    6    8 am    
   14    8    9 1     
   15    8   25 1     
   16    9   10 1     
   17    9   11 1     
   18    9   26 1     
   19   10   27 1     
   20   10   28 1     
   21   10   29 1     
   22   11   12 1     
   23   11   30 1     
   24   11   31 1     
   25   12   16 1     
   26   12   13 1     
   27   13   14 2     
   28   13   32 1     
   29   14   15 1     
   30   14   33 1     
   31   15   16 2     
   32   16   34 1     
   33   17   18 1     
   34   17   19 1     
   35   17   35 1     
   36   18   36 1     
   37   18   37 1     
   38   18   38 1     
   39   19   39 1     
   40   19   40 1     
   41   19   41 1     
   42    3   42 1     
   43    3   43 1     
   44    7   44 1     
   45    7   45 1     
   46   15   46 1     
@<TRIPOS>SUBSTRUCTURE
      1 S1             1
@<TRIPOS>SET
LONE_PAIRS      STATIC     ATOMS    <user>   **** ""
5 42 43 44 45 46
DONOR_HYDROGENS      STATIC     ATOMS    <user>   **** ""
2 23 25
ATOM$BLUE        STATIC     ATOMS    COLORGROUP SYSTEM
5 42 43 44 45 46
ATOM$RED        STATIC     ATOMS    COLORGROUP SYSTEM
2 23 25
