AV-unprocessed.smi:2505|AV-procd|sdf|9860|dock10
  -GOLD-   2272013493D 1   1.00000     0.00000
 Structure written by MMmdl.
 48 52  0  0  0  0  0  0  0  0  1 V2000
  147.2583  136.3257  155.7867 O   0  0  0  0  0  0  0  0  0  0  0  0
  147.7355  136.3714  154.6555 C   0  0  0  0  0  0  0  0  0  0  0  0
  148.7509  137.1716  154.2804 N   0  0  0  0  0  0  0  0  0  0  0  0
  149.3604  138.2371  154.9947 C   0  0  0  0  0  0  0  0  0  0  0  0
  149.2796  138.4409  156.3946 C   0  0  0  0  0  0  0  0  0  0  0  0
  149.8762  139.4942  156.9931 N   0  0  0  0  0  0  0  0  0  0  0  0
  150.5359  140.3471  156.2049 C   0  0  0  0  0  0  0  0  0  0  0  0
  151.2326  141.4863  156.8821 C   0  0  0  0  0  0  0  0  0  0  0  0
  151.3955  141.5116  158.3883 C   0  0  0  0  0  0  0  0  0  0  0  0
  150.4576  142.4799  157.7231 C   0  0  0  0  0  0  0  0  0  0  0  0
  150.6818  140.2562  154.8801 N   0  0  0  0  0  0  0  0  0  0  0  0
  150.0886  139.2060  154.2733 C   0  0  0  0  0  0  0  0  0  0  0  0
  147.2776  135.5748  153.6750 N   0  0  0  0  0  0  0  0  0  0  0  0
  146.1930  134.5938  153.7423 C   0  0  1  0  0  0  0  0  0  0  0  0
  145.5374  134.3875  152.3766 C   0  0  2  0  0  0  0  0  0  0  0  0
  144.2072  134.7177  151.8001 C   0  0  0  0  0  0  0  0  0  0  0  0
  143.9195  133.3482  151.1308 C   0  0  0  0  0  0  0  0  0  0  0  0
  144.9315  132.4408  151.6316 O   0  0  0  0  0  0  0  0  0  0  0  0
  145.2880  132.9849  152.8866 C   0  0  1  0  0  0  0  0  0  0  0  0
  146.6506  133.0879  153.6019 C   0  0  0  0  0  0  0  0  0  0  0  0
  147.9235  132.7385  152.8092 C   0  0  0  0  0  0  0  0  0  0  0  0
  148.9880  132.3442  153.8280 C   0  0  0  0  0  0  0  0  0  0  0  0
  148.2042  131.6641  154.9435 C   0  0  0  0  0  0  0  0  0  0  0  0
  146.7989  132.2749  154.8961 C   0  0  0  0  0  0  0  0  0  0  0  0
  149.0971  137.0290  153.3427 H   0  0  0  0  0  0  0  0  0  0  0  0
  148.7332  137.7863  157.0544 H   0  0  0  0  0  0  0  0  0  0  0  0
  152.0526  141.8651  156.2752 H   0  0  0  0  0  0  0  0  0  0  0  0
  150.9522  140.6998  158.9618 H   0  0  0  0  0  0  0  0  0  0  0  0
  152.3294  141.9053  158.7840 H   0  0  0  0  0  0  0  0  0  0  0  0
  150.7629  143.5229  157.6736 H   0  0  0  0  0  0  0  0  0  0  0  0
  149.3901  142.3125  157.8538 H   0  0  0  0  0  0  0  0  0  0  0  0
  150.1981  139.1394  153.2007 H   0  0  0  0  0  0  0  0  0  0  0  0
  147.7502  135.6427  152.7853 H   0  0  0  0  0  0  0  0  0  0  0  0
  145.4701  134.7772  154.5426 H   0  0  0  0  0  0  0  0  0  0  0  0
  146.2922  134.4148  151.5847 H   0  0  0  0  0  0  0  0  0  0  0  0
  143.4757  134.9572  152.5730 H   0  0  0  0  0  0  0  0  0  0  0  0
  144.2480  135.5358  151.0805 H   0  0  0  0  0  0  0  0  0  0  0  0
  142.9227  132.9899  151.3907 H   0  0  0  0  0  0  0  0  0  0  0  0
  143.9872  133.4042  150.0441 H   0  0  0  0  0  0  0  0  0  0  0  0
  144.4535  132.9101  153.5935 H   0  0  0  0  0  0  0  0  0  0  0  0
  147.7255  131.8922  152.1502 H   0  0  0  0  0  0  0  0  0  0  0  0
  148.2824  133.5495  152.1756 H   0  0  0  0  0  0  0  0  0  0  0  0
  149.7604  131.7023  153.4037 H   0  0  0  0  0  0  0  0  0  0  0  0
  149.4765  133.2385  154.2157 H   0  0  0  0  0  0  0  0  0  0  0  0
  148.1426  130.5932  154.7460 H   0  0  0  0  0  0  0  0  0  0  0  0
  148.6803  131.7923  155.9162 H   0  0  0  0  0  0  0  0  0  0  0  0
  146.6359  132.9034  155.7710 H   0  0  0  0  0  0  0  0  0  0  0  0
  146.0514  131.4827  154.9527 H   0  0  0  0  0  0  0  0  0  0  0  0
  1  2  2  0  0  0  0
  2  3  1  0  0  0  0
  2 13  1  0  0  0  0
  3  4  1  0  0  0  0
  3 25  1  0  0  0  0
  4 12  1  0  0  0  0
  4  5  2  0  0  0  0
  5  6  1  0  0  0  0
  5 26  1  0  0  0  0
  6  7  2  0  0  0  0
  7  8  1  0  0  0  0
  7 11  1  0  0  0  0
  8 10  1  0  0  0  0
  8  9  1  0  0  0  0
  8 27  1  0  0  0  0
  9 10  1  0  0  0  0
  9 28  1  0  0  0  0
  9 29  1  0  0  0  0
 10 30  1  0  0  0  0
 10 31  1  0  0  0  0
 11 12  2  0  0  0  0
 12 32  1  0  0  0  0
 13 14  1  0  0  0  0
 13 33  1  0  0  0  0
 14 20  1  0  0  0  0
 14 15  1  0  0  0  0
 14 34  1  0  0  0  0
 15 19  1  0  0  0  0
 15 16  1  0  0  0  0
 15 35  1  0  0  0  0
 16 17  1  0  0  0  0
 16 36  1  0  0  0  0
 16 37  1  0  0  0  0
 17 18  1  0  0  0  0
 17 38  1  0  0  0  0
 17 39  1  0  0  0  0
 18 19  1  0  0  0  0
 19 20  1  0  0  0  0
 19 40  1  0  0  0  0
 20 24  1  0  0  0  0
 20 21  1  0  0  0  0
 21 22  1  0  0  0  0
 21 41  1  0  0  0  0
 21 42  1  0  0  0  0
 22 23  1  0  0  0  0
 22 43  1  0  0  0  0
 22 44  1  0  0  0  0
 23 24  1  0  0  0  0
 23 45  1  0  0  0  0
 23 46  1  0  0  0  0
 24 47  1  0  0  0  0
 24 48  1  0  0  0  0
M  END
> <s_m_source_file>
AV-unprocessed.smi

> <i_m_source_file_index>
2505

> <i_lp_mmshare_version>
43012

> <i_f3d_flags>
0

> <s_epik_input>
W0NIMl0xW0NIMl1bQ0hdMWMobltjSF0yKW5bY0hdYzJbTkhdQyg9TylbTkhdW0NAQEhdM1tDQEBIXShbQ0gyXVtDSDJdTzQpW0NASF00QzM1W0NIMl1bQ0gyXVtDSDJdW0NIMl01

> <s_epik_cmdline>
J2VwaWtfcHl0aG9uJywgJy1waCcsICc3LjAnLCAnLXRuJywgJzgnLCAnLW1hJywgJzIwMCcsICctbWV0YWxfYmluZGluZycsICctaW1hZScsICc8aW5maWxlLm1hZT4nLCAnLW9tYWUnLCAnPG91dGZpbGUubWFlPic=

> <r_lp_tautomer_probability>
1

> <r_epik_Ionization_Penalty>
2.6075e-05

> <r_epik_Ionization_Penalty_Charging>
0

> <r_epik_Ionization_Penalty_Neutral>
2.6075e-05

> <r_epik_State_Penalty>
-0

> <r_epik_Charging_Adjusted_Penalty>
0

> <i_epik_Tot_Q>
0

> <i_epik_Tot_abs_Q>
0

> <r_epik_Metal_State_Penalty>
-0

> <b_epik_Metal_Only>
0

> <s_lp_Force_Field>
OPLS_2005

> <r_lp_Energy>
84.9225

> <b_lp_Chiralities_Consistent>
1

> <s_lp_Variant>
AV-unprocessed.smi:2505-8

> <Gold.Version>
5.8.1

> <Gold.Id.Protein>
6NUR|6NUR_protein|mol2

> <Gold.PLP.Fitness>
41.8529

> <Gold.PLP.PLP>
-30.3596

> <Gold.PLP.part.hbond>
-2.9639

> <Gold.PLP.part.metal>
0.0000

> <Gold.PLP.part.buried>
-3.8763

> <Gold.PLP.part.nonpolar>
-24.5471

> <Gold.PLP.part.repulsive>
0.2174

> <Gold.PLP.ligand.clash>
0.0000

> <Gold.PLP.ligand.torsion>
0.4419

> <Gold.PLP.Chemscore.Hbond>
2.9920

> <Gold.PLP.Chemscore.CHOScore>
1.0000

> <Gold.PLP.Chemscore.Metal>
0.0000

> <Gold.Chemscore.Hbonds>
donor molecule, donor type, donor heavy atom, donor atom, acceptor molecule, acceptor atom, score
      L1  H     3    25       P1  7948  0.99
      L1  H    13    33       P1  7948  1.00
      P1  H  7989  7998       L1    11  0.95
      L1  C    12    32       P1  7957  1.00

> <Gold.PLP.Chemscore.Internal.Correction>
0.4012

> <Gold.Rescore>
     Score         DG    S(hbond)    S(metal)    S(lipo)     H(rot)  DE(clash)    DE(int)     intcor
     17.69     -19.75       2.53        0.00      75.36       1.17       0.34       1.72       ----

> <Gold.Chemscore.Fitness>
17.6928

> <Gold.Chemscore.DG>
-19.7510

> <Gold.Chemscore.ZeroCoef>
-5.4800

> <Gold.Chemscore.Hbond>
2.5330

> <Gold.Chemscore.Metal>
0.0000

> <Gold.Chemscore.Lipo>
75.3603

> <Gold.Chemscore.Internal_Hbond>
0.0000

> <Gold.Chemscore.DEClash>
0.3431

> <Gold.Chemscore.DEInternal>
1.7151

> <Gold.Chemscore.Rot>
1.1744

> <Gold.Chemscore.Internal.Correction>
   9.000000E+99

> <Gold.Chemscore.Hbonds>
donor molecule, donor type, donor heavy atom, donor atom, acceptor molecule, acceptor atom, score
      L1  H     3    25       P1  7948  0.94
      L1  H    13    33       P1  7948  0.95
      P1  H  7989  7998       L1    11  0.21

> <Gold.Chemscore.Hbond.Weighted>
-8.4603

> <Gold.Chemscore.Metal.Weighted>
-0.0000

> <Gold.Chemscore.Lipo.Weighted>
-8.8172

> <Gold.Chemscore.Internal_Hbond.Weighted>
0.0000

> <Gold.Chemscore.DEClash.Weighted>
0.3431

> <Gold.Chemscore.DEInternal.Weighted>
1.7151

> <Gold.Chemscore.Rot.Weighted>
3.0064

> <Gold.Chemscore.Internal.Correction.Weighted>
   9.000000E+99

> <Gold.Protein.RotatedTorsions>
[ 6907 6896 6895 6894 ] final -147.56 input  -60.11 | X-H torsion
[ 7974 7965 7964 7962 ] final -146.71 input  175.53 | X-H torsion
[ 8008 7997 7996 7995 ] final   29.88 input   59.86 | X-H torsion
[ 10167 10162 10161 10158 ] final   35.55 input  -65.29 | X-H torsion
[ 10718 10713 10712 10709 ] final -103.80 input   66.30 | X-H torsion
[ 10763 10752 10751 10750 ] final -154.27 input  -60.55 | X-H torsion
[ 11005 11000 10999 10996 ] final  -16.86 input  -57.11 | X-H torsion

> <Gold.Protein.ActiveResidues>
 VAL166  LYS551  ARG553  GLY616  TRP617  ASP618  TYR619  PRO620  LYS621  CYS622 
 ASP623  PHE694  ASN695  SER759  ASP760  ASP761  ALA762  ILE779  LEU786  VAL792 
 PHE793  MET794  SER795  GLU796  ALA797  LYS798  CYS799  TRP800  GLU811  SER814 

> <Gold.Protein.RotatedAtoms>
  151.1574  133.4867  159.2594 H   0  0  0  0  0  0  0  0  0  0  0  0  # atno 6907 bound_to 6896
  151.1490  135.0217  159.8670 H   0  0  0  0  0  0  0  0  0  0  0  0  # atno 6908 bound_to 6896
  152.5463  134.1460  159.8552 H   0  0  0  0  0  0  0  0  0  0  0  0  # atno 6909 bound_to 6896
  144.8141  140.5421  143.5622 H   0  0  0  0  0  0  0  0  0  0  0  0  # atno 7974 bound_to 7965
  155.0815  140.3210  155.4600 H   0  0  0  0  0  0  0  0  0  0  0  0  # atno 8008 bound_to 7997
  156.2766  140.2094  156.5889 H   0  0  0  0  0  0  0  0  0  0  0  0  # atno 8009 bound_to 7997
  154.6975  140.0510  157.0412 H   0  0  0  0  0  0  0  0  0  0  0  0  # atno 8010 bound_to 7997
  140.4211  144.1458  150.6148 H   0  0  0  0  0  0  0  0  0  0  0  0  # atno 10167 bound_to 10162
  156.0279  130.5485  150.7305 H   0  0  0  0  0  0  0  0  0  0  0  0  # atno 10718 bound_to 10713
  154.7870  135.3194  154.7863 H   0  0  0  0  0  0  0  0  0  0  0  0  # atno 10763 bound_to 10752
  153.8561  135.6857  153.4791 H   0  0  0  0  0  0  0  0  0  0  0  0  # atno 10764 bound_to 10752
  153.1525  135.4693  154.9597 H   0  0  0  0  0  0  0  0  0  0  0  0  # atno 10765 bound_to 10752
  140.8110  133.8141  155.9563 H   0  0  0  0  0  0  0  0  0  0  0  0  # atno 11005 bound_to 11000
  145.5254  139.1476  143.3529 LP  0  0  0  0  0  0  0  0  0  0  0  0  # atno 17320 bound_to 7965
  146.2443  140.5395  142.8920 LP  0  0  0  0  0  0  0  0  0  0  0  0  # atno 17321 bound_to 7965
  140.4532  143.2478  151.9319 LP  0  0  0  0  0  0  0  0  0  0  0  0  # atno 17342 bound_to 10162
  139.4782  144.5541  151.8340 LP  0  0  0  0  0  0  0  0  0  0  0  0  # atno 17343 bound_to 10162
  157.4899  131.0910  151.0439 LP  0  0  0  0  0  0  0  0  0  0  0  0  # atno 17370 bound_to 10713
  157.0849  130.5918  149.5428 LP  0  0  0  0  0  0  0  0  0  0  0  0  # atno 17371 bound_to 10713
  140.9198  134.2156  157.4934 LP  0  0  0  0  0  0  0  0  0  0  0  0  # atno 17394 bound_to 11000
  139.8714  134.9787  156.5007 LP  0  0  0  0  0  0  0  0  0  0  0  0  # atno 17395 bound_to 11000

$$$$
