AV-unprocessed.smi:3047|AV-procd|sdf|11622|dock7
  -GOLD-   2272017 03D 1   1.00000     0.00000
 Structure written by MMmdl.
 38 39  0  0  0  0  0  0  0  0  2 V2000
  152.0099  138.2980  156.7009 C   0  0  0  0  0  0  0  0  0  0  0  0
  151.9358  138.7373  154.9150 S   0  0  0  0  0  0  0  0  0  0  0  0
  152.8132  139.8974  154.6973 O   0  0  0  0  0  0  0  0  0  0  0  0
  152.1222  137.5140  154.1194 O   0  0  0  0  0  0  0  0  0  0  0  0
  150.3003  139.2779  154.7030 N   0  0  0  0  0  0  0  0  0  0  0  0
  149.8729  140.6266  155.0665 C   0  0  0  0  0  0  0  0  0  0  0  0
  148.4552  140.7316  154.5125 C   0  0  0  0  0  0  0  0  0  0  0  0
  147.9189  139.3052  154.6009 C   0  0  0  0  0  0  0  0  0  0  0  0
  149.1544  138.4021  154.3979 C   0  0  2  0  0  0  0  0  0  0  0  0
  149.0747  137.1111  155.2281 C   0  0  0  0  0  0  0  0  0  0  0  0
  149.0612  137.1536  156.4588 O   0  0  0  0  0  0  0  0  0  0  0  0
  149.0510  135.9617  154.5386 N   0  0  0  0  0  0  0  0  0  0  0  0
  149.0447  134.6392  155.1455 C   0  0  0  0  0  0  0  0  0  0  0  0
  148.6241  133.5784  154.1201 C   0  0  0  0  0  0  0  0  0  0  0  0
  147.1907  133.6445  153.8320 N   0  0  0  0  0  0  0  0  0  0  0  0
  146.4973  134.6988  153.2958 C   0  0  0  0  0  0  0  0  0  0  0  0
  145.1866  134.3038  153.2159 C   0  0  0  0  0  0  0  0  0  0  0  0
  145.1356  133.0264  153.7070 N   0  3  0  0  0  0  0  0  0  0  0  0
  146.3556  132.6277  154.0821 C   0  0  0  0  0  0  0  0  0  0  0  0
  153.0327  138.0269  156.9610 H   0  0  0  0  0  0  0  0  0  0  0  0
  151.3556  137.4533  156.9081 H   0  0  0  0  0  0  0  0  0  0  0  0
  151.7014  139.1537  157.3008 H   0  0  0  0  0  0  0  0  0  0  0  0
  149.8802  140.7239  156.1527 H   0  0  0  0  0  0  0  0  0  0  0  0
  150.5376  141.3796  154.6425 H   0  0  0  0  0  0  0  0  0  0  0  0
  147.8411  141.4496  155.0565 H   0  0  0  0  0  0  0  0  0  0  0  0
  148.4927  141.0451  153.4685 H   0  0  0  0  0  0  0  0  0  0  0  0
  147.4594  139.1613  155.5798 H   0  0  0  0  0  0  0  0  0  0  0  0
  147.1483  139.1190  153.8522 H   0  0  0  0  0  0  0  0  0  0  0  0
  149.2249  138.1409  153.3406 H   0  0  0  0  0  0  0  0  0  0  0  0
  149.0767  136.0099  153.5301 H   0  0  0  0  0  0  0  0  0  0  0  0
  150.0413  134.4132  155.5287 H   0  0  0  0  0  0  0  0  0  0  0  0
  148.3614  134.6348  155.9963 H   0  0  0  0  0  0  0  0  0  0  0  0
  149.1613  133.7137  153.1803 H   0  0  0  0  0  0  0  0  0  0  0  0
  148.8543  132.5747  154.4817 H   0  0  0  0  0  0  0  0  0  0  0  0
  146.9752  135.6275  153.0189 H   0  0  0  0  0  0  0  0  0  0  0  0
  144.3095  134.8223  152.8565 H   0  0  0  0  0  0  0  0  0  0  0  0
  146.6144  131.6730  154.5046 H   0  0  0  0  0  0  0  0  0  0  0  0
  144.2973  132.4631  153.7770 H   0  0  0  0  0  0  0  0  0  0  0  0
  1  2  1  0  0  0  0
  1 20  1  0  0  0  0
  1 21  1  0  0  0  0
  1 22  1  0  0  0  0
  2  3  2  0  0  0  0
  2  4  2  0  0  0  0
  2  5  1  0  0  0  0
  5  9  1  0  0  0  0
  5  6  1  0  0  0  0
  6  7  1  0  0  0  0
  6 23  1  0  0  0  0
  6 24  1  0  0  0  0
  7  8  1  0  0  0  0
  7 25  1  0  0  0  0
  7 26  1  0  0  0  0
  8  9  1  0  0  0  0
  8 27  1  0  0  0  0
  8 28  1  0  0  0  0
  9 10  1  0  0  0  0
  9 29  1  0  0  0  0
 10 11  2  0  0  0  0
 10 12  1  0  0  0  0
 12 13  1  0  0  0  0
 12 30  1  0  0  0  0
 13 14  1  0  0  0  0
 13 31  1  0  0  0  0
 13 32  1  0  0  0  0
 14 15  1  0  0  0  0
 14 33  1  0  0  0  0
 14 34  1  0  0  0  0
 15 19  1  0  0  0  0
 15 16  1  0  0  0  0
 16 17  2  0  0  0  0
 16 35  1  0  0  0  0
 17 18  1  0  0  0  0
 17 36  1  0  0  0  0
 18 19  2  0  0  0  0
 18 38  1  0  0  0  0
 19 37  1  0  0  0  0
M  CHG  1  18   1
M  END
> <s_m_source_file>
AV-unprocessed.smi

> <i_m_source_file_index>
3047

> <i_lp_mmshare_version>
43012

> <i_f3d_flags>
0

> <s_epik_input>
W0NIM11TKD1PKSg9TylOMVtDSDJdW0NIMl1bQ0gyXVtDQEhdMUMoPU8pW05IXVtDSDJdW0NIMl1uMltjSF1bY0hdbltjSF0y

> <s_epik_cmdline>
J2VwaWtfcHl0aG9uJywgJy1waCcsICc3LjAnLCAnLXRuJywgJzgnLCAnLW1hJywgJzIwMCcsICctbWV0YWxfYmluZGluZycsICctaW1hZScsICc8aW5maWxlLm1hZT4nLCAnLW9tYWUnLCAnPG91dGZpbGUubWFlPic=

> <r_lp_tautomer_probability>
1

> <r_epik_Ionization_Penalty>
0.281738

> <r_epik_Ionization_Penalty_Charging>
0

> <r_epik_Ionization_Penalty_Neutral>
0.281738

> <r_epik_State_Penalty>
0.274352

> <r_epik_Charging_Adjusted_Penalty>
0.274352

> <i_epik_Tot_Q>
1

> <i_epik_Tot_abs_Q>
1

> <r_epik_Metal_State_Penalty>
0.555562

> <b_epik_Metal_Only>
0

> <s_lp_Force_Field>
OPLS_2005

> <r_lp_Energy>
11.563

> <b_lp_Chiralities_Consistent>
1

> <s_lp_Variant>
AV-unprocessed.smi:3047-2

> <Gold.Version>
5.8.1

> <Gold.Id.Protein>
6NUR|6NUR_protein|mol2

> <Gold.PLP.Fitness>
45.1212

> <Gold.PLP.PLP>
-26.7813

> <Gold.PLP.part.hbond>
-4.9596

> <Gold.PLP.part.metal>
0.0000

> <Gold.PLP.part.buried>
-1.8179

> <Gold.PLP.part.nonpolar>
-19.6104

> <Gold.PLP.part.repulsive>
0.2289

> <Gold.PLP.ligand.clash>
0.0000

> <Gold.PLP.ligand.torsion>
1.1827

> <Gold.PLP.Chemscore.Hbond>
5.2190

> <Gold.PLP.Chemscore.CHOScore>
1.0000

> <Gold.PLP.Chemscore.Metal>
0.0000

> <Gold.Chemscore.Hbonds>
donor molecule, donor type, donor heavy atom, donor atom, acceptor molecule, acceptor atom, score
      L1  H    12    30       P1  7948  1.00
      L1  H    18    38       P1 10957  2.00
      P1  H  7989  7998       L1     3  0.38
      P1  H  7997  8009       L1     3  0.98
      P1  H 10752 10763       L1     4  0.86
      L1  C    16    35       P1  7948  1.00

> <Gold.PLP.Chemscore.Internal.Correction>
2.0482

> <Gold.Rescore>
     Score         DG    S(hbond)    S(metal)    S(lipo)     H(rot)  DE(clash)    DE(int)     intcor
     16.63     -17.88       3.90        0.00      40.35       2.10       0.00       1.24       ----

> <Gold.Chemscore.Fitness>
16.6326

> <Gold.Chemscore.DG>
-17.8782

> <Gold.Chemscore.ZeroCoef>
-5.4800

> <Gold.Chemscore.Hbond>
3.9046

> <Gold.Chemscore.Metal>
0.0000

> <Gold.Chemscore.Lipo>
40.3509

> <Gold.Chemscore.Internal_Hbond>
0.0000

> <Gold.Chemscore.DEClash>
0.0015

> <Gold.Chemscore.DEInternal>
1.2441

> <Gold.Chemscore.Rot>
2.0954

> <Gold.Chemscore.Internal.Correction>
   9.000000E+99

> <Gold.Chemscore.Hbonds>
donor molecule, donor type, donor heavy atom, donor atom, acceptor molecule, acceptor atom, score
      L1  H    12    30       P1  7948  0.93
      L1  H    18    38       P1 10957  0.36
      P1  H  7989  7998       L1     3  0.09
      P1  H  7997  8009       L1     3  0.91
      P1  H 10752 10763       L1     4  0.81

> <Gold.Chemscore.Hbond.Weighted>
-13.0415

> <Gold.Chemscore.Metal.Weighted>
-0.0000

> <Gold.Chemscore.Lipo.Weighted>
-4.7211

> <Gold.Chemscore.Internal_Hbond.Weighted>
0.0000

> <Gold.Chemscore.DEClash.Weighted>
0.0015

> <Gold.Chemscore.DEInternal.Weighted>
1.2441

> <Gold.Chemscore.Rot.Weighted>
5.3643

> <Gold.Chemscore.Internal.Correction.Weighted>
   9.000000E+99

> <Gold.Protein.RotatedTorsions>
[ 6907 6896 6895 6894 ] final   42.15 input  -60.11 | X-H torsion
[ 7974 7965 7964 7962 ] final   74.10 input  175.53 | X-H torsion
[ 8008 7997 7996 7995 ] final -131.58 input   59.86 | X-H torsion
[ 10167 10162 10161 10158 ] final  115.32 input  -65.29 | X-H torsion
[ 10718 10713 10712 10709 ] final  -61.90 input   66.30 | X-H torsion
[ 10763 10752 10751 10750 ] final   32.73 input  -60.55 | X-H torsion
[ 11005 11000 10999 10996 ] final  -34.87 input  -57.11 | X-H torsion

> <Gold.Protein.ActiveResidues>
 VAL166  LYS551  ARG553  GLY616  TRP617  ASP618  TYR619  PRO620  LYS621  CYS622 
 ASP623  PHE694  ASN695  SER759  ASP760  ASP761  ALA762  ILE779  LEU786  VAL792 
 PHE793  MET794  SER795  GLU796  ALA797  LYS798  CYS799  TRP800  GLU811  SER814 

> <Gold.Protein.RotatedAtoms>
  152.2042  134.8560  160.0504 H   0  0  0  0  0  0  0  0  0  0  0  0  # atno 6907 bound_to 6896
  151.9402  133.3631  159.3970 H   0  0  0  0  0  0  0  0  0  0  0  0  # atno 6908 bound_to 6896
  150.6961  134.4371  159.5319 H   0  0  0  0  0  0  0  0  0  0  0  0  # atno 6909 bound_to 6896
  145.7325  139.2689  143.1533 H   0  0  0  0  0  0  0  0  0  0  0  0  # atno 7974 bound_to 7965
  155.3147  140.0459  157.3036 H   0  0  0  0  0  0  0  0  0  0  0  0  # atno 8008 bound_to 7997
  154.5413  140.2288  155.8603 H   0  0  0  0  0  0  0  0  0  0  0  0  # atno 8009 bound_to 7997
  156.1883  140.3057  155.9289 H   0  0  0  0  0  0  0  0  0  0  0  0  # atno 8010 bound_to 7997
  139.6326  144.7116  151.2401 H   0  0  0  0  0  0  0  0  0  0  0  0  # atno 10167 bound_to 10162
  156.0890  130.4203  150.1060 H   0  0  0  0  0  0  0  0  0  0  0  0  # atno 10718 bound_to 10713
  153.0248  135.6405  154.1400 H   0  0  0  0  0  0  0  0  0  0  0  0  # atno 10763 bound_to 10752
  154.1130  135.2851  155.3228 H   0  0  0  0  0  0  0  0  0  0  0  0  # atno 10764 bound_to 10752
  154.6318  135.5490  153.7751 H   0  0  0  0  0  0  0  0  0  0  0  0  # atno 10765 bound_to 10752
  140.9751  133.7087  156.1589 H   0  0  0  0  0  0  0  0  0  0  0  0  # atno 11005 bound_to 11000
  146.0524  140.8055  142.9775 LP  0  0  0  0  0  0  0  0  0  0  0  0  # atno 17320 bound_to 7965
  144.6889  140.3073  143.7254 LP  0  0  0  0  0  0  0  0  0  0  0  0  # atno 17321 bound_to 7965
  140.7447  143.6453  150.8297 LP  0  0  0  0  0  0  0  0  0  0  0  0  # atno 17342 bound_to 10162
  140.0080  143.5673  152.2850 LP  0  0  0  0  0  0  0  0  0  0  0  0  # atno 17343 bound_to 10162
  156.9074  130.9640  151.3568 LP  0  0  0  0  0  0  0  0  0  0  0  0  # atno 17370 bound_to 10713
  157.6034  130.8529  149.8837 LP  0  0  0  0  0  0  0  0  0  0  0  0  # atno 17371 bound_to 10713
  140.7271  134.4295  157.5569 LP  0  0  0  0  0  0  0  0  0  0  0  0  # atno 17394 bound_to 11000
  139.8927  134.8748  156.2257 LP  0  0  0  0  0  0  0  0  0  0  0  0  # atno 17395 bound_to 11000

$$$$
