AV-unprocessed.smi:1372|AV-procd|sdf|5582|dock9
  -GOLD-   22720 5183D 1   1.00000     0.00000
 Structure written by MMmdl.
 41 43  0  0  0  0  0  0  0  0  1 V2000
  152.5436  138.7145  155.3875 C   0  0  0  0  0  0  0  0  0  0  0  0
  152.8661  137.9103  157.0096 S   0  0  0  0  0  0  0  0  0  0  0  0
  152.6621  136.4620  156.8533 O   0  0  0  0  0  0  0  0  0  0  0  0
  154.1473  138.4132  157.5278 O   0  0  0  0  0  0  0  0  0  0  0  0
  151.4946  138.5935  158.0441 C   0  0  0  0  0  0  0  0  0  0  0  0
  151.6692  140.0622  158.3180 C   0  0  0  0  0  0  0  0  0  0  0  0
  152.2327  140.5237  159.4366 N   0  0  0  0  0  0  0  0  0  0  0  0
  152.1895  141.8923  159.2652 C   0  0  0  0  0  0  0  0  0  0  0  0
  152.6437  142.9381  160.1001 C   0  0  0  0  0  0  0  0  0  0  0  0
  152.4860  144.2838  159.7079 C   0  0  0  0  0  0  0  0  0  0  0  0
  151.8724  144.6016  158.4788 C   0  0  0  0  0  0  0  0  0  0  0  0
  151.4125  143.5739  157.6332 C   0  0  0  0  0  0  0  0  0  0  0  0
  151.5742  142.2326  158.0289 C   0  0  0  0  0  0  0  0  0  0  0  0
  151.2434  141.0135  157.4454 N   0  0  0  0  0  0  0  0  0  0  0  0
  150.5742  140.8463  156.1612 C   0  0  0  0  0  0  0  0  0  0  0  0
  149.0992  141.2961  156.2013 C   0  0  2  0  0  0  0  0  0  0  0  0
  148.5365  140.8554  157.4203 O   0  0  0  0  0  0  0  0  0  0  0  0
  148.3066  140.8186  154.9920 C   0  0  0  0  0  0  0  0  0  0  0  0
  148.2034  139.4372  154.7215 C   0  0  0  0  0  0  0  0  0  0  0  0
  147.4589  138.9830  153.6159 C   0  0  0  0  0  0  0  0  0  0  0  0
  146.8074  139.9072  152.7771 C   0  0  0  0  0  0  0  0  0  0  0  0
  146.9045  141.2865  153.0419 C   0  0  0  0  0  0  0  0  0  0  0  0
  147.6536  141.7416  154.1444 C   0  0  0  0  0  0  0  0  0  0  0  0
  153.2910  138.3846  154.6662 H   0  0  0  0  0  0  0  0  0  0  0  0
  152.6033  139.7969  155.4993 H   0  0  0  0  0  0  0  0  0  0  0  0
  151.5512  138.4378  155.0324 H   0  0  0  0  0  0  0  0  0  0  0  0
  150.5691  138.4101  157.5044 H   0  0  0  0  0  0  0  0  0  0  0  0
  151.4558  138.0442  158.9843 H   0  0  0  0  0  0  0  0  0  0  0  0
  153.1146  142.7039  161.0433 H   0  0  0  0  0  0  0  0  0  0  0  0
  152.8369  145.0755  160.3535 H   0  0  0  0  0  0  0  0  0  0  0  0
  151.7549  145.6347  158.1857 H   0  0  0  0  0  0  0  0  0  0  0  0
  150.9424  143.8136  156.6912 H   0  0  0  0  0  0  0  0  0  0  0  0
  151.1265  141.3624  155.3762 H   0  0  0  0  0  0  0  0  0  0  0  0
  150.6249  139.7866  155.9070 H   0  0  0  0  0  0  0  0  0  0  0  0
  149.0609  142.3859  156.2279 H   0  0  0  0  0  0  0  0  0  0  0  0
  148.7025  139.9291  157.5080 H   0  0  0  0  0  0  0  0  0  0  0  0
  148.6888  138.7198  155.3672 H   0  0  0  0  0  0  0  0  0  0  0  0
  147.3803  137.9244  153.4171 H   0  0  0  0  0  0  0  0  0  0  0  0
  146.2313  139.5575  151.9331 H   0  0  0  0  0  0  0  0  0  0  0  0
  146.4022  141.9956  152.4006 H   0  0  0  0  0  0  0  0  0  0  0  0
  147.7155  142.8017  154.3425 H   0  0  0  0  0  0  0  0  0  0  0  0
  1  2  1  0  0  0  0
  1 24  1  0  0  0  0
  1 25  1  0  0  0  0
  1 26  1  0  0  0  0
  2  3  2  0  0  0  0
  2  4  2  0  0  0  0
  2  5  1  0  0  0  0
  5  6  1  0  0  0  0
  5 27  1  0  0  0  0
  5 28  1  0  0  0  0
  6 14  1  0  0  0  0
  6  7  2  0  0  0  0
  7  8  1  0  0  0  0
  8 13  2  0  0  0  0
  8  9  1  0  0  0  0
  9 10  2  0  0  0  0
  9 29  1  0  0  0  0
 10 11  1  0  0  0  0
 10 30  1  0  0  0  0
 11 12  2  0  0  0  0
 11 31  1  0  0  0  0
 12 13  1  0  0  0  0
 12 32  1  0  0  0  0
 13 14  1  0  0  0  0
 14 15  1  0  0  0  0
 15 16  1  0  0  0  0
 15 33  1  0  0  0  0
 15 34  1  0  0  0  0
 16 17  1  0  0  0  0
 16 18  1  0  0  0  0
 16 35  1  0  0  0  0
 17 36  1  0  0  0  0
 18 23  1  0  0  0  0
 18 19  2  0  0  0  0
 19 20  1  0  0  0  0
 19 37  1  0  0  0  0
 20 21  2  0  0  0  0
 20 38  1  0  0  0  0
 21 22  1  0  0  0  0
 21 39  1  0  0  0  0
 22 23  2  0  0  0  0
 22 40  1  0  0  0  0
 23 41  1  0  0  0  0
M  END
> <s_m_source_file>
AV-unprocessed.smi

> <i_m_source_file_index>
1372

> <i_lp_mmshare_version>
43012

> <i_f3d_flags>
0

> <s_epik_input>
W2NIXTFbY0hdW2NIXVtjSF1jKGMxMiluKGMobjIpW0NIMl1TKD1PKSg9TylbQ0gzXSlbQ0gyXVtDQEhdKFtPSF0pYzNbY0hdW2NIXVtjSF1bY0hdW2NIXTM=

> <s_epik_cmdline>
J2VwaWtfcHl0aG9uJywgJy1waCcsICc3LjAnLCAnLXRuJywgJzgnLCAnLW1hJywgJzIwMCcsICctbWV0YWxfYmluZGluZycsICctaW1hZScsICc8aW5maWxlLm1hZT4nLCAnLW9tYWUnLCAnPG91dGZpbGUubWFlPic=

> <r_epik_Ionization_Penalty>
0.0151431

> <r_epik_Ionization_Penalty_Charging>
0

> <r_epik_Ionization_Penalty_Neutral>
0.0151431

> <r_epik_State_Penalty>
0.0118835

> <r_epik_Charging_Adjusted_Penalty>
0.0118835

> <i_epik_Tot_Q>
0

> <i_epik_Tot_abs_Q>
0

> <r_epik_Metal_State_Penalty>
1.20034e-05

> <b_epik_Metal_Only>
0

> <s_lp_Force_Field>
OPLS_2005

> <r_lp_Energy>
10.1971

> <b_lp_Chiralities_Consistent>
1

> <s_lp_Variant>
AV-unprocessed.smi:1372-1

> <Gold.Version>
5.8.1

> <Gold.Id.Protein>
6NUR|6NUR_protein|mol2

> <Gold.PLP.Fitness>
49.7530

> <Gold.PLP.PLP>
-45.7443

> <Gold.PLP.part.hbond>
-1.7295

> <Gold.PLP.part.metal>
0.0000

> <Gold.PLP.part.buried>
-3.6300

> <Gold.PLP.part.nonpolar>
-40.3249

> <Gold.PLP.part.repulsive>
0.0000

> <Gold.PLP.ligand.clash>
0.0000

> <Gold.PLP.ligand.torsion>
0.7279

> <Gold.PLP.Chemscore.Hbond>
1.7840

> <Gold.PLP.Chemscore.CHOScore>
0.0000

> <Gold.PLP.Chemscore.Metal>
0.0000

> <Gold.Chemscore.Hbonds>
donor molecule, donor type, donor heavy atom, donor atom, acceptor molecule, acceptor atom, score
      P1  H  7997  8009       L1     4  0.83
      P1  H 10752 10765       L1     3  0.86

> <Gold.PLP.Chemscore.Internal.Correction>
0.1123

> <Gold.Rescore>
     Score         DG    S(hbond)    S(metal)    S(lipo)     H(rot)  DE(clash)    DE(int)     intcor
     19.46     -20.37       1.69        0.00     130.05       2.33       0.00       0.90       ----

> <Gold.Chemscore.Fitness>
19.4611

> <Gold.Chemscore.DG>
-20.3658

> <Gold.Chemscore.ZeroCoef>
-5.4800

> <Gold.Chemscore.Hbond>
1.6876

> <Gold.Chemscore.Metal>
0.0000

> <Gold.Chemscore.Lipo>
130.0494

> <Gold.Chemscore.Internal_Hbond>
0.0000

> <Gold.Chemscore.DEClash>
0.0038

> <Gold.Chemscore.DEInternal>
0.9009

> <Gold.Chemscore.Rot>
2.3306

> <Gold.Chemscore.Internal.Correction>
   9.000000E+99

> <Gold.Chemscore.Hbonds>
donor molecule, donor type, donor heavy atom, donor atom, acceptor molecule, acceptor atom, score
      P1  H  7997  8009       L1     4  0.81
      P1  H 10752 10765       L1     3  0.80

> <Gold.Chemscore.Hbond.Weighted>
-5.6365

> <Gold.Chemscore.Metal.Weighted>
-0.0000

> <Gold.Chemscore.Lipo.Weighted>
-15.2158

> <Gold.Chemscore.Internal_Hbond.Weighted>
0.0000

> <Gold.Chemscore.DEClash.Weighted>
0.0038

> <Gold.Chemscore.DEInternal.Weighted>
0.9009

> <Gold.Chemscore.Rot.Weighted>
5.9664

> <Gold.Chemscore.Internal.Correction.Weighted>
   9.000000E+99

> <Gold.Protein.RotatedTorsions>
[ 6907 6896 6895 6894 ] final   58.44 input  -60.11 | X-H torsion
[ 7974 7965 7964 7962 ] final  161.42 input  175.53 | X-H torsion
[ 8008 7997 7996 7995 ] final  149.36 input   59.86 | X-H torsion
[ 10167 10162 10161 10158 ] final   10.63 input  -65.29 | X-H torsion
[ 10718 10713 10712 10709 ] final   20.10 input   66.30 | X-H torsion
[ 10763 10752 10751 10750 ] final -114.80 input  -60.55 | X-H torsion
[ 11005 11000 10999 10996 ] final  -53.59 input  -57.11 | X-H torsion

> <Gold.Protein.ActiveResidues>
 VAL166  LYS551  ARG553  GLY616  TRP617  ASP618  TYR619  PRO620  LYS621  CYS622 
 ASP623  PHE694  ASN695  SER759  ASP760  ASP761  ALA762  ILE779  LEU786  VAL792 
 PHE793  MET794  SER795  GLU796  ALA797  LYS798  CYS799  TRP800  GLU811  SER814 

> <Gold.Protein.RotatedAtoms>
  152.3824  134.6569  160.0137 H   0  0  0  0  0  0  0  0  0  0  0  0  # atno 6907 bound_to 6896
  151.6828  133.3306  159.3231 H   0  0  0  0  0  0  0  0  0  0  0  0  # atno 6908 bound_to 6896
  150.7758  134.6702  159.6432 H   0  0  0  0  0  0  0  0  0  0  0  0  # atno 6909 bound_to 6896
  144.7686  139.7896  143.6305 H   0  0  0  0  0  0  0  0  0  0  0  0  # atno 7974 bound_to 7965
  156.2757  140.2104  156.5846 H   0  0  0  0  0  0  0  0  0  0  0  0  # atno 8008 bound_to 7997
  154.7031  140.0519  157.0500 H   0  0  0  0  0  0  0  0  0  0  0  0  # atno 8009 bound_to 7997
  155.0708  140.3176  155.4634 H   0  0  0  0  0  0  0  0  0  0  0  0  # atno 8010 bound_to 7997
  140.6182  143.8261  150.7143 H   0  0  0  0  0  0  0  0  0  0  0  0  # atno 10167 bound_to 10162
  157.1197  130.6544  149.5920 H   0  0  0  0  0  0  0  0  0  0  0  0  # atno 10718 bound_to 10713
  154.8455  135.4405  154.1562 H   0  0  0  0  0  0  0  0  0  0  0  0  # atno 10763 bound_to 10752
  153.2710  135.6945  153.7486 H   0  0  0  0  0  0  0  0  0  0  0  0  # atno 10764 bound_to 10752
  153.6727  135.3416  155.3132 H   0  0  0  0  0  0  0  0  0  0  0  0  # atno 10765 bound_to 10752
  141.0983  133.6621  156.4194 H   0  0  0  0  0  0  0  0  0  0  0  0  # atno 11005 bound_to 11000
  146.1815  139.5010  142.9863 LP  0  0  0  0  0  0  0  0  0  0  0  0  # atno 17320 bound_to 7965
  145.6392  141.0288  143.1821 LP  0  0  0  0  0  0  0  0  0  0  0  0  # atno 17321 bound_to 7965
  140.1846  143.4087  152.1908 LP  0  0  0  0  0  0  0  0  0  0  0  0  # atno 17342 bound_to 10162
  139.5416  144.7262  151.4715 LP  0  0  0  0  0  0  0  0  0  0  0  0  # atno 17343 bound_to 10162
  155.9831  130.4849  150.6917 LP  0  0  0  0  0  0  0  0  0  0  0  0  # atno 17370 bound_to 10713
  157.4487  131.0870  151.0868 LP  0  0  0  0  0  0  0  0  0  0  0  0  # atno 17371 bound_to 10713
  140.5085  134.6418  157.5275 LP  0  0  0  0  0  0  0  0  0  0  0  0  # atno 17394 bound_to 11000
  139.9827  134.7112  155.9831 LP  0  0  0  0  0  0  0  0  0  0  0  0  # atno 17395 bound_to 11000

$$$$
