AV-unprocessed.smi:3287|AV-procd|sdf|12604|dock2
  -GOLD-   2272018533D 1   1.00000     0.00000
 Structure written by MMmdl.
 43 44  0  0  0  0  0  0  0  0  2 V2000
  151.8370  144.0949  161.1263 C   0  0  0  0  0  0  0  0  0  0  0  0
  152.7956  143.8452  159.9446 C   0  0  2  0  0  0  0  0  0  0  0  0
  152.4988  144.7929  158.7642 C   0  0  0  0  0  0  0  0  0  0  0  0
  151.2141  144.4102  158.0089 C   0  0  0  0  0  0  0  0  0  0  0  0
  151.2634  142.9476  157.5209 C   0  0  2  0  0  0  0  0  0  0  0  0
  150.0120  142.5494  156.8385 N   0  3  0  0  0  0  0  0  0  0  0  0
  150.0989  141.3212  156.0190 C   0  0  0  0  0  0  0  0  0  0  0  0
  149.3709  141.4877  154.6740 C   0  0  1  0  0  0  0  0  0  0  0  0
  149.7111  140.4034  153.8317 O   0  0  0  0  0  0  0  0  0  0  0  0
  147.8681  141.5954  154.8791 C   0  0  0  0  0  0  0  0  0  0  0  0
  147.1996  140.7913  155.8280 C   0  0  0  0  0  0  0  0  0  0  0  0
  145.8077  140.9475  155.9827 C   0  0  0  0  0  0  0  0  0  0  0  0
  145.0776  141.8315  155.2698 N   0  0  0  0  0  0  0  0  0  0  0  0
  145.7215  142.5988  154.3647 C   0  0  0  0  0  0  0  0  0  0  0  0
  147.1096  142.5212  154.1326 C   0  0  0  0  0  0  0  0  0  0  0  0
  151.5385  141.9962  158.7003 C   0  0  0  0  0  0  0  0  0  0  0  0
  152.8303  142.3756  159.4519 C   0  0  2  0  0  0  0  0  0  0  0  0
  153.1596  141.3669  160.5647 C   0  0  0  0  0  0  0  0  0  0  0  0
  150.8086  143.8262  160.8875 H   0  0  0  0  0  0  0  0  0  0  0  0
  151.8422  145.1469  161.4131 H   0  0  0  0  0  0  0  0  0  0  0  0
  152.1324  143.5267  162.0081 H   0  0  0  0  0  0  0  0  0  0  0  0
  153.7953  144.0918  160.3053 H   0  0  0  0  0  0  0  0  0  0  0  0
  152.4313  145.8234  159.1152 H   0  0  0  0  0  0  0  0  0  0  0  0
  153.3380  144.7689  158.0674 H   0  0  0  0  0  0  0  0  0  0  0  0
  150.3464  144.5601  158.6522 H   0  0  0  0  0  0  0  0  0  0  0  0
  151.0909  145.0914  157.1672 H   0  0  0  0  0  0  0  0  0  0  0  0
  152.0827  142.8414  156.8081 H   0  0  0  0  0  0  0  0  0  0  0  0
  149.3160  142.3851  157.5517 H   0  0  0  0  0  0  0  0  0  0  0  0
  151.1428  141.0570  155.8481 H   0  0  0  0  0  0  0  0  0  0  0  0
  149.6464  140.4985  156.5746 H   0  0  0  0  0  0  0  0  0  0  0  0
  149.7189  142.3998  154.1867 H   0  0  0  0  0  0  0  0  0  0  0  0
  149.3303  140.5554  152.9795 H   0  0  0  0  0  0  0  0  0  0  0  0
  147.7368  140.0716  156.4285 H   0  0  0  0  0  0  0  0  0  0  0  0
  145.2676  140.3483  156.7009 H   0  0  0  0  0  0  0  0  0  0  0  0
  145.1135  143.2980  153.8100 H   0  0  0  0  0  0  0  0  0  0  0  0
  147.5754  143.1619  153.3980 H   0  0  0  0  0  0  0  0  0  0  0  0
  150.6923  141.9997  159.3888 H   0  0  0  0  0  0  0  0  0  0  0  0
  151.6223  140.9741  158.3289 H   0  0  0  0  0  0  0  0  0  0  0  0
  153.6468  142.3069  158.7309 H   0  0  0  0  0  0  0  0  0  0  0  0
  152.3565  141.2960  161.2984 H   0  0  0  0  0  0  0  0  0  0  0  0
  154.0730  141.6453  161.0911 H   0  0  0  0  0  0  0  0  0  0  0  0
  153.3109  140.3690  160.1522 H   0  0  0  0  0  0  0  0  0  0  0  0
  149.6957  143.3110  156.2550 H   0  0  0  0  0  0  0  0  0  0  0  0
  1  2  1  0  0  0  0
  1 19  1  0  0  0  0
  1 20  1  0  0  0  0
  1 21  1  0  0  0  0
  2 17  1  0  0  0  0
  2  3  1  0  0  0  0
  2 22  1  0  0  0  0
  3  4  1  0  0  0  0
  3 23  1  0  0  0  0
  3 24  1  0  0  0  0
  4  5  1  0  0  0  0
  4 25  1  0  0  0  0
  4 26  1  0  0  0  0
  5  6  1  0  0  0  0
  5 16  1  0  0  0  0
  5 27  1  0  0  0  0
  6  7  1  0  0  0  0
  6 28  1  0  0  0  0
  6 43  1  0  0  0  0
  7  8  1  0  0  0  0
  7 29  1  0  0  0  0
  7 30  1  0  0  0  0
  8  9  1  0  0  0  0
  8 10  1  0  0  0  0
  8 31  1  0  0  0  0
  9 32  1  0  0  0  0
 10 15  1  0  0  0  0
 10 11  2  0  0  0  0
 11 12  1  0  0  0  0
 11 33  1  0  0  0  0
 12 13  2  0  0  0  0
 12 34  1  0  0  0  0
 13 14  1  0  0  0  0
 14 15  2  0  0  0  0
 14 35  1  0  0  0  0
 15 36  1  0  0  0  0
 16 17  1  0  0  0  0
 16 37  1  0  0  0  0
 16 38  1  0  0  0  0
 17 18  1  0  0  0  0
 17 39  1  0  0  0  0
 18 40  1  0  0  0  0
 18 41  1  0  0  0  0
 18 42  1  0  0  0  0
M  CHG  1   6   1
M  END
> <s_m_source_file>
AV-unprocessed.smi

> <i_m_source_file_index>
3287

> <i_lp_mmshare_version>
43012

> <i_f3d_flags>
0

> <s_epik_input>
W0NIM11bQ0BASF0xW0NIMl1bQ0gyXVtDQEhdKFtDSDJdW0NASF0xW0NIM10pW05IXVtDSDJdW0NASF0oW09IXSljMltjSF1bY0hdbltjSF1bY0hdMg==

> <s_epik_cmdline>
J2VwaWtfcHl0aG9uJywgJy1waCcsICc3LjAnLCAnLXRuJywgJzgnLCAnLW1hJywgJzIwMCcsICctbWV0YWxfYmluZGluZycsICctaW1hZScsICc8aW5maWxlLm1hZT4nLCAnLW9tYWUnLCAnPG91dGZpbGUubWFlPic=

> <r_lp_tautomer_probability>
1

> <r_epik_Ionization_Penalty>
0.00537262

> <r_epik_Ionization_Penalty_Charging>
0.00321624

> <r_epik_Ionization_Penalty_Neutral>
0.00215638

> <r_epik_State_Penalty>
-0

> <r_epik_Charging_Adjusted_Penalty>
0.00321624

> <i_epik_Tot_Q>
1

> <i_epik_Tot_abs_Q>
1

> <r_epik_Metal_State_Penalty>
-0

> <b_epik_Metal_Only>
0

> <s_lp_Force_Field>
OPLS_2005

> <r_lp_Energy>
17.5476

> <b_lp_Chiralities_Consistent>
1

> <s_lp_Variant>
AV-unprocessed.smi:3287-15

> <Gold.Version>
5.8.1

> <Gold.Id.Protein>
6NUR|6NUR_protein|mol2

> <Gold.PLP.Fitness>
54.4271

> <Gold.PLP.PLP>
-46.2002

> <Gold.PLP.part.hbond>
-3.0000

> <Gold.PLP.part.metal>
0.0000

> <Gold.PLP.part.buried>
-4.5649

> <Gold.PLP.part.nonpolar>
-39.1832

> <Gold.PLP.part.repulsive>
0.1817

> <Gold.PLP.ligand.clash>
0.0000

> <Gold.PLP.ligand.torsion>
1.0313

> <Gold.PLP.Chemscore.Hbond>
3.4240

> <Gold.PLP.Chemscore.CHOScore>
0.0000

> <Gold.PLP.Chemscore.Metal>
0.0000

> <Gold.Chemscore.Hbonds>
donor molecule, donor type, donor heavy atom, donor atom, acceptor molecule, acceptor atom, score
      L1  H     6    43       P1  8028  2.00
      L1  H     9    32       P1  7957  0.78
      P1  H  7989  7998       L1     9  0.61

> <Gold.PLP.Chemscore.Internal.Correction>
0.0176

> <Gold.Rescore>
     Score         DG    S(hbond)    S(metal)    S(lipo)     H(rot)  DE(clash)    DE(int)     intcor
     21.69     -22.52       1.98        0.00     130.81       1.90       0.17       0.66       ----

> <Gold.Chemscore.Fitness>
21.6910

> <Gold.Chemscore.DG>
-22.5214

> <Gold.Chemscore.ZeroCoef>
-5.4800

> <Gold.Chemscore.Hbond>
1.9788

> <Gold.Chemscore.Metal>
0.0000

> <Gold.Chemscore.Lipo>
130.8118

> <Gold.Chemscore.Internal_Hbond>
0.0000

> <Gold.Chemscore.DEClash>
0.1674

> <Gold.Chemscore.DEInternal>
0.6629

> <Gold.Chemscore.Rot>
1.9035

> <Gold.Chemscore.Internal.Correction>
   9.000000E+99

> <Gold.Chemscore.Hbonds>
donor molecule, donor type, donor heavy atom, donor atom, acceptor molecule, acceptor atom, score
      L1  H     6    43       P1  8028  1.00
      L1  H     9    32       P1  7957  0.77
      P1  H  7989  7998       L1     9  0.03

> <Gold.Chemscore.Hbond.Weighted>
-6.6092

> <Gold.Chemscore.Metal.Weighted>
-0.0000

> <Gold.Chemscore.Lipo.Weighted>
-15.3050

> <Gold.Chemscore.Internal_Hbond.Weighted>
0.0000

> <Gold.Chemscore.DEClash.Weighted>
0.1674

> <Gold.Chemscore.DEInternal.Weighted>
0.6629

> <Gold.Chemscore.Rot.Weighted>
4.8729

> <Gold.Chemscore.Internal.Correction.Weighted>
   9.000000E+99

> <Gold.Protein.RotatedTorsions>
[ 6907 6896 6895 6894 ] final   65.61 input  -60.11 | X-H torsion
[ 7974 7965 7964 7962 ] final -115.53 input  175.53 | X-H torsion
[ 8008 7997 7996 7995 ] final  -49.53 input   59.86 | X-H torsion
[ 10167 10162 10161 10158 ] final -163.71 input  -65.29 | X-H torsion
[ 10718 10713 10712 10709 ] final  136.84 input   66.30 | X-H torsion
[ 10763 10752 10751 10750 ] final -136.74 input  -60.55 | X-H torsion
[ 11005 11000 10999 10996 ] final  173.74 input  -57.11 | X-H torsion

> <Gold.Protein.ActiveResidues>
 VAL166  LYS551  ARG553  GLY616  TRP617  ASP618  TYR619  PRO620  LYS621  CYS622 
 ASP623  PHE694  ASN695  SER759  ASP760  ASP761  ALA762  ILE779  LEU786  VAL792 
 PHE793  MET794  SER795  GLU796  ALA797  LYS798  CYS799  TRP800  GLU811  SER814 

> <Gold.Protein.RotatedAtoms>
  152.4420  134.5572  159.9883 H   0  0  0  0  0  0  0  0  0  0  0  0  # atno 6907 bound_to 6896
  151.5667  133.3390  159.2989 H   0  0  0  0  0  0  0  0  0  0  0  0  # atno 6908 bound_to 6896
  150.8328  134.7622  159.6932 H   0  0  0  0  0  0  0  0  0  0  0  0  # atno 6909 bound_to 6896
  145.1073  140.8590  143.3890 H   0  0  0  0  0  0  0  0  0  0  0  0  # atno 7974 bound_to 7965
  154.4046  140.1294  156.4518 H   0  0  0  0  0  0  0  0  0  0  0  0  # atno 8008 bound_to 7997
  155.7359  140.3490  155.5061 H   0  0  0  0  0  0  0  0  0  0  0  0  # atno 8009 bound_to 7997
  155.9084  140.1031  157.1288 H   0  0  0  0  0  0  0  0  0  0  0  0  # atno 8010 bound_to 7997
  139.6301  144.0455  152.2009 H   0  0  0  0  0  0  0  0  0  0  0  0  # atno 10167 bound_to 10162
  157.4424  131.1059  151.0128 H   0  0  0  0  0  0  0  0  0  0  0  0  # atno 10718 bound_to 10713
  154.8677  135.3663  154.5109 H   0  0  0  0  0  0  0  0  0  0  0  0  # atno 10763 bound_to 10752
  153.5745  135.7020  153.5495 H   0  0  0  0  0  0  0  0  0  0  0  0  # atno 10764 bound_to 10752
  153.3512  135.4071  155.1610 H   0  0  0  0  0  0  0  0  0  0  0  0  # atno 10765 bound_to 10752
  140.3438  134.7254  157.4221 H   0  0  0  0  0  0  0  0  0  0  0  0  # atno 11005 bound_to 11000
  145.0887  139.2906  143.5746 LP  0  0  0  0  0  0  0  0  0  0  0  0  # atno 17320 bound_to 7965
  146.3527  140.0417  142.8642 LP  0  0  0  0  0  0  0  0  0  0  0  0  # atno 17321 bound_to 7965
  140.0119  144.6218  150.7640 LP  0  0  0  0  0  0  0  0  0  0  0  0  # atno 17342 bound_to 10162
  140.7434  143.2846  151.3501 LP  0  0  0  0  0  0  0  0  0  0  0  0  # atno 17343 bound_to 10162
  157.0986  130.5972  149.5455 LP  0  0  0  0  0  0  0  0  0  0  0  0  # atno 17370 bound_to 10713
  155.9954  130.5020  150.7457 LP  0  0  0  0  0  0  0  0  0  0  0  0  # atno 17371 bound_to 10713
  140.0759  134.5798  155.8592 LP  0  0  0  0  0  0  0  0  0  0  0  0  # atno 17394 bound_to 11000
  141.2031  133.6629  156.6044 LP  0  0  0  0  0  0  0  0  0  0  0  0  # atno 17395 bound_to 11000

$$$$
