AV-unprocessed.smi:157|AV-procd|sdf|1315|dock6
  -GOLD-   2262019 03D 1   1.00000     0.00000
 Structure written by MMmdl.
 36 38  0  0  0  0  0  0  0  0  2 V2000
  148.6218  138.8298  153.1668 O   0  0  0  0  0  0  0  0  0  0  0  0
  149.1126  138.2176  154.3408 C   0  0  0  0  0  0  0  0  0  0  0  0
  150.6533  138.1546  154.3234 C   0  0  1  0  0  0  0  0  0  0  0  0
  151.1249  139.4822  154.5691 O   0  0  0  0  0  0  0  0  0  0  0  0
  151.9068  139.5133  155.7231 C   0  0  1  0  0  0  0  0  0  0  0  0
  151.5882  140.7606  156.4795 N   0  0  0  0  0  0  0  0  0  0  0  0
  150.7481  141.7389  156.0813 C   0  0  0  0  0  0  0  0  0  0  0  0
  150.6337  142.7408  156.9365 N   0  3  0  0  0  0  0  0  0  0  0  0
  151.4490  142.4363  158.0060 C   0  0  0  0  0  0  0  0  0  0  0  0
  152.0400  141.2074  157.7000 C   0  0  0  0  0  0  0  0  0  0  0  0
  152.9534  140.4410  158.4401 N   0  0  0  0  0  0  0  0  0  0  0  0
  153.6319  140.9193  159.4322 C   0  0  0  0  0  0  0  0  0  0  0  0
  153.5556  142.1715  160.0195 N   0  0  0  0  0  0  0  0  0  0  0  0
  152.2974  142.8025  160.3765 C   0  0  0  0  0  0  0  0  0  0  0  0
  151.5289  143.3681  159.1747 C   0  0  1  0  0  0  0  0  0  0  0  0
  152.0851  144.6206  158.8322 O   0  0  0  0  0  0  0  0  0  0  0  0
  151.5323  138.2818  156.5352 C   0  0  0  0  0  0  0  0  0  0  0  0
  151.3075  137.2873  155.4187 C   0  0  1  0  0  0  0  0  0  0  0  0
  150.5318  136.1907  155.8578 O   0  0  0  0  0  0  0  0  0  0  0  0
  150.9960  137.8430  153.3357 H   0  0  0  0  0  0  0  0  0  0  0  0
  152.9652  139.5660  155.4655 H   0  0  0  0  0  0  0  0  0  0  0  0
  150.5093  143.5728  159.5033 H   0  0  0  0  0  0  0  0  0  0  0  0
  152.2714  136.9201  155.0630 H   0  0  0  0  0  0  0  0  0  0  0  0
  148.6408  138.1961  152.4658 H   0  0  0  0  0  0  0  0  0  0  0  0
  148.7769  138.8204  155.1852 H   0  0  0  0  0  0  0  0  0  0  0  0
  148.6731  137.2272  154.4618 H   0  0  0  0  0  0  0  0  0  0  0  0
  150.2173  141.6992  155.1469 H   0  0  0  0  0  0  0  0  0  0  0  0
  154.3777  140.2862  159.9152 H   0  0  0  0  0  0  0  0  0  0  0  0
  154.3026  142.4639  160.6334 H   0  0  0  0  0  0  0  0  0  0  0  0
  151.6813  142.0467  160.8660 H   0  0  0  0  0  0  0  0  0  0  0  0
  152.4742  143.5777  161.1229 H   0  0  0  0  0  0  0  0  0  0  0  0
  151.3837  145.2373  158.6896 H   0  0  0  0  0  0  0  0  0  0  0  0
  152.3263  138.0039  157.2288 H   0  0  0  0  0  0  0  0  0  0  0  0
  150.6108  138.4669  157.0903 H   0  0  0  0  0  0  0  0  0  0  0  0
  150.1722  136.3982  156.7072 H   0  0  0  0  0  0  0  0  0  0  0  0
  150.0536  143.5626  156.8256 H   0  0  0  0  0  0  0  0  0  0  0  0
  1  2  1  0  0  0  0
  1 24  1  0  0  0  0
  2  3  1  0  0  0  0
  2 25  1  0  0  0  0
  2 26  1  0  0  0  0
  3 20  1  0  0  0  0
  3 18  1  0  0  0  0
  3  4  1  0  0  0  0
  4  5  1  0  0  0  0
  5 21  1  0  0  0  0
  5  6  1  0  0  0  0
  5 17  1  0  0  0  0
  6 10  1  0  0  0  0
  6  7  1  0  0  0  0
  7  8  2  0  0  0  0
  7 27  1  0  0  0  0
  8  9  1  0  0  0  0
  8 36  1  0  0  0  0
  9 15  1  0  0  0  0
  9 10  2  0  0  0  0
 10 11  1  0  0  0  0
 11 12  2  0  0  0  0
 12 13  1  0  0  0  0
 12 28  1  0  0  0  0
 13 14  1  0  0  0  0
 13 29  1  0  0  0  0
 14 15  1  0  0  0  0
 14 30  1  0  0  0  0
 14 31  1  0  0  0  0
 15 22  1  0  0  0  0
 15 16  1  0  0  0  0
 16 32  1  0  0  0  0
 17 18  1  0  0  0  0
 17 33  1  0  0  0  0
 17 34  1  0  0  0  0
 18 23  1  0  0  0  0
 18 19  1  0  0  0  0
 19 35  1  0  0  0  0
M  CHG  1   8   1
M  END
> <s_m_source_file>
AV-unprocessed.smi

> <i_m_source_file_index>
157

> <i_lp_mmshare_version>
43012

> <i_f3d_flags>
0

> <s_epik_input>
W09IXVtDSDJdW0NASF0xT1tDQEhdKFtDSDJdW0NAQEhdMVtPSF0pbihbY0hdbjIpYyhjMjMpTj1bQ0hdW05IXVtDSDJdW0NASF0zW09IXQ==

> <s_epik_cmdline>
J2VwaWtfcHl0aG9uJywgJy1waCcsICc3LjAnLCAnLXRuJywgJzgnLCAnLW1hJywgJzIwMCcsICctbWV0YWxfYmluZGluZycsICctaW1hZScsICc8aW5maWxlLm1hZT4nLCAnLW9tYWUnLCAnPG91dGZpbGUubWFlPic=

> <r_epik_Ionization_Penalty>
1.68594

> <r_epik_Ionization_Penalty_Charging>
0

> <r_epik_Ionization_Penalty_Neutral>
1.68594

> <r_epik_State_Penalty>
1.79006

> <r_epik_Charging_Adjusted_Penalty>
1.79006

> <i_epik_Tot_Q>
1

> <i_epik_Tot_abs_Q>
1

> <r_epik_Metal_State_Penalty>
5.85324

> <b_epik_Metal_Only>
0

> <s_epik_Chemistry_Notes>
This compound has an imine and may undergo hydrolysis. This compound contains an acetal/aminal-like group ( X-CH(R)-Y where X, Y are N, S, or O) that may be acid/base labile, releasing an aldehyde.

> <s_lp_Force_Field>
OPLS_2005

> <r_lp_Energy>
55.0394

> <b_lp_Chiralities_Consistent>
1

> <s_lp_Variant>
AV-unprocessed.smi:157-25

> <Gold.Version>
5.8.1

> <Gold.Id.Protein>
6NUR|6NUR_protein|mol2

> <Gold.PLP.Fitness>
47.2554

> <Gold.PLP.PLP>
-33.6380

> <Gold.PLP.part.hbond>
-5.0000

> <Gold.PLP.part.metal>
0.0000

> <Gold.PLP.part.buried>
-6.5779

> <Gold.PLP.part.nonpolar>
-21.8180

> <Gold.PLP.part.repulsive>
0.1739

> <Gold.PLP.ligand.clash>
0.0000

> <Gold.PLP.ligand.torsion>
0.0907

> <Gold.PLP.Chemscore.Hbond>
4.5949

> <Gold.PLP.Chemscore.CHOScore>
0.0000

> <Gold.PLP.Chemscore.Metal>
0.0000

> <Gold.Chemscore.Hbonds>
donor molecule, donor type, donor heavy atom, donor atom, acceptor molecule, acceptor atom, score
      L1  H     1    24       P1  7948  0.95
      L1  H     8    36       P1  8028  2.00
      P1  H  7989  7998       L1     4  1.00
      P1  H  7997  8009       L1    11  0.51

> <Gold.PLP.Chemscore.Internal.Correction>
0.0142

> <Gold.Rescore>
     Score         DG    S(hbond)    S(metal)    S(lipo)     H(rot)  DE(clash)    DE(int)     intcor
     12.08     -12.22       2.92        0.00      54.37       3.67       0.02       0.13       ----

> <Gold.Chemscore.Fitness>
12.0776

> <Gold.Chemscore.DG>
-12.2235

> <Gold.Chemscore.ZeroCoef>
-5.4800

> <Gold.Chemscore.Hbond>
2.9241

> <Gold.Chemscore.Metal>
0.0000

> <Gold.Chemscore.Lipo>
54.3747

> <Gold.Chemscore.Internal_Hbond>
0.0000

> <Gold.Chemscore.DEClash>
0.0187

> <Gold.Chemscore.DEInternal>
0.1272

> <Gold.Chemscore.Rot>
3.6659

> <Gold.Chemscore.Internal.Correction>
   9.000000E+99

> <Gold.Chemscore.Hbonds>
donor molecule, donor type, donor heavy atom, donor atom, acceptor molecule, acceptor atom, score
      L1  H     1    24       P1  7948  0.85
      L1  H     8    36       P1  8028  0.90
      P1  H  7989  7998       L1     4  0.65
      P1  H  7997  8009       L1    11  0.05

> <Gold.Chemscore.Hbond.Weighted>
-9.7665

> <Gold.Chemscore.Metal.Weighted>
-0.0000

> <Gold.Chemscore.Lipo.Weighted>
-6.3618

> <Gold.Chemscore.Internal_Hbond.Weighted>
0.0000

> <Gold.Chemscore.DEClash.Weighted>
0.0187

> <Gold.Chemscore.DEInternal.Weighted>
0.1272

> <Gold.Chemscore.Rot.Weighted>
9.3848

> <Gold.Chemscore.Internal.Correction.Weighted>
   9.000000E+99

> <Gold.Protein.RotatedTorsions>
[ 6907 6896 6895 6894 ] final -113.92 input  -60.11 | X-H torsion
[ 7974 7965 7964 7962 ] final -160.53 input  175.53 | X-H torsion
[ 8008 7997 7996 7995 ] final  158.98 input   59.86 | X-H torsion
[ 10167 10162 10161 10158 ] final   69.81 input  -65.29 | X-H torsion
[ 10718 10713 10712 10709 ] final -136.63 input   66.30 | X-H torsion
[ 10763 10752 10751 10750 ] final  153.85 input  -60.55 | X-H torsion
[ 11005 11000 10999 10996 ] final -148.30 input  -57.11 | X-H torsion

> <Gold.Protein.ActiveResidues>
 VAL166  LYS551  ARG553  GLY616  TRP617  ASP618  TYR619  PRO620  LYS621  CYS622 
 ASP623  PHE694  ASN695  SER759  ASP760  ASP761  ALA762  ILE779  LEU786  VAL792 
 PHE793  MET794  SER795  GLU796  ALA797  LYS798  CYS799  TRP800  GLU811  SER814 

> <Gold.Protein.RotatedAtoms>
  150.7864  133.8875  159.3303 H   0  0  0  0  0  0  0  0  0  0  0  0  # atno 6907 bound_to 6896
  151.6724  135.0972  160.0210 H   0  0  0  0  0  0  0  0  0  0  0  0  # atno 6908 bound_to 6896
  152.3929  133.6666  159.6288 H   0  0  0  0  0  0  0  0  0  0  0  0  # atno 6909 bound_to 6896
  144.7424  140.3528  143.6112 H   0  0  0  0  0  0  0  0  0  0  0  0  # atno 7974 bound_to 7965
  156.2268  140.1843  156.7343 H   0  0  0  0  0  0  0  0  0  0  0  0  # atno 8008 bound_to 7997
  154.5955  140.0644  156.9325 H   0  0  0  0  0  0  0  0  0  0  0  0  # atno 8009 bound_to 7997
  155.2264  140.3311  155.4311 H   0  0  0  0  0  0  0  0  0  0  0  0  # atno 8010 bound_to 7997
  140.0637  144.5211  150.7276 H   0  0  0  0  0  0  0  0  0  0  0  0  # atno 10167 bound_to 10162
  156.2792  130.7311  151.1303 H   0  0  0  0  0  0  0  0  0  0  0  0  # atno 10718 bound_to 10713
  154.1428  135.2820  155.3156 H   0  0  0  0  0  0  0  0  0  0  0  0  # atno 10763 bound_to 10752
  154.6275  135.5446  153.7646 H   0  0  0  0  0  0  0  0  0  0  0  0  # atno 10764 bound_to 10752
  153.0245  135.6454  154.1574 H   0  0  0  0  0  0  0  0  0  0  0  0  # atno 10765 bound_to 10752
  140.7627  134.3280  157.5097 H   0  0  0  0  0  0  0  0  0  0  0  0  # atno 11005 bound_to 11000
  145.7258  139.1722  143.2458 LP  0  0  0  0  0  0  0  0  0  0  0  0  # atno 17320 bound_to 7965
  146.1243  140.7268  142.9442 LP  0  0  0  0  0  0  0  0  0  0  0  0  # atno 17321 bound_to 7965
  140.7159  143.2544  151.4434 LP  0  0  0  0  0  0  0  0  0  0  0  0  # atno 17342 bound_to 10162
  139.5878  144.1566  152.2051 LP  0  0  0  0  0  0  0  0  0  0  0  0  # atno 17343 bound_to 10162
  157.7309  131.0612  150.5704 LP  0  0  0  0  0  0  0  0  0  0  0  0  # atno 17370 bound_to 10713
  156.5808  130.4304  149.5978 LP  0  0  0  0  0  0  0  0  0  0  0  0  # atno 17371 bound_to 10713
  139.8768  134.9212  156.3269 LP  0  0  0  0  0  0  0  0  0  0  0  0  # atno 17394 bound_to 11000
  140.9648  133.7365  156.0452 LP  0  0  0  0  0  0  0  0  0  0  0  0  # atno 17395 bound_to 11000

$$$$
