AV-unprocessed.smi:1809|AV-procd|sdf|7325|dock10
  -GOLD-   22720 8583D 1   1.00000     0.00000
 Structure written by MMmdl.
 39 41  0  0  0  0  0  0  0  0  3 V2000
  146.9156  133.4735  162.3821 C   0  0  0  0  0  0  0  0  0  0  0  0
  146.9584  134.8616  161.8423 C   0  0  0  0  0  0  0  0  0  0  0  0
  147.6715  135.8364  162.4117 N   0  0  0  0  0  0  0  0  0  0  0  0
  147.5520  137.0383  161.7292 N   0  0  0  0  0  0  0  0  0  0  0  0
  146.7421  136.9595  160.6637 C   0  0  0  0  0  0  0  0  0  0  0  0
  146.4930  138.0129  159.8681 N   0  5  0  0  0  0  0  0  0  0  0  0
  145.3478  138.0615  159.1512 C   0  0  0  0  0  0  0  0  0  0  0  0
  144.4012  137.2749  159.2266 O   0  0  0  0  0  0  0  0  0  0  0  0
  145.2949  139.0861  158.2913 N   0  0  0  0  0  0  0  0  0  0  0  0
  144.1792  139.3744  157.4006 C   0  0  0  0  0  0  0  0  0  0  0  0
  144.6141  140.3290  156.2808 C   0  0  2  0  0  0  0  0  0  0  0  0
  145.6030  139.6610  155.3119 C   0  0  0  0  0  0  0  0  0  0  0  0
  146.0580  140.6066  154.2615 N   0  3  2  0  0  0  0  0  0  0  0  0
  147.2177  140.0877  153.5044 C   0  0  0  0  0  0  0  0  0  0  0  0
  148.4745  140.6915  154.1571 C   0  0  0  0  0  0  0  0  0  0  0  0
  147.9613  141.6949  155.1973 C   0  0  0  0  0  0  0  0  0  0  0  0
  146.4983  141.9095  154.8060 C   0  0  2  0  0  0  0  0  0  0  0  0
  145.5732  142.4489  155.9161 C   0  0  0  0  0  0  0  0  0  0  0  0
  145.2774  141.4404  156.8707 O   0  0  0  0  0  0  0  0  0  0  0  0
  146.0713  135.3487  160.4079 S   0  0  0  0  0  0  0  0  0  0  0  0
  146.2248  133.4228  163.2238 H   0  0  0  0  0  0  0  0  0  0  0  0
  147.9064  133.1689  162.7204 H   0  0  0  0  0  0  0  0  0  0  0  0
  146.5811  132.7780  161.6122 H   0  0  0  0  0  0  0  0  0  0  0  0
  146.0898  139.7069  158.2549 H   0  0  0  0  0  0  0  0  0  0  0  0
  143.7922  138.4453  156.9786 H   0  0  0  0  0  0  0  0  0  0  0  0
  143.3742  139.8254  157.9829 H   0  0  0  0  0  0  0  0  0  0  0  0
  143.7295  140.6637  155.7350 H   0  0  0  0  0  0  0  0  0  0  0  0
  146.4622  139.2894  155.8730 H   0  0  0  0  0  0  0  0  0  0  0  0
  145.1404  138.7965  154.8344 H   0  0  0  0  0  0  0  0  0  0  0  0
  147.2442  138.9975  153.4715 H   0  0  0  0  0  0  0  0  0  0  0  0
  147.1368  140.4398  152.4753 H   0  0  0  0  0  0  0  0  0  0  0  0
  149.0874  139.9236  154.6306 H   0  0  0  0  0  0  0  0  0  0  0  0
  149.0908  141.1864  153.4059 H   0  0  0  0  0  0  0  0  0  0  0  0
  148.0254  141.2580  156.1949 H   0  0  0  0  0  0  0  0  0  0  0  0
  148.5337  142.6230  155.2045 H   0  0  0  0  0  0  0  0  0  0  0  0
  146.4848  142.6219  153.9792 H   0  0  0  0  0  0  0  0  0  0  0  0
  146.0403  143.2947  156.4208 H   0  0  0  0  0  0  0  0  0  0  0  0
  144.6419  142.8205  155.4856 H   0  0  0  0  0  0  0  0  0  0  0  0
  145.2816  140.7591  153.6333 H   0  0  0  0  0  0  0  0  0  0  0  0
  1  2  1  0  0  0  0
  1 21  1  0  0  0  0
  1 22  1  0  0  0  0
  1 23  1  0  0  0  0
  2 20  1  0  0  0  0
  2  3  2  0  0  0  0
  3  4  1  0  0  0  0
  4  5  2  0  0  0  0
  5  6  1  0  0  0  0
  5 20  1  0  0  0  0
  6  7  1  0  0  0  0
  7  8  2  0  0  0  0
  7  9  1  0  0  0  0
  9 10  1  0  0  0  0
  9 24  1  0  0  0  0
 10 11  1  0  0  0  0
 10 25  1  0  0  0  0
 10 26  1  0  0  0  0
 11 19  1  0  0  0  0
 11 12  1  0  0  0  0
 11 27  1  0  0  0  0
 12 13  1  0  0  0  0
 12 28  1  0  0  0  0
 12 29  1  0  0  0  0
 13 17  1  0  0  0  0
 13 14  1  0  0  0  0
 13 39  1  0  0  0  0
 14 15  1  0  0  0  0
 14 30  1  0  0  0  0
 14 31  1  0  0  0  0
 15 16  1  0  0  0  0
 15 32  1  0  0  0  0
 15 33  1  0  0  0  0
 16 17  1  0  0  0  0
 16 34  1  0  0  0  0
 16 35  1  0  0  0  0
 17 18  1  0  0  0  0
 17 36  1  0  0  0  0
 18 19  1  0  0  0  0
 18 37  1  0  0  0  0
 18 38  1  0  0  0  0
M  CHG  1   6  -1
M  CHG  1  13   1
M  END
> <s_m_source_file>
AV-unprocessed.smi

> <i_m_source_file_index>
1809

> <i_lp_mmshare_version>
43012

> <i_f3d_flags>
0

> <s_epik_input>
W0NIM11jMW5uYyhzMSlbTkhdQyg9TylbTkhdW0NIMl1bQ0BIXShbQ0gyXTIpT1tDSDJdW0NAQEhdKE4yMylbQ0gyXVtDSDJdW0NIMl0z

> <s_epik_cmdline>
J2VwaWtfcHl0aG9uJywgJy1waCcsICc3LjAnLCAnLXRuJywgJzgnLCAnLW1hJywgJzIwMCcsICctbWV0YWxfYmluZGluZycsICctaW1hZScsICc8aW5maWxlLm1hZT4nLCAnLW9tYWUnLCAnPG91dGZpbGUubWFlPic=

> <r_lp_tautomer_probability>
1

> <r_epik_Ionization_Penalty>
3.2601

> <r_epik_Ionization_Penalty_Charging>
3.1406

> <r_epik_Ionization_Penalty_Neutral>
0.119497

> <r_epik_State_Penalty>
3.08894

> <r_epik_Charging_Adjusted_Penalty>
6.22954

> <i_epik_Tot_Q>
0

> <i_epik_Tot_abs_Q>
2

> <r_epik_Metal_State_Penalty>
0.510807

> <b_epik_Metal_Only>
1

> <s_lp_Force_Field>
OPLS_2005

> <r_lp_Energy>
31.3106

> <b_lp_Chiralities_Consistent>
1

> <s_lp_Variant>
AV-unprocessed.smi:1809-17

> <Gold.Version>
5.8.1

> <Gold.Id.Protein>
6NUR|6NUR_protein|mol2

> <Gold.PLP.Fitness>
35.7228

> <Gold.PLP.PLP>
-23.1458

> <Gold.PLP.part.hbond>
-3.8245

> <Gold.PLP.part.metal>
0.0000

> <Gold.PLP.part.buried>
-3.3892

> <Gold.PLP.part.nonpolar>
-17.3418

> <Gold.PLP.part.repulsive>
0.0821

> <Gold.PLP.ligand.clash>
0.0000

> <Gold.PLP.ligand.torsion>
0.3069

> <Gold.PLP.Chemscore.Hbond>
4.3920

> <Gold.PLP.Chemscore.CHOScore>
0.0000

> <Gold.PLP.Chemscore.Metal>
0.0000

> <Gold.Chemscore.Hbonds>
donor molecule, donor type, donor heavy atom, donor atom, acceptor molecule, acceptor atom, score
      L1  H    13    39       P1 10175  2.00
      P1  H  6931  6943       L1     4  1.00
      P1  H  6934  6947       L1     6  1.19

> <Gold.PLP.Chemscore.Internal.Correction>
0.0149

> <Gold.Rescore>
     Score         DG    S(hbond)    S(metal)    S(lipo)     H(rot)  DE(clash)    DE(int)     intcor
     13.62     -15.52       2.40        0.00      46.32       1.32       0.17       1.73       ----

> <Gold.Chemscore.Fitness>
13.6188

> <Gold.Chemscore.DG>
-15.5237

> <Gold.Chemscore.ZeroCoef>
-5.4800

> <Gold.Chemscore.Hbond>
2.3997

> <Gold.Chemscore.Metal>
0.0000

> <Gold.Chemscore.Lipo>
46.3206

> <Gold.Chemscore.Internal_Hbond>
0.0000

> <Gold.Chemscore.DEClash>
0.1702

> <Gold.Chemscore.DEInternal>
1.7346

> <Gold.Chemscore.Rot>
1.3246

> <Gold.Chemscore.Internal.Correction>
   9.000000E+99

> <Gold.Chemscore.Hbonds>
donor molecule, donor type, donor heavy atom, donor atom, acceptor molecule, acceptor atom, score
      L1  H    13    39       P1 10175  0.90
      P1  H  6931  6943       L1     4  0.89
      P1  H  6934  6947       L1     6  0.05

> <Gold.Chemscore.Hbond.Weighted>
-8.0151

> <Gold.Chemscore.Metal.Weighted>
-0.0000

> <Gold.Chemscore.Lipo.Weighted>
-5.4195

> <Gold.Chemscore.Internal_Hbond.Weighted>
0.0000

> <Gold.Chemscore.DEClash.Weighted>
0.1702

> <Gold.Chemscore.DEInternal.Weighted>
1.7346

> <Gold.Chemscore.Rot.Weighted>
3.3910

> <Gold.Chemscore.Internal.Correction.Weighted>
   9.000000E+99

> <Gold.Protein.RotatedTorsions>
[ 6907 6896 6895 6894 ] final    0.67 input  -60.11 | X-H torsion
[ 7974 7965 7964 7962 ] final  127.18 input  175.53 | X-H torsion
[ 8008 7997 7996 7995 ] final  106.51 input   59.86 | X-H torsion
[ 10167 10162 10161 10158 ] final  157.92 input  -65.29 | X-H torsion
[ 10718 10713 10712 10709 ] final    5.39 input   66.30 | X-H torsion
[ 10763 10752 10751 10750 ] final -112.45 input  -60.55 | X-H torsion
[ 11005 11000 10999 10996 ] final   54.49 input  -57.11 | X-H torsion

> <Gold.Protein.ActiveResidues>
 VAL166  LYS551  ARG553  GLY616  TRP617  ASP618  TYR619  PRO620  LYS621  CYS622 
 ASP623  PHE694  ASN695  SER759  ASP760  ASP761  ALA762  ILE779  LEU786  VAL792 
 PHE793  MET794  SER795  GLU796  ALA797  LYS798  CYS799  TRP800  GLU811  SER814 

> <Gold.Protein.RotatedAtoms>
  151.5803  135.1059  160.0015 H   0  0  0  0  0  0  0  0  0  0  0  0  # atno 6907 bound_to 6896
  152.4357  133.7353  159.6621 H   0  0  0  0  0  0  0  0  0  0  0  0  # atno 6908 bound_to 6896
  150.8255  133.8109  159.3143 H   0  0  0  0  0  0  0  0  0  0  0  0  # atno 6909 bound_to 6896
  145.0534  139.3864  143.5042 H   0  0  0  0  0  0  0  0  0  0  0  0  # atno 7974 bound_to 7965
  156.1749  140.3111  155.9041 H   0  0  0  0  0  0  0  0  0  0  0  0  # atno 8008 bound_to 7997
  155.3509  140.0471  157.3063 H   0  0  0  0  0  0  0  0  0  0  0  0  # atno 8009 bound_to 7997
  154.5279  140.2221  155.8866 H   0  0  0  0  0  0  0  0  0  0  0  0  # atno 8010 bound_to 7997
  139.4825  144.4872  151.8360 H   0  0  0  0  0  0  0  0  0  0  0  0  # atno 10167 bound_to 10162
  156.9066  130.5741  149.5647 H   0  0  0  0  0  0  0  0  0  0  0  0  # atno 10718 bound_to 10713
  154.8350  135.4490  154.1195 H   0  0  0  0  0  0  0  0  0  0  0  0  # atno 10763 bound_to 10752
  153.2435  135.6919  153.7763 H   0  0  0  0  0  0  0  0  0  0  0  0  # atno 10764 bound_to 10752
  153.7102  135.3358  155.3220 H   0  0  0  0  0  0  0  0  0  0  0  0  # atno 10765 bound_to 10752
  140.0682  134.5507  155.9076 H   0  0  0  0  0  0  0  0  0  0  0  0  # atno 11005 bound_to 11000
  146.3519  140.0196  142.8660 LP  0  0  0  0  0  0  0  0  0  0  0  0  # atno 17320 bound_to 7965
  145.1498  140.9617  143.4439 LP  0  0  0  0  0  0  0  0  0  0  0  0  # atno 17321 bound_to 7965
  140.4353  144.2060  150.5889 LP  0  0  0  0  0  0  0  0  0  0  0  0  # atno 17342 bound_to 10162
  140.4738  143.2403  151.9052 LP  0  0  0  0  0  0  0  0  0  0  0  0  # atno 17343 bound_to 10162
  156.0556  130.5618  150.9084 LP  0  0  0  0  0  0  0  0  0  0  0  0  # atno 17370 bound_to 10713
  157.5993  131.0942  150.8987 LP  0  0  0  0  0  0  0  0  0  0  0  0  # atno 17371 bound_to 10713
  141.2001  133.6610  156.5880 LP  0  0  0  0  0  0  0  0  0  0  0  0  # atno 17394 bound_to 11000
  140.3667  134.7641  157.4571 LP  0  0  0  0  0  0  0  0  0  0  0  0  # atno 17395 bound_to 11000

$$$$
