AV-unprocessed.smi:3019|AV-procd|sdf|11486|dock1
  -GOLD-   2272016423D 1   1.00000     0.00000
 Structure written by MMmdl.
 31 32  0  0  0  0  0  0  0  0  2 V2000
  152.1434  144.4194  157.9339 C   0  0  0  0  0  0  0  0  0  0  0  0
  151.6977  143.0961  158.5730 C   0  0  0  0  0  0  0  0  0  0  0  0
  152.7286  142.5678  159.5813 C   0  0  0  0  0  0  0  0  0  0  0  0
  151.3582  142.0677  157.5375 C   0  0  0  0  0  0  0  0  0  0  0  0
  151.8937  140.8447  157.5450 N   0  0  0  0  0  0  0  0  0  0  0  0
  151.4041  140.1340  156.5071 N   0  0  0  0  0  0  0  0  0  0  0  0
  150.5964  141.0170  155.9217 C   0  0  0  0  0  0  0  0  0  0  0  0
  149.7869  140.6381  154.7209 C   0  0  1  0  0  0  0  0  0  0  0  0
  149.9531  139.1513  154.3543 C   0  0  0  0  0  0  0  0  0  0  0  0
  149.0569  138.8071  153.2335 N   0  3  0  0  0  0  0  0  0  0  0  0
  147.6548  139.1570  153.5361 C   0  0  0  0  0  0  0  0  0  0  0  0
  147.5525  140.6387  153.9404 C   0  0  0  0  0  0  0  0  0  0  0  0
  148.4212  140.9003  155.0377 O   0  0  0  0  0  0  0  0  0  0  0  0
  150.5084  142.2399  156.5293 N   0  0  0  0  0  0  0  0  0  0  0  0
  151.3731  144.8133  157.2703 H   0  0  0  0  0  0  0  0  0  0  0  0
  153.0538  144.2915  157.3474 H   0  0  0  0  0  0  0  0  0  0  0  0
  152.3419  145.1754  158.6941 H   0  0  0  0  0  0  0  0  0  0  0  0
  150.7847  143.3049  159.1326 H   0  0  0  0  0  0  0  0  0  0  0  0
  152.3690  141.6628  160.0717 H   0  0  0  0  0  0  0  0  0  0  0  0
  152.9315  143.3052  160.3586 H   0  0  0  0  0  0  0  0  0  0  0  0
  153.6751  142.3300  159.0951 H   0  0  0  0  0  0  0  0  0  0  0  0
  150.0879  141.2687  153.8818 H   0  0  0  0  0  0  0  0  0  0  0  0
  150.9841  138.9352  154.0727 H   0  0  0  0  0  0  0  0  0  0  0  0
  149.7127  138.5182  155.2098 H   0  0  0  0  0  0  0  0  0  0  0  0
  149.3496  139.3218  152.4151 H   0  0  0  0  0  0  0  0  0  0  0  0
  147.0342  138.9533  152.6631 H   0  0  0  0  0  0  0  0  0  0  0  0
  147.2929  138.5203  154.3447 H   0  0  0  0  0  0  0  0  0  0  0  0
  147.8031  141.2894  153.1011 H   0  0  0  0  0  0  0  0  0  0  0  0
  146.5304  140.8788  154.2341 H   0  0  0  0  0  0  0  0  0  0  0  0
  149.1231  137.8174  153.0415 H   0  0  0  0  0  0  0  0  0  0  0  0
  152.5567  140.4689  158.2083 H   0  0  0  0  0  0  0  0  0  0  0  0
  1  2  1  0  0  0  0
  1 15  1  0  0  0  0
  1 16  1  0  0  0  0
  1 17  1  0  0  0  0
  2  3  1  0  0  0  0
  2  4  1  0  0  0  0
  2 18  1  0  0  0  0
  3 19  1  0  0  0  0
  3 20  1  0  0  0  0
  3 21  1  0  0  0  0
  4 14  2  0  0  0  0
  4  5  1  0  0  0  0
  5  6  1  0  0  0  0
  5 31  1  0  0  0  0
  6  7  2  0  0  0  0
  7  8  1  0  0  0  0
  7 14  1  0  0  0  0
  8 13  1  0  0  0  0
  8  9  1  0  0  0  0
  8 22  1  0  0  0  0
  9 10  1  0  0  0  0
  9 23  1  0  0  0  0
  9 24  1  0  0  0  0
 10 11  1  0  0  0  0
 10 25  1  0  0  0  0
 10 30  1  0  0  0  0
 11 12  1  0  0  0  0
 11 26  1  0  0  0  0
 11 27  1  0  0  0  0
 12 13  1  0  0  0  0
 12 28  1  0  0  0  0
 12 29  1  0  0  0  0
M  CHG  1  10   1
M  END
> <s_m_source_file>
AV-unprocessed.smi

> <i_m_source_file_index>
3019

> <i_lp_mmshare_version>
43012

> <i_f3d_flags>
0

> <s_epik_input>
W0NIM11bQ0hdKFtDSDNdKWMxbltuSF1jKG4xKVtDQEBIXTJbQ0gyXVtOSF1bQ0gyXVtDSDJdTzI=

> <s_epik_cmdline>
J2VwaWtfcHl0aG9uJywgJy1waCcsICc3LjAnLCAnLXRuJywgJzgnLCAnLW1hJywgJzIwMCcsICctbWV0YWxfYmluZGluZycsICctaW1hZScsICc8aW5maWxlLm1hZT4nLCAnLW9tYWUnLCAnPG91dGZpbGUubWFlPic=

> <r_lp_tautomer_probability>
0.948284

> <r_epik_Ionization_Penalty>
0.108767

> <r_epik_Ionization_Penalty_Charging>
0.100865

> <r_epik_Ionization_Penalty_Neutral>
0.00790271

> <r_epik_State_Penalty>
0.197684

> <r_epik_Charging_Adjusted_Penalty>
0.298549

> <i_epik_Tot_Q>
1

> <i_epik_Tot_abs_Q>
1

> <r_epik_Metal_State_Penalty>
0.508163

> <b_epik_Metal_Only>
0

> <s_lp_Force_Field>
OPLS_2005

> <r_lp_Energy>
9.87309

> <b_lp_Chiralities_Consistent>
1

> <s_lp_Variant>
AV-unprocessed.smi:3019-2

> <Gold.Version>
5.8.1

> <Gold.Id.Protein>
6NUR|6NUR_protein|mol2

> <Gold.PLP.Fitness>
37.4384

> <Gold.PLP.PLP>
-28.6632

> <Gold.PLP.part.hbond>
-2.0000

> <Gold.PLP.part.metal>
0.0000

> <Gold.PLP.part.buried>
-3.8421

> <Gold.PLP.part.nonpolar>
-24.2826

> <Gold.PLP.part.repulsive>
0.7784

> <Gold.PLP.ligand.clash>
0.0000

> <Gold.PLP.ligand.torsion>
0.1160

> <Gold.PLP.Chemscore.Hbond>
2.9840

> <Gold.PLP.Chemscore.CHOScore>
0.0000

> <Gold.PLP.Chemscore.Metal>
0.0000

> <Gold.Chemscore.Hbonds>
donor molecule, donor type, donor heavy atom, donor atom, acceptor molecule, acceptor atom, score
      L1  H    10    25       P1  7957  0.83
      L1  H    10    30       P1  7948  2.00

> <Gold.PLP.Chemscore.Internal.Correction>
0.0552

> <Gold.Rescore>
     Score         DG    S(hbond)    S(metal)    S(lipo)     H(rot)  DE(clash)    DE(int)     intcor
     16.05     -16.11       1.92        0.00      63.91       1.28       0.03       0.03       ----

> <Gold.Chemscore.Fitness>
16.0461

> <Gold.Chemscore.DG>
-16.1053

> <Gold.Chemscore.ZeroCoef>
-5.4800

> <Gold.Chemscore.Hbond>
1.9233

> <Gold.Chemscore.Metal>
0.0000

> <Gold.Chemscore.Lipo>
63.9056

> <Gold.Chemscore.Internal_Hbond>
0.0000

> <Gold.Chemscore.DEClash>
0.0280

> <Gold.Chemscore.DEInternal>
0.0311

> <Gold.Chemscore.Rot>
1.2795

> <Gold.Chemscore.Internal.Correction>
   9.000000E+99

> <Gold.Chemscore.Hbonds>
donor molecule, donor type, donor heavy atom, donor atom, acceptor molecule, acceptor atom, score
      L1  H    10    25       P1  7957  0.80
      L1  H    10    30       P1  7948  0.94

> <Gold.Chemscore.Hbond.Weighted>
-6.4237

> <Gold.Chemscore.Metal.Weighted>
-0.0000

> <Gold.Chemscore.Lipo.Weighted>
-7.4770

> <Gold.Chemscore.Internal_Hbond.Weighted>
0.0000

> <Gold.Chemscore.DEClash.Weighted>
0.0280

> <Gold.Chemscore.DEInternal.Weighted>
0.0311

> <Gold.Chemscore.Rot.Weighted>
3.2754

> <Gold.Chemscore.Internal.Correction.Weighted>
   9.000000E+99

> <Gold.Protein.RotatedTorsions>
[ 6907 6896 6895 6894 ] final -123.61 input  -60.11 | X-H torsion
[ 7974 7965 7964 7962 ] final    8.42 input  175.53 | X-H torsion
[ 8008 7997 7996 7995 ] final -132.42 input   59.86 | X-H torsion
[ 10167 10162 10161 10158 ] final  -42.79 input  -65.29 | X-H torsion
[ 10718 10713 10712 10709 ] final   51.04 input   66.30 | X-H torsion
[ 10763 10752 10751 10750 ] final -158.91 input  -60.55 | X-H torsion
[ 11005 11000 10999 10996 ] final  -59.73 input  -57.11 | X-H torsion

> <Gold.Protein.ActiveResidues>
 VAL166  LYS551  ARG553  GLY616  TRP617  ASP618  TYR619  PRO620  LYS621  CYS622 
 ASP623  PHE694  ASN695  SER759  ASP760  ASP761  ALA762  ILE779  LEU786  VAL792 
 PHE793  MET794  SER795  GLU796  ALA797  LYS798  CYS799  TRP800  GLU811  SER814 

> <Gold.Protein.RotatedAtoms>
  150.8687  133.7536  159.2967 H   0  0  0  0  0  0  0  0  0  0  0  0  # atno 6907 bound_to 6896
  151.5155  135.1064  159.9874 H   0  0  0  0  0  0  0  0  0  0  0  0  # atno 6908 bound_to 6896
  152.4680  133.7921  159.6963 H   0  0  0  0  0  0  0  0  0  0  0  0  # atno 6909 bound_to 6896
  146.2416  139.9936  142.8423 H   0  0  0  0  0  0  0  0  0  0  0  0  # atno 7974 bound_to 7965
  155.3286  140.0466  157.3042 H   0  0  0  0  0  0  0  0  0  0  0  0  # atno 8008 bound_to 7997
  154.5340  140.2266  155.8720 H   0  0  0  0  0  0  0  0  0  0  0  0  # atno 8009 bound_to 7997
  156.1817  140.3072  155.9167 H   0  0  0  0  0  0  0  0  0  0  0  0  # atno 8010 bound_to 7997
  140.6957  143.3018  151.3259 H   0  0  0  0  0  0  0  0  0  0  0  0  # atno 10167 bound_to 10162
  157.4943  130.8396  149.8240 H   0  0  0  0  0  0  0  0  0  0  0  0  # atno 10718 bound_to 10713
  154.7518  135.3094  154.8543 H   0  0  0  0  0  0  0  0  0  0  0  0  # atno 10763 bound_to 10752
  153.9328  135.6783  153.4749 H   0  0  0  0  0  0  0  0  0  0  0  0  # atno 10764 bound_to 10752
  153.1114  135.4864  154.8970 H   0  0  0  0  0  0  0  0  0  0  0  0  # atno 10765 bound_to 10752
  141.1260  133.6618  156.5116 H   0  0  0  0  0  0  0  0  0  0  0  0  # atno 11005 bound_to 11000
  145.1480  140.9607  143.4449 LP  0  0  0  0  0  0  0  0  0  0  0  0  # atno 17320 bound_to 7965
  145.0232  139.3405  143.6062 LP  0  0  0  0  0  0  0  0  0  0  0  0  # atno 17321 bound_to 7965
  139.6409  144.0541  152.2553 LP  0  0  0  0  0  0  0  0  0  0  0  0  # atno 17342 bound_to 10162
  140.0046  144.6268  150.7700 LP  0  0  0  0  0  0  0  0  0  0  0  0  # atno 17343 bound_to 10162
  156.0191  130.3802  150.2017 LP  0  0  0  0  0  0  0  0  0  0  0  0  # atno 17370 bound_to 10713
  157.0206  130.9978  151.3341 LP  0  0  0  0  0  0  0  0  0  0  0  0  # atno 17371 bound_to 10713
  140.4364  134.7055  157.4969 LP  0  0  0  0  0  0  0  0  0  0  0  0  # atno 17394 bound_to 11000
  140.0258  134.6478  155.9174 LP  0  0  0  0  0  0  0  0  0  0  0  0  # atno 17395 bound_to 11000

$$$$
