AV-unprocessed.smi:2865|AV-procd|sdf|11017|dock1
  -GOLD-   2272015473D 1   1.00000     0.00000
 Structure written by MMmdl.
 38 41  0  0  0  0  0  0  0  0  1 V2000
  149.1309  135.4037  156.2219 O   0  0  0  0  0  0  0  0  0  0  0  0
  149.0607  135.6394  155.0181 C   0  0  0  0  0  0  0  0  0  0  0  0
  149.4638  136.7843  154.4339 N   0  0  0  0  0  0  0  0  0  0  0  0
  149.9679  137.9647  155.0422 C   0  0  0  0  0  0  0  0  0  0  0  0
  150.3914  139.0270  154.2160 C   0  0  0  0  0  0  0  0  0  0  0  0
  150.8606  140.1867  154.7238 N   0  0  0  0  0  0  0  0  0  0  0  0
  150.9115  140.2848  156.0550 C   0  0  0  0  0  0  0  0  0  0  0  0
  151.3915  141.5879  156.6149 C   0  0  0  0  0  0  0  0  0  0  0  0
  151.6631  141.7412  158.0976 C   0  0  0  0  0  0  0  0  0  0  0  0
  150.4869  142.4433  157.4782 C   0  0  0  0  0  0  0  0  0  0  0  0
  150.5210  139.3602  156.9364 N   0  0  0  0  0  0  0  0  0  0  0  0
  150.0509  138.1963  156.4376 C   0  0  0  0  0  0  0  0  0  0  0  0
  148.5784  134.7249  154.1586 N   0  0  0  0  0  0  0  0  0  0  0  0
  148.0619  133.3880  154.4621 C   0  0  2  0  0  0  0  0  0  0  0  0
  148.6474  132.3254  153.5274 C   0  0  0  0  0  0  0  0  0  0  0  0
  147.3850  131.7237  152.8953 C   0  0  2  0  0  0  0  0  0  0  0  0
  146.7370  132.6811  151.8855 C   0  0  0  0  0  0  0  0  0  0  0  0
  146.1122  133.7289  152.8051 C   0  0  0  0  0  0  0  0  0  0  0  0
  146.5501  133.2287  154.1918 C   0  0  1  0  0  0  0  0  0  0  0  0
  146.4776  131.8294  153.9790 O   0  0  0  0  0  0  0  0  0  0  0  0
  149.4193  136.8037  153.4256 H   0  0  0  0  0  0  0  0  0  0  0  0
  150.3516  138.9491  153.1393 H   0  0  0  0  0  0  0  0  0  0  0  0
  152.0582  142.0953  155.9202 H   0  0  0  0  0  0  0  0  0  0  0  0
  151.4541  140.8904  158.7432 H   0  0  0  0  0  0  0  0  0  0  0  0
  152.5158  142.3502  158.3907 H   0  0  0  0  0  0  0  0  0  0  0  0
  150.5531  143.5224  157.3562 H   0  0  0  0  0  0  0  0  0  0  0  0
  149.4953  142.0603  157.7119 H   0  0  0  0  0  0  0  0  0  0  0  0
  149.7268  137.4760  157.1719 H   0  0  0  0  0  0  0  0  0  0  0  0
  148.5747  134.9837  153.1826 H   0  0  0  0  0  0  0  0  0  0  0  0
  148.2916  133.1150  155.4938 H   0  0  0  0  0  0  0  0  0  0  0  0
  149.3301  132.7259  152.7765 H   0  0  0  0  0  0  0  0  0  0  0  0
  149.1862  131.5717  154.1028 H   0  0  0  0  0  0  0  0  0  0  0  0
  147.5205  130.7093  152.5194 H   0  0  0  0  0  0  0  0  0  0  0  0
  147.4641  133.1058  151.1923 H   0  0  0  0  0  0  0  0  0  0  0  0
  145.9659  132.1733  151.3054 H   0  0  0  0  0  0  0  0  0  0  0  0
  146.4418  134.7442  152.5844 H   0  0  0  0  0  0  0  0  0  0  0  0
  145.0252  133.7053  152.7192 H   0  0  0  0  0  0  0  0  0  0  0  0
  145.9174  133.5845  155.0053 H   0  0  0  0  0  0  0  0  0  0  0  0
  1  2  2  0  0  0  0
  2  3  1  0  0  0  0
  2 13  1  0  0  0  0
  3  4  1  0  0  0  0
  3 21  1  0  0  0  0
  4 12  1  0  0  0  0
  4  5  2  0  0  0  0
  5  6  1  0  0  0  0
  5 22  1  0  0  0  0
  6  7  2  0  0  0  0
  7  8  1  0  0  0  0
  7 11  1  0  0  0  0
  8 10  1  0  0  0  0
  8  9  1  0  0  0  0
  8 23  1  0  0  0  0
  9 10  1  0  0  0  0
  9 24  1  0  0  0  0
  9 25  1  0  0  0  0
 10 26  1  0  0  0  0
 10 27  1  0  0  0  0
 11 12  2  0  0  0  0
 12 28  1  0  0  0  0
 13 14  1  0  0  0  0
 13 29  1  0  0  0  0
 14 19  1  0  0  0  0
 14 15  1  0  0  0  0
 14 30  1  0  0  0  0
 15 16  1  0  0  0  0
 15 31  1  0  0  0  0
 15 32  1  0  0  0  0
 16 20  1  0  0  0  0
 16 17  1  0  0  0  0
 16 33  1  0  0  0  0
 17 18  1  0  0  0  0
 17 34  1  0  0  0  0
 17 35  1  0  0  0  0
 18 19  1  0  0  0  0
 18 36  1  0  0  0  0
 18 37  1  0  0  0  0
 19 20  1  0  0  0  0
 19 38  1  0  0  0  0
M  END
> <s_m_source_file>
AV-unprocessed.smi

> <i_m_source_file_index>
2865

> <i_lp_mmshare_version>
43012

> <i_f3d_flags>
0

> <s_epik_input>
W0NIMl0xW0NIMl1bQ0BIXShPMilbQ0BASF0oW0NIMl1bQ0BASF0xMilbTkhdQyg9TylbTkhdYzNbY0hdbmMobltjSF0zKVtDSF00W0NIMl1bQ0gyXTQ=

> <s_epik_cmdline>
J2VwaWtfcHl0aG9uJywgJy1waCcsICc3LjAnLCAnLXRuJywgJzgnLCAnLW1hJywgJzIwMCcsICctbWV0YWxfYmluZGluZycsICctaW1hZScsICc8aW5maWxlLm1hZT4nLCAnLW9tYWUnLCAnPG91dGZpbGUubWFlPic=

> <r_lp_tautomer_probability>
1

> <r_epik_Ionization_Penalty>
2.43104e-05

> <r_epik_Ionization_Penalty_Charging>
0

> <r_epik_Ionization_Penalty_Neutral>
2.43104e-05

> <r_epik_State_Penalty>
-0

> <r_epik_Charging_Adjusted_Penalty>
0

> <i_epik_Tot_Q>
0

> <i_epik_Tot_abs_Q>
0

> <r_epik_Metal_State_Penalty>
-0

> <b_epik_Metal_Only>
0

> <s_lp_Force_Field>
OPLS_2005

> <r_lp_Energy>
44.6282

> <b_lp_Chiralities_Consistent>
1

> <s_lp_Variant>
AV-unprocessed.smi:2865-3

> <Gold.Version>
5.8.1

> <Gold.Id.Protein>
6NUR|6NUR_protein|mol2

> <Gold.PLP.Fitness>
38.6566

> <Gold.PLP.PLP>
-26.8916

> <Gold.PLP.part.hbond>
-3.0000

> <Gold.PLP.part.metal>
0.0000

> <Gold.PLP.part.buried>
-3.0425

> <Gold.PLP.part.nonpolar>
-20.8506

> <Gold.PLP.part.repulsive>
0.2514

> <Gold.PLP.ligand.clash>
0.0000

> <Gold.PLP.ligand.torsion>
0.1899

> <Gold.PLP.Chemscore.Hbond>
3.0000

> <Gold.PLP.Chemscore.CHOScore>
1.0000

> <Gold.PLP.Chemscore.Metal>
0.0000

> <Gold.Chemscore.Hbonds>
donor molecule, donor type, donor heavy atom, donor atom, acceptor molecule, acceptor atom, score
      L1  H     3    21       P1  7948  1.00
      L1  H    13    29       P1  7948  1.00
      P1  H  7989  7998       L1     6  1.00
      L1  C     5    22       P1  7957  1.00

> <Gold.PLP.Chemscore.Internal.Correction>
0.1448

> <Gold.Rescore>
     Score         DG    S(hbond)    S(metal)    S(lipo)     H(rot)  DE(clash)    DE(int)     intcor
     16.90     -18.40       2.51        0.00      65.17       1.20       0.06       1.43       ----

> <Gold.Chemscore.Fitness>
16.9026

> <Gold.Chemscore.DG>
-18.3983

> <Gold.Chemscore.ZeroCoef>
-5.4800

> <Gold.Chemscore.Hbond>
2.5054

> <Gold.Chemscore.Metal>
0.0000

> <Gold.Chemscore.Lipo>
65.1739

> <Gold.Chemscore.Internal_Hbond>
0.0000

> <Gold.Chemscore.DEClash>
0.0609

> <Gold.Chemscore.DEInternal>
1.4347

> <Gold.Chemscore.Rot>
1.2012

> <Gold.Chemscore.Internal.Correction>
   9.000000E+99

> <Gold.Chemscore.Hbonds>
donor molecule, donor type, donor heavy atom, donor atom, acceptor molecule, acceptor atom, score
      L1  H     3    21       P1  7948  0.87
      L1  H    13    29       P1  7948  0.62
      P1  H  7989  7998       L1     6  0.44

> <Gold.Chemscore.Hbond.Weighted>
-8.3681

> <Gold.Chemscore.Metal.Weighted>
-0.0000

> <Gold.Chemscore.Lipo.Weighted>
-7.6254

> <Gold.Chemscore.Internal_Hbond.Weighted>
0.0000

> <Gold.Chemscore.DEClash.Weighted>
0.0609

> <Gold.Chemscore.DEInternal.Weighted>
1.4347

> <Gold.Chemscore.Rot.Weighted>
3.0752

> <Gold.Chemscore.Internal.Correction.Weighted>
   9.000000E+99

> <Gold.Protein.RotatedTorsions>
[ 6907 6896 6895 6894 ] final -144.61 input  -60.11 | X-H torsion
[ 7974 7965 7964 7962 ] final -149.35 input  175.53 | X-H torsion
[ 8008 7997 7996 7995 ] final  103.38 input   59.86 | X-H torsion
[ 10167 10162 10161 10158 ] final -160.93 input  -65.29 | X-H torsion
[ 10718 10713 10712 10709 ] final -121.13 input   66.30 | X-H torsion
[ 10763 10752 10751 10750 ] final  -22.83 input  -60.55 | X-H torsion
[ 11005 11000 10999 10996 ] final  -84.19 input  -57.11 | X-H torsion

> <Gold.Protein.ActiveResidues>
 VAL166  LYS551  ARG553  GLY616  TRP617  ASP618  TYR619  PRO620  LYS621  CYS622 
 ASP623  PHE694  ASN695  SER759  ASP760  ASP761  ALA762  ILE779  LEU786  VAL792 
 PHE793  MET794  SER795  GLU796  ALA797  LYS798  CYS799  TRP800  GLU811  SER814 

> <Gold.Protein.RotatedAtoms>
  151.1164  133.5135  159.2603 H   0  0  0  0  0  0  0  0  0  0  0  0  # atno 6907 bound_to 6896
  151.1910  135.0402  159.8842 H   0  0  0  0  0  0  0  0  0  0  0  0  # atno 6908 bound_to 6896
  152.5453  134.1004  159.8369 H   0  0  0  0  0  0  0  0  0  0  0  0  # atno 6909 bound_to 6896
  144.7973  140.5076  143.5731 H   0  0  0  0  0  0  0  0  0  0  0  0  # atno 7974 bound_to 7965
  156.1479  140.3165  155.8599 H   0  0  0  0  0  0  0  0  0  0  0  0  # atno 8008 bound_to 7997
  155.4029  140.0501  157.3053 H   0  0  0  0  0  0  0  0  0  0  0  0  # atno 8009 bound_to 7997
  154.5032  140.2137  155.9316 H   0  0  0  0  0  0  0  0  0  0  0  0  # atno 8010 bound_to 7997
  139.6503  144.0097  152.2156 H   0  0  0  0  0  0  0  0  0  0  0  0  # atno 10167 bound_to 10162
  156.1313  130.6397  150.9625 H   0  0  0  0  0  0  0  0  0  0  0  0  # atno 10718 bound_to 10713
  153.6582  135.6977  153.5186 H   0  0  0  0  0  0  0  0  0  0  0  0  # atno 10763 bound_to 10752
  153.2652  135.4232  155.0933 H   0  0  0  0  0  0  0  0  0  0  0  0  # atno 10764 bound_to 10752
  154.8459  135.3565  154.6127 H   0  0  0  0  0  0  0  0  0  0  0  0  # atno 10765 bound_to 10752
  141.1652  133.7333  156.8831 H   0  0  0  0  0  0  0  0  0  0  0  0  # atno 11005 bound_to 11000
  145.5642  139.1480  143.3324 LP  0  0  0  0  0  0  0  0  0  0  0  0  # atno 17320 bound_to 7965
  146.2244  140.5777  142.9003 LP  0  0  0  0  0  0  0  0  0  0  0  0  # atno 17321 bound_to 7965
  139.9809  144.6429  150.7901 LP  0  0  0  0  0  0  0  0  0  0  0  0  # atno 17342 bound_to 10162
  140.7534  143.3008  151.3085 LP  0  0  0  0  0  0  0  0  0  0  0  0  # atno 17343 bound_to 10162
  157.6490  131.0900  150.8091 LP  0  0  0  0  0  0  0  0  0  0  0  0  # atno 17370 bound_to 10713
  156.8176  130.4973  149.5347 LP  0  0  0  0  0  0  0  0  0  0  0  0  # atno 17371 bound_to 10713
  140.1701  134.9106  157.2822 LP  0  0  0  0  0  0  0  0  0  0  0  0  # atno 17394 bound_to 11000
  140.2512  134.3681  155.7441 LP  0  0  0  0  0  0  0  0  0  0  0  0  # atno 17395 bound_to 11000

$$$$
