AV-unprocessed.smi:2021|AV-procd|sdf|8179|dock2
  -GOLD-   2272010433D 1   1.00000     0.00000
 Structure written by MMmdl.
 41 42  0  0  0  0  0  0  0  0  1 V2000
  148.9555  141.4431  157.8253 C   0  0  0  0  0  0  0  0  0  0  0  0
  150.4607  141.7188  157.6691 C   0  0  0  0  0  0  0  0  0  0  0  0
  150.9715  142.7938  158.6441 C   0  0  0  0  0  0  0  0  0  0  0  0
  150.9047  141.9434  156.2024 C   0  0  0  0  0  0  0  0  0  0  0  0
  150.7463  140.8269  155.2644 N   0  0  0  0  0  0  0  0  0  0  0  0
  151.3047  139.5726  155.7618 C   0  0  0  0  0  0  0  0  0  0  0  0
  151.0769  138.4093  154.7817 C   0  0  0  0  0  0  0  0  0  0  0  0
  149.6875  138.2806  154.5047 O   0  0  0  0  0  0  0  0  0  0  0  0
  149.1233  139.4655  153.9488 C   0  0  1  0  0  0  0  0  0  0  0  0
  147.6319  139.2124  153.6706 C   0  0  0  0  0  0  0  0  0  0  0  0
  147.4179  137.9259  153.0165 N   0  0  0  0  0  0  0  0  0  0  0  0
  146.2367  137.3009  152.9145 C   0  0  0  0  0  0  0  0  0  0  0  0
  145.1925  137.7424  153.3943 O   0  0  0  0  0  0  0  0  0  0  0  0
  146.3526  136.1535  152.2267 N   0  0  0  0  0  0  0  0  0  0  0  0
  145.3320  135.2262  151.8993 C   0  0  0  0  0  0  0  0  0  0  0  0
  145.6954  134.0543  151.3650 N   0  0  0  0  0  0  0  0  0  0  0  0
  144.5999  133.2440  151.0923 N   0  0  0  0  0  0  0  0  0  0  0  0
  143.4516  133.8375  151.4320 C   0  0  0  0  0  0  0  0  0  0  0  0
  143.5934  135.4455  152.1201 S   0  0  0  0  0  0  0  0  0  0  0  0
  149.3364  140.6220  154.9446 C   0  0  0  0  0  0  0  0  0  0  0  0
  148.3562  142.3227  157.5905 H   0  0  0  0  0  0  0  0  0  0  0  0
  148.7165  141.1475  158.8473 H   0  0  0  0  0  0  0  0  0  0  0  0
  148.6354  140.6356  157.1663 H   0  0  0  0  0  0  0  0  0  0  0  0
  150.9649  140.8031  157.9806 H   0  0  0  0  0  0  0  0  0  0  0  0
  150.4893  143.7581  158.4980 H   0  0  0  0  0  0  0  0  0  0  0  0
  152.0468  142.9407  158.5380 H   0  0  0  0  0  0  0  0  0  0  0  0
  150.7858  142.4963  159.6764 H   0  0  0  0  0  0  0  0  0  0  0  0
  150.4247  142.8375  155.8021 H   0  0  0  0  0  0  0  0  0  0  0  0
  151.9671  142.1880  156.2438 H   0  0  0  0  0  0  0  0  0  0  0  0
  152.3764  139.6727  155.9159 H   0  0  0  0  0  0  0  0  0  0  0  0
  150.8636  139.3260  156.7288 H   0  0  0  0  0  0  0  0  0  0  0  0
  151.6258  138.5732  153.8532 H   0  0  0  0  0  0  0  0  0  0  0  0
  151.4433  137.4760  155.2094 H   0  0  0  0  0  0  0  0  0  0  0  0
  149.6325  139.7007  153.0122 H   0  0  0  0  0  0  0  0  0  0  0  0
  147.0702  139.2198  154.6050 H   0  0  0  0  0  0  0  0  0  0  0  0
  147.2186  140.0133  153.0553 H   0  0  0  0  0  0  0  0  0  0  0  0
  148.2247  137.4950  152.5897 H   0  0  0  0  0  0  0  0  0  0  0  0
  147.2753  135.9187  151.8919 H   0  0  0  0  0  0  0  0  0  0  0  0
  142.5145  133.3242  151.2762 H   0  0  0  0  0  0  0  0  0  0  0  0
  148.7773  140.4191  155.8596 H   0  0  0  0  0  0  0  0  0  0  0  0
  148.9194  141.5371  154.5226 H   0  0  0  0  0  0  0  0  0  0  0  0
  1  2  1  0  0  0  0
  1 21  1  0  0  0  0
  1 22  1  0  0  0  0
  1 23  1  0  0  0  0
  2  3  1  0  0  0  0
  2  4  1  0  0  0  0
  2 24  1  0  0  0  0
  3 25  1  0  0  0  0
  3 26  1  0  0  0  0
  3 27  1  0  0  0  0
  4  5  1  0  0  0  0
  4 28  1  0  0  0  0
  4 29  1  0  0  0  0
  5 20  1  0  0  0  0
  5  6  1  0  0  0  0
  6  7  1  0  0  0  0
  6 30  1  0  0  0  0
  6 31  1  0  0  0  0
  7  8  1  0  0  0  0
  7 32  1  0  0  0  0
  7 33  1  0  0  0  0
  8  9  1  0  0  0  0
  9 10  1  0  0  0  0
  9 20  1  0  0  0  0
  9 34  1  0  0  0  0
 10 11  1  0  0  0  0
 10 35  1  0  0  0  0
 10 36  1  0  0  0  0
 11 12  1  0  0  0  0
 11 37  1  0  0  0  0
 12 13  2  0  0  0  0
 12 14  1  0  0  0  0
 14 15  1  0  0  0  0
 14 38  1  0  0  0  0
 15 19  1  0  0  0  0
 15 16  2  0  0  0  0
 16 17  1  0  0  0  0
 17 18  2  0  0  0  0
 18 19  1  0  0  0  0
 18 39  1  0  0  0  0
 20 40  1  0  0  0  0
 20 41  1  0  0  0  0
M  END
> <s_m_source_file>
AV-unprocessed.smi

> <i_m_source_file_index>
2021

> <i_lp_mmshare_version>
43012

> <i_f3d_flags>
0

> <s_epik_input>
W0NIM11bQ0hdKFtDSDNdKVtDSDJdTjFbQ0gyXVtDSDJdT1tDQEhdKFtDSDJdMSlbQ0gyXVtOSF1DKD1PKVtOSF1jMm5uW2NIXXMy

> <s_epik_cmdline>
J2VwaWtfcHl0aG9uJywgJy1waCcsICc3LjAnLCAnLXRuJywgJzgnLCAnLW1hJywgJzIwMCcsICctbWV0YWxfYmluZGluZycsICctaW1hZScsICc8aW5maWxlLm1hZT4nLCAnLW9tYWUnLCAnPG91dGZpbGUubWFlPic=

> <r_lp_tautomer_probability>
1

> <r_epik_Ionization_Penalty>
1.11451

> <r_epik_Ionization_Penalty_Charging>
0

> <r_epik_Ionization_Penalty_Neutral>
1.11451

> <r_epik_State_Penalty>
1.17021

> <r_epik_Charging_Adjusted_Penalty>
1.17021

> <i_epik_Tot_Q>
0

> <i_epik_Tot_abs_Q>
0

> <r_epik_Metal_State_Penalty>
1.53642

> <b_epik_Metal_Only>
0

> <s_lp_Force_Field>
OPLS_2005

> <r_lp_Energy>
25.242

> <b_lp_Chiralities_Consistent>
1

> <s_lp_Variant>
AV-unprocessed.smi:2021-5

> <Gold.Version>
5.8.1

> <Gold.Id.Protein>
6NUR|6NUR_protein|mol2

> <Gold.PLP.Fitness>
37.7909

> <Gold.PLP.PLP>
-27.8195

> <Gold.PLP.part.hbond>
-3.0000

> <Gold.PLP.part.metal>
0.0000

> <Gold.PLP.part.buried>
-1.9500

> <Gold.PLP.part.nonpolar>
-23.3873

> <Gold.PLP.part.repulsive>
0.7839

> <Gold.PLP.ligand.clash>
0.0000

> <Gold.PLP.ligand.torsion>
0.3349

> <Gold.PLP.Chemscore.Hbond>
2.8160

> <Gold.PLP.Chemscore.CHOScore>
0.6958

> <Gold.PLP.Chemscore.Metal>
0.0000

> <Gold.Chemscore.Hbonds>
donor molecule, donor type, donor heavy atom, donor atom, acceptor molecule, acceptor atom, score
      L1  H    11    37       P1  7948  1.00
      L1  H    14    38       P1  7948  1.00
      P1  H  7989  7998       L1     5  0.78
      L1  C    18    39       P1 10186  0.69

> <Gold.PLP.Chemscore.Internal.Correction>
0.1059

> <Gold.Rescore>
     Score         DG    S(hbond)    S(metal)    S(lipo)     H(rot)  DE(clash)    DE(int)     intcor
     14.76     -15.37       2.03        0.00      66.87       1.84       0.08       0.54       ----

> <Gold.Chemscore.Fitness>
14.7574

> <Gold.Chemscore.DG>
-15.3719

> <Gold.Chemscore.ZeroCoef>
-5.4800

> <Gold.Chemscore.Hbond>
2.0305

> <Gold.Chemscore.Metal>
0.0000

> <Gold.Chemscore.Lipo>
66.8706

> <Gold.Chemscore.Internal_Hbond>
0.0000

> <Gold.Chemscore.DEClash>
0.0771

> <Gold.Chemscore.DEInternal>
0.5374

> <Gold.Chemscore.Rot>
1.8413

> <Gold.Chemscore.Internal.Correction>
   9.000000E+99

> <Gold.Chemscore.Hbonds>
donor molecule, donor type, donor heavy atom, donor atom, acceptor molecule, acceptor atom, score
      L1  H    11    37       P1  7948  0.95
      L1  H    14    38       P1  7948  0.95
      P1  H  7989  7998       L1     5  0.08

> <Gold.Chemscore.Hbond.Weighted>
-6.7819

> <Gold.Chemscore.Metal.Weighted>
-0.0000

> <Gold.Chemscore.Lipo.Weighted>
-7.8239

> <Gold.Chemscore.Internal_Hbond.Weighted>
0.0000

> <Gold.Chemscore.DEClash.Weighted>
0.0771

> <Gold.Chemscore.DEInternal.Weighted>
0.5374

> <Gold.Chemscore.Rot.Weighted>
4.7138

> <Gold.Chemscore.Internal.Correction.Weighted>
   9.000000E+99

> <Gold.Protein.RotatedTorsions>
[ 6907 6896 6895 6894 ] final   60.32 input  -60.11 | X-H torsion
[ 7974 7965 7964 7962 ] final  -87.93 input  175.53 | X-H torsion
[ 8008 7997 7996 7995 ] final  -22.15 input   59.86 | X-H torsion
[ 10167 10162 10161 10158 ] final   48.81 input  -65.29 | X-H torsion
[ 10718 10713 10712 10709 ] final   71.28 input   66.30 | X-H torsion
[ 10763 10752 10751 10750 ] final  122.28 input  -60.55 | X-H torsion
[ 11005 11000 10999 10996 ] final   69.61 input  -57.11 | X-H torsion

> <Gold.Protein.ActiveResidues>
 VAL166  LYS551  ARG553  GLY616  TRP617  ASP618  TYR619  PRO620  LYS621  CYS622 
 ASP623  PHE694  ASN695  SER759  ASP760  ASP761  ALA762  ILE779  LEU786  VAL792 
 PHE793  MET794  SER795  GLU796  ALA797  LYS798  CYS799  TRP800  GLU811  SER814 

> <Gold.Protein.RotatedAtoms>
  152.3992  134.6314  160.0076 H   0  0  0  0  0  0  0  0  0  0  0  0  # atno 6907 bound_to 6896
  151.6524  133.3315  159.3163 H   0  0  0  0  0  0  0  0  0  0  0  0  # atno 6908 bound_to 6896
  150.7895  134.6950  159.6563 H   0  0  0  0  0  0  0  0  0  0  0  0  # atno 6909 bound_to 6896
  145.4599  140.9561  143.1975 H   0  0  0  0  0  0  0  0  0  0  0  0  # atno 7974 bound_to 7965
  154.4661  140.2015  156.0114 H   0  0  0  0  0  0  0  0  0  0  0  0  # atno 8008 bound_to 7997
  156.0930  140.3255  155.7811 H   0  0  0  0  0  0  0  0  0  0  0  0  # atno 8009 bound_to 7997
  155.4925  140.0547  157.2942 H   0  0  0  0  0  0  0  0  0  0  0  0  # atno 8010 bound_to 7997
  140.2894  144.3063  150.6244 H   0  0  0  0  0  0  0  0  0  0  0  0  # atno 10167 bound_to 10162
  157.6444  130.9520  150.0768 H   0  0  0  0  0  0  0  0  0  0  0  0  # atno 10718 bound_to 10713
  153.6274  135.3402  155.3030 H   0  0  0  0  0  0  0  0  0  0  0  0  # atno 10763 bound_to 10752
  154.8587  135.4287  154.2143 H   0  0  0  0  0  0  0  0  0  0  0  0  # atno 10764 bound_to 10752
  153.3030  135.7026  153.7259 H   0  0  0  0  0  0  0  0  0  0  0  0  # atno 10765 bound_to 10752
  139.9644  134.7006  156.0577 H   0  0  0  0  0  0  0  0  0  0  0  0  # atno 11005 bound_to 11000
  144.8009  139.6143  143.7072 LP  0  0  0  0  0  0  0  0  0  0  0  0  # atno 17320 bound_to 7965
  146.2457  139.6092  142.9461 LP  0  0  0  0  0  0  0  0  0  0  0  0  # atno 17321 bound_to 7965
  140.5745  143.2178  151.7540 LP  0  0  0  0  0  0  0  0  0  0  0  0  # atno 17342 bound_to 10162
  139.4942  144.4170  152.0019 LP  0  0  0  0  0  0  0  0  0  0  0  0  # atno 17343 bound_to 10162
  156.1756  130.3648  149.9105 LP  0  0  0  0  0  0  0  0  0  0  0  0  # atno 17370 bound_to 10713
  156.7070  130.8955  151.3605 LP  0  0  0  0  0  0  0  0  0  0  0  0  # atno 17371 bound_to 10713
  141.1323  133.6583  156.3498 LP  0  0  0  0  0  0  0  0  0  0  0  0  # atno 17394 bound_to 11000
  140.5429  134.6103  157.5385 LP  0  0  0  0  0  0  0  0  0  0  0  0  # atno 17395 bound_to 11000

$$$$
