AV-unprocessed.smi:2424|AV-procd|sdf|9574|dock8
  -GOLD-   2272013203D 1   1.00000     0.00000
 Structure written by MMmdl.
 49 50  0  0  0  0  0  0  0  0  2 V2000
  142.3879  135.0233  153.5526 C   0  0  0  0  0  0  0  0  0  0  0  0
  143.1897  135.6614  152.4047 C   0  0  0  0  0  0  0  0  0  0  0  0
  144.7206  135.4280  152.4487 C   0  0  0  0  0  0  0  0  0  0  0  0
  145.3263  135.9053  151.1029 C   0  0  0  0  0  0  0  0  0  0  0  0
  144.7400  135.2324  149.8501 C   0  0  0  0  0  0  0  0  0  0  0  0
  145.3938  135.9519  153.7514 C   0  0  2  0  0  0  0  0  0  0  0  0
  146.8027  136.3130  153.5758 N   0  0  0  0  0  0  0  0  0  0  0  0
  147.5234  137.0626  154.4190 C   0  0  0  0  0  0  0  0  0  0  0  0
  147.0717  137.5295  155.4639 O   0  0  0  0  0  0  0  0  0  0  0  0
  148.7763  137.2205  153.9579 N   0  0  0  0  0  0  0  0  0  0  0  0
  149.8318  137.9511  154.5183 C   0  0  0  0  0  0  0  0  0  0  0  0
  150.9589  137.3013  154.9794 C   0  0  0  0  0  0  0  0  0  0  0  0
  152.0704  137.8258  155.5392 N   0  5  0  0  0  0  0  0  0  0  0  0
  152.1363  139.1796  155.6891 C   0  0  0  0  0  0  0  0  0  0  0  0
  153.1171  139.7281  156.1904 O   0  0  0  0  0  0  0  0  0  0  0  0
  150.9972  140.0030  155.2354 C   0  0  0  0  0  0  0  0  0  0  0  0
  151.0762  141.5109  155.4010 C   0  0  0  0  0  0  0  0  0  0  0  0
  149.9130  139.4022  154.6834 C   0  0  0  0  0  0  0  0  0  0  0  0
  145.2352  134.5544  154.3740 C   0  0  2  0  0  0  0  0  0  0  0  0
  146.2683  133.9828  155.3435 C   0  0  0  0  0  0  0  0  0  0  0  0
  145.1206  134.0060  152.9422 C   0  0  2  0  0  0  0  0  0  0  0  0
  146.3872  133.5602  152.4704 O   0  0  0  0  0  0  0  0  0  0  0  0
  146.3316  133.0188  151.1616 C   0  0  0  0  0  0  0  0  0  0  0  0
  141.3502  135.3554  153.5214 H   0  0  0  0  0  0  0  0  0  0  0  0
  142.7885  135.2972  154.5283 H   0  0  0  0  0  0  0  0  0  0  0  0
  142.3743  133.9360  153.4860 H   0  0  0  0  0  0  0  0  0  0  0  0
  142.7756  135.3305  151.4528 H   0  0  0  0  0  0  0  0  0  0  0  0
  142.9800  136.7308  152.4266 H   0  0  0  0  0  0  0  0  0  0  0  0
  145.1814  136.9791  150.9854 H   0  0  0  0  0  0  0  0  0  0  0  0
  146.4083  135.7842  151.0955 H   0  0  0  0  0  0  0  0  0  0  0  0
  145.1247  135.7067  148.9471 H   0  0  0  0  0  0  0  0  0  0  0  0
  143.6533  135.3106  149.8232 H   0  0  0  0  0  0  0  0  0  0  0  0
  145.0034  134.1769  149.7939 H   0  0  0  0  0  0  0  0  0  0  0  0
  144.7991  136.7136  154.2589 H   0  0  0  0  0  0  0  0  0  0  0  0
  147.2574  135.9654  152.7444 H   0  0  0  0  0  0  0  0  0  0  0  0
  148.9960  136.7608  153.0863 H   0  0  0  0  0  0  0  0  0  0  0  0
  150.9698  136.1942  154.8822 H   0  0  0  0  0  0  0  0  0  0  0  0
  150.1738  142.0000  155.0336 H   0  0  0  0  0  0  0  0  0  0  0  0
  151.9254  141.9108  154.8462 H   0  0  0  0  0  0  0  0  0  0  0  0
  151.1967  141.7729  156.4526 H   0  0  0  0  0  0  0  0  0  0  0  0
  149.1024  140.0353  154.3617 H   0  0  0  0  0  0  0  0  0  0  0  0
  144.2490  134.5042  154.8382 H   0  0  0  0  0  0  0  0  0  0  0  0
  147.2702  133.9654  154.9143 H   0  0  0  0  0  0  0  0  0  0  0  0
  146.0174  132.9598  155.6242 H   0  0  0  0  0  0  0  0  0  0  0  0
  146.3148  134.5733  156.2588 H   0  0  0  0  0  0  0  0  0  0  0  0
  144.3412  133.2463  152.8624 H   0  0  0  0  0  0  0  0  0  0  0  0
  147.3346  132.7403  150.8386 H   0  0  0  0  0  0  0  0  0  0  0  0
  145.9333  133.7367  150.4446 H   0  0  0  0  0  0  0  0  0  0  0  0
  145.7102  132.1229  151.1361 H   0  0  0  0  0  0  0  0  0  0  0  0
  1  2  1  0  0  0  0
  1 24  1  0  0  0  0
  1 25  1  0  0  0  0
  1 26  1  0  0  0  0
  2  3  1  0  0  0  0
  2 27  1  0  0  0  0
  2 28  1  0  0  0  0
  3 21  1  0  0  0  0
  3  4  1  0  0  0  0
  3  6  1  0  0  0  0
  4  5  1  0  0  0  0
  4 29  1  0  0  0  0
  4 30  1  0  0  0  0
  5 31  1  0  0  0  0
  5 32  1  0  0  0  0
  5 33  1  0  0  0  0
  6  7  1  0  0  0  0
  6 19  1  0  0  0  0
  6 34  1  0  0  0  0
  7  8  1  0  0  0  0
  7 35  1  0  0  0  0
  8  9  2  0  0  0  0
  8 10  1  0  0  0  0
 10 11  1  0  0  0  0
 10 36  1  0  0  0  0
 11 18  1  0  0  0  0
 11 12  2  0  0  0  0
 12 13  1  0  0  0  0
 12 37  1  0  0  0  0
 13 14  1  0  0  0  0
 14 15  2  0  0  0  0
 14 16  1  0  0  0  0
 16 17  1  0  0  0  0
 16 18  2  0  0  0  0
 17 38  1  0  0  0  0
 17 39  1  0  0  0  0
 17 40  1  0  0  0  0
 18 41  1  0  0  0  0
 19 20  1  0  0  0  0
 19 21  1  0  0  0  0
 19 42  1  0  0  0  0
 20 43  1  0  0  0  0
 20 44  1  0  0  0  0
 20 45  1  0  0  0  0
 21 22  1  0  0  0  0
 21 46  1  0  0  0  0
 22 23  1  0  0  0  0
 23 47  1  0  0  0  0
 23 48  1  0  0  0  0
 23 49  1  0  0  0  0
M  CHG  1  13  -1
M  END
> <s_m_source_file>
AV-unprocessed.smi

> <i_m_source_file_index>
2424

> <i_lp_mmshare_version>
43012

> <i_f3d_flags>
0

> <s_epik_input>
W0NIM11PW0NAQEhdMVtDQEhdKFtDSDNdKVtDQEBIXShDMShbQ0gyXVtDSDNdKVtDSDJdW0NIM10pW05IXUMoPU8pW05IXWMyW2NIXVtuSF1jKD1PKWMoW0NIM10pW2NIXTI=

> <s_epik_cmdline>
J2VwaWtfcHl0aG9uJywgJy1waCcsICc3LjAnLCAnLXRuJywgJzgnLCAnLW1hJywgJzIwMCcsICctbWV0YWxfYmluZGluZycsICctaW1hZScsICc8aW5maWxlLm1hZT4nLCAnLW9tYWUnLCAnPG91dGZpbGUubWFlPic=

> <r_lp_tautomer_probability>
1

> <r_epik_Ionization_Penalty>
7.6122

> <r_epik_Ionization_Penalty_Charging>
1.53843

> <r_epik_Ionization_Penalty_Neutral>
6.07377

> <r_epik_State_Penalty>
6.07371

> <r_epik_Charging_Adjusted_Penalty>
7.61214

> <i_epik_Tot_Q>
-1

> <i_epik_Tot_abs_Q>
1

> <r_epik_Metal_State_Penalty>
2.02136

> <b_epik_Metal_Only>
1

> <s_lp_Force_Field>
OPLS_2005

> <r_lp_Energy>
42.0535

> <b_lp_Chiralities_Consistent>
1

> <s_lp_Variant>
AV-unprocessed.smi:2424-16

> <Gold.Version>
5.8.1

> <Gold.Id.Protein>
6NUR|6NUR_protein|mol2

> <Gold.PLP.Fitness>
35.9531

> <Gold.PLP.PLP>
-29.1000

> <Gold.PLP.part.hbond>
-2.7599

> <Gold.PLP.part.metal>
0.0000

> <Gold.PLP.part.buried>
-0.9988

> <Gold.PLP.part.nonpolar>
-24.4473

> <Gold.PLP.part.repulsive>
0.1455

> <Gold.PLP.ligand.clash>
0.0000

> <Gold.PLP.ligand.torsion>
1.2073

> <Gold.PLP.Chemscore.Hbond>
2.8640

> <Gold.PLP.Chemscore.CHOScore>
0.0000

> <Gold.PLP.Chemscore.Metal>
0.0000

> <Gold.Chemscore.Hbonds>
donor molecule, donor type, donor heavy atom, donor atom, acceptor molecule, acceptor atom, score
      L1  H     7    35       P1  7948  0.75
      L1  H    10    36       P1  7948  0.47
      P1  H  7997  8008       L1    15  0.42

> <Gold.PLP.Chemscore.Internal.Correction>
0.6756

> <Gold.Rescore>
     Score         DG    S(hbond)    S(metal)    S(lipo)     H(rot)  DE(clash)    DE(int)     intcor
     15.81     -19.86       2.91        0.00      73.07       1.52       1.64       2.41       ----

> <Gold.Chemscore.Fitness>
15.8074

> <Gold.Chemscore.DG>
-19.8622

> <Gold.Chemscore.ZeroCoef>
-5.4800

> <Gold.Chemscore.Hbond>
2.9116

> <Gold.Chemscore.Metal>
0.0000

> <Gold.Chemscore.Lipo>
73.0737

> <Gold.Chemscore.Internal_Hbond>
0.0000

> <Gold.Chemscore.DEClash>
1.6435

> <Gold.Chemscore.DEInternal>
2.4113

> <Gold.Chemscore.Rot>
1.5204

> <Gold.Chemscore.Internal.Correction>
   9.000000E+99

> <Gold.Chemscore.Hbonds>
donor molecule, donor type, donor heavy atom, donor atom, acceptor molecule, acceptor atom, score
      L1  H     7    35       P1  7948  0.76
      L1  H    10    36       P1  7948  0.48
      P1  H  7997  8008       L1    15  0.41

> <Gold.Chemscore.Hbond.Weighted>
-9.7248

> <Gold.Chemscore.Metal.Weighted>
-0.0000

> <Gold.Chemscore.Lipo.Weighted>
-8.5496

> <Gold.Chemscore.Internal_Hbond.Weighted>
0.0000

> <Gold.Chemscore.DEClash.Weighted>
1.6435

> <Gold.Chemscore.DEInternal.Weighted>
2.4113

> <Gold.Chemscore.Rot.Weighted>
3.8922

> <Gold.Chemscore.Internal.Correction.Weighted>
   9.000000E+99

> <Gold.Protein.RotatedTorsions>
[ 6907 6896 6895 6894 ] final   26.32 input  -60.11 | X-H torsion
[ 7974 7965 7964 7962 ] final  123.16 input  175.53 | X-H torsion
[ 8008 7997 7996 7995 ] final  -34.09 input   59.86 | X-H torsion
[ 10167 10162 10161 10158 ] final   24.83 input  -65.29 | X-H torsion
[ 10718 10713 10712 10709 ] final  -62.76 input   66.30 | X-H torsion
[ 10763 10752 10751 10750 ] final    8.03 input  -60.55 | X-H torsion
[ 11005 11000 10999 10996 ] final  -13.94 input  -57.11 | X-H torsion

> <Gold.Protein.ActiveResidues>
 VAL166  LYS551  ARG553  GLY616  TRP617  ASP618  TYR619  PRO620  LYS621  CYS622 
 ASP623  PHE694  ASN695  SER759  ASP760  ASP761  ALA762  ILE779  LEU786  VAL792 
 PHE793  MET794  SER795  GLU796  ALA797  LYS798  CYS799  TRP800  GLU811  SER814 

> <Gold.Protein.RotatedAtoms>
  151.9857  135.0005  160.0559 H   0  0  0  0  0  0  0  0  0  0  0  0  # atno 6907 bound_to 6896
  152.1655  133.4604  159.4891 H   0  0  0  0  0  0  0  0  0  0  0  0  # atno 6908 bound_to 6896
  150.6894  134.1936  159.4338 H   0  0  0  0  0  0  0  0  0  0  0  0  # atno 6909 bound_to 6896
  145.0992  139.3531  143.4821 H   0  0  0  0  0  0  0  0  0  0  0  0  # atno 7974 bound_to 7965
  154.4130  140.1693  156.1993 H   0  0  0  0  0  0  0  0  0  0  0  0  # atno 8008 bound_to 7997
  155.9537  140.3399  155.6407 H   0  0  0  0  0  0  0  0  0  0  0  0  # atno 8009 bound_to 7997
  155.6837  140.0725  157.2465 H   0  0  0  0  0  0  0  0  0  0  0  0  # atno 8010 bound_to 7997
  140.5156  144.0088  150.6392 H   0  0  0  0  0  0  0  0  0  0  0  0  # atno 10167 bound_to 10162
  156.0834  130.4213  150.1181 H   0  0  0  0  0  0  0  0  0  0  0  0  # atno 10718 bound_to 10713
  153.2296  135.6891  153.7905 H   0  0  0  0  0  0  0  0  0  0  0  0  # atno 10763 bound_to 10752
  153.7074  135.3287  155.3239 H   0  0  0  0  0  0  0  0  0  0  0  0  # atno 10764 bound_to 10752
  154.8308  135.4582  154.1176 H   0  0  0  0  0  0  0  0  0  0  0  0  # atno 10765 bound_to 10752
  140.7813  133.8360  155.9295 H   0  0  0  0  0  0  0  0  0  0  0  0  # atno 11005 bound_to 11000
  146.3530  140.0861  142.8615 LP  0  0  0  0  0  0  0  0  0  0  0  0  # atno 17320 bound_to 7965
  145.0975  140.9325  143.4732 LP  0  0  0  0  0  0  0  0  0  0  0  0  # atno 17321 bound_to 7965
  140.3423  143.3012  152.0575 LP  0  0  0  0  0  0  0  0  0  0  0  0  # atno 17342 bound_to 10162
  139.4908  144.6434  151.6830 LP  0  0  0  0  0  0  0  0  0  0  0  0  # atno 17343 bound_to 10162
  156.9207  130.9682  151.3549 LP  0  0  0  0  0  0  0  0  0  0  0  0  # atno 17370 bound_to 10713
  157.5960  130.8478  149.8729 LP  0  0  0  0  0  0  0  0  0  0  0  0  # atno 17371 bound_to 10713
  140.9480  134.1816  157.4749 LP  0  0  0  0  0  0  0  0  0  0  0  0  # atno 17394 bound_to 11000
  139.8742  134.9898  156.5473 LP  0  0  0  0  0  0  0  0  0  0  0  0  # atno 17395 bound_to 11000

$$$$
