AV-unprocessed.smi:3152|AV-procd|sdf|12017|dock1
  -GOLD-   2272017423D 1   1.00000     0.00000
 Structure written by MMmdl.
 41 42  0  0  0  0  0  0  0  0  2 V2000
  150.5424  140.1748  155.3945 C   0  0  0  0  0  0  0  0  0  0  0  0
  149.3265  140.2727  154.5188 C   0  0  0  0  0  0  0  0  0  0  0  0
  148.5137  141.4171  154.2798 C   0  0  0  0  0  0  0  0  0  0  0  0
  147.5124  141.1723  153.4502 N   0  0  0  0  0  0  0  0  0  0  0  0
  147.6507  139.8686  153.1300 N   0  0  0  0  0  0  0  0  0  0  0  0
  146.7078  139.2509  152.2180 C   0  0  0  0  0  0  0  0  0  0  0  0
  146.0679  137.9973  152.8314 C   0  0  0  0  0  0  0  0  0  0  0  0
  146.0457  136.8830  151.8649 N   0  3  0  0  0  0  0  0  0  0  0  0
  145.1273  135.7853  152.2352 C   0  0  0  0  0  0  0  0  0  0  0  0
  145.0125  134.7119  151.1300 C   0  0  0  0  0  0  0  0  0  0  0  0
  144.8292  135.3920  149.9009 O   0  0  0  0  0  0  0  0  0  0  0  0
  146.2825  133.8288  151.0479 C   0  0  0  0  0  0  0  0  0  0  0  0
  146.1402  132.6634  150.0525 C   0  0  0  0  0  0  0  0  0  0  0  0
  144.9036  131.8085  150.3621 C   0  0  0  0  0  0  0  0  0  0  0  0
  143.6330  132.6691  150.3830 C   0  0  0  0  0  0  0  0  0  0  0  0
  143.7634  133.8338  151.3810 C   0  0  0  0  0  0  0  0  0  0  0  0
  148.7360  139.2998  153.7625 C   0  0  0  0  0  0  0  0  0  0  0  0
  150.4683  140.8289  156.2635 H   0  0  0  0  0  0  0  0  0  0  0  0
  151.4472  140.4567  154.8562 H   0  0  0  0  0  0  0  0  0  0  0  0
  150.6924  139.1616  155.7685 H   0  0  0  0  0  0  0  0  0  0  0  0
  148.6220  142.4136  154.6822 H   0  0  0  0  0  0  0  0  0  0  0  0
  145.9416  139.9833  151.9602 H   0  0  0  0  0  0  0  0  0  0  0  0
  147.2327  139.0015  151.2947 H   0  0  0  0  0  0  0  0  0  0  0  0
  146.6241  137.6864  153.7169 H   0  0  0  0  0  0  0  0  0  0  0  0
  145.0486  138.2178  153.1512 H   0  0  0  0  0  0  0  0  0  0  0  0
  145.7646  137.2388  150.9620 H   0  0  0  0  0  0  0  0  0  0  0  0
  145.4829  135.3271  153.1595 H   0  0  0  0  0  0  0  0  0  0  0  0
  144.1449  136.2079  152.4522 H   0  0  0  0  0  0  0  0  0  0  0  0
  145.2580  134.8977  149.2181 H   0  0  0  0  0  0  0  0  0  0  0  0
  147.1517  134.4284  150.7745 H   0  0  0  0  0  0  0  0  0  0  0  0
  146.4976  133.4184  152.0356 H   0  0  0  0  0  0  0  0  0  0  0  0
  146.0713  133.0517  149.0356 H   0  0  0  0  0  0  0  0  0  0  0  0
  147.0354  132.0416  150.0821 H   0  0  0  0  0  0  0  0  0  0  0  0
  144.8040  131.0151  149.6205 H   0  0  0  0  0  0  0  0  0  0  0  0
  145.0295  131.3161  151.3273 H   0  0  0  0  0  0  0  0  0  0  0  0
  143.4351  133.0562  149.3830 H   0  0  0  0  0  0  0  0  0  0  0  0
  142.7738  132.0518  150.6469 H   0  0  0  0  0  0  0  0  0  0  0  0
  143.8130  133.4196  152.3890 H   0  0  0  0  0  0  0  0  0  0  0  0
  142.8590  134.4433  151.3516 H   0  0  0  0  0  0  0  0  0  0  0  0
  148.9981  138.2614  153.6227 H   0  0  0  0  0  0  0  0  0  0  0  0
  146.9794  136.5061  151.7861 H   0  0  0  0  0  0  0  0  0  0  0  0
  1  2  1  0  0  0  0
  1 18  1  0  0  0  0
  1 19  1  0  0  0  0
  1 20  1  0  0  0  0
  2 17  2  0  0  0  0
  2  3  1  0  0  0  0
  3  4  2  0  0  0  0
  3 21  1  0  0  0  0
  4  5  1  0  0  0  0
  5  6  1  0  0  0  0
  5 17  1  0  0  0  0
  6  7  1  0  0  0  0
  6 22  1  0  0  0  0
  6 23  1  0  0  0  0
  7  8  1  0  0  0  0
  7 24  1  0  0  0  0
  7 25  1  0  0  0  0
  8  9  1  0  0  0  0
  8 26  1  0  0  0  0
  8 41  1  0  0  0  0
  9 10  1  0  0  0  0
  9 27  1  0  0  0  0
  9 28  1  0  0  0  0
 10 16  1  0  0  0  0
 10 11  1  0  0  0  0
 10 12  1  0  0  0  0
 11 29  1  0  0  0  0
 12 13  1  0  0  0  0
 12 30  1  0  0  0  0
 12 31  1  0  0  0  0
 13 14  1  0  0  0  0
 13 32  1  0  0  0  0
 13 33  1  0  0  0  0
 14 15  1  0  0  0  0
 14 34  1  0  0  0  0
 14 35  1  0  0  0  0
 15 16  1  0  0  0  0
 15 36  1  0  0  0  0
 15 37  1  0  0  0  0
 16 38  1  0  0  0  0
 16 39  1  0  0  0  0
 17 40  1  0  0  0  0
M  CHG  1   8   1
M  END
> <s_m_source_file>
AV-unprocessed.smi

> <i_m_source_file_index>
3152

> <i_lp_mmshare_version>
43012

> <i_f3d_flags>
0

> <s_epik_input>
W0NIM11jMVtjSF1ubihbY0hdMSlbQ0gyXVtDSDJdW05IXVtDSDJdQzIoW09IXSlbQ0gyXVtDSDJdW0NIMl1bQ0gyXVtDSDJdMg==

> <s_epik_cmdline>
J2VwaWtfcHl0aG9uJywgJy1waCcsICc3LjAnLCAnLXRuJywgJzgnLCAnLW1hJywgJzIwMCcsICctbWV0YWxfYmluZGluZycsICctaW1hZScsICc8aW5maWxlLm1hZT4nLCAnLW9tYWUnLCAnPG91dGZpbGUubWFlPic=

> <r_lp_tautomer_probability>
1

> <r_epik_Ionization_Penalty>
0.0240188

> <r_epik_Ionization_Penalty_Charging>
0.0240119

> <r_epik_Ionization_Penalty_Neutral>
6.9154e-06

> <r_epik_State_Penalty>
0.0194671

> <r_epik_Charging_Adjusted_Penalty>
0.043479

> <i_epik_Tot_Q>
1

> <i_epik_Tot_abs_Q>
1

> <r_epik_Metal_State_Penalty>
0.0195537

> <b_epik_Metal_Only>
0

> <s_lp_Force_Field>
OPLS_2005

> <r_lp_Energy>
14.7618

> <b_lp_Chiralities_Consistent>
1

> <s_lp_Variant>
AV-unprocessed.smi:3152-1

> <Gold.Version>
5.8.1

> <Gold.Id.Protein>
6NUR|6NUR_protein|mol2

> <Gold.PLP.Fitness>
48.7722

> <Gold.PLP.PLP>
-35.5443

> <Gold.PLP.part.hbond>
-2.0000

> <Gold.PLP.part.metal>
0.0000

> <Gold.PLP.part.buried>
2.2411

> <Gold.PLP.part.nonpolar>
-35.0228

> <Gold.PLP.part.repulsive>
0.2227

> <Gold.PLP.ligand.clash>
0.0000

> <Gold.PLP.ligand.torsion>
0.5791

> <Gold.PLP.Chemscore.Hbond>
3.0000

> <Gold.PLP.Chemscore.CHOScore>
1.7695

> <Gold.PLP.Chemscore.Metal>
0.0000

> <Gold.Chemscore.Hbonds>
donor molecule, donor type, donor heavy atom, donor atom, acceptor molecule, acceptor atom, score
      L1  H     8    41       P1  7948  2.00
      L1  H    11    29       P1  7921  1.00
      L1  C     3    21       P1  8028  1.00
      L1  C    17    40       P1  7948  0.67

> <Gold.PLP.Chemscore.Internal.Correction>
0.0775

> <Gold.Rescore>
     Score         DG    S(hbond)    S(metal)    S(lipo)     H(rot)  DE(clash)    DE(int)     intcor
     16.78     -17.53       1.97        0.00      94.23       2.17       0.12       0.63       ----

> <Gold.Chemscore.Fitness>
16.7761

> <Gold.Chemscore.DG>
-17.5293

> <Gold.Chemscore.ZeroCoef>
-5.4800

> <Gold.Chemscore.Hbond>
1.9686

> <Gold.Chemscore.Metal>
0.0000

> <Gold.Chemscore.Lipo>
94.2344

> <Gold.Chemscore.Internal_Hbond>
0.0000

> <Gold.Chemscore.DEClash>
0.1225

> <Gold.Chemscore.DEInternal>
0.6307

> <Gold.Chemscore.Rot>
2.1685

> <Gold.Chemscore.Internal.Correction>
   9.000000E+99

> <Gold.Chemscore.Hbonds>
donor molecule, donor type, donor heavy atom, donor atom, acceptor molecule, acceptor atom, score
      L1  H     8    41       P1  7948  0.98
      L1  H    11    29       P1  7921  0.95

> <Gold.Chemscore.Hbond.Weighted>
-6.5753

> <Gold.Chemscore.Metal.Weighted>
-0.0000

> <Gold.Chemscore.Lipo.Weighted>
-11.0254

> <Gold.Chemscore.Internal_Hbond.Weighted>
0.0000

> <Gold.Chemscore.DEClash.Weighted>
0.1225

> <Gold.Chemscore.DEInternal.Weighted>
0.6307

> <Gold.Chemscore.Rot.Weighted>
5.5514

> <Gold.Chemscore.Internal.Correction.Weighted>
   9.000000E+99

> <Gold.Protein.RotatedTorsions>
[ 6907 6896 6895 6894 ] final -143.51 input  -60.11 | X-H torsion
[ 7974 7965 7964 7962 ] final  138.97 input  175.53 | X-H torsion
[ 8008 7997 7996 7995 ] final  -82.85 input   59.86 | X-H torsion
[ 10167 10162 10161 10158 ] final  -78.50 input  -65.29 | X-H torsion
[ 10718 10713 10712 10709 ] final -153.69 input   66.30 | X-H torsion
[ 10763 10752 10751 10750 ] final  -81.02 input  -60.55 | X-H torsion
[ 11005 11000 10999 10996 ] final  136.14 input  -57.11 | X-H torsion

> <Gold.Protein.ActiveResidues>
 VAL166  LYS551  ARG553  GLY616  TRP617  ASP618  TYR619  PRO620  LYS621  CYS622 
 ASP623  PHE694  ASN695  SER759  ASP760  ASP761  ALA762  ILE779  LEU786  VAL792 
 PHE793  MET794  SER795  GLU796  ALA797  LYS798  CYS799  TRP800  GLU811  SER814 

> <Gold.Protein.RotatedAtoms>
  151.1015  133.5240  159.2609 H   0  0  0  0  0  0  0  0  0  0  0  0  # atno 6907 bound_to 6896
  151.2069  135.0465  159.8905 H   0  0  0  0  0  0  0  0  0  0  0  0  # atno 6908 bound_to 6896
  152.5443  134.0836  159.8299 H   0  0  0  0  0  0  0  0  0  0  0  0  # atno 6909 bound_to 6896
  144.9322  139.5033  143.5612 H   0  0  0  0  0  0  0  0  0  0  0  0  # atno 7974 bound_to 7965
  154.6129  140.0627  156.9517 H   0  0  0  0  0  0  0  0  0  0  0  0  # atno 8008 bound_to 7997
  155.1943  140.3309  155.4335 H   0  0  0  0  0  0  0  0  0  0  0  0  # atno 8009 bound_to 7997
  156.2387  140.1875  156.7031 H   0  0  0  0  0  0  0  0  0  0  0  0  # atno 8010 bound_to 7997
  140.4676  143.2435  151.8254 H   0  0  0  0  0  0  0  0  0  0  0  0  # atno 10167 bound_to 10162
  156.4892  130.8339  151.2563 H   0  0  0  0  0  0  0  0  0  0  0  0  # atno 10718 bound_to 10713
  154.5584  135.5641  153.6985 H   0  0  0  0  0  0  0  0  0  0  0  0  # atno 10763 bound_to 10752
  153.0010  135.6268  154.2278 H   0  0  0  0  0  0  0  0  0  0  0  0  # atno 10764 bound_to 10752
  154.2215  135.2869  155.2903 H   0  0  0  0  0  0  0  0  0  0  0  0  # atno 10765 bound_to 10752
  140.0026  134.9472  157.0105 H   0  0  0  0  0  0  0  0  0  0  0  0  # atno 11005 bound_to 11000
  146.3252  139.8280  142.8914 LP  0  0  0  0  0  0  0  0  0  0  0  0  # atno 17320 bound_to 7965
  145.3124  141.0223  143.3547 LP  0  0  0  0  0  0  0  0  0  0  0  0  # atno 17321 bound_to 7965
  139.4814  144.4931  151.9159 LP  0  0  0  0  0  0  0  0  0  0  0  0  # atno 17342 bound_to 10162
  140.4016  144.2485  150.5893 LP  0  0  0  0  0  0  0  0  0  0  0  0  # atno 17343 bound_to 10162
  157.7475  131.0019  150.2981 LP  0  0  0  0  0  0  0  0  0  0  0  0  # atno 17370 bound_to 10713
  156.3444  130.3820  149.7382 LP  0  0  0  0  0  0  0  0  0  0  0  0  # atno 17371 bound_to 10713
  140.4700  134.1396  155.7202 LP  0  0  0  0  0  0  0  0  0  0  0  0  # atno 17394 bound_to 11000
  141.1653  133.8714  157.1732 LP  0  0  0  0  0  0  0  0  0  0  0  0  # atno 17395 bound_to 11000

$$$$
