AV-unprocessed.smi:1755|AV-procd|sdf|7070|dock7
  -GOLD-   22720 8293D 1   1.00000     0.00000
 Structure written by MMmdl.
 46 47  0  0  0  0  0  0  0  0  2 V2000
  153.7188  140.8340  161.3597 C   0  0  0  0  0  0  0  0  0  0  0  0
  153.0180  141.6146  160.2872 C   0  0  0  0  0  0  0  0  0  0  0  0
  152.1538  141.1223  159.2664 C   0  0  0  0  0  0  0  0  0  0  0  0
  151.8103  142.2600  158.5883 C   0  0  0  0  0  0  0  0  0  0  0  0
  150.9920  142.3998  157.5115 N   0  0  0  0  0  0  0  0  0  0  0  0
  150.6681  141.4861  156.5800 C   0  0  0  0  0  0  0  0  0  0  0  0
  151.1155  140.3413  156.5169 O   0  0  0  0  0  0  0  0  0  0  0  0
  149.7780  141.9794  155.7069 N   0  0  0  0  0  0  0  0  0  0  0  0
  149.2161  141.2545  154.5670 C   0  0  0  0  0  0  0  0  0  0  0  0
  147.7093  140.8843  154.7464 C   0  0  0  0  0  0  0  0  0  0  0  0
  146.9027  142.1464  154.9158 N   0  3  0  0  0  0  0  0  0  0  0  0
  145.5265  141.9915  155.4508 C   0  0  0  0  0  0  0  0  0  0  0  0
  146.9045  143.0359  153.7263 C   0  0  0  0  0  0  0  0  0  0  0  0
  147.2370  140.0212  153.5567 C   0  0  0  0  0  0  0  0  0  0  0  0
  147.7380  138.5957  153.8347 C   0  0  0  0  0  0  0  0  0  0  0  0
  148.0060  138.5201  155.3442 C   0  0  0  0  0  0  0  0  0  0  0  0
  147.5494  139.8691  155.9087 C   0  0  0  0  0  0  0  0  0  0  0  0
  152.4332  143.3360  159.1804 N   0  0  0  0  0  0  0  0  0  0  0  0
  152.3794  144.7410  158.8264 C   0  0  0  0  0  0  0  0  0  0  0  0
  153.1803  142.9318  160.2299 N   0  0  0  0  0  0  0  0  0  0  0  0
  153.4850  139.7714  161.2902 H   0  0  0  0  0  0  0  0  0  0  0  0
  153.4205  141.1745  162.3514 H   0  0  0  0  0  0  0  0  0  0  0  0
  154.8009  140.9411  161.2802 H   0  0  0  0  0  0  0  0  0  0  0  0
  151.8499  140.1027  159.0834 H   0  0  0  0  0  0  0  0  0  0  0  0
  150.5638  143.3085  157.4149 H   0  0  0  0  0  0  0  0  0  0  0  0
  149.4822  142.9372  155.8266 H   0  0  0  0  0  0  0  0  0  0  0  0
  149.3452  141.8956  153.6957 H   0  0  0  0  0  0  0  0  0  0  0  0
  149.8220  140.3759  154.3429 H   0  0  0  0  0  0  0  0  0  0  0  0
  144.9322  141.3095  154.8421 H   0  0  0  0  0  0  0  0  0  0  0  0
  145.0100  142.9516  155.4732 H   0  0  0  0  0  0  0  0  0  0  0  0
  145.5388  141.6322  156.4795 H   0  0  0  0  0  0  0  0  0  0  0  0
  146.3344  142.6021  152.9043 H   0  0  0  0  0  0  0  0  0  0  0  0
  147.9116  143.2469  153.3705 H   0  0  0  0  0  0  0  0  0  0  0  0
  146.4514  143.9969  153.9712 H   0  0  0  0  0  0  0  0  0  0  0  0
  146.1475  140.0009  153.5138 H   0  0  0  0  0  0  0  0  0  0  0  0
  147.5857  140.3938  152.5928 H   0  0  0  0  0  0  0  0  0  0  0  0
  147.0049  137.8535  153.5168 H   0  0  0  0  0  0  0  0  0  0  0  0
  148.6585  138.3993  153.2837 H   0  0  0  0  0  0  0  0  0  0  0  0
  147.4788  137.6883  155.8128 H   0  0  0  0  0  0  0  0  0  0  0  0
  149.0707  138.3720  155.5295 H   0  0  0  0  0  0  0  0  0  0  0  0
  148.0823  140.1486  156.8164 H   0  0  0  0  0  0  0  0  0  0  0  0
  146.5068  139.7289  156.1891 H   0  0  0  0  0  0  0  0  0  0  0  0
  151.3413  145.0741  158.8034 H   0  0  0  0  0  0  0  0  0  0  0  0
  152.8231  144.8864  157.8410 H   0  0  0  0  0  0  0  0  0  0  0  0
  152.9271  145.3421  159.5540 H   0  0  0  0  0  0  0  0  0  0  0  0
  147.3907  142.6626  155.6337 H   0  0  0  0  0  0  0  0  0  0  0  0
  1  2  1  0  0  0  0
  1 21  1  0  0  0  0
  1 22  1  0  0  0  0
  1 23  1  0  0  0  0
  2 20  2  0  0  0  0
  2  3  1  0  0  0  0
  3  4  2  0  0  0  0
  3 24  1  0  0  0  0
  4  5  1  0  0  0  0
  4 18  1  0  0  0  0
  5  6  1  0  0  0  0
  5 25  1  0  0  0  0
  6  7  2  0  0  0  0
  6  8  1  0  0  0  0
  8  9  1  0  0  0  0
  8 26  1  0  0  0  0
  9 10  1  0  0  0  0
  9 27  1  0  0  0  0
  9 28  1  0  0  0  0
 10 17  1  0  0  0  0
 10 11  1  0  0  0  0
 10 14  1  0  0  0  0
 11 12  1  0  0  0  0
 11 13  1  0  0  0  0
 11 46  1  0  0  0  0
 12 29  1  0  0  0  0
 12 30  1  0  0  0  0
 12 31  1  0  0  0  0
 13 32  1  0  0  0  0
 13 33  1  0  0  0  0
 13 34  1  0  0  0  0
 14 15  1  0  0  0  0
 14 35  1  0  0  0  0
 14 36  1  0  0  0  0
 15 16  1  0  0  0  0
 15 37  1  0  0  0  0
 15 38  1  0  0  0  0
 16 17  1  0  0  0  0
 16 39  1  0  0  0  0
 16 40  1  0  0  0  0
 17 41  1  0  0  0  0
 17 42  1  0  0  0  0
 18 19  1  0  0  0  0
 18 20  1  0  0  0  0
 19 43  1  0  0  0  0
 19 44  1  0  0  0  0
 19 45  1  0  0  0  0
M  CHG  1  11   1
M  END
> <s_m_source_file>
AV-unprocessed.smi

> <i_m_source_file_index>
1755

> <i_lp_mmshare_version>
43012

> <i_f3d_flags>
0

> <s_epik_input>
W0NIM11jMVtjSF1jKG4objEpW0NIM10pW05IXUMoPU8pW05IXVtDSDJdQzIoTihbQ0gzXSlbQ0gzXSlbQ0gyXVtDSDJdW0NIMl1bQ0gyXTI=

> <s_epik_cmdline>
J2VwaWtfcHl0aG9uJywgJy1waCcsICc3LjAnLCAnLXRuJywgJzgnLCAnLW1hJywgJzIwMCcsICctbWV0YWxfYmluZGluZycsICctaW1hZScsICc8aW5maWxlLm1hZT4nLCAnLW9tYWUnLCAnPG91dGZpbGUubWFlPic=

> <r_lp_tautomer_probability>
1

> <r_epik_Ionization_Penalty>
0.00248705

> <r_epik_Ionization_Penalty_Charging>
0.00240703

> <r_epik_Ionization_Penalty_Neutral>
8.00151e-05

> <r_epik_State_Penalty>
0.00166499

> <r_epik_Charging_Adjusted_Penalty>
0.00407202

> <i_epik_Tot_Q>
1

> <i_epik_Tot_abs_Q>
1

> <r_epik_Metal_State_Penalty>
-0

> <b_epik_Metal_Only>
0

> <s_lp_Force_Field>
OPLS_2005

> <r_lp_Energy>
45.253

> <b_lp_Chiralities_Consistent>
1

> <s_lp_Variant>
AV-unprocessed.smi:1755-1

> <Gold.Version>
5.8.1

> <Gold.Id.Protein>
6NUR|6NUR_protein|mol2

> <Gold.PLP.Fitness>
42.0106

> <Gold.PLP.PLP>
-39.6478

> <Gold.PLP.part.hbond>
-1.0321

> <Gold.PLP.part.metal>
0.0000

> <Gold.PLP.part.buried>
-5.2609

> <Gold.PLP.part.nonpolar>
-33.6290

> <Gold.PLP.part.repulsive>
0.2573

> <Gold.PLP.ligand.clash>
0.0000

> <Gold.PLP.ligand.torsion>
0.3985

> <Gold.PLP.Chemscore.Hbond>
1.0000

> <Gold.PLP.Chemscore.CHOScore>
0.0000

> <Gold.PLP.Chemscore.Metal>
0.0000

> <Gold.Chemscore.Hbonds>
donor molecule, donor type, donor heavy atom, donor atom, acceptor molecule, acceptor atom, score
      L1  H     8    26       P1  8028  1.00

> <Gold.PLP.Chemscore.Internal.Correction>
0.1597

> <Gold.Rescore>
     Score         DG    S(hbond)    S(metal)    S(lipo)     H(rot)  DE(clash)    DE(int)     intcor
     14.13     -15.40       1.25        0.00      81.58       1.49       0.59       0.69       ----

> <Gold.Chemscore.Fitness>
14.1278

> <Gold.Chemscore.DG>
-15.4022

> <Gold.Chemscore.ZeroCoef>
-5.4800

> <Gold.Chemscore.Hbond>
1.2512

> <Gold.Chemscore.Metal>
0.0000

> <Gold.Chemscore.Lipo>
81.5807

> <Gold.Chemscore.Internal_Hbond>
0.0000

> <Gold.Chemscore.DEClash>
0.5882

> <Gold.Chemscore.DEInternal>
0.6862

> <Gold.Chemscore.Rot>
1.4851

> <Gold.Chemscore.Internal.Correction>
   9.000000E+99

> <Gold.Chemscore.Hbonds>
donor molecule, donor type, donor heavy atom, donor atom, acceptor molecule, acceptor atom, score
      L1  H     8    26       P1  8028  1.00

> <Gold.Chemscore.Hbond.Weighted>
-4.1790

> <Gold.Chemscore.Metal.Weighted>
-0.0000

> <Gold.Chemscore.Lipo.Weighted>
-9.5449

> <Gold.Chemscore.Internal_Hbond.Weighted>
0.0000

> <Gold.Chemscore.DEClash.Weighted>
0.5882

> <Gold.Chemscore.DEInternal.Weighted>
0.6862

> <Gold.Chemscore.Rot.Weighted>
3.8018

> <Gold.Chemscore.Internal.Correction.Weighted>
   9.000000E+99

> <Gold.Protein.RotatedTorsions>
[ 6907 6896 6895 6894 ] final   14.48 input  -60.11 | X-H torsion
[ 7974 7965 7964 7962 ] final   54.55 input  175.53 | X-H torsion
[ 8008 7997 7996 7995 ] final  115.69 input   59.86 | X-H torsion
[ 10167 10162 10161 10158 ] final  -41.75 input  -65.29 | X-H torsion
[ 10718 10713 10712 10709 ] final  136.67 input   66.30 | X-H torsion
[ 10763 10752 10751 10750 ] final -164.58 input  -60.55 | X-H torsion
[ 11005 11000 10999 10996 ] final  145.44 input  -57.11 | X-H torsion

> <Gold.Protein.ActiveResidues>
 VAL166  LYS551  ARG553  GLY616  TRP617  ASP618  TYR619  PRO620  LYS621  CYS622 
 ASP623  PHE694  ASN695  SER759  ASP760  ASP761  ALA762  ILE779  LEU786  VAL792 
 PHE793  MET794  SER795  GLU796  ALA797  LYS798  CYS799  TRP800  GLU811  SER814 

> <Gold.Protein.RotatedAtoms>
  151.8028  135.0704  160.0402 H   0  0  0  0  0  0  0  0  0  0  0  0  # atno 6907 bound_to 6896
  152.3076  133.5715  159.5668 H   0  0  0  0  0  0  0  0  0  0  0  0  # atno 6908 bound_to 6896
  150.7304  134.0115  159.3713 H   0  0  0  0  0  0  0  0  0  0  0  0  # atno 6909 bound_to 6896
  145.9597  139.4047  143.0256 H   0  0  0  0  0  0  0  0  0  0  0  0  # atno 7974 bound_to 7965
  156.2396  140.2933  156.0407 H   0  0  0  0  0  0  0  0  0  0  0  0  # atno 8008 bound_to 7997
  155.1990  140.0409  157.2931 H   0  0  0  0  0  0  0  0  0  0  0  0  # atno 8009 bound_to 7997
  154.6143  140.2459  155.7636 H   0  0  0  0  0  0  0  0  0  0  0  0  # atno 8010 bound_to 7997
  140.6992  143.3077  151.3110 H   0  0  0  0  0  0  0  0  0  0  0  0  # atno 10167 bound_to 10162
  157.4442  131.1060  151.0109 H   0  0  0  0  0  0  0  0  0  0  0  0  # atno 10718 bound_to 10713
  154.7015  135.2989  154.9334 H   0  0  0  0  0  0  0  0  0  0  0  0  # atno 10763 bound_to 10752
  154.0265  135.6676  153.4781 H   0  0  0  0  0  0  0  0  0  0  0  0  # atno 10764 bound_to 10752
  153.0685  135.5074  154.8161 H   0  0  0  0  0  0  0  0  0  0  0  0  # atno 10765 bound_to 10752
  140.0712  134.9150  157.1348 H   0  0  0  0  0  0  0  0  0  0  0  0  # atno 11005 bound_to 11000
  145.8057  140.9750  143.0975 LP  0  0  0  0  0  0  0  0  0  0  0  0  # atno 17320 bound_to 7965
  144.6812  139.9857  143.7484 LP  0  0  0  0  0  0  0  0  0  0  0  0  # atno 17321 bound_to 7965
  139.6488  144.0400  152.2611 LP  0  0  0  0  0  0  0  0  0  0  0  0  # atno 17342 bound_to 10162
  139.9930  144.6348  150.7797 LP  0  0  0  0  0  0  0  0  0  0  0  0  # atno 17343 bound_to 10162
  157.0961  130.5962  149.5450 LP  0  0  0  0  0  0  0  0  0  0  0  0  # atno 17370 bound_to 10713
  155.9960  130.5029  150.7482 LP  0  0  0  0  0  0  0  0  0  0  0  0  # atno 17371 bound_to 10713
  140.3624  134.2479  155.7186 LP  0  0  0  0  0  0  0  0  0  0  0  0  # atno 17394 bound_to 11000
  141.2012  133.7967  157.0450 LP  0  0  0  0  0  0  0  0  0  0  0  0  # atno 17395 bound_to 11000

$$$$
