AV-unprocessed.smi:2673|AV-procd|sdf|10357|dock6
  -GOLD-   2272014383D 1   1.00000     0.00000
 Structure written by MMmdl.
 32 33  0  0  0  0  0  0  0  0  1 V2000
  144.2900  135.9500  152.7849 O   0  0  0  0  0  0  0  0  0  0  0  0
  143.6543  134.9640  153.1640 C   0  0  0  0  0  0  0  0  0  0  0  0
  142.4349  134.9273  153.8220 N   0  0  0  0  0  0  0  0  0  0  0  0
  141.6462  135.9573  153.8094 C   0  0  0  0  0  0  0  0  0  0  0  0
  140.4267  135.9373  154.4707 N   0  0  0  0  0  0  0  0  0  0  0  0
  139.6404  137.0051  154.4348 N   0  0  0  0  0  0  0  0  0  0  0  0
  140.1724  137.9439  153.7465 C   0  0  0  0  0  0  0  0  0  0  0  0
  141.7574  137.6026  153.0416 S   0  0  0  0  0  0  0  0  0  0  0  0
  144.0920  133.7087  152.9676 N   0  0  0  0  0  0  0  0  0  0  0  0
  145.3165  133.2230  152.3065 C   0  0  0  0  0  0  0  0  0  0  0  0
  146.5420  133.4314  153.2428 C   0  0  0  0  0  0  0  0  0  0  0  0
  147.6673  133.0633  152.6290 F   0  0  0  0  0  0  0  0  0  0  0  0
  146.6543  134.7174  153.5800 F   0  0  0  0  0  0  0  0  0  0  0  0
  146.4403  132.7134  154.3611 F   0  0  0  0  0  0  0  0  0  0  0  0
  145.1991  131.7348  151.8658 C   0  0  0  0  0  0  0  0  0  0  0  0
  144.0692  131.4955  150.8476 C   0  0  0  0  0  0  0  0  0  0  0  0
  144.2543  132.3757  149.6034 C   0  0  0  0  0  0  0  0  0  0  0  0
  144.3764  133.8578  149.9857 C   0  0  0  0  0  0  0  0  0  0  0  0
  145.4940  134.0807  151.0243 C   0  0  0  0  0  0  0  0  0  0  0  0
  139.7392  138.9260  153.5575 H   0  0  0  0  0  0  0  0  0  0  0  0
  143.4878  132.9793  153.3169 H   0  0  0  0  0  0  0  0  0  0  0  0
  146.1401  131.4231  151.4110 H   0  0  0  0  0  0  0  0  0  0  0  0
  145.0677  131.0743  152.7216 H   0  0  0  0  0  0  0  0  0  0  0  0
  144.0508  130.4450  150.5562 H   0  0  0  0  0  0  0  0  0  0  0  0
  143.1016  131.7020  151.3060 H   0  0  0  0  0  0  0  0  0  0  0  0
  145.1510  132.0634  149.0667 H   0  0  0  0  0  0  0  0  0  0  0  0
  143.4187  132.2338  148.9175 H   0  0  0  0  0  0  0  0  0  0  0  0
  144.5783  134.4516  149.0938 H   0  0  0  0  0  0  0  0  0  0  0  0
  143.4233  134.2140  150.3784 H   0  0  0  0  0  0  0  0  0  0  0  0
  145.5411  135.1397  151.2813 H   0  0  0  0  0  0  0  0  0  0  0  0
  146.4490  133.8464  150.5529 H   0  0  0  0  0  0  0  0  0  0  0  0
  140.1156  135.1225  154.9801 H   0  0  0  0  0  0  0  0  0  0  0  0
  1  2  2  0  0  0  0
  2  3  1  0  0  0  0
  2  9  1  0  0  0  0
  3  4  2  0  0  0  0
  4  8  1  0  0  0  0
  4  5  1  0  0  0  0
  5  6  1  0  0  0  0
  5 32  1  0  0  0  0
  6  7  2  0  0  0  0
  7  8  1  0  0  0  0
  7 20  1  0  0  0  0
  9 10  1  0  0  0  0
  9 21  1  0  0  0  0
 10 19  1  0  0  0  0
 10 11  1  0  0  0  0
 10 15  1  0  0  0  0
 11 12  1  0  0  0  0
 11 13  1  0  0  0  0
 11 14  1  0  0  0  0
 15 16  1  0  0  0  0
 15 22  1  0  0  0  0
 15 23  1  0  0  0  0
 16 17  1  0  0  0  0
 16 24  1  0  0  0  0
 16 25  1  0  0  0  0
 17 18  1  0  0  0  0
 17 26  1  0  0  0  0
 17 27  1  0  0  0  0
 18 19  1  0  0  0  0
 18 28  1  0  0  0  0
 18 29  1  0  0  0  0
 19 30  1  0  0  0  0
 19 31  1  0  0  0  0
M  END
> <s_m_source_file>
AV-unprocessed.smi

> <i_m_source_file_index>
2673

> <i_lp_mmshare_version>
43012

> <i_f3d_flags>
0

> <s_epik_input>
czFbY0hdbm5jMVtOSF1DKD1PKVtOSF1DMihDKEYpKEYpRilbQ0gyXVtDSDJdW0NIMl1bQ0gyXVtDSDJdMg==

> <s_epik_cmdline>
J2VwaWtfcHl0aG9uJywgJy1waCcsICc3LjAnLCAnLXRuJywgJzgnLCAnLW1hJywgJzIwMCcsICctbWV0YWxfYmluZGluZycsICctaW1hZScsICc8aW5maWxlLm1hZT4nLCAnLW9tYWUnLCAnPG91dGZpbGUubWFlPic=

> <r_epik_Ionization_Penalty>
1.69703

> <r_epik_Ionization_Penalty_Charging>
1.69675

> <r_epik_Ionization_Penalty_Neutral>
0.00027895

> <r_epik_State_Penalty>
1.84993

> <r_epik_Charging_Adjusted_Penalty>
3.54668

> <i_epik_Tot_Q>
0

> <i_epik_Tot_abs_Q>
0

> <r_epik_Metal_State_Penalty>
1.90085

> <b_epik_Metal_Only>
0

> <s_lp_Force_Field>
OPLS_2005

> <r_lp_Energy>
22.7267

> <b_lp_Chiralities_Consistent>
1

> <s_lp_Variant>
AV-unprocessed.smi:2673-3

> <Gold.Version>
5.8.1

> <Gold.Id.Protein>
6NUR|6NUR_protein|mol2

> <Gold.PLP.Fitness>
35.2029

> <Gold.PLP.PLP>
-30.5002

> <Gold.PLP.part.hbond>
-2.0000

> <Gold.PLP.part.metal>
0.0000

> <Gold.PLP.part.buried>
-6.1141

> <Gold.PLP.part.nonpolar>
-23.3577

> <Gold.PLP.part.repulsive>
0.3506

> <Gold.PLP.ligand.clash>
0.0000

> <Gold.PLP.ligand.torsion>
0.4463

> <Gold.PLP.Chemscore.Hbond>
1.8548

> <Gold.PLP.Chemscore.CHOScore>
0.0000

> <Gold.PLP.Chemscore.Metal>
0.0000

> <Gold.Chemscore.Hbonds>
donor molecule, donor type, donor heavy atom, donor atom, acceptor molecule, acceptor atom, score
      L1  H     5    32       P1 11000  0.88
      L1  H     9    21       P1 10957  0.91

> <Gold.PLP.Chemscore.Internal.Correction>
0.0310

> <Gold.Rescore>
     Score         DG    S(hbond)    S(metal)    S(lipo)     H(rot)  DE(clash)    DE(int)     intcor
     12.22     -16.26       1.95        0.00      58.37       1.00       0.03       4.00       ----

> <Gold.Chemscore.Fitness>
12.2213

> <Gold.Chemscore.DG>
-16.2570

> <Gold.Chemscore.ZeroCoef>
-5.4800

> <Gold.Chemscore.Hbond>
1.9485

> <Gold.Chemscore.Metal>
0.0000

> <Gold.Chemscore.Lipo>
58.3683

> <Gold.Chemscore.Internal_Hbond>
0.0000

> <Gold.Chemscore.DEClash>
0.0346

> <Gold.Chemscore.DEInternal>
4.0011

> <Gold.Chemscore.Rot>
1.0000

> <Gold.Chemscore.Internal.Correction>
   9.000000E+99

> <Gold.Chemscore.Hbonds>
donor molecule, donor type, donor heavy atom, donor atom, acceptor molecule, acceptor atom, score
      L1  H     5    32       P1 11000  0.81
      L1  H     9    21       P1 10957  0.64

> <Gold.Chemscore.Hbond.Weighted>
-6.5079

> <Gold.Chemscore.Metal.Weighted>
-0.0000

> <Gold.Chemscore.Lipo.Weighted>
-6.8291

> <Gold.Chemscore.Internal_Hbond.Weighted>
0.0000

> <Gold.Chemscore.DEClash.Weighted>
0.0346

> <Gold.Chemscore.DEInternal.Weighted>
4.0011

> <Gold.Chemscore.Rot.Weighted>
2.5600

> <Gold.Chemscore.Internal.Correction.Weighted>
   9.000000E+99

> <Gold.Protein.RotatedTorsions>
[ 6907 6896 6895 6894 ] final -114.65 input  -60.11 | X-H torsion
[ 7974 7965 7964 7962 ] final   -3.55 input  175.53 | X-H torsion
[ 8008 7997 7996 7995 ] final -113.01 input   59.86 | X-H torsion
[ 10167 10162 10161 10158 ] final  -14.42 input  -65.29 | X-H torsion
[ 10718 10713 10712 10709 ] final   14.01 input   66.30 | X-H torsion
[ 10763 10752 10751 10750 ] final  164.31 input  -60.55 | X-H torsion
[ 11005 11000 10999 10996 ] final -103.45 input  -57.11 | X-H torsion

> <Gold.Protein.ActiveResidues>
 VAL166  LYS551  ARG553  GLY616  TRP617  ASP618  TYR619  PRO620  LYS621  CYS622 
 ASP623  PHE694  ASN695  SER759  ASP760  ASP761  ALA762  ILE779  LEU786  VAL792 
 PHE793  MET794  SER795  GLU796  ALA797  LYS798  CYS799  TRP800  GLU811  SER814 

> <Gold.Protein.RotatedAtoms>
  150.7918  133.8771  159.3274 H   0  0  0  0  0  0  0  0  0  0  0  0  # atno 6907 bound_to 6896
  151.6607  135.0988  160.0188 H   0  0  0  0  0  0  0  0  0  0  0  0  # atno 6908 bound_to 6896
  152.3993  133.6755  159.6338 H   0  0  0  0  0  0  0  0  0  0  0  0  # atno 6909 bound_to 6896
  146.2387  140.1738  142.8332 H   0  0  0  0  0  0  0  0  0  0  0  0  # atno 7974 bound_to 7965
  155.0140  140.0393  157.2411 H   0  0  0  0  0  0  0  0  0  0  0  0  # atno 8008 bound_to 7997
  154.7435  140.2753  155.6329 H   0  0  0  0  0  0  0  0  0  0  0  0  # atno 8009 bound_to 7997
  156.2869  140.2661  156.2169 H   0  0  0  0  0  0  0  0  0  0  0  0  # atno 8010 bound_to 7997
  140.7201  143.5324  150.9505 H   0  0  0  0  0  0  0  0  0  0  0  0  # atno 10167 bound_to 10162
  157.0330  130.6200  149.5738 H   0  0  0  0  0  0  0  0  0  0  0  0  # atno 10718 bound_to 10713
  154.3070  135.2758  155.2584 H   0  0  0  0  0  0  0  0  0  0  0  0  # atno 10763 bound_to 10752
  154.4996  135.5812  153.6524 H   0  0  0  0  0  0  0  0  0  0  0  0  # atno 10764 bound_to 10752
  152.9893  135.6154  154.3244 H   0  0  0  0  0  0  0  0  0  0  0  0  # atno 10765 bound_to 10752
  141.1145  133.8641  157.1487 H   0  0  0  0  0  0  0  0  0  0  0  0  # atno 11005 bound_to 11000
  144.9990  140.8615  143.5293 LP  0  0  0  0  0  0  0  0  0  0  0  0  # atno 17320 bound_to 7965
  145.1754  139.2381  143.5320 LP  0  0  0  0  0  0  0  0  0  0  0  0  # atno 17321 bound_to 7965
  139.9044  143.6796  152.3126 LP  0  0  0  0  0  0  0  0  0  0  0  0  # atno 17342 bound_to 10162
  139.7157  144.7612  151.1038 LP  0  0  0  0  0  0  0  0  0  0  0  0  # atno 17343 bound_to 10162
  156.0063  130.5150  150.7841 LP  0  0  0  0  0  0  0  0  0  0  0  0  # atno 17370 bound_to 10713
  157.5163  131.0929  151.0135 LP  0  0  0  0  0  0  0  0  0  0  0  0  # atno 17371 bound_to 10713
  140.0059  135.0009  157.0291 LP  0  0  0  0  0  0  0  0  0  0  0  0  # atno 17394 bound_to 11000
  140.4683  134.1412  155.7200 LP  0  0  0  0  0  0  0  0  0  0  0  0  # atno 17395 bound_to 11000

$$$$
