AV-unprocessed.smi:283|AV-procd|sdf|2154|dock1
  -GOLD-   2262021493D 1   1.00000     0.00000
 Structure written by MMmdl.
 48 51  0  0  0  0  0  0  0  0  1 V2000
  152.2230  139.8835  156.1380 C   0  0  0  0  0  0  0  0  0  0  0  0
  151.1224  140.8632  156.5669 C   0  0  1  0  0  0  0  0  0  0  0  0
  149.8886  140.1289  156.8393 N   0  0  0  0  0  0  0  0  0  0  0  0
  148.8780  140.0983  155.9421 C   0  0  0  0  0  0  0  0  0  0  0  0
  148.3938  141.3065  155.5691 N   0  0  0  0  0  0  0  0  0  0  0  0
  147.4075  141.3858  154.6723 C   0  0  0  0  0  0  0  0  0  0  0  0
  146.7748  140.3966  154.0405 N   0  0  0  0  0  0  0  0  0  0  0  0
  147.2447  139.1730  154.4191 C   0  0  0  0  0  0  0  0  0  0  0  0
  148.2846  138.9366  155.3644 C   0  0  0  0  0  0  0  0  0  0  0  0
  148.4715  137.5665  155.5051 N   0  0  0  0  0  0  0  0  0  0  0  0
  147.6103  137.0337  154.6835 C   0  0  0  0  0  0  0  0  0  0  0  0
  146.8283  137.9273  153.9890 N   0  0  0  0  0  0  0  0  0  0  0  0
  145.7623  137.6038  152.9848 C   0  0  2  0  0  0  0  0  0  0  0  0
  145.6611  136.2168  152.8435 O   0  0  0  0  0  0  0  0  0  0  0  0
  145.8830  135.8346  151.4870 C   0  0  1  0  0  0  0  0  0  0  0  0
  145.0424  134.5870  151.1726 C   0  0  0  0  0  0  0  0  0  0  0  0
  145.6634  133.8043  150.1753 O   0  0  0  0  0  0  0  0  0  0  0  0
  145.5050  137.0899  150.6954 C   0  0  2  0  0  0  0  0  0  0  0  0
  146.0555  137.1318  149.3927 O   0  0  0  0  0  0  0  0  0  0  0  0
  146.0306  138.2030  151.5907 C   0  0  2  0  0  0  0  0  0  0  0  0
  147.3988  138.4981  151.3515 O   0  0  0  0  0  0  0  0  0  0  0  0
  151.6133  141.7421  157.7212 C   0  0  0  0  0  0  0  0  0  0  0  0
  151.5443  143.1510  157.6143 C   0  0  0  0  0  0  0  0  0  0  0  0
  151.9954  143.9744  158.6627 C   0  0  0  0  0  0  0  0  0  0  0  0
  152.5141  143.3977  159.8356 C   0  0  0  0  0  0  0  0  0  0  0  0
  152.5733  141.9974  159.9601 C   0  0  0  0  0  0  0  0  0  0  0  0
  152.1219  141.1679  158.9139 C   0  0  0  0  0  0  0  0  0  0  0  0
  152.2037  139.4542  159.1306 Cl  0  0  0  0  0  0  0  0  0  0  0  0
  144.8399  137.9770  153.4319 H   0  0  0  0  0  0  0  0  0  0  0  0
  146.9458  135.6175  151.3678 H   0  0  0  0  0  0  0  0  0  0  0  0
  144.4189  137.1669  150.6250 H   0  0  0  0  0  0  0  0  0  0  0  0
  145.4572  139.1228  151.4722 H   0  0  0  0  0  0  0  0  0  0  0  0
  153.1287  140.4152  155.8448 H   0  0  0  0  0  0  0  0  0  0  0  0
  151.9052  139.2835  155.2848 H   0  0  0  0  0  0  0  0  0  0  0  0
  152.4851  139.2009  156.9470 H   0  0  0  0  0  0  0  0  0  0  0  0
  150.9119  141.4938  155.7049 H   0  0  0  0  0  0  0  0  0  0  0  0
  149.7400  139.9055  157.8127 H   0  0  0  0  0  0  0  0  0  0  0  0
  147.0795  142.3843  154.4234 H   0  0  0  0  0  0  0  0  0  0  0  0
  147.5202  135.9639  154.5633 H   0  0  0  0  0  0  0  0  0  0  0  0
  144.9410  133.9725  152.0676 H   0  0  0  0  0  0  0  0  0  0  0  0
  144.0359  134.8600  150.8544 H   0  0  0  0  0  0  0  0  0  0  0  0
  145.5047  134.2063  149.3350 H   0  0  0  0  0  0  0  0  0  0  0  0
  145.9370  136.2823  148.9951 H   0  0  0  0  0  0  0  0  0  0  0  0
  147.9213  138.0232  151.9795 H   0  0  0  0  0  0  0  0  0  0  0  0
  151.1460  143.6116  156.7222 H   0  0  0  0  0  0  0  0  0  0  0  0
  151.9428  145.0490  158.5661 H   0  0  0  0  0  0  0  0  0  0  0  0
  152.8616  144.0277  160.6410 H   0  0  0  0  0  0  0  0  0  0  0  0
  152.9656  141.5579  160.8654 H   0  0  0  0  0  0  0  0  0  0  0  0
  1  2  1  0  0  0  0
  1 33  1  0  0  0  0
  1 34  1  0  0  0  0
  1 35  1  0  0  0  0
  2  3  1  0  0  0  0
  2 22  1  0  0  0  0
  2 36  1  0  0  0  0
  3  4  1  0  0  0  0
  3 37  1  0  0  0  0
  4  9  1  0  0  0  0
  4  5  2  0  0  0  0
  5  6  1  0  0  0  0
  6  7  2  0  0  0  0
  6 38  1  0  0  0  0
  7  8  1  0  0  0  0
  8 12  1  0  0  0  0
  8  9  2  0  0  0  0
  9 10  1  0  0  0  0
 10 11  2  0  0  0  0
 11 12  1  0  0  0  0
 11 39  1  0  0  0  0
 12 13  1  0  0  0  0
 13 29  1  0  0  0  0
 13 20  1  0  0  0  0
 13 14  1  0  0  0  0
 14 15  1  0  0  0  0
 15 30  1  0  0  0  0
 15 16  1  0  0  0  0
 15 18  1  0  0  0  0
 16 17  1  0  0  0  0
 16 40  1  0  0  0  0
 16 41  1  0  0  0  0
 17 42  1  0  0  0  0
 18 31  1  0  0  0  0
 18 19  1  0  0  0  0
 18 20  1  0  0  0  0
 19 43  1  0  0  0  0
 20 32  1  0  0  0  0
 20 21  1  0  0  0  0
 21 44  1  0  0  0  0
 22 27  1  0  0  0  0
 22 23  2  0  0  0  0
 23 24  1  0  0  0  0
 23 45  1  0  0  0  0
 24 25  2  0  0  0  0
 24 46  1  0  0  0  0
 25 26  1  0  0  0  0
 25 47  1  0  0  0  0
 26 27  2  0  0  0  0
 26 48  1  0  0  0  0
 27 28  1  0  0  0  0
M  END
> <s_m_source_file>
AV-unprocessed.smi

> <i_m_source_file_index>
283

> <i_lp_mmshare_version>
43012

> <i_f3d_flags>
0

> <s_epik_input>
Q2xjMVtjSF1bY0hdW2NIXVtjSF1jMVtDQEhdKFtDSDNdKVtOSF1jKG5bY0hdbjIpYyhjMjMpbltjSF1uM1tDQEBIXTRPW0NASF0oW0NIMl1bT0hdKVtDQEBIXShbT0hdKVtDQEhdNFtPSF0=

> <s_epik_cmdline>
J2VwaWtfcHl0aG9uJywgJy1waCcsICc3LjAnLCAnLXRuJywgJzgnLCAnLW1hJywgJzIwMCcsICctbWV0YWxfYmluZGluZycsICctaW1hZScsICc8aW5maWxlLm1hZT4nLCAnLW9tYWUnLCAnPG91dGZpbGUubWFlPic=

> <r_lp_tautomer_probability>
1

> <r_epik_Ionization_Penalty>
0.000266407

> <r_epik_Ionization_Penalty_Charging>
0

> <r_epik_Ionization_Penalty_Neutral>
0.000266407

> <r_epik_State_Penalty>
-0

> <r_epik_Charging_Adjusted_Penalty>
0

> <i_epik_Tot_Q>
0

> <i_epik_Tot_abs_Q>
0

> <r_epik_Metal_State_Penalty>
-0

> <b_epik_Metal_Only>
0

> <s_epik_Chemistry_Notes>
This compound contains an acetal/aminal-like group ( X-CH(R)-Y where X, Y are N, S, or O) that may be acid/base labile, releasing an aldehyde.

> <s_lp_Force_Field>
OPLS_2005

> <r_lp_Energy>
52.4072

> <b_lp_Chiralities_Consistent>
1

> <s_lp_Variant>
AV-unprocessed.smi:283-30

> <Gold.Version>
5.8.1

> <Gold.Id.Protein>
6NUR|6NUR_protein|mol2

> <Gold.PLP.Fitness>
49.4748

> <Gold.PLP.PLP>
-41.1043

> <Gold.PLP.part.hbond>
-7.0000

> <Gold.PLP.part.metal>
0.0000

> <Gold.PLP.part.buried>
5.0738

> <Gold.PLP.part.nonpolar>
-39.2240

> <Gold.PLP.part.repulsive>
0.4397

> <Gold.PLP.ligand.clash>
0.0000

> <Gold.PLP.ligand.torsion>
1.2483

> <Gold.PLP.Chemscore.Hbond>
3.5580

> <Gold.PLP.Chemscore.CHOScore>
0.0000

> <Gold.PLP.Chemscore.Metal>
0.0000

> <Gold.Chemscore.Hbonds>
donor molecule, donor type, donor heavy atom, donor atom, acceptor molecule, acceptor atom, score
      L1  H    17    42       P1  7921  1.00
      L1  H    19    43       P1  7921  1.00
      L1  H    21    44       P1  7948  0.61
      P1  H  7954  7966       L1    21  0.85

> <Gold.PLP.Chemscore.Internal.Correction>
0.1932

> <Gold.Rescore>
     Score         DG    S(hbond)    S(metal)    S(lipo)     H(rot)  DE(clash)    DE(int)     intcor
     12.37     -17.14       2.74        0.00     111.14       4.10       3.61       1.15       ----

> <Gold.Chemscore.Fitness>
12.3707

> <Gold.Chemscore.DG>
-17.1399

> <Gold.Chemscore.ZeroCoef>
-5.4800

> <Gold.Chemscore.Hbond>
2.7377

> <Gold.Chemscore.Metal>
0.0000

> <Gold.Chemscore.Lipo>
111.1449

> <Gold.Chemscore.Internal_Hbond>
0.0000

> <Gold.Chemscore.DEClash>
3.6145

> <Gold.Chemscore.DEInternal>
1.1548

> <Gold.Chemscore.Rot>
4.0968

> <Gold.Chemscore.Internal.Correction>
   9.000000E+99

> <Gold.Chemscore.Hbonds>
donor molecule, donor type, donor heavy atom, donor atom, acceptor molecule, acceptor atom, score
      L1  H    17    42       P1  7921  0.80
      L1  H    19    43       P1  7921  0.96
      L1  H    21    44       P1  7948  0.57
      P1  H  7954  7966       L1    21  0.14

> <Gold.Chemscore.Hbond.Weighted>
-9.1439

> <Gold.Chemscore.Metal.Weighted>
-0.0000

> <Gold.Chemscore.Lipo.Weighted>
-13.0040

> <Gold.Chemscore.Internal_Hbond.Weighted>
0.0000

> <Gold.Chemscore.DEClash.Weighted>
3.6145

> <Gold.Chemscore.DEInternal.Weighted>
1.1548

> <Gold.Chemscore.Rot.Weighted>
10.4879

> <Gold.Chemscore.Internal.Correction.Weighted>
   9.000000E+99

> <Gold.Protein.RotatedTorsions>
[ 6907 6896 6895 6894 ] final  102.59 input  -60.11 | X-H torsion
[ 7974 7965 7964 7962 ] final -120.18 input  175.53 | X-H torsion
[ 8008 7997 7996 7995 ] final   -6.52 input   59.86 | X-H torsion
[ 10167 10162 10161 10158 ] final  -14.76 input  -65.29 | X-H torsion
[ 10718 10713 10712 10709 ] final   63.30 input   66.30 | X-H torsion
[ 10763 10752 10751 10750 ] final  -33.02 input  -60.55 | X-H torsion
[ 11005 11000 10999 10996 ] final -173.67 input  -57.11 | X-H torsion

> <Gold.Protein.ActiveResidues>
 VAL166  LYS551  ARG553  GLY616  TRP617  ASP618  TYR619  PRO620  LYS621  CYS622 
 ASP623  PHE694  ASN695  SER759  ASP760  ASP761  ALA762  ILE779  LEU786  VAL792 
 PHE793  MET794  SER795  GLU796  ALA797  LYS798  CYS799  TRP800  GLU811  SER814 

> <Gold.Protein.RotatedAtoms>
  152.5319  133.9952  159.7869 H   0  0  0  0  0  0  0  0  0  0  0  0  # atno 6907 bound_to 6896
  151.0181  133.5894  159.2681 H   0  0  0  0  0  0  0  0  0  0  0  0  # atno 6908 bound_to 6896
  151.2944  135.0758  159.9269 H   0  0  0  0  0  0  0  0  0  0  0  0  # atno 6909 bound_to 6896
  145.0542  140.8241  143.4191 H   0  0  0  0  0  0  0  0  0  0  0  0  # atno 7974 bound_to 7965
  154.5929  140.2430  155.7896 H   0  0  0  0  0  0  0  0  0  0  0  0  # atno 8008 bound_to 7997
  156.2259  140.2982  156.0021 H   0  0  0  0  0  0  0  0  0  0  0  0  # atno 8009 bound_to 7997
  155.2342  140.0404  157.2957 H   0  0  0  0  0  0  0  0  0  0  0  0  # atno 8010 bound_to 7997
  140.7207  143.5288  150.9545 H   0  0  0  0  0  0  0  0  0  0  0  0  # atno 10167 bound_to 10162
  157.5962  130.9098  149.9699 H   0  0  0  0  0  0  0  0  0  0  0  0  # atno 10718 bound_to 10713
  153.8233  135.6872  153.4824 H   0  0  0  0  0  0  0  0  0  0  0  0  # atno 10763 bound_to 10752
  153.1556  135.4600  154.9697 H   0  0  0  0  0  0  0  0  0  0  0  0  # atno 10764 bound_to 10752
  154.7918  135.3304  154.7703 H   0  0  0  0  0  0  0  0  0  0  0  0  # atno 10765 bound_to 10752
  140.4832  134.6055  157.4927 H   0  0  0  0  0  0  0  0  0  0  0  0  # atno 11005 bound_to 11000
  145.1489  139.2526  143.5451 LP  0  0  0  0  0  0  0  0  0  0  0  0  # atno 17320 bound_to 7965
  146.3520  140.1186  142.8601 LP  0  0  0  0  0  0  0  0  0  0  0  0  # atno 17321 bound_to 7965
  139.9007  143.6839  152.3131 LP  0  0  0  0  0  0  0  0  0  0  0  0  # atno 17342 bound_to 10162
  139.7187  144.7607  151.0990 LP  0  0  0  0  0  0  0  0  0  0  0  0  # atno 17343 bound_to 10162
  156.1025  130.3655  150.0193 LP  0  0  0  0  0  0  0  0  0  0  0  0  # atno 17370 bound_to 10713
  156.8306  130.9391  151.3637 LP  0  0  0  0  0  0  0  0  0  0  0  0  # atno 17371 bound_to 10713
  139.9814  134.7131  155.9853 LP  0  0  0  0  0  0  0  0  0  0  0  0  # atno 17394 bound_to 11000
  141.1521  133.6547  156.4045 LP  0  0  0  0  0  0  0  0  0  0  0  0  # atno 17395 bound_to 11000

$$$$
