AV-unprocessed.smi:36|AV-procd|sdf|292|dock6
  -GOLD-   2262016 83D 1   1.00000     0.00000
 Structure written by MMmdl.
 64 67  0  0  0  0  0  0  0  0  1 V2000
  161.0776  144.4018  164.9647 C   0  0  0  0  0  0  0  0  0  0  0  0
  162.2708  143.6914  164.3047 C   0  0  0  0  0  0  0  0  0  0  0  0
  163.0523  144.6869  163.4317 C   0  0  0  0  0  0  0  0  0  0  0  0
  163.1974  143.1118  165.3864 C   0  0  0  0  0  0  0  0  0  0  0  0
  161.6336  142.2647  163.2054 Si  0  0  0  0  0  0  0  0  0  0  0  0
  160.4654  142.9168  161.8549 C   0  0  0  0  0  0  0  0  0  0  0  0
  163.0708  141.3126  162.4070 C   0  0  0  0  0  0  0  0  0  0  0  0
  160.7748  141.1896  164.1895 O   0  0  0  0  0  0  0  0  0  0  0  0
  161.3653  140.4585  165.2436 C   0  0  0  0  0  0  0  0  0  0  0  0
  160.6281  139.1232  165.4048 C   0  0  1  0  0  0  0  0  0  0  0  0
  159.2716  139.3302  165.8136 O   0  0  0  0  0  0  0  0  0  0  0  0
  158.3941  138.5589  165.0439 C   0  0  1  0  0  0  0  0  0  0  0  0
  157.7162  139.4590  164.0523 N   0  0  0  0  0  0  0  0  0  0  0  0
  157.8866  140.7852  163.8812 C   0  0  0  0  0  0  0  0  0  0  0  0
  157.1358  141.3427  162.9354 N   0  0  0  0  0  0  0  0  0  0  0  0
  156.3921  140.2665  162.4657 C   0  0  0  0  0  0  0  0  0  0  0  0
  155.3517  140.2093  161.4165 C   0  0  0  0  0  0  0  0  0  0  0  0
  155.0621  141.3125  160.7959 N   0  0  0  0  0  0  0  0  0  0  0  0
  154.0894  141.3211  159.8048 C   0  0  0  0  0  0  0  0  0  0  0  0
  153.9119  140.5144  158.8879 O   0  0  0  0  0  0  0  0  0  0  0  0
  153.1840  142.5072  159.8791 C   0  0  0  0  0  0  0  0  0  0  0  0
  152.5944  143.0233  158.7054 C   0  0  0  0  0  0  0  0  0  0  0  0
  151.7337  144.1360  158.7778 C   0  0  0  0  0  0  0  0  0  0  0  0
  151.4588  144.7345  160.0227 C   0  0  0  0  0  0  0  0  0  0  0  0
  152.0438  144.2199  161.1961 C   0  0  0  0  0  0  0  0  0  0  0  0
  152.9045  143.1071  161.1253 C   0  0  0  0  0  0  0  0  0  0  0  0
  154.8609  138.9020  161.3039 N   0  0  0  0  0  0  0  0  0  0  0  0
  155.2780  137.7984  162.0640 C   0  0  0  0  0  0  0  0  0  0  0  0
  156.1950  137.8352  162.9939 N   0  0  0  0  0  0  0  0  0  0  0  0
  156.7200  139.1117  163.1427 C   0  0  0  0  0  0  0  0  0  0  0  0
  159.2630  137.5285  164.3224 C   0  0  0  0  0  0  0  0  0  0  0  0
  160.5397  138.3128  164.1076 C   0  0  2  0  0  0  0  0  0  0  0  0
  161.6418  137.4466  163.9353 O   0  0  0  0  0  0  0  0  0  0  0  0
  161.4089  145.2253  165.5986 H   0  0  0  0  0  0  0  0  0  0  0  0
  160.5037  143.7176  165.5899 H   0  0  0  0  0  0  0  0  0  0  0  0
  160.3985  144.8151  164.2185 H   0  0  0  0  0  0  0  0  0  0  0  0
  162.4185  145.1190  162.6571 H   0  0  0  0  0  0  0  0  0  0  0  0
  163.8942  144.2029  162.9359 H   0  0  0  0  0  0  0  0  0  0  0  0
  163.4493  145.5098  164.0269 H   0  0  0  0  0  0  0  0  0  0  0  0
  163.6023  143.8978  166.0248 H   0  0  0  0  0  0  0  0  0  0  0  0
  164.0399  142.5806  164.9424 H   0  0  0  0  0  0  0  0  0  0  0  0
  162.6673  142.4080  166.0284 H   0  0  0  0  0  0  0  0  0  0  0  0
  160.9494  143.6722  161.2366 H   0  0  0  0  0  0  0  0  0  0  0  0
  159.5716  143.3701  162.2830 H   0  0  0  0  0  0  0  0  0  0  0  0
  160.1382  142.1193  161.1884 H   0  0  0  0  0  0  0  0  0  0  0  0
  163.6678  141.9553  161.7606 H   0  0  0  0  0  0  0  0  0  0  0  0
  162.7098  140.4847  161.7973 H   0  0  0  0  0  0  0  0  0  0  0  0
  163.7402  140.8927  163.1576 H   0  0  0  0  0  0  0  0  0  0  0  0
  162.4286  140.3033  165.0649 H   0  0  0  0  0  0  0  0  0  0  0  0
  161.2788  141.0475  166.1571 H   0  0  0  0  0  0  0  0  0  0  0  0
  161.1088  138.5226  166.1792 H   0  0  0  0  0  0  0  0  0  0  0  0
  157.5797  138.1361  165.6333 H   0  0  0  0  0  0  0  0  0  0  0  0
  158.5754  141.3685  164.4713 H   0  0  0  0  0  0  0  0  0  0  0  0
  152.7984  142.5677  157.7470 H   0  0  0  0  0  0  0  0  0  0  0  0
  151.2832  144.5292  157.8785 H   0  0  0  0  0  0  0  0  0  0  0  0
  150.7978  145.5869  160.0777 H   0  0  0  0  0  0  0  0  0  0  0  0
  151.8312  144.6780  162.1508 H   0  0  0  0  0  0  0  0  0  0  0  0
  153.3484  142.7167  162.0298 H   0  0  0  0  0  0  0  0  0  0  0  0
  154.7632  136.8691  161.8160 H   0  0  0  0  0  0  0  0  0  0  0  0
  159.4252  136.6865  164.9970 H   0  0  0  0  0  0  0  0  0  0  0  0
  158.8098  137.1604  163.4021 H   0  0  0  0  0  0  0  0  0  0  0  0
  160.4376  138.9678  163.2409 H   0  0  0  0  0  0  0  0  0  0  0  0
  162.1291  137.7286  163.1763 H   0  0  0  0  0  0  0  0  0  0  0  0
  154.1398  138.7412  160.6154 H   0  0  0  0  0  0  0  0  0  0  0  0
  1  2  1  0  0  0  0
  1 34  1  0  0  0  0
  1 35  1  0  0  0  0
  1 36  1  0  0  0  0
  2  3  1  0  0  0  0
  2  4  1  0  0  0  0
  2  5  1  0  0  0  0
  3 37  1  0  0  0  0
  3 38  1  0  0  0  0
  3 39  1  0  0  0  0
  4 40  1  0  0  0  0
  4 41  1  0  0  0  0
  4 42  1  0  0  0  0
  5  6  1  0  0  0  0
  5  7  1  0  0  0  0
  5  8  1  0  0  0  0
  6 43  1  0  0  0  0
  6 44  1  0  0  0  0
  6 45  1  0  0  0  0
  7 46  1  0  0  0  0
  7 47  1  0  0  0  0
  7 48  1  0  0  0  0
  8  9  1  0  0  0  0
  9 10  1  0  0  0  0
  9 49  1  0  0  0  0
  9 50  1  0  0  0  0
 10 32  1  0  0  0  0
 10 11  1  0  0  0  0
 10 51  1  0  0  0  0
 11 12  1  0  0  0  0
 12 13  1  0  0  0  0
 12 31  1  0  0  0  0
 12 52  1  0  0  0  0
 13 30  1  0  0  0  0
 13 14  1  0  0  0  0
 14 15  2  0  0  0  0
 14 53  1  0  0  0  0
 15 16  1  0  0  0  0
 16 30  2  0  0  0  0
 16 17  1  0  0  0  0
 17 18  2  0  0  0  0
 17 27  1  0  0  0  0
 18 19  1  0  0  0  0
 19 20  2  0  0  0  0
 19 21  1  0  0  0  0
 21 26  1  0  0  0  0
 21 22  2  0  0  0  0
 22 23  1  0  0  0  0
 22 54  1  0  0  0  0
 23 24  2  0  0  0  0
 23 55  1  0  0  0  0
 24 25  1  0  0  0  0
 24 56  1  0  0  0  0
 25 26  2  0  0  0  0
 25 57  1  0  0  0  0
 26 58  1  0  0  0  0
 27 28  1  0  0  0  0
 27 64  1  0  0  0  0
 28 29  2  0  0  0  0
 28 59  1  0  0  0  0
 29 30  1  0  0  0  0
 31 32  1  0  0  0  0
 31 60  1  0  0  0  0
 31 61  1  0  0  0  0
 32 33  1  0  0  0  0
 32 62  1  0  0  0  0
 33 63  1  0  0  0  0
M  END
> <s_m_source_file>
AV-unprocessed.smi

> <i_m_source_file_index>
36

> <i_lp_mmshare_version>
43012

> <i_f3d_flags>
0

> <s_epik_input>
W0NIM11DKFtDSDNdKShbQ0gzXSlbU2ldKFtDSDNdKShbQ0gzXSlPW0NIMl1bQ0BASF0xT1tDQEhdKFtDSDJdW0NASF0xW09IXSluKFtjSF1uMiljKGMyMyluW2NIXW5jM1tOSF1DKD1PKWM0W2NIXVtjSF1bY0hdW2NIXVtjSF00

> <s_epik_cmdline>
J2VwaWtfcHl0aG9uJywgJy1waCcsICc3LjAnLCAnLXRuJywgJzgnLCAnLW1hJywgJzIwMCcsICctbWV0YWxfYmluZGluZycsICctaW1hZScsICc8aW5maWxlLm1hZT4nLCAnLW9tYWUnLCAnPG91dGZpbGUubWFlPic=

> <r_epik_Ionization_Penalty>
0.0850405

> <r_epik_Ionization_Penalty_Charging>
0.0850403

> <r_epik_Ionization_Penalty_Neutral>
1.47497e-07

> <r_epik_State_Penalty>
2.6133

> <r_epik_Charging_Adjusted_Penalty>
2.69834

> <i_epik_Tot_Q>
0

> <i_epik_Tot_abs_Q>
0

> <r_epik_Metal_State_Penalty>
2.92945

> <b_epik_Metal_Only>
0

> <s_epik_Chemistry_Notes>
This compound contains an acetal/aminal-like group ( X-CH(R)-Y where X, Y are N, S, or O) that may be acid/base labile, releasing an aldehyde.

> <s_lp_Force_Field>
OPLS_2005

> <r_lp_Energy>
45.4031

> <b_lp_Chiralities_Consistent>
1

> <s_lp_Variant>
AV-unprocessed.smi:36-14

> <Gold.Version>
5.8.1

> <Gold.Id.Protein>
6NUR|6NUR_protein|mol2

> <Gold.PLP.Fitness>
44.5308

> <Gold.PLP.PLP>
-44.5499

> <Gold.PLP.part.hbond>
-3.6302

> <Gold.PLP.part.metal>
0.0000

> <Gold.PLP.part.buried>
-4.3517

> <Gold.PLP.part.nonpolar>
-36.4744

> <Gold.PLP.part.repulsive>
0.0751

> <Gold.PLP.ligand.clash>
0.0000

> <Gold.PLP.ligand.torsion>
0.9806

> <Gold.PLP.Chemscore.Hbond>
0.5720

> <Gold.PLP.Chemscore.CHOScore>
0.0000

> <Gold.PLP.Chemscore.Metal>
0.0000

> <Gold.Chemscore.Hbonds>
donor molecule, donor type, donor heavy atom, donor atom, acceptor molecule, acceptor atom, score
      P1  H  7997  8008       L1    20  0.72

> <Gold.PLP.Chemscore.Internal.Correction>
0.2261

> <Gold.Rescore>
     Score         DG    S(hbond)    S(metal)    S(lipo)     H(rot)  DE(clash)    DE(int)     intcor
      9.17     -10.71       0.96        0.00      76.36       2.70       0.13       1.42       ----

> <Gold.Chemscore.Fitness>
9.1671

> <Gold.Chemscore.DG>
-10.7083

> <Gold.Chemscore.ZeroCoef>
-5.4800

> <Gold.Chemscore.Hbond>
0.9632

> <Gold.Chemscore.Metal>
0.0000

> <Gold.Chemscore.Lipo>
76.3563

> <Gold.Chemscore.Internal_Hbond>
0.0000

> <Gold.Chemscore.DEClash>
0.1255

> <Gold.Chemscore.DEInternal>
1.4157

> <Gold.Chemscore.Rot>
2.7041

> <Gold.Chemscore.Internal.Correction>
   9.000000E+99

> <Gold.Chemscore.Hbonds>
donor molecule, donor type, donor heavy atom, donor atom, acceptor molecule, acceptor atom, score
      P1  H  7997  8008       L1    20  0.71

> <Gold.Chemscore.Hbond.Weighted>
-3.2171

> <Gold.Chemscore.Metal.Weighted>
-0.0000

> <Gold.Chemscore.Lipo.Weighted>
-8.9337

> <Gold.Chemscore.Internal_Hbond.Weighted>
0.0000

> <Gold.Chemscore.DEClash.Weighted>
0.1255

> <Gold.Chemscore.DEInternal.Weighted>
1.4157

> <Gold.Chemscore.Rot.Weighted>
6.9225

> <Gold.Chemscore.Internal.Correction.Weighted>
   9.000000E+99

> <Gold.Protein.RotatedTorsions>
[ 6907 6896 6895 6894 ] final -114.35 input  -60.11 | X-H torsion
[ 7974 7965 7964 7962 ] final   15.28 input  175.53 | X-H torsion
[ 8008 7997 7996 7995 ] final -112.64 input   59.86 | X-H torsion
[ 10167 10162 10161 10158 ] final  -48.82 input  -65.29 | X-H torsion
[ 10718 10713 10712 10709 ] final  -41.61 input   66.30 | X-H torsion
[ 10763 10752 10751 10750 ] final   -5.88 input  -60.55 | X-H torsion
[ 11005 11000 10999 10996 ] final  141.92 input  -57.11 | X-H torsion

> <Gold.Protein.ActiveResidues>
 VAL166  LYS551  ARG553  GLY616  TRP617  ASP618  TYR619  PRO620  LYS621  CYS622 
 ASP623  PHE694  ASN695  SER759  ASP760  ASP761  ALA762  ILE779  LEU786  VAL792 
 PHE793  MET794  SER795  GLU796  ALA797  LYS798  CYS799  TRP800  GLU811  SER814 

> <Gold.Protein.RotatedAtoms>
  150.7896  133.8813  159.3286 H   0  0  0  0  0  0  0  0  0  0  0  0  # atno 6907 bound_to 6896
  151.6654  135.0981  160.0197 H   0  0  0  0  0  0  0  0  0  0  0  0  # atno 6908 bound_to 6896
  152.3967  133.6719  159.6318 H   0  0  0  0  0  0  0  0  0  0  0  0  # atno 6909 bound_to 6896
  146.2282  139.8917  142.8553 H   0  0  0  0  0  0  0  0  0  0  0  0  # atno 7974 bound_to 7965
  155.0083  140.0394  157.2389 H   0  0  0  0  0  0  0  0  0  0  0  0  # atno 8008 bound_to 7997
  154.7483  140.2762  155.6291 H   0  0  0  0  0  0  0  0  0  0  0  0  # atno 8009 bound_to 7997
  156.2879  140.2652  156.2229 H   0  0  0  0  0  0  0  0  0  0  0  0  # atno 8010 bound_to 7997
  140.6713  143.2723  151.4126 H   0  0  0  0  0  0  0  0  0  0  0  0  # atno 10167 bound_to 10162
  156.2685  130.4204  149.8464 H   0  0  0  0  0  0  0  0  0  0  0  0  # atno 10718 bound_to 10713
  153.4047  135.7006  153.6401 H   0  0  0  0  0  0  0  0  0  0  0  0  # atno 10763 bound_to 10752
  153.4920  135.3670  155.2497 H   0  0  0  0  0  0  0  0  0  0  0  0  # atno 10764 bound_to 10752
  154.8713  135.4091  154.3388 H   0  0  0  0  0  0  0  0  0  0  0  0  # atno 10765 bound_to 10752
  140.0438  134.9291  157.0892 H   0  0  0  0  0  0  0  0  0  0  0  0  # atno 11005 bound_to 11000
  145.2411  141.0009  143.3935 LP  0  0  0  0  0  0  0  0  0  0  0  0  # atno 17320 bound_to 7965
  144.9451  139.4145  143.6430 LP  0  0  0  0  0  0  0  0  0  0  0  0  # atno 17321 bound_to 7965
  139.5983  144.1349  152.2169 LP  0  0  0  0  0  0  0  0  0  0  0  0  # atno 17342 bound_to 10162
  140.0725  144.5767  150.7181 LP  0  0  0  0  0  0  0  0  0  0  0  0  # atno 17343 bound_to 10162
  156.5954  130.8524  151.3418 LP  0  0  0  0  0  0  0  0  0  0  0  0  # atno 17370 bound_to 10713
  157.7276  130.9645  150.1704 LP  0  0  0  0  0  0  0  0  0  0  0  0  # atno 17371 bound_to 10713
  140.4026  134.2066  155.7163 LP  0  0  0  0  0  0  0  0  0  0  0  0  # atno 17394 bound_to 11000
  141.1896  133.8234  157.0949 LP  0  0  0  0  0  0  0  0  0  0  0  0  # atno 17395 bound_to 11000

$$$$
