#       Name:                AV-unprocessed.smi:1046
#       Creating user name   scv26
#       Creation time:       Fri Mar 27 02:57:35 2020


#       File generated by GOLD software.
#

@<TRIPOS>MOLECULE
AV-unprocessed.smi:1046
    59    61     1
SMALL
NO_CHARGES


@<TRIPOS>ATOM
      1 ****        -6.4297   0.8239  -4.1032 C.3            1 S1                 0.0000
      2 ****        -5.1982   0.7927  -3.2154 C.ar           1 S1                 0.0000
      3 ****        -5.3627   0.8042  -1.8121 C.ar           1 S1                 0.0000
      4 ****        -4.2437   0.7739  -0.9519 C.ar           1 S1                 0.0000
      5 ****        -4.1724   0.7744   0.4306 N.2            1 S1                 0.0000
      6 ****        -2.8588   0.7355   0.6315 C.2            1 S1                 0.0000
      7 ****        -2.0682   0.7075  -0.4588 N.pl3          1 S1                 0.0000
      8 ****        -0.6171   0.6619  -0.4831 C.3            1 S1                 0.0000
      9 ****        -0.0724  -0.7755  -0.3542 C.3            1 S1                 0.0000
     10 ****        -0.5204  -1.5446  -1.4522 O.3            1 S1                 0.0000
     11 ****         1.4692  -0.8366  -0.3373 C.3            1 S1                 0.0000
     12 ****         2.0716  -0.1335   0.8243 N.4            1 S1                 1.0000
     13 ****         3.5085   0.1786   0.6121 C.3            1 S1                 0.0000
     14 ****         4.0664   0.9818   1.8051 C.3            1 S1                 0.0000
     15 ****         3.8994   0.3018   3.0893 N.3            1 S1                 0.0000
     16 ****         4.7956  -0.8483   3.2453 C.3            1 S1                 0.0000
     17 ****         4.8508  -1.4355   4.6648 C.3            1 S1                 0.0000
     18 ****         5.8263  -2.4530   4.7134 O.3            1 S1                 0.0000
     19 ****         2.4786  -0.0041   3.2733 C.3            1 S1                 0.0000
     20 ****         1.8760  -0.8346   2.1216 C.3            1 S1                 0.0000
     21 ****        -2.9448   0.7330  -1.5385 C.ar           1 S1                 0.0000
     22 ****        -2.7684   0.7219  -2.9332 C.ar           1 S1                 0.0000
     23 ****        -3.8974   0.7518  -3.7783 C.ar           1 S1                 0.0000
     24 ****        -3.6968   0.7380  -5.2833 C.3            1 S1                 0.0000
     25 ****        -7.3463   0.8346  -3.5129 H              1 S1                 0.0000
     26 ****        -6.4579  -0.0545  -4.7482 H              1 S1                 0.0000
     27 ****        -6.4251   1.7154  -4.7307 H              1 S1                 0.0000
     28 ****        -6.3535   0.8356  -1.3832 H              1 S1                 0.0000
     29 ****        -2.4467   0.7246   1.6301 H              1 S1                 0.0000
     30 ****        -0.2666   1.1252  -1.4065 H              1 S1                 0.0000
     31 ****        -0.2496   1.2836   0.3341 H              1 S1                 0.0000
     32 ****        -0.4800  -1.2427   0.5418 H              1 S1                 0.0000
     33 ****        -1.4659  -1.5297  -1.4669 H              1 S1                 0.0000
     34 ****         1.8111  -1.8730  -0.3429 H              1 S1                 0.0000
     35 ****         1.8415  -0.3876  -1.2597 H              1 S1                 0.0000
     36 ****         4.0724  -0.7433   0.4643 H              1 S1                 0.0000
     37 ****         3.6239   0.7664  -0.2993 H              1 S1                 0.0000
     38 ****         5.1203   1.2085   1.6392 H              1 S1                 0.0000
     39 ****         3.5600   1.9471   1.8465 H              1 S1                 0.0000
     40 ****         4.5366  -1.6365   2.5387 H              1 S1                 0.0000
     41 ****         5.8068  -0.5359   2.9809 H              1 S1                 0.0000
     42 ****         5.1054  -0.6636   5.3916 H              1 S1                 0.0000
     43 ****         3.8938  -1.8648   4.9596 H              1 S1                 0.0000
     44 ****         5.8640  -2.7924   5.5947 H              1 S1                 0.0000
     45 ****         2.3157  -0.5112   4.2235 H              1 S1                 0.0000
     46 ****         1.9261   0.9334   3.3506 H              1 S1                 0.0000
     47 ****         0.8141  -0.9753   2.3175 H              1 S1                 0.0000
     48 ****         2.3216  -1.8294   2.0823 H              1 S1                 0.0000
     49 ****        -1.7724   0.6877  -3.3494 H              1 S1                 0.0000
     50 ****        -2.6381   0.7287  -5.5442 H              1 S1                 0.0000
     51 ****        -4.1447   1.6224  -5.7369 H              1 S1                 0.0000
     52 ****        -4.1576  -0.1476  -5.7213 H              1 S1                 0.0000
     53 ****         1.6013   0.7570   0.8988 H              1 S1                 0.0000
     54 ****        -4.9137   0.7979   1.1014 LP             1 S1                 0.0000
     55 ****        -0.2001  -2.4870  -1.3560 LP             1 S1                 0.0000
     56 ****        -0.1645  -1.1567  -2.3024 LP             1 S1                 0.0000
     57 ****         4.1806   0.9093   3.8322 LP             1 S1                 0.0000
     58 ****         6.7175  -2.0778   4.4583 LP             1 S1                 0.0000
     59 ****         5.5798  -3.1865   4.0800 LP             1 S1                 0.0000
@<TRIPOS>BOND
    1    1    2 1     
    2    1   25 1     
    3    1   26 1     
    4    1   27 1     
    5    2   23 ar    
    6    2    3 ar    
    7    3    4 ar    
    8    3   28 1     
    9    4   21 ar    
   10    4    5 1     
   11    5    6 2     
   12    6    7 1     
   13    6   29 1     
   14    7    8 1     
   15    7   21 1     
   16    8    9 1     
   17    8   30 1     
   18    8   31 1     
   19    9   10 1     
   20    9   11 1     
   21    9   32 1     
   22   10   33 1     
   23   11   12 1     
   24   11   34 1     
   25   11   35 1     
   26   12   20 1     
   27   12   13 1     
   28   12   53 1     
   29   13   14 1     
   30   13   36 1     
   31   13   37 1     
   32   14   15 1     
   33   14   38 1     
   34   14   39 1     
   35   15   16 1     
   36   15   19 1     
   37   16   17 1     
   38   16   40 1     
   39   16   41 1     
   40   17   18 1     
   41   17   42 1     
   42   17   43 1     
   43   18   44 1     
   44   19   20 1     
   45   19   45 1     
   46   19   46 1     
   47   20   47 1     
   48   20   48 1     
   49   21   22 ar    
   50   22   23 ar    
   51   22   49 1     
   52   23   24 1     
   53   24   50 1     
   54   24   51 1     
   55   24   52 1     
   56    5   54 1     
   57   10   55 1     
   58   10   56 1     
   59   15   57 1     
   60   18   58 1     
   61   18   59 1     
@<TRIPOS>SUBSTRUCTURE
      1 S1             1
@<TRIPOS>SET
LONE_PAIRS      STATIC     ATOMS    <user>   **** ""
6 54 55 56 57 58 59
DONOR_HYDROGENS      STATIC     ATOMS    <user>   **** ""
3 33 53 44
ATOM$BLUE        STATIC     ATOMS    COLORGROUP SYSTEM
6 54 55 56 57 58 59
ATOM$RED        STATIC     ATOMS    COLORGROUP SYSTEM
3 33 53 44
