AV-unprocessed.smi:170|AV-procd|sdf|1413|dock7
  -GOLD-   2262019173D 1   1.00000     0.00000
 Structure written by MMmdl.
 57 61  0  0  0  0  0  0  0  0  1 V2000
  153.4987  134.9901  160.8432 O   0  0  0  0  0  0  0  0  0  0  0  0
  153.7754  136.0252  161.7683 C   0  0  1  0  0  0  0  0  0  0  0  0
  152.6206  137.0467  161.7451 C   0  0  0  0  0  0  0  0  0  0  0  0
  152.5515  137.7751  160.4905 N   0  0  0  0  0  0  0  0  0  0  0  0
  153.5024  138.6269  159.9742 C   0  0  0  0  0  0  0  0  0  0  0  0
  153.1994  139.1687  158.8256 N   0  0  0  0  0  0  0  0  0  0  0  0
  151.9459  138.6483  158.5299 C   0  0  0  0  0  0  0  0  0  0  0  0
  151.0367  138.8188  157.4531 C   0  0  0  0  0  0  0  0  0  0  0  0
  151.3184  139.6254  156.4024 N   0  0  0  0  0  0  0  0  0  0  0  0
  150.7188  139.0855  155.1867 C   0  0  0  0  0  0  0  0  0  0  0  0
  151.1704  139.8909  153.9623 C   0  0  0  0  0  0  0  0  0  0  0  0
  150.8270  141.2548  154.1608 O   0  0  0  0  0  0  0  0  0  0  0  0
  151.5002  141.8109  155.2838 C   0  0  0  0  0  0  0  0  0  0  0  0
  151.1075  141.0689  156.5842 C   0  0  2  0  0  0  0  0  0  0  0  0
  151.8936  141.6244  157.8016 C   0  0  0  0  0  0  0  0  0  0  0  0
  151.5967  143.0874  158.1251 C   0  0  0  0  0  0  0  0  0  0  0  0
  152.4119  144.1964  157.4427 C   0  0  0  0  0  0  0  0  0  0  0  0
  152.3093  145.0056  158.7385 C   0  0  0  0  0  0  0  0  0  0  0  0
  152.0531  143.6828  159.4657 C   0  0  0  0  0  0  0  0  0  0  0  0
  149.8702  138.1204  157.4908 N   0  0  0  0  0  0  0  0  0  0  0  0
  149.6037  137.3205  158.5277 C   0  0  0  0  0  0  0  0  0  0  0  0
  150.3510  137.0736  159.6062 N   0  0  0  0  0  0  0  0  0  0  0  0
  151.5257  137.7656  159.5630 C   0  0  0  0  0  0  0  0  0  0  0  0
  153.9815  135.4055  163.1630 C   0  0  1  0  0  0  0  0  0  0  0  0
  152.7605  134.6625  163.7097 C   0  0  0  0  0  0  0  0  0  0  0  0
  153.3973  133.7021  164.6871 C   0  0  0  0  0  0  0  0  0  0  0  0
  154.6674  133.3029  163.9433 C   0  0  0  0  0  0  0  0  0  0  0  0
  155.0113  134.4190  163.1256 O   0  0  0  0  0  0  0  0  0  0  0  0
  154.1525  135.0141  160.1616 H   0  0  0  0  0  0  0  0  0  0  0  0
  154.6972  136.5173  161.4553 H   0  0  0  0  0  0  0  0  0  0  0  0
  151.6650  136.5480  161.9134 H   0  0  0  0  0  0  0  0  0  0  0  0
  152.7388  137.7729  162.5500 H   0  0  0  0  0  0  0  0  0  0  0  0
  154.4316  138.8402  160.4824 H   0  0  0  0  0  0  0  0  0  0  0  0
  151.0000  138.0389  155.0594 H   0  0  0  0  0  0  0  0  0  0  0  0
  149.6314  139.1187  155.2712 H   0  0  0  0  0  0  0  0  0  0  0  0
  152.2443  139.7880  153.7980 H   0  0  0  0  0  0  0  0  0  0  0  0
  150.6713  139.5244  153.0654 H   0  0  0  0  0  0  0  0  0  0  0  0
  152.5791  141.7726  155.1234 H   0  0  0  0  0  0  0  0  0  0  0  0
  151.2254  142.8635  155.3421 H   0  0  0  0  0  0  0  0  0  0  0  0
  150.0415  141.2317  156.7505 H   0  0  0  0  0  0  0  0  0  0  0  0
  151.6791  141.0304  158.6893 H   0  0  0  0  0  0  0  0  0  0  0  0
  152.9625  141.5001  157.6241 H   0  0  0  0  0  0  0  0  0  0  0  0
  150.5379  143.3125  157.9845 H   0  0  0  0  0  0  0  0  0  0  0  0
  153.4362  143.8954  157.2162 H   0  0  0  0  0  0  0  0  0  0  0  0
  151.9278  144.6527  156.5788 H   0  0  0  0  0  0  0  0  0  0  0  0
  153.2255  145.5188  159.0313 H   0  0  0  0  0  0  0  0  0  0  0  0
  151.4454  145.6721  158.7546 H   0  0  0  0  0  0  0  0  0  0  0  0
  151.2799  143.7235  160.2333 H   0  0  0  0  0  0  0  0  0  0  0  0
  152.9695  143.2250  159.8420 H   0  0  0  0  0  0  0  0  0  0  0  0
  148.6555  136.8050  158.4877 H   0  0  0  0  0  0  0  0  0  0  0  0
  154.2847  136.1722  163.8781 H   0  0  0  0  0  0  0  0  0  0  0  0
  152.0322  135.3258  164.1770 H   0  0  0  0  0  0  0  0  0  0  0  0
  152.2582  134.1073  162.9159 H   0  0  0  0  0  0  0  0  0  0  0  0
  153.6489  134.2223  165.6124 H   0  0  0  0  0  0  0  0  0  0  0  0
  152.7610  132.8514  164.9329 H   0  0  0  0  0  0  0  0  0  0  0  0
  155.4795  133.0396  164.6217 H   0  0  0  0  0  0  0  0  0  0  0  0
  154.4764  132.4466  163.2949 H   0  0  0  0  0  0  0  0  0  0  0  0
  1  2  1  0  0  0  0
  1 29  1  0  0  0  0
  2  3  1  0  0  0  0
  2 24  1  0  0  0  0
  2 30  1  0  0  0  0
  3  4  1  0  0  0  0
  3 31  1  0  0  0  0
  3 32  1  0  0  0  0
  4 23  1  0  0  0  0
  4  5  1  0  0  0  0
  5  6  2  0  0  0  0
  5 33  1  0  0  0  0
  6  7  1  0  0  0  0
  7 23  2  0  0  0  0
  7  8  1  0  0  0  0
  8  9  1  0  0  0  0
  8 20  2  0  0  0  0
  9 14  1  0  0  0  0
  9 10  1  0  0  0  0
 10 11  1  0  0  0  0
 10 34  1  0  0  0  0
 10 35  1  0  0  0  0
 11 12  1  0  0  0  0
 11 36  1  0  0  0  0
 11 37  1  0  0  0  0
 12 13  1  0  0  0  0
 13 14  1  0  0  0  0
 13 38  1  0  0  0  0
 13 39  1  0  0  0  0
 14 15  1  0  0  0  0
 14 40  1  0  0  0  0
 15 16  1  0  0  0  0
 15 41  1  0  0  0  0
 15 42  1  0  0  0  0
 16 19  1  0  0  0  0
 16 17  1  0  0  0  0
 16 43  1  0  0  0  0
 17 18  1  0  0  0  0
 17 44  1  0  0  0  0
 17 45  1  0  0  0  0
 18 19  1  0  0  0  0
 18 46  1  0  0  0  0
 18 47  1  0  0  0  0
 19 48  1  0  0  0  0
 19 49  1  0  0  0  0
 20 21  1  0  0  0  0
 21 22  2  0  0  0  0
 21 50  1  0  0  0  0
 22 23  1  0  0  0  0
 24 28  1  0  0  0  0
 24 25  1  0  0  0  0
 24 51  1  0  0  0  0
 25 26  1  0  0  0  0
 25 52  1  0  0  0  0
 25 53  1  0  0  0  0
 26 27  1  0  0  0  0
 26 54  1  0  0  0  0
 26 55  1  0  0  0  0
 27 28  1  0  0  0  0
 27 56  1  0  0  0  0
 27 57  1  0  0  0  0
M  END
> <s_m_source_file>
AV-unprocessed.smi

> <i_m_source_file_index>
170

> <i_lp_mmshare_version>
43012

> <i_f3d_flags>
0

> <s_epik_input>
TzFbQ0gyXVtDSDJdW0NIMl1bQ0BIXTFbQ0BIXShbT0hdKVtDSDJdbihbY0hdbjIpYyhjMjMpbltjSF1uYzNONFtDSDJdW0NIMl1PW0NIMl1bQ0BIXTRbQ0gyXVtDSF01W0NIMl1bQ0gyXVtDSDJdNQ==

> <s_epik_cmdline>
J2VwaWtfcHl0aG9uJywgJy1waCcsICc3LjAnLCAnLXRuJywgJzgnLCAnLW1hJywgJzIwMCcsICctbWV0YWxfYmluZGluZycsICctaW1hZScsICc8aW5maWxlLm1hZT4nLCAnLW9tYWUnLCAnPG91dGZpbGUubWFlPic=

> <r_lp_tautomer_probability>
1

> <r_epik_Ionization_Penalty>
4.98275e-05

> <r_epik_Ionization_Penalty_Charging>
0

> <r_epik_Ionization_Penalty_Neutral>
4.98275e-05

> <r_epik_State_Penalty>
-0

> <r_epik_Charging_Adjusted_Penalty>
0

> <i_epik_Tot_Q>
0

> <i_epik_Tot_abs_Q>
0

> <r_epik_Metal_State_Penalty>
-0

> <b_epik_Metal_Only>
0

> <s_lp_Force_Field>
OPLS_2005

> <r_lp_Energy>
50.2735

> <b_lp_Chiralities_Consistent>
1

> <s_lp_Variant>
AV-unprocessed.smi:170-8

> <Gold.Version>
5.8.1

> <Gold.Id.Protein>
6NUR|6NUR_protein|mol2

> <Gold.PLP.Fitness>
50.3026

> <Gold.PLP.PLP>
-42.8876

> <Gold.PLP.part.hbond>
-3.1104

> <Gold.PLP.part.metal>
0.0000

> <Gold.PLP.part.buried>
-4.2934

> <Gold.PLP.part.nonpolar>
-34.6863

> <Gold.PLP.part.repulsive>
0.1466

> <Gold.PLP.ligand.clash>
0.0000

> <Gold.PLP.ligand.torsion>
0.9257

> <Gold.PLP.Chemscore.Hbond>
3.0000

> <Gold.PLP.Chemscore.CHOScore>
0.0000

> <Gold.PLP.Chemscore.Metal>
0.0000

> <Gold.Chemscore.Hbonds>
donor molecule, donor type, donor heavy atom, donor atom, acceptor molecule, acceptor atom, score
      P1  H  6896  6908       L1    22  0.70
      P1  H  6896  6909       L1     1  0.22
      P1  H  8011  8017       L1    12  0.06

> <Gold.PLP.Chemscore.Internal.Correction>
0.2665

> <Gold.Rescore>
     Score         DG    S(hbond)    S(metal)    S(lipo)     H(rot)  DE(clash)    DE(int)     intcor
     18.90     -20.45       2.56        0.00     112.22       2.61       0.68       0.88       ----

> <Gold.Chemscore.Fitness>
18.8979

> <Gold.Chemscore.DG>
-20.4543

> <Gold.Chemscore.ZeroCoef>
-5.4800

> <Gold.Chemscore.Hbond>
2.5561

> <Gold.Chemscore.Metal>
0.0000

> <Gold.Chemscore.Lipo>
112.2199

> <Gold.Chemscore.Internal_Hbond>
0.0000

> <Gold.Chemscore.DEClash>
0.6775

> <Gold.Chemscore.DEInternal>
0.8789

> <Gold.Chemscore.Rot>
2.6144

> <Gold.Chemscore.Internal.Correction>
   9.000000E+99

> <Gold.Chemscore.Hbonds>
donor molecule, donor type, donor heavy atom, donor atom, acceptor molecule, acceptor atom, score
      P1  H  6896  6908       L1    22  0.19
      P1  H  6896  6909       L1     1  0.01
      P1  H  7997  8010       L1     6  0.04
      P1  H  8011  8017       L1    12  0.07

> <Gold.Chemscore.Hbond.Weighted>
-8.5375

> <Gold.Chemscore.Metal.Weighted>
-0.0000

> <Gold.Chemscore.Lipo.Weighted>
-13.1297

> <Gold.Chemscore.Internal_Hbond.Weighted>
0.0000

> <Gold.Chemscore.DEClash.Weighted>
0.6775

> <Gold.Chemscore.DEInternal.Weighted>
0.8789

> <Gold.Chemscore.Rot.Weighted>
6.6929

> <Gold.Chemscore.Internal.Correction.Weighted>
   9.000000E+99

> <Gold.Protein.RotatedTorsions>
[ 6907 6896 6895 6894 ] final -151.08 input  -60.11 | X-H torsion
[ 7974 7965 7964 7962 ] final  156.20 input  175.53 | X-H torsion
[ 8008 7997 7996 7995 ] final   38.97 input   59.86 | X-H torsion
[ 10167 10162 10161 10158 ] final    9.34 input  -65.29 | X-H torsion
[ 10718 10713 10712 10709 ] final -161.49 input   66.30 | X-H torsion
[ 10763 10752 10751 10750 ] final  141.22 input  -60.55 | X-H torsion
[ 11005 11000 10999 10996 ] final   39.62 input  -57.11 | X-H torsion

> <Gold.Protein.ActiveResidues>
 VAL166  LYS551  ARG553  GLY616  TRP617  ASP618  TYR619  PRO620  LYS621  CYS622 
 ASP623  PHE694  ASN695  SER759  ASP760  ASP761  ALA762  ILE779  LEU786  VAL792 
 PHE793  MET794  SER795  GLU796  ALA797  LYS798  CYS799  TRP800  GLU811  SER814 

> <Gold.Protein.RotatedAtoms>
  151.2079  133.4573  159.2597 H   0  0  0  0  0  0  0  0  0  0  0  0  # atno 6907 bound_to 6896
  151.1005  134.9969  159.8456 H   0  0  0  0  0  0  0  0  0  0  0  0  # atno 6908 bound_to 6896
  152.5443  134.2006  159.8763 H   0  0  0  0  0  0  0  0  0  0  0  0  # atno 6909 bound_to 6896
  144.7978  139.7171  143.6195 H   0  0  0  0  0  0  0  0  0  0  0  0  # atno 7974 bound_to 7965
  155.2290  140.3337  155.4306 H   0  0  0  0  0  0  0  0  0  0  0  0  # atno 8008 bound_to 7997
  156.2303  140.1847  156.7306 H   0  0  0  0  0  0  0  0  0  0  0  0  # atno 8009 bound_to 7997
  154.5966  140.0629  156.9297 H   0  0  0  0  0  0  0  0  0  0  0  0  # atno 8010 bound_to 7997
  140.6261  143.8099  150.7234 H   0  0  0  0  0  0  0  0  0  0  0  0  # atno 10167 bound_to 10162
  156.5970  130.8794  151.2904 H   0  0  0  0  0  0  0  0  0  0  0  0  # atno 10718 bound_to 10713
  153.9357  135.2985  155.3444 H   0  0  0  0  0  0  0  0  0  0  0  0  # atno 10763 bound_to 10752
  154.7503  135.4983  153.9281 H   0  0  0  0  0  0  0  0  0  0  0  0  # atno 10764 bound_to 10752
  153.1068  135.6749  153.9677 H   0  0  0  0  0  0  0  0  0  0  0  0  # atno 10765 bound_to 10752
  140.2010  134.3870  155.8096 H   0  0  0  0  0  0  0  0  0  0  0  0  # atno 11005 bound_to 11000
  146.2251  139.5707  142.9593 LP  0  0  0  0  0  0  0  0  0  0  0  0  # atno 17320 bound_to 7965
  145.5630  141.0402  143.2216 LP  0  0  0  0  0  0  0  0  0  0  0  0  # atno 17321 bound_to 7965
  140.1699  143.4203  152.2008 LP  0  0  0  0  0  0  0  0  0  0  0  0  # atno 17342 bound_to 10162
  139.5481  144.7315  151.4520 LP  0  0  0  0  0  0  0  0  0  0  0  0  # atno 17343 bound_to 10162
  157.7289  130.9663  150.1764 LP  0  0  0  0  0  0  0  0  0  0  0  0  # atno 17370 bound_to 10713
  156.2501  130.3699  149.8242 LP  0  0  0  0  0  0  0  0  0  0  0  0  # atno 17371 bound_to 10713
  141.2227  133.7094  156.8258 LP  0  0  0  0  0  0  0  0  0  0  0  0  # atno 17394 bound_to 11000
  140.2054  134.8866  157.3215 LP  0  0  0  0  0  0  0  0  0  0  0  0  # atno 17395 bound_to 11000

$$$$
