AV-unprocessed.smi:580|AV-procd|sdf|2990|dock9
  -GOLD-   2262023493D 1   1.00000     0.00000
 Structure written by MMmdl.
 36 37  0  0  0  0  0  0  0  0  1 V2000
  150.4841  141.8123  156.0672 C   0  0  0  0  0  0  0  0  0  0  0  0
  150.1583  140.5795  155.2958 C   0  0  0  0  0  0  0  0  0  0  0  0
  148.9797  139.9636  154.9807 C   0  0  0  0  0  0  0  0  0  0  0  0
  149.3999  138.8356  154.2270 C   0  0  0  0  0  0  0  0  0  0  0  0
  148.4543  137.9172  153.7037 N   0  0  0  0  0  0  0  0  0  0  0  0
  147.1988  137.7008  154.1313 C   0  0  0  0  0  0  0  0  0  0  0  0
  146.6631  138.2754  155.0795 O   0  0  0  0  0  0  0  0  0  0  0  0
  146.5886  136.7636  153.3915 N   0  0  0  0  0  0  0  0  0  0  0  0
  145.2222  136.2822  153.5898 C   0  0  2  0  0  0  0  0  0  0  0  0
  145.2002  134.7830  153.9553 C   0  0  0  0  0  0  0  0  0  0  0  0
  145.6082  133.8891  152.7710 C   0  0  0  0  0  0  0  0  0  0  0  0
  144.7355  134.1567  151.5298 C   0  0  2  0  0  0  0  0  0  0  0  0
  145.1475  133.2651  150.3501 C   0  0  0  0  0  0  0  0  0  0  0  0
  144.7819  135.6491  151.1504 C   0  0  0  0  0  0  0  0  0  0  0  0
  144.3751  136.5498  152.3307 C   0  0  0  0  0  0  0  0  0  0  0  0
  150.7158  138.7681  154.0947 N   0  0  0  0  0  0  0  0  0  0  0  0
  151.2087  139.8852  154.7794 O   0  0  0  0  0  0  0  0  0  0  0  0
  149.6046  142.4472  156.1757 H   0  0  0  0  0  0  0  0  0  0  0  0
  151.2582  142.3921  155.5642 H   0  0  0  0  0  0  0  0  0  0  0  0
  150.8441  141.5593  157.0645 H   0  0  0  0  0  0  0  0  0  0  0  0
  147.9800  140.2731  155.2475 H   0  0  0  0  0  0  0  0  0  0  0  0
  148.7672  137.3667  152.9179 H   0  0  0  0  0  0  0  0  0  0  0  0
  147.1077  136.3454  152.6336 H   0  0  0  0  0  0  0  0  0  0  0  0
  144.7811  136.8472  154.4130 H   0  0  0  0  0  0  0  0  0  0  0  0
  145.8478  134.5880  154.8108 H   0  0  0  0  0  0  0  0  0  0  0  0
  144.1934  134.5100  154.2741 H   0  0  0  0  0  0  0  0  0  0  0  0
  146.6583  134.0586  152.5291 H   0  0  0  0  0  0  0  0  0  0  0  0
  145.5277  132.8416  153.0635 H   0  0  0  0  0  0  0  0  0  0  0  0
  143.7044  133.9072  151.7849 H   0  0  0  0  0  0  0  0  0  0  0  0
  146.1746  133.4640  150.0422 H   0  0  0  0  0  0  0  0  0  0  0  0
  144.5028  133.4332  149.4870 H   0  0  0  0  0  0  0  0  0  0  0  0
  145.0771  132.2091  150.6125 H   0  0  0  0  0  0  0  0  0  0  0  0
  145.7857  135.9139  150.8156 H   0  0  0  0  0  0  0  0  0  0  0  0
  144.1189  135.8383  150.3055 H   0  0  0  0  0  0  0  0  0  0  0  0
  143.3244  136.3735  152.5647 H   0  0  0  0  0  0  0  0  0  0  0  0
  144.4476  137.5993  152.0428 H   0  0  0  0  0  0  0  0  0  0  0  0
  1  2  1  0  0  0  0
  1 18  1  0  0  0  0
  1 19  1  0  0  0  0
  1 20  1  0  0  0  0
  2 17  1  0  0  0  0
  2  3  2  0  0  0  0
  3  4  1  0  0  0  0
  3 21  1  0  0  0  0
  4  5  1  0  0  0  0
  4 16  2  0  0  0  0
  5  6  1  0  0  0  0
  5 22  1  0  0  0  0
  6  7  2  0  0  0  0
  6  8  1  0  0  0  0
  8  9  1  0  0  0  0
  8 23  1  0  0  0  0
  9 15  1  0  0  0  0
  9 10  1  0  0  0  0
  9 24  1  0  0  0  0
 10 11  1  0  0  0  0
 10 25  1  0  0  0  0
 10 26  1  0  0  0  0
 11 12  1  0  0  0  0
 11 27  1  0  0  0  0
 11 28  1  0  0  0  0
 12 13  1  0  0  0  0
 12 14  1  0  0  0  0
 12 29  1  0  0  0  0
 13 30  1  0  0  0  0
 13 31  1  0  0  0  0
 13 32  1  0  0  0  0
 14 15  1  0  0  0  0
 14 33  1  0  0  0  0
 14 34  1  0  0  0  0
 15 35  1  0  0  0  0
 15 36  1  0  0  0  0
 16 17  1  0  0  0  0
M  END
> <s_m_source_file>
AV-unprocessed.smi

> <i_m_source_file_index>
580

> <i_lp_mmshare_version>
43012

> <i_f3d_flags>
0

> <s_epik_input>
W0NIM11jMVtjSF1jKG5vMSlbTkhdQyg9TylbTkhdW0NAQEhdMltDSDJdW0NIMl1bQ0BASF0oW0NIM10pW0NIMl1bQ0gyXTI=

> <s_epik_cmdline>
J2VwaWtfcHl0aG9uJywgJy1waCcsICc3LjAnLCAnLXRuJywgJzgnLCAnLW1hJywgJzIwMCcsICctbWV0YWxfYmluZGluZycsICctaW1hZScsICc8aW5maWxlLm1hZT4nLCAnLW9tYWUnLCAnPG91dGZpbGUubWFlPic=

> <r_lp_tautomer_probability>
1

> <r_epik_Ionization_Penalty>
2.357e-05

> <r_epik_Ionization_Penalty_Charging>
0

> <r_epik_Ionization_Penalty_Neutral>
2.357e-05

> <r_epik_State_Penalty>
-0

> <r_epik_Charging_Adjusted_Penalty>
0

> <i_epik_Tot_Q>
0

> <i_epik_Tot_abs_Q>
0

> <r_epik_Metal_State_Penalty>
-0

> <b_epik_Metal_Only>
0

> <s_lp_Force_Field>
OPLS_2005

> <r_lp_Energy>
6.11035

> <b_lp_Chiralities_Consistent>
1

> <s_lp_Variant>
AV-unprocessed.smi:580-2

> <Gold.Version>
5.8.1

> <Gold.Id.Protein>
6NUR|6NUR_protein|mol2

> <Gold.PLP.Fitness>
32.1414

> <Gold.PLP.PLP>
-23.7663

> <Gold.PLP.part.hbond>
-3.0620

> <Gold.PLP.part.metal>
0.0000

> <Gold.PLP.part.buried>
-3.1196

> <Gold.PLP.part.nonpolar>
-17.5609

> <Gold.PLP.part.repulsive>
0.3441

> <Gold.PLP.ligand.clash>
0.0000

> <Gold.PLP.ligand.torsion>
0.1114

> <Gold.PLP.Chemscore.Hbond>
2.8640

> <Gold.PLP.Chemscore.CHOScore>
0.0000

> <Gold.PLP.Chemscore.Metal>
0.0000

> <Gold.Chemscore.Hbonds>
donor molecule, donor type, donor heavy atom, donor atom, acceptor molecule, acceptor atom, score
      L1  H     5    22       P1  7948  1.00
      L1  H     8    23       P1  7948  0.85
      P1  H  7989  7998       L1    17  1.00

> <Gold.PLP.Chemscore.Internal.Correction>
0.0060

> <Gold.Rescore>
     Score         DG    S(hbond)    S(metal)    S(lipo)     H(rot)  DE(clash)    DE(int)     intcor
     13.91     -15.36       1.95        0.00      50.74       1.00       0.03       1.41       ----

> <Gold.Chemscore.Fitness>
13.9128

> <Gold.Chemscore.DG>
-15.3596

> <Gold.Chemscore.ZeroCoef>
-5.4800

> <Gold.Chemscore.Hbond>
1.9469

> <Gold.Chemscore.Metal>
0.0000

> <Gold.Chemscore.Lipo>
50.7423

> <Gold.Chemscore.Internal_Hbond>
0.0000

> <Gold.Chemscore.DEClash>
0.0327

> <Gold.Chemscore.DEInternal>
1.4142

> <Gold.Chemscore.Rot>
1.0000

> <Gold.Chemscore.Internal.Correction>
   9.000000E+99

> <Gold.Chemscore.Hbonds>
donor molecule, donor type, donor heavy atom, donor atom, acceptor molecule, acceptor atom, score
      L1  H     5    22       P1  7948  0.94
      L1  H     8    23       P1  7948  0.82
      P1  H  7989  7998       L1    17  0.09

> <Gold.Chemscore.Hbond.Weighted>
-6.5028

> <Gold.Chemscore.Metal.Weighted>
-0.0000

> <Gold.Chemscore.Lipo.Weighted>
-5.9368

> <Gold.Chemscore.Internal_Hbond.Weighted>
0.0000

> <Gold.Chemscore.DEClash.Weighted>
0.0327

> <Gold.Chemscore.DEInternal.Weighted>
1.4142

> <Gold.Chemscore.Rot.Weighted>
2.5600

> <Gold.Chemscore.Internal.Correction.Weighted>
   9.000000E+99

> <Gold.Protein.RotatedTorsions>
[ 6907 6896 6895 6894 ] final -123.97 input  -60.11 | X-H torsion
[ 7974 7965 7964 7962 ] final -175.19 input  175.53 | X-H torsion
[ 8008 7997 7996 7995 ] final -120.54 input   59.86 | X-H torsion
[ 10167 10162 10161 10158 ] final  -97.16 input  -65.29 | X-H torsion
[ 10718 10713 10712 10709 ] final  147.97 input   66.30 | X-H torsion
[ 10763 10752 10751 10750 ] final -160.83 input  -60.55 | X-H torsion
[ 11005 11000 10999 10996 ] final  -30.02 input  -57.11 | X-H torsion

> <Gold.Protein.ActiveResidues>
 VAL166  LYS551  ARG553  GLY616  TRP617  ASP618  TYR619  PRO620  LYS621  CYS622 
 ASP623  PHE694  ASN695  SER759  ASP760  ASP761  ALA762  ILE779  LEU786  VAL792 
 PHE793  MET794  SER795  GLU796  ALA797  LYS798  CYS799  TRP800  GLU811  SER814 

> <Gold.Protein.RotatedAtoms>
  150.8722  133.7489  159.2957 H   0  0  0  0  0  0  0  0  0  0  0  0  # atno 6907 bound_to 6896
  151.5098  135.1063  159.9860 H   0  0  0  0  0  0  0  0  0  0  0  0  # atno 6908 bound_to 6896
  152.4703  133.7969  159.6988 H   0  0  0  0  0  0  0  0  0  0  0  0  # atno 6909 bound_to 6896
  144.7129  140.1358  143.6395 H   0  0  0  0  0  0  0  0  0  0  0  0  # atno 7974 bound_to 7965
  155.1335  140.0400  157.2781 H   0  0  0  0  0  0  0  0  0  0  0  0  # atno 8008 bound_to 7997
  154.6525  140.2572  155.7172 H   0  0  0  0  0  0  0  0  0  0  0  0  # atno 8009 bound_to 7997
  156.2583  140.2833  156.0964 H   0  0  0  0  0  0  0  0  0  0  0  0  # atno 8010 bound_to 7997
  140.2863  143.3249  152.0391 H   0  0  0  0  0  0  0  0  0  0  0  0  # atno 10167 bound_to 10162
  157.3144  131.0893  151.1291 H   0  0  0  0  0  0  0  0  0  0  0  0  # atno 10718 bound_to 10713
  154.7356  135.3056  154.8817 H   0  0  0  0  0  0  0  0  0  0  0  0  # atno 10763 bound_to 10752
  153.9646  135.6749  153.4750 H   0  0  0  0  0  0  0  0  0  0  0  0  # atno 10764 bound_to 10752
  153.0959  135.4936  154.8701 H   0  0  0  0  0  0  0  0  0  0  0  0  # atno 10765 bound_to 10752
  140.9347  133.7316  156.0987 H   0  0  0  0  0  0  0  0  0  0  0  0  # atno 11005 bound_to 11000
  145.9246  139.2567  143.1361 LP  0  0  0  0  0  0  0  0  0  0  0  0  # atno 17320 bound_to 7965
  145.9585  140.8854  143.0222 LP  0  0  0  0  0  0  0  0  0  0  0  0  # atno 17321 bound_to 7965
  139.4949  144.6556  151.6579 LP  0  0  0  0  0  0  0  0  0  0  0  0  # atno 17342 bound_to 10162
  140.5769  144.0012  150.6247 LP  0  0  0  0  0  0  0  0  0  0  0  0  # atno 17343 bound_to 10162
  157.2600  130.6654  149.5970 LP  0  0  0  0  0  0  0  0  0  0  0  0  # atno 17370 bound_to 10713
  155.9680  130.4511  150.5724 LP  0  0  0  0  0  0  0  0  0  0  0  0  # atno 17371 bound_to 10713
  140.7816  134.3719  157.5486 LP  0  0  0  0  0  0  0  0  0  0  0  0  # atno 17394 bound_to 11000
  139.8805  134.9085  156.2969 LP  0  0  0  0  0  0  0  0  0  0  0  0  # atno 17395 bound_to 11000

$$$$
