AV-unprocessed.smi:2563|AV-procd|sdf|10057|dock10
  -GOLD-   2272014 93D 1   1.00000     0.00000
 Structure written by MMmdl.
 35 36  0  0  0  0  0  0  0  0  2 V2000
  151.0004  145.4303  159.7293 C   0  0  0  0  0  0  0  0  0  0  0  0
  152.1310  144.9582  158.8059 C   0  0  0  0  0  0  0  0  0  0  0  0
  152.4864  143.5577  159.0387 N   0  0  0  0  0  0  0  0  0  0  0  0
  152.2140  142.5844  157.9826 C   0  0  0  0  0  0  0  0  0  0  0  0
  150.7497  142.6261  157.5115 C   0  0  1  0  0  0  0  0  0  0  0  0
  150.5305  141.7526  156.2607 C   0  0  0  0  0  0  0  0  0  0  0  0
  149.1029  141.7468  155.8850 N   0  3  0  0  0  0  0  0  0  0  0  0
  148.2463  141.3264  157.0107 C   0  0  0  0  0  0  0  0  0  0  0  0
  148.5355  142.1960  158.2454 C   0  0  0  0  0  0  0  0  0  0  0  0
  149.9220  142.1249  158.5590 O   0  0  0  0  0  0  0  0  0  0  0  0
  152.9659  143.1391  160.3042 C   0  0  0  0  0  0  0  0  0  0  0  0
  153.6885  141.9315  160.4692 C   0  0  0  0  0  0  0  0  0  0  0  0
  154.1268  141.5908  161.7602 C   0  0  0  0  0  0  0  0  0  0  0  0
  153.8164  142.4785  162.8038 C   0  0  0  0  0  0  0  0  0  0  0  0
  153.1276  143.6216  162.6008 N   0  0  0  0  0  0  0  0  0  0  0  0
  152.7123  143.9416  161.3709 N   0  0  0  0  0  0  0  0  0  0  0  0
  150.7429  146.4692  159.5229 H   0  0  0  0  0  0  0  0  0  0  0  0
  151.2907  145.3641  160.7780 H   0  0  0  0  0  0  0  0  0  0  0  0
  150.0996  144.8316  159.5924 H   0  0  0  0  0  0  0  0  0  0  0  0
  151.8104  145.0679  157.7697 H   0  0  0  0  0  0  0  0  0  0  0  0
  153.0023  145.6055  158.9090 H   0  0  0  0  0  0  0  0  0  0  0  0
  152.8935  142.7462  157.1460 H   0  0  0  0  0  0  0  0  0  0  0  0
  152.4474  141.5835  158.3483 H   0  0  0  0  0  0  0  0  0  0  0  0
  150.4678  143.6560  157.2852 H   0  0  0  0  0  0  0  0  0  0  0  0
  151.1179  142.1274  155.4222 H   0  0  0  0  0  0  0  0  0  0  0  0
  150.8551  140.7282  156.4486 H   0  0  0  0  0  0  0  0  0  0  0  0
  148.8376  142.6818  155.6100 H   0  0  0  0  0  0  0  0  0  0  0  0
  147.1990  141.4071  156.7196 H   0  0  0  0  0  0  0  0  0  0  0  0
  148.4391  140.2766  157.2356 H   0  0  0  0  0  0  0  0  0  0  0  0
  148.2418  143.2326  158.0726 H   0  0  0  0  0  0  0  0  0  0  0  0
  147.9599  141.8402  159.1000 H   0  0  0  0  0  0  0  0  0  0  0  0
  153.9186  141.2728  159.6463 H   0  0  0  0  0  0  0  0  0  0  0  0
  154.6819  140.6831  161.9444 H   0  0  0  0  0  0  0  0  0  0  0  0
  154.1264  142.2711  163.8173 H   0  0  0  0  0  0  0  0  0  0  0  0
  148.9626  141.1213  155.1042 H   0  0  0  0  0  0  0  0  0  0  0  0
  1  2  1  0  0  0  0
  1 17  1  0  0  0  0
  1 18  1  0  0  0  0
  1 19  1  0  0  0  0
  2  3  1  0  0  0  0
  2 20  1  0  0  0  0
  2 21  1  0  0  0  0
  3  4  1  0  0  0  0
  3 11  1  0  0  0  0
  4  5  1  0  0  0  0
  4 22  1  0  0  0  0
  4 23  1  0  0  0  0
  5 10  1  0  0  0  0
  5  6  1  0  0  0  0
  5 24  1  0  0  0  0
  6  7  1  0  0  0  0
  6 25  1  0  0  0  0
  6 26  1  0  0  0  0
  7  8  1  0  0  0  0
  7 27  1  0  0  0  0
  7 35  1  0  0  0  0
  8  9  1  0  0  0  0
  8 28  1  0  0  0  0
  8 29  1  0  0  0  0
  9 10  1  0  0  0  0
  9 30  1  0  0  0  0
  9 31  1  0  0  0  0
 11 16  1  0  0  0  0
 11 12  2  0  0  0  0
 12 13  1  0  0  0  0
 12 32  1  0  0  0  0
 13 14  2  0  0  0  0
 13 33  1  0  0  0  0
 14 15  1  0  0  0  0
 14 34  1  0  0  0  0
 15 16  2  0  0  0  0
M  CHG  1   7   1
M  END
> <s_m_source_file>
AV-unprocessed.smi

> <i_m_source_file_index>
2563

> <i_lp_mmshare_version>
43012

> <i_f3d_flags>
0

> <s_epik_input>
bjFuW2NIXVtjSF1bY0hdYzFOKFtDSDJdW0NIM10pW0NIMl1bQ0BASF0yW0NIMl1bTkhdW0NIMl1bQ0gyXU8y

> <s_epik_cmdline>
J2VwaWtfcHl0aG9uJywgJy1waCcsICc3LjAnLCAnLXRuJywgJzgnLCAnLW1hJywgJzIwMCcsICctbWV0YWxfYmluZGluZycsICctaW1hZScsICc8aW5maWxlLm1hZT4nLCAnLW9tYWUnLCAnPG91dGZpbGUubWFlPic=

> <r_lp_tautomer_probability>
1

> <r_epik_Ionization_Penalty>
0.0472862

> <r_epik_Ionization_Penalty_Charging>
0.0127794

> <r_epik_Ionization_Penalty_Neutral>
0.0345068

> <r_epik_State_Penalty>
0.0614045

> <r_epik_Charging_Adjusted_Penalty>
0.0741839

> <i_epik_Tot_Q>
1

> <i_epik_Tot_abs_Q>
1

> <r_epik_Metal_State_Penalty>
0.0547208

> <b_epik_Metal_Only>
0

> <s_lp_Force_Field>
OPLS_2005

> <r_lp_Energy>
26.038

> <b_lp_Chiralities_Consistent>
1

> <s_lp_Variant>
AV-unprocessed.smi:2563-2

> <Gold.Version>
5.8.1

> <Gold.Id.Protein>
6NUR|6NUR_protein|mol2

> <Gold.PLP.Fitness>
43.2894

> <Gold.PLP.PLP>
-37.8525

> <Gold.PLP.part.hbond>
-1.0000

> <Gold.PLP.part.metal>
0.0000

> <Gold.PLP.part.buried>
-4.8052

> <Gold.PLP.part.nonpolar>
-31.7822

> <Gold.PLP.part.repulsive>
0.4615

> <Gold.PLP.ligand.clash>
0.0000

> <Gold.PLP.ligand.torsion>
0.3063

> <Gold.PLP.Chemscore.Hbond>
2.0000

> <Gold.PLP.Chemscore.CHOScore>
0.0000

> <Gold.PLP.Chemscore.Metal>
0.0000

> <Gold.Chemscore.Hbonds>
donor molecule, donor type, donor heavy atom, donor atom, acceptor molecule, acceptor atom, score
      L1  H     7    27       P1  8028  1.98

> <Gold.PLP.Chemscore.Internal.Correction>
0.0495

> <Gold.Rescore>
     Score         DG    S(hbond)    S(metal)    S(lipo)     H(rot)  DE(clash)    DE(int)     intcor
     13.91     -14.78       1.00        0.00      81.74       1.40       0.16       0.71       ----

> <Gold.Chemscore.Fitness>
13.9125

> <Gold.Chemscore.DG>
-14.7808

> <Gold.Chemscore.ZeroCoef>
-5.4800

> <Gold.Chemscore.Hbond>
0.9970

> <Gold.Chemscore.Metal>
0.0000

> <Gold.Chemscore.Lipo>
81.7367

> <Gold.Chemscore.Internal_Hbond>
0.0000

> <Gold.Chemscore.DEClash>
0.1587

> <Gold.Chemscore.DEInternal>
0.7096

> <Gold.Chemscore.Rot>
1.4033

> <Gold.Chemscore.Internal.Correction>
   9.000000E+99

> <Gold.Chemscore.Hbonds>
donor molecule, donor type, donor heavy atom, donor atom, acceptor molecule, acceptor atom, score
      L1  H     7    27       P1  8028  0.91

> <Gold.Chemscore.Hbond.Weighted>
-3.3300

> <Gold.Chemscore.Metal.Weighted>
-0.0000

> <Gold.Chemscore.Lipo.Weighted>
-9.5632

> <Gold.Chemscore.Internal_Hbond.Weighted>
0.0000

> <Gold.Chemscore.DEClash.Weighted>
0.1587

> <Gold.Chemscore.DEInternal.Weighted>
0.7096

> <Gold.Chemscore.Rot.Weighted>
3.5924

> <Gold.Chemscore.Internal.Correction.Weighted>
   9.000000E+99

> <Gold.Protein.RotatedTorsions>
[ 6907 6896 6895 6894 ] final   84.15 input  -60.11 | X-H torsion
[ 7974 7965 7964 7962 ] final   77.71 input  175.53 | X-H torsion
[ 8008 7997 7996 7995 ] final    4.17 input   59.86 | X-H torsion
[ 10167 10162 10161 10158 ] final   26.26 input  -65.29 | X-H torsion
[ 10718 10713 10712 10709 ] final   80.79 input   66.30 | X-H torsion
[ 10763 10752 10751 10750 ] final   20.27 input  -60.55 | X-H torsion
[ 11005 11000 10999 10996 ] final -139.30 input  -57.11 | X-H torsion

> <Gold.Protein.ActiveResidues>
 VAL166  LYS551  ARG553  GLY616  TRP617  ASP618  TYR619  PRO620  LYS621  CYS622 
 ASP623  PHE694  ASN695  SER759  ASP760  ASP761  ALA762  ILE779  LEU786  VAL792 
 PHE793  MET794  SER795  GLU796  ALA797  LYS798  CYS799  TRP800  GLU811  SER814 

> <Gold.Protein.RotatedAtoms>
  152.5345  134.2786  159.8998 H   0  0  0  0  0  0  0  0  0  0  0  0  # atno 6907 bound_to 6896
  151.2740  133.4235  159.2630 H   0  0  0  0  0  0  0  0  0  0  0  0  # atno 6908 bound_to 6896
  151.0342  134.9576  159.8184 H   0  0  0  0  0  0  0  0  0  0  0  0  # atno 6909 bound_to 6896
  145.6865  139.2539  143.1784 H   0  0  0  0  0  0  0  0  0  0  0  0  # atno 7974 bound_to 7965
  154.7126  140.2695  155.6615 H   0  0  0  0  0  0  0  0  0  0  0  0  # atno 8008 bound_to 7997
  156.2800  140.2750  156.1697 H   0  0  0  0  0  0  0  0  0  0  0  0  # atno 8009 bound_to 7997
  155.0614  140.0371  157.2568 H   0  0  0  0  0  0  0  0  0  0  0  0  # atno 8010 bound_to 7997
  140.5037  144.0273  150.6343 H   0  0  0  0  0  0  0  0  0  0  0  0  # atno 10167 bound_to 10162
  157.6816  130.9975  150.2132 H   0  0  0  0  0  0  0  0  0  0  0  0  # atno 10718 bound_to 10713
  153.1091  135.6692  153.9533 H   0  0  0  0  0  0  0  0  0  0  0  0  # atno 10763 bound_to 10752
  153.9081  135.3028  155.3450 H   0  0  0  0  0  0  0  0  0  0  0  0  # atno 10764 bound_to 10752
  154.7511  135.5034  153.9368 H   0  0  0  0  0  0  0  0  0  0  0  0  # atno 10765 bound_to 10752
  140.8533  134.2259  157.4748 H   0  0  0  0  0  0  0  0  0  0  0  0  # atno 11005 bound_to 11000
  146.0919  140.7646  142.9591 LP  0  0  0  0  0  0  0  0  0  0  0  0  # atno 17320 bound_to 7965
  144.7010  140.3650  143.7156 LP  0  0  0  0  0  0  0  0  0  0  0  0  # atno 17321 bound_to 7965
  140.3576  143.2926  152.0419 LP  0  0  0  0  0  0  0  0  0  0  0  0  # atno 17342 bound_to 10162
  139.4878  144.6327  151.7037 LP  0  0  0  0  0  0  0  0  0  0  0  0  # atno 17343 bound_to 10162
  156.2798  130.3732  149.7946 LP  0  0  0  0  0  0  0  0  0  0  0  0  # atno 17370 bound_to 10713
  156.5638  130.8395  151.3336 LP  0  0  0  0  0  0  0  0  0  0  0  0  # atno 17371 bound_to 10713
  139.8704  134.9694  156.4664 LP  0  0  0  0  0  0  0  0  0  0  0  0  # atno 17394 bound_to 11000
  140.8766  133.7949  155.9421 LP  0  0  0  0  0  0  0  0  0  0  0  0  # atno 17395 bound_to 11000

$$$$
