AV-unprocessed.smi:2038|AV-procd|sdf|8280|dock3
  -GOLD-   2272010543D 1   1.00000     0.00000
 Structure written by MMmdl.
 33 34  0  0  0  0  0  0  0  0  1 V2000
  151.9073  136.1216  155.5434 O   0  0  0  0  0  0  0  0  0  0  0  0
  150.8985  135.9434  156.2265 C   0  0  0  0  0  0  0  0  0  0  0  0
  150.3859  136.8486  157.0803 N   0  0  0  0  0  0  0  0  0  0  0  0
  150.8534  138.1609  157.3600 C   0  0  0  0  0  0  0  0  0  0  0  0
  149.9745  139.0566  158.0012 C   0  0  0  0  0  0  0  0  0  0  0  0
  150.4072  140.3687  158.2709 C   0  0  0  0  0  0  0  0  0  0  0  0
  151.7060  140.7492  157.8793 C   0  0  0  0  0  0  0  0  0  0  0  0
  152.1252  142.0359  158.1466 O   0  0  0  0  0  0  0  0  0  0  0  0
  151.1705  142.9742  158.6363 C   0  0  0  0  0  0  0  0  0  0  0  0
  151.9003  144.2324  159.1207 C   0  0  0  0  0  0  0  0  0  0  0  0
  152.6112  144.7436  158.1162 F   0  0  0  0  0  0  0  0  0  0  0  0
  151.0210  145.1463  159.5306 F   0  0  0  0  0  0  0  0  0  0  0  0
  152.7290  143.9289  160.1194 F   0  0  0  0  0  0  0  0  0  0  0  0
  152.5535  139.9006  157.2469 N   0  0  0  0  0  0  0  0  0  0  0  0
  152.1336  138.6426  156.9931 C   0  0  0  0  0  0  0  0  0  0  0  0
  150.1469  134.6098  156.1399 C   0  0  2  0  0  0  0  0  0  0  0  0
  149.5869  134.3002  154.7389 C   0  0  0  0  0  0  0  0  0  0  0  0
  148.0891  134.4608  154.9072 C   0  0  0  0  0  0  0  0  0  0  0  0
  147.8987  134.0805  156.3682 C   0  0  0  0  0  0  0  0  0  0  0  0
  149.0147  134.6826  157.0051 O   0  0  0  0  0  0  0  0  0  0  0  0
  149.6045  136.5363  157.6383 H   0  0  0  0  0  0  0  0  0  0  0  0
  148.9814  138.7439  158.2893 H   0  0  0  0  0  0  0  0  0  0  0  0
  149.7544  141.0709  158.7680 H   0  0  0  0  0  0  0  0  0  0  0  0
  150.4639  143.2413  157.8485 H   0  0  0  0  0  0  0  0  0  0  0  0
  150.6027  142.5393  159.4609 H   0  0  0  0  0  0  0  0  0  0  0  0
  152.8444  138.0280  156.4631 H   0  0  0  0  0  0  0  0  0  0  0  0
  150.7906  133.7908  156.4661 H   0  0  0  0  0  0  0  0  0  0  0  0
  149.9805  134.9411  153.9484 H   0  0  0  0  0  0  0  0  0  0  0  0
  149.8233  133.2701  154.4693 H   0  0  0  0  0  0  0  0  0  0  0  0
  147.8032  135.5021  154.7520 H   0  0  0  0  0  0  0  0  0  0  0  0
  147.5108  133.8391  154.2233 H   0  0  0  0  0  0  0  0  0  0  0  0
  146.9565  134.4421  156.7803 H   0  0  0  0  0  0  0  0  0  0  0  0
  147.9428  132.9981  156.4986 H   0  0  0  0  0  0  0  0  0  0  0  0
  1  2  2  0  0  0  0
  2  3  1  0  0  0  0
  2 16  1  0  0  0  0
  3  4  1  0  0  0  0
  3 21  1  0  0  0  0
  4 15  1  0  0  0  0
  4  5  2  0  0  0  0
  5  6  1  0  0  0  0
  5 22  1  0  0  0  0
  6  7  2  0  0  0  0
  6 23  1  0  0  0  0
  7  8  1  0  0  0  0
  7 14  1  0  0  0  0
  8  9  1  0  0  0  0
  9 10  1  0  0  0  0
  9 24  1  0  0  0  0
  9 25  1  0  0  0  0
 10 11  1  0  0  0  0
 10 12  1  0  0  0  0
 10 13  1  0  0  0  0
 14 15  2  0  0  0  0
 15 26  1  0  0  0  0
 16 20  1  0  0  0  0
 16 17  1  0  0  0  0
 16 27  1  0  0  0  0
 17 18  1  0  0  0  0
 17 28  1  0  0  0  0
 17 29  1  0  0  0  0
 18 19  1  0  0  0  0
 18 30  1  0  0  0  0
 18 31  1  0  0  0  0
 19 20  1  0  0  0  0
 19 32  1  0  0  0  0
 19 33  1  0  0  0  0
M  END
> <s_m_source_file>
AV-unprocessed.smi

> <i_m_source_file_index>
2038

> <i_lp_mmshare_version>
43012

> <i_f3d_flags>
0

> <s_epik_input>
TzFbQ0gyXVtDSDJdW0NIMl1bQ0BIXTFDKD1PKVtOSF1jMltjSF1bY0hdYyhuW2NIXTIpT1tDSDJdQyhGKShGKUY=

> <s_epik_cmdline>
J2VwaWtfcHl0aG9uJywgJy1waCcsICc3LjAnLCAnLXRuJywgJzgnLCAnLW1hJywgJzIwMCcsICctbWV0YWxfYmluZGluZycsICctaW1hZScsICc8aW5maWxlLm1hZT4nLCAnLW9tYWUnLCAnPG91dGZpbGUubWFlPic=

> <r_lp_tautomer_probability>
1

> <r_epik_Ionization_Penalty>
2.73305e-06

> <r_epik_Ionization_Penalty_Charging>
0

> <r_epik_Ionization_Penalty_Neutral>
2.73305e-06

> <r_epik_State_Penalty>
-0

> <r_epik_Charging_Adjusted_Penalty>
0

> <i_epik_Tot_Q>
0

> <i_epik_Tot_abs_Q>
0

> <r_epik_Metal_State_Penalty>
-0

> <b_epik_Metal_Only>
0

> <s_lp_Force_Field>
OPLS_2005

> <r_lp_Energy>
22.8429

> <b_lp_Chiralities_Consistent>
1

> <s_lp_Variant>
AV-unprocessed.smi:2038-1

> <Gold.Version>
5.8.1

> <Gold.Id.Protein>
6NUR|6NUR_protein|mol2

> <Gold.PLP.Fitness>
37.4953

> <Gold.PLP.PLP>
-32.1936

> <Gold.PLP.part.hbond>
-1.9170

> <Gold.PLP.part.metal>
0.0000

> <Gold.PLP.part.buried>
-5.1165

> <Gold.PLP.part.nonpolar>
-25.7409

> <Gold.PLP.part.repulsive>
0.0807

> <Gold.PLP.ligand.clash>
0.3817

> <Gold.PLP.ligand.torsion>
0.1687

> <Gold.PLP.Chemscore.Hbond>
2.0000

> <Gold.PLP.Chemscore.CHOScore>
0.0000

> <Gold.PLP.Chemscore.Metal>
0.0000

> <Gold.Chemscore.Hbonds>
donor molecule, donor type, donor heavy atom, donor atom, acceptor molecule, acceptor atom, score
      P1  H  7997  8010       L1    14  1.00
      P1  H 10752 10764       L1     1  0.78

> <Gold.PLP.Chemscore.Internal.Correction>
0.0208

> <Gold.Rescore>
     Score         DG    S(hbond)    S(metal)    S(lipo)     H(rot)  DE(clash)    DE(int)     intcor
     12.06     -13.49       1.93        0.00      50.49       1.69       0.05       1.39       ----

> <Gold.Chemscore.Fitness>
12.0592

> <Gold.Chemscore.DG>
-13.4933

> <Gold.Chemscore.ZeroCoef>
-5.4800

> <Gold.Chemscore.Hbond>
1.9275

> <Gold.Chemscore.Metal>
0.0000

> <Gold.Chemscore.Lipo>
50.4858

> <Gold.Chemscore.Internal_Hbond>
0.0000

> <Gold.Chemscore.DEClash>
0.0472

> <Gold.Chemscore.DEInternal>
1.3868

> <Gold.Chemscore.Rot>
1.6919

> <Gold.Chemscore.Internal.Correction>
   9.000000E+99

> <Gold.Chemscore.Hbonds>
donor molecule, donor type, donor heavy atom, donor atom, acceptor molecule, acceptor atom, score
      P1  H  7997  8010       L1    14  0.69
      P1  H 10752 10764       L1     1  0.77

> <Gold.Chemscore.Hbond.Weighted>
-6.4378

> <Gold.Chemscore.Metal.Weighted>
-0.0000

> <Gold.Chemscore.Lipo.Weighted>
-5.9068

> <Gold.Chemscore.Internal_Hbond.Weighted>
0.0000

> <Gold.Chemscore.DEClash.Weighted>
0.0472

> <Gold.Chemscore.DEInternal.Weighted>
1.3868

> <Gold.Chemscore.Rot.Weighted>
4.3313

> <Gold.Chemscore.Internal.Correction.Weighted>
   9.000000E+99

> <Gold.Protein.RotatedTorsions>
[ 6907 6896 6895 6894 ] final -109.91 input  -60.11 | X-H torsion
[ 7974 7965 7964 7962 ] final   52.12 input  175.53 | X-H torsion
[ 8008 7997 7996 7995 ] final   60.89 input   59.86 | X-H torsion
[ 10167 10162 10161 10158 ] final  -66.73 input  -65.29 | X-H torsion
[ 10718 10713 10712 10709 ] final  170.03 input   66.30 | X-H torsion
[ 10763 10752 10751 10750 ] final  -51.04 input  -60.55 | X-H torsion
[ 11005 11000 10999 10996 ] final  -75.78 input  -57.11 | X-H torsion

> <Gold.Protein.ActiveResidues>
 VAL166  LYS551  ARG553  GLY616  TRP617  ASP618  TYR619  PRO620  LYS621  CYS622 
 ASP623  PHE694  ASN695  SER759  ASP760  ASP761  ALA762  ILE779  LEU786  VAL792 
 PHE793  MET794  SER795  GLU796  ALA797  LYS798  CYS799  TRP800  GLU811  SER814 

> <Gold.Protein.RotatedAtoms>
  150.7592  133.9459  159.3470 H   0  0  0  0  0  0  0  0  0  0  0  0  # atno 6907 bound_to 6896
  151.7371  135.0860  160.0319 H   0  0  0  0  0  0  0  0  0  0  0  0  # atno 6908 bound_to 6896
  152.3552  133.6191  159.6010 H   0  0  0  0  0  0  0  0  0  0  0  0  # atno 6909 bound_to 6896
  145.9845  139.4276  143.0111 H   0  0  0  0  0  0  0  0  0  0  0  0  # atno 7974 bound_to 7965
  155.5896  140.3492  155.4563 H   0  0  0  0  0  0  0  0  0  0  0  0  # atno 8008 bound_to 7997
  156.0311  140.1275  157.0282 H   0  0  0  0  0  0  0  0  0  0  0  0  # atno 8009 bound_to 7997
  154.4352  140.1043  156.6087 H   0  0  0  0  0  0  0  0  0  0  0  0  # atno 8010 bound_to 7997
  140.5635  143.2313  151.6681 H   0  0  0  0  0  0  0  0  0  0  0  0  # atno 10167 bound_to 10162
  157.0140  131.0212  151.2794 H   0  0  0  0  0  0  0  0  0  0  0  0  # atno 10718 bound_to 10713
  154.1202  135.6536  153.4901 H   0  0  0  0  0  0  0  0  0  0  0  0  # atno 10763 bound_to 10752
  153.0228  135.5268  154.7105 H   0  0  0  0  0  0  0  0  0  0  0  0  # atno 10764 bound_to 10752
  154.6310  135.2976  155.0187 H   0  0  0  0  0  0  0  0  0  0  0  0  # atno 10765 bound_to 10752
  141.1648  133.6959  156.7569 H   0  0  0  0  0  0  0  0  0  0  0  0  # atno 11005 bound_to 11000
  145.7720  140.9892  143.1144 LP  0  0  0  0  0  0  0  0  0  0  0  0  # atno 17320 bound_to 7965
  144.6871  139.9459  143.7476 LP  0  0  0  0  0  0  0  0  0  0  0  0  # atno 17321 bound_to 7965
  139.5081  144.3621  152.0552 LP  0  0  0  0  0  0  0  0  0  0  0  0  # atno 17342 bound_to 10162
  140.2750  144.3922  150.6138 LP  0  0  0  0  0  0  0  0  0  0  0  0  # atno 17343 bound_to 10162
  157.5299  130.8052  149.7905 LP  0  0  0  0  0  0  0  0  0  0  0  0  # atno 17370 bound_to 10713
  156.0126  130.3827  150.2215 LP  0  0  0  0  0  0  0  0  0  0  0  0  # atno 17371 bound_to 10713
  140.2563  134.8502  157.3715 LP  0  0  0  0  0  0  0  0  0  0  0  0  # atno 17394 bound_to 11000
  140.1654  134.4675  155.7866 LP  0  0  0  0  0  0  0  0  0  0  0  0  # atno 17395 bound_to 11000

$$$$
