AV-unprocessed.smi:3056|AV-procd|sdf|11649|dock9
  -GOLD-   2272017 43D 1   1.00000     0.00000
 Structure written by MMmdl.
 48 49  0  0  0  0  0  0  0  0  2 V2000
  152.8593  143.1839  163.4396 C   0  0  0  0  0  0  0  0  0  0  0  0
  152.7018  142.9094  161.9716 C   0  0  0  0  0  0  0  0  0  0  0  0
  153.3715  141.9257  161.1902 C   0  0  0  0  0  0  0  0  0  0  0  0
  153.0046  141.9423  159.9197 N   0  0  0  0  0  0  0  0  0  0  0  0
  152.0892  142.9339  159.8424 N   0  0  0  0  0  0  0  0  0  0  0  0
  151.4503  143.2426  158.5694 C   0  0  2  0  0  0  0  0  0  0  0  0
  150.5813  144.5061  158.7185 C   0  0  0  0  0  0  0  0  0  0  0  0
  150.6776  142.0205  157.9990 C   0  0  2  0  0  0  0  0  0  0  0  0
  151.5897  140.8007  157.7707 C   0  0  0  0  0  0  0  0  0  0  0  0
  150.0133  142.3623  156.7180 N   0  3  0  0  0  0  0  0  0  0  0  0
  149.0433  141.3620  156.2128 C   0  0  0  0  0  0  0  0  0  0  0  0
  149.5726  140.5445  155.0214 C   0  0  0  0  0  0  0  0  0  0  0  0
  149.7756  141.1197  153.9510 O   0  0  0  0  0  0  0  0  0  0  0  0
  149.7915  139.2172  155.1800 N   0  0  0  0  0  0  0  0  0  0  0  0
  150.3564  138.3080  154.1779 C   0  0  0  0  0  0  0  0  0  0  0  0
  151.6989  137.7753  154.7087 C   0  0  0  0  0  0  0  0  0  0  0  0
  151.4977  137.1309  155.9642 O   0  0  0  0  0  0  0  0  0  0  0  0
  150.9312  137.9861  156.9553 C   0  0  2  0  0  0  0  0  0  0  0  0
  150.7928  137.1880  158.2562 C   0  0  0  0  0  0  0  0  0  0  0  0
  149.5744  138.5145  156.4481 C   0  0  0  0  0  0  0  0  0  0  0  0
  151.8871  143.5319  161.0689 C   0  0  0  0  0  0  0  0  0  0  0  0
  153.8160  142.8232  163.8179 H   0  0  0  0  0  0  0  0  0  0  0  0
  152.0782  142.6977  164.0242 H   0  0  0  0  0  0  0  0  0  0  0  0
  152.8095  144.2507  163.6591 H   0  0  0  0  0  0  0  0  0  0  0  0
  154.1094  141.2035  161.5075 H   0  0  0  0  0  0  0  0  0  0  0  0
  152.2532  143.4831  157.8705 H   0  0  0  0  0  0  0  0  0  0  0  0
  150.2219  144.8629  157.7536 H   0  0  0  0  0  0  0  0  0  0  0  0
  151.1520  145.3204  159.1663 H   0  0  0  0  0  0  0  0  0  0  0  0
  149.7133  144.3233  159.3530 H   0  0  0  0  0  0  0  0  0  0  0  0
  149.9182  141.7157  158.7211 H   0  0  0  0  0  0  0  0  0  0  0  0
  152.0233  140.4373  158.7025 H   0  0  0  0  0  0  0  0  0  0  0  0
  152.4096  141.0399  157.0927 H   0  0  0  0  0  0  0  0  0  0  0  0
  151.0328  139.9704  157.3361 H   0  0  0  0  0  0  0  0  0  0  0  0
  149.5402  143.2459  156.8393 H   0  0  0  0  0  0  0  0  0  0  0  0
  148.7448  140.6995  157.0252 H   0  0  0  0  0  0  0  0  0  0  0  0
  148.1531  141.8998  155.8856 H   0  0  0  0  0  0  0  0  0  0  0  0
  149.6643  137.4806  154.0142 H   0  0  0  0  0  0  0  0  0  0  0  0
  150.5128  138.7640  153.2021 H   0  0  0  0  0  0  0  0  0  0  0  0
  152.1236  137.0567  154.0078 H   0  0  0  0  0  0  0  0  0  0  0  0
  152.4233  138.5842  154.8161 H   0  0  0  0  0  0  0  0  0  0  0  0
  151.6093  138.8234  157.1302 H   0  0  0  0  0  0  0  0  0  0  0  0
  150.3730  137.8037  159.0519 H   0  0  0  0  0  0  0  0  0  0  0  0
  151.7631  136.8242  158.5951 H   0  0  0  0  0  0  0  0  0  0  0  0
  150.1413  136.3241  158.1222 H   0  0  0  0  0  0  0  0  0  0  0  0
  149.1163  139.1471  157.2097 H   0  0  0  0  0  0  0  0  0  0  0  0
  148.8802  137.6882  156.2869 H   0  0  0  0  0  0  0  0  0  0  0  0
  151.1873  144.3445  161.1982 H   0  0  0  0  0  0  0  0  0  0  0  0
  150.7252  142.4752  156.0099 H   0  0  0  0  0  0  0  0  0  0  0  0
  1  2  1  0  0  0  0
  1 22  1  0  0  0  0
  1 23  1  0  0  0  0
  1 24  1  0  0  0  0
  2 21  2  0  0  0  0
  2  3  1  0  0  0  0
  3  4  2  0  0  0  0
  3 25  1  0  0  0  0
  4  5  1  0  0  0  0
  5  6  1  0  0  0  0
  5 21  1  0  0  0  0
  6  7  1  0  0  0  0
  6  8  1  0  0  0  0
  6 26  1  0  0  0  0
  7 27  1  0  0  0  0
  7 28  1  0  0  0  0
  7 29  1  0  0  0  0
  8  9  1  0  0  0  0
  8 10  1  0  0  0  0
  8 30  1  0  0  0  0
  9 31  1  0  0  0  0
  9 32  1  0  0  0  0
  9 33  1  0  0  0  0
 10 11  1  0  0  0  0
 10 34  1  0  0  0  0
 10 48  1  0  0  0  0
 11 12  1  0  0  0  0
 11 35  1  0  0  0  0
 11 36  1  0  0  0  0
 12 13  2  0  0  0  0
 12 14  1  0  0  0  0
 14 20  1  0  0  0  0
 14 15  1  0  0  0  0
 15 16  1  0  0  0  0
 15 37  1  0  0  0  0
 15 38  1  0  0  0  0
 16 17  1  0  0  0  0
 16 39  1  0  0  0  0
 16 40  1  0  0  0  0
 17 18  1  0  0  0  0
 18 19  1  0  0  0  0
 18 20  1  0  0  0  0
 18 41  1  0  0  0  0
 19 42  1  0  0  0  0
 19 43  1  0  0  0  0
 19 44  1  0  0  0  0
 20 45  1  0  0  0  0
 20 46  1  0  0  0  0
 21 47  1  0  0  0  0
M  CHG  1  10   1
M  END
> <s_m_source_file>
AV-unprocessed.smi

> <i_m_source_file_index>
3056

> <i_lp_mmshare_version>
43012

> <i_f3d_flags>
0

> <s_epik_input>
W0NIM11jMVtjSF1ubihbY0hdMSlbQ0BIXShbQ0gzXSlbQ0BIXShbQ0gzXSlbTkhdW0NIMl1DKD1PKU4yW0NIMl1bQ0gyXU9bQ0BASF0oW0NIM10pW0NIMl0y

> <s_epik_cmdline>
J2VwaWtfcHl0aG9uJywgJy1waCcsICc3LjAnLCAnLXRuJywgJzgnLCAnLW1hJywgJzIwMCcsICctbWV0YWxfYmluZGluZycsICctaW1hZScsICc8aW5maWxlLm1hZT4nLCAnLW9tYWUnLCAnPG91dGZpbGUubWFlPic=

> <r_lp_tautomer_probability>
1

> <r_epik_Ionization_Penalty>
0.233715

> <r_epik_Ionization_Penalty_Charging>
0.233698

> <r_epik_Ionization_Penalty_Neutral>
1.68157e-05

> <r_epik_State_Penalty>
0.225221

> <r_epik_Charging_Adjusted_Penalty>
0.458919

> <i_epik_Tot_Q>
1

> <i_epik_Tot_abs_Q>
1

> <r_epik_Metal_State_Penalty>
0.225535

> <b_epik_Metal_Only>
0

> <s_lp_Force_Field>
OPLS_2005

> <r_lp_Energy>
28.5623

> <b_lp_Chiralities_Consistent>
1

> <s_lp_Variant>
AV-unprocessed.smi:3056-5

> <Gold.Version>
5.8.1

> <Gold.Id.Protein>
6NUR|6NUR_protein|mol2

> <Gold.PLP.Fitness>
51.1469

> <Gold.PLP.PLP>
-43.4091

> <Gold.PLP.part.hbond>
-2.8397

> <Gold.PLP.part.metal>
0.0000

> <Gold.PLP.part.buried>
-5.2747

> <Gold.PLP.part.nonpolar>
-36.6417

> <Gold.PLP.part.repulsive>
1.6602

> <Gold.PLP.ligand.clash>
0.0000

> <Gold.PLP.ligand.torsion>
0.4710

> <Gold.PLP.Chemscore.Hbond>
2.8640

> <Gold.PLP.Chemscore.CHOScore>
0.0000

> <Gold.PLP.Chemscore.Metal>
0.0000

> <Gold.Chemscore.Hbonds>
donor molecule, donor type, donor heavy atom, donor atom, acceptor molecule, acceptor atom, score
      L1  H    10    34       P1  8028  1.50
      P1  H  7989  7998       L1    13  0.37
      P1  H  8011  8017       L1    13  0.74

> <Gold.PLP.Chemscore.Internal.Correction>
0.0877

> <Gold.Rescore>
     Score         DG    S(hbond)    S(metal)    S(lipo)     H(rot)  DE(clash)    DE(int)     intcor
     16.84     -20.56       2.11        0.00     106.66       1.74       1.77       1.95       ----

> <Gold.Chemscore.Fitness>
16.8413

> <Gold.Chemscore.DG>
-20.5626

> <Gold.Chemscore.ZeroCoef>
-5.4800

> <Gold.Chemscore.Hbond>
2.1095

> <Gold.Chemscore.Metal>
0.0000

> <Gold.Chemscore.Lipo>
106.6622

> <Gold.Chemscore.Internal_Hbond>
0.0000

> <Gold.Chemscore.DEClash>
1.7670

> <Gold.Chemscore.DEInternal>
1.9543

> <Gold.Chemscore.Rot>
1.7354

> <Gold.Chemscore.Internal.Correction>
   9.000000E+99

> <Gold.Chemscore.Hbonds>
donor molecule, donor type, donor heavy atom, donor atom, acceptor molecule, acceptor atom, score
      L1  H    10    34       P1  8028  0.71
      P1  H  7989  7998       L1    13  0.27
      P1  H  8011  8017       L1    13  0.71

> <Gold.Chemscore.Hbond.Weighted>
-7.0457

> <Gold.Chemscore.Metal.Weighted>
-0.0000

> <Gold.Chemscore.Lipo.Weighted>
-12.4795

> <Gold.Chemscore.Internal_Hbond.Weighted>
0.0000

> <Gold.Chemscore.DEClash.Weighted>
1.7670

> <Gold.Chemscore.DEInternal.Weighted>
1.9543

> <Gold.Chemscore.Rot.Weighted>
4.4426

> <Gold.Chemscore.Internal.Correction.Weighted>
   9.000000E+99

> <Gold.Protein.RotatedTorsions>
[ 6907 6896 6895 6894 ] final    1.18 input  -60.11 | X-H torsion
[ 7974 7965 7964 7962 ] final   47.62 input  175.53 | X-H torsion
[ 8008 7997 7996 7995 ] final   65.70 input   59.86 | X-H torsion
[ 10167 10162 10161 10158 ] final   81.02 input  -65.29 | X-H torsion
[ 10718 10713 10712 10709 ] final  142.17 input   66.30 | X-H torsion
[ 10763 10752 10751 10750 ] final  -47.98 input  -60.55 | X-H torsion
[ 11005 11000 10999 10996 ] final   96.72 input  -57.11 | X-H torsion

> <Gold.Protein.ActiveResidues>
 VAL166  LYS551  ARG553  GLY616  TRP617  ASP618  TYR619  PRO620  LYS621  CYS622 
 ASP623  PHE694  ASN695  SER759  ASP760  ASP761  ALA762  ILE779  LEU786  VAL792 
 PHE793  MET794  SER795  GLU796  ALA797  LYS798  CYS799  TRP800  GLU811  SER814 

> <Gold.Protein.RotatedAtoms>
  151.5885  135.1055  160.0033 H   0  0  0  0  0  0  0  0  0  0  0  0  # atno 6907 bound_to 6896
  152.4318  133.7287  159.6586 H   0  0  0  0  0  0  0  0  0  0  0  0  # atno 6908 bound_to 6896
  150.8212  133.8179  159.3161 H   0  0  0  0  0  0  0  0  0  0  0  0  # atno 6909 bound_to 6896
  146.0280  139.4730  142.9855 H   0  0  0  0  0  0  0  0  0  0  0  0  # atno 7974 bound_to 7965
  155.6658  140.3497  155.4799 H   0  0  0  0  0  0  0  0  0  0  0  0  # atno 8008 bound_to 7997
  155.9730  140.1159  157.0818 H   0  0  0  0  0  0  0  0  0  0  0  0  # atno 8009 bound_to 7997
  154.4171  140.1153  156.5318 H   0  0  0  0  0  0  0  0  0  0  0  0  # atno 8010 bound_to 7997
  139.9436  144.6073  150.8228 H   0  0  0  0  0  0  0  0  0  0  0  0  # atno 10167 bound_to 10162
  157.3836  131.0995  151.0715 H   0  0  0  0  0  0  0  0  0  0  0  0  # atno 10718 bound_to 10713
  154.0703  135.6605  153.4823 H   0  0  0  0  0  0  0  0  0  0  0  0  # atno 10763 bound_to 10752
  153.0393  135.5156  154.7573 H   0  0  0  0  0  0  0  0  0  0  0  0  # atno 10764 bound_to 10752
  154.6637  135.3019  154.9801 H   0  0  0  0  0  0  0  0  0  0  0  0  # atno 10765 bound_to 10752
  139.8780  134.8965  156.4201 H   0  0  0  0  0  0  0  0  0  0  0  0  # atno 11005 bound_to 11000
  145.7086  141.0113  143.1465 LP  0  0  0  0  0  0  0  0  0  0  0  0  # atno 17320 bound_to 7965
  144.7018  139.8730  143.7442 LP  0  0  0  0  0  0  0  0  0  0  0  0  # atno 17321 bound_to 7965
  140.7604  143.3149  151.2756 LP  0  0  0  0  0  0  0  0  0  0  0  0  # atno 17342 bound_to 10162
  139.6684  144.0063  152.2738 LP  0  0  0  0  0  0  0  0  0  0  0  0  # atno 17343 bound_to 10162
  157.1775  130.6294  149.5660 LP  0  0  0  0  0  0  0  0  0  0  0  0  # atno 17370 bound_to 10713
  155.9781  130.4765  150.6637 LP  0  0  0  0  0  0  0  0  0  0  0  0  # atno 17371 bound_to 10713
  140.9140  133.7692  155.9826 LP  0  0  0  0  0  0  0  0  0  0  0  0  # atno 17394 bound_to 11000
  140.8514  134.2949  157.5273 LP  0  0  0  0  0  0  0  0  0  0  0  0  # atno 17395 bound_to 11000

$$$$
