AV-unprocessed.smi:2555|AV-procd|sdf|10022|dock10
  -GOLD-   2272014 63D 1   1.00000     0.00000
 Structure written by MMmdl.
 40 41  0  0  0  0  0  0  0  0  1 V2000
  145.2472  142.7358  155.8024 C   0  0  0  0  0  0  0  0  0  0  0  0
  145.6818  141.3419  155.4508 C   0  0  0  0  0  0  0  0  0  0  0  0
  144.9128  140.3155  155.7734 N   0  0  0  0  0  0  0  0  0  0  0  0
  145.5836  139.1764  155.3180 O   0  0  0  0  0  0  0  0  0  0  0  0
  146.7449  139.5666  154.7336 C   0  0  0  0  0  0  0  0  0  0  0  0
  147.6136  138.4877  154.1812 C   0  0  0  0  0  0  0  0  0  0  0  0
  146.8695  140.9279  154.7824 C   0  0  0  0  0  0  0  0  0  0  0  0
  147.9903  141.7885  154.2601 C   0  0  0  0  0  0  0  0  0  0  0  0
  149.3128  141.3399  154.8816 C   0  0  0  0  0  0  0  0  0  0  0  0
  149.8448  140.2956  154.5050 O   0  0  0  0  0  0  0  0  0  0  0  0
  149.8293  142.1356  155.8314 N   0  0  0  0  0  0  0  0  0  0  0  0
  151.0596  141.8809  156.5752 C   0  0  0  0  0  0  0  0  0  0  0  0
  151.0890  142.6002  157.9408 C   0  0  0  0  0  0  0  0  0  0  0  0
  151.3238  144.1233  157.8159 C   0  0  0  0  0  0  0  0  0  0  0  0
  151.3885  144.8099  159.1901 C   0  0  0  0  0  0  0  0  0  0  0  0
  152.4564  144.1679  160.0874 C   0  0  0  0  0  0  0  0  0  0  0  0
  152.2179  142.6579  160.2306 C   0  0  0  0  0  0  0  0  0  0  0  0
  152.1612  141.9726  158.8559 C   0  0  0  0  0  0  0  0  0  0  0  0
  145.9832  143.2230  156.4419 H   0  0  0  0  0  0  0  0  0  0  0  0
  144.2941  142.7417  156.3325 H   0  0  0  0  0  0  0  0  0  0  0  0
  145.1313  143.3445  154.9055 H   0  0  0  0  0  0  0  0  0  0  0  0
  148.6671  138.7189  154.3402 H   0  0  0  0  0  0  0  0  0  0  0  0
  147.4507  138.3732  153.1095 H   0  0  0  0  0  0  0  0  0  0  0  0
  147.4040  137.5314  154.6608 H   0  0  0  0  0  0  0  0  0  0  0  0
  148.0734  141.7154  153.1752 H   0  0  0  0  0  0  0  0  0  0  0  0
  147.8184  142.8434  154.4779 H   0  0  0  0  0  0  0  0  0  0  0  0
  149.3214  142.9751  156.0702 H   0  0  0  0  0  0  0  0  0  0  0  0
  151.1230  140.8034  156.7299 H   0  0  0  0  0  0  0  0  0  0  0  0
  151.9369  142.1506  155.9846 H   0  0  0  0  0  0  0  0  0  0  0  0
  150.1188  142.4496  158.4169 H   0  0  0  0  0  0  0  0  0  0  0  0
  152.2513  144.3084  157.2724 H   0  0  0  0  0  0  0  0  0  0  0  0
  150.5281  144.5854  157.2321 H   0  0  0  0  0  0  0  0  0  0  0  0
  151.5998  145.8720  159.0639 H   0  0  0  0  0  0  0  0  0  0  0  0
  150.4147  144.7443  159.6771 H   0  0  0  0  0  0  0  0  0  0  0  0
  153.4456  144.3442  159.6627 H   0  0  0  0  0  0  0  0  0  0  0  0
  152.4518  144.6413  161.0697 H   0  0  0  0  0  0  0  0  0  0  0  0
  153.0093  142.2130  160.8345 H   0  0  0  0  0  0  0  0  0  0  0  0
  151.2841  142.4829  160.7664 H   0  0  0  0  0  0  0  0  0  0  0  0
  151.9601  140.9093  158.9904 H   0  0  0  0  0  0  0  0  0  0  0  0
  153.1391  142.0416  158.3775 H   0  0  0  0  0  0  0  0  0  0  0  0
  1  2  1  0  0  0  0
  1 19  1  0  0  0  0
  1 20  1  0  0  0  0
  1 21  1  0  0  0  0
  2  7  1  0  0  0  0
  2  3  2  0  0  0  0
  3  4  1  0  0  0  0
  4  5  1  0  0  0  0
  5  6  1  0  0  0  0
  5  7  2  0  0  0  0
  6 22  1  0  0  0  0
  6 23  1  0  0  0  0
  6 24  1  0  0  0  0
  7  8  1  0  0  0  0
  8  9  1  0  0  0  0
  8 25  1  0  0  0  0
  8 26  1  0  0  0  0
  9 10  2  0  0  0  0
  9 11  1  0  0  0  0
 11 12  1  0  0  0  0
 11 27  1  0  0  0  0
 12 13  1  0  0  0  0
 12 28  1  0  0  0  0
 12 29  1  0  0  0  0
 13 18  1  0  0  0  0
 13 14  1  0  0  0  0
 13 30  1  0  0  0  0
 14 15  1  0  0  0  0
 14 31  1  0  0  0  0
 14 32  1  0  0  0  0
 15 16  1  0  0  0  0
 15 33  1  0  0  0  0
 15 34  1  0  0  0  0
 16 17  1  0  0  0  0
 16 35  1  0  0  0  0
 16 36  1  0  0  0  0
 17 18  1  0  0  0  0
 17 37  1  0  0  0  0
 17 38  1  0  0  0  0
 18 39  1  0  0  0  0
 18 40  1  0  0  0  0
M  END
> <s_m_source_file>
AV-unprocessed.smi

> <i_m_source_file_index>
2555

> <i_lp_mmshare_version>
43012

> <i_f3d_flags>
0

> <s_epik_input>
W0NIM11jMW5vYyhbQ0gzXSljMVtDSDJdQyg9TylbTkhdW0NIMl1bQ0hdMltDSDJdW0NIMl1bQ0gyXVtDSDJdW0NIMl0y

> <s_epik_cmdline>
J2VwaWtfcHl0aG9uJywgJy1waCcsICc3LjAnLCAnLXRuJywgJzgnLCAnLW1hJywgJzIwMCcsICctbWV0YWxfYmluZGluZycsICctaW1hZScsICc8aW5maWxlLm1hZT4nLCAnLW9tYWUnLCAnPG91dGZpbGUubWFlPic=

> <r_lp_tautomer_probability>
1

> <r_epik_Ionization_Penalty>
1.94914e-08

> <r_epik_Ionization_Penalty_Charging>
0

> <r_epik_Ionization_Penalty_Neutral>
1.94914e-08

> <r_epik_State_Penalty>
-0

> <r_epik_Charging_Adjusted_Penalty>
0

> <i_epik_Tot_Q>
0

> <i_epik_Tot_abs_Q>
0

> <r_epik_Metal_State_Penalty>
-0

> <b_epik_Metal_Only>
0

> <s_lp_Force_Field>
OPLS_2005

> <r_lp_Energy>
4.99285

> <b_lp_Chiralities_Consistent>
1

> <s_lp_Variant>
AV-unprocessed.smi:2555-1

> <Gold.Version>
5.8.1

> <Gold.Id.Protein>
6NUR|6NUR_protein|mol2

> <Gold.PLP.Fitness>
41.3583

> <Gold.PLP.PLP>
-36.4191

> <Gold.PLP.part.hbond>
-2.0000

> <Gold.PLP.part.metal>
0.0000

> <Gold.PLP.part.buried>
-3.5739

> <Gold.PLP.part.nonpolar>
-30.7450

> <Gold.PLP.part.repulsive>
0.4675

> <Gold.PLP.ligand.clash>
0.0000

> <Gold.PLP.ligand.torsion>
0.4776

> <Gold.PLP.Chemscore.Hbond>
1.9600

> <Gold.PLP.Chemscore.CHOScore>
0.0000

> <Gold.PLP.Chemscore.Metal>
0.0000

> <Gold.Chemscore.Hbonds>
donor molecule, donor type, donor heavy atom, donor atom, acceptor molecule, acceptor atom, score
      L1  H    11    27       P1  8028  0.98
      P1  H  7989  7998       L1    10  0.71

> <Gold.PLP.Chemscore.Internal.Correction>
0.0145

> <Gold.Rescore>
     Score         DG    S(hbond)    S(metal)    S(lipo)     H(rot)  DE(clash)    DE(int)     intcor
     18.47     -19.29       1.74        0.00      99.76       1.43       0.18       0.64       ----

> <Gold.Chemscore.Fitness>
18.4706

> <Gold.Chemscore.DG>
-19.2885

> <Gold.Chemscore.ZeroCoef>
-5.4800

> <Gold.Chemscore.Hbond>
1.7381

> <Gold.Chemscore.Metal>
0.0000

> <Gold.Chemscore.Lipo>
99.7565

> <Gold.Chemscore.Internal_Hbond>
0.0000

> <Gold.Chemscore.DEClash>
0.1794

> <Gold.Chemscore.DEInternal>
0.6385

> <Gold.Chemscore.Rot>
1.4329

> <Gold.Chemscore.Internal.Correction>
   9.000000E+99

> <Gold.Chemscore.Hbonds>
donor molecule, donor type, donor heavy atom, donor atom, acceptor molecule, acceptor atom, score
      L1  H    11    27       P1  8028  0.93
      P1  H  7989  7998       L1    10  0.38

> <Gold.Chemscore.Hbond.Weighted>
-5.8053

> <Gold.Chemscore.Metal.Weighted>
-0.0000

> <Gold.Chemscore.Lipo.Weighted>
-11.6715

> <Gold.Chemscore.Internal_Hbond.Weighted>
0.0000

> <Gold.Chemscore.DEClash.Weighted>
0.1794

> <Gold.Chemscore.DEInternal.Weighted>
0.6385

> <Gold.Chemscore.Rot.Weighted>
3.6683

> <Gold.Chemscore.Internal.Correction.Weighted>
   9.000000E+99

> <Gold.Protein.RotatedTorsions>
[ 6907 6896 6895 6894 ] final -116.89 input  -60.11 | X-H torsion
[ 7974 7965 7964 7962 ] final    5.46 input  175.53 | X-H torsion
[ 8008 7997 7996 7995 ] final  178.83 input   59.86 | X-H torsion
[ 10167 10162 10161 10158 ] final   52.52 input  -65.29 | X-H torsion
[ 10718 10713 10712 10709 ] final    8.54 input   66.30 | X-H torsion
[ 10763 10752 10751 10750 ] final    4.69 input  -60.55 | X-H torsion
[ 11005 11000 10999 10996 ] final -109.00 input  -57.11 | X-H torsion

> <Gold.Protein.ActiveResidues>
 VAL166  LYS551  ARG553  GLY616  TRP617  ASP618  TYR619  PRO620  LYS621  CYS622 
 ASP623  PHE694  ASN695  SER759  ASP760  ASP761  ALA762  ILE779  LEU786  VAL792 
 PHE793  MET794  SER795  GLU796  ALA797  LYS798  CYS799  TRP800  GLU811  SER814 

> <Gold.Protein.RotatedAtoms>
  150.8093  133.8452  159.3190 H   0  0  0  0  0  0  0  0  0  0  0  0  # atno 6907 bound_to 6896
  151.6243  135.1027  160.0117 H   0  0  0  0  0  0  0  0  0  0  0  0  # atno 6908 bound_to 6896
  152.4184  133.7036  159.6495 H   0  0  0  0  0  0  0  0  0  0  0  0  # atno 6909 bound_to 6896
  146.2440  140.0381  142.8384 H   0  0  0  0  0  0  0  0  0  0  0  0  # atno 7974 bound_to 7965
  156.0502  140.1323  157.0058 H   0  0  0  0  0  0  0  0  0  0  0  0  # atno 8008 bound_to 7997
  154.4431  140.1012  156.6436 H   0  0  0  0  0  0  0  0  0  0  0  0  # atno 8009 bound_to 7997
  155.5534  140.3463  155.4476 H   0  0  0  0  0  0  0  0  0  0  0  0  # atno 8010 bound_to 7997
  140.2505  144.3484  150.6350 H   0  0  0  0  0  0  0  0  0  0  0  0  # atno 10167 bound_to 10162
  156.9531  130.5904  149.5658 H   0  0  0  0  0  0  0  0  0  0  0  0  # atno 10718 bound_to 10713
  153.2682  135.6929  153.7508 H   0  0  0  0  0  0  0  0  0  0  0  0  # atno 10763 bound_to 10752
  153.6541  135.3371  155.3109 H   0  0  0  0  0  0  0  0  0  0  0  0  # atno 10764 bound_to 10752
  154.8455  135.4461  154.1696 H   0  0  0  0  0  0  0  0  0  0  0  0  # atno 10765 bound_to 10752
  141.0871  133.9119  157.2160 H   0  0  0  0  0  0  0  0  0  0  0  0  # atno 11005 bound_to 11000
  145.1094  140.9395  143.4665 LP  0  0  0  0  0  0  0  0  0  0  0  0  # atno 17320 bound_to 7965
  145.0592  139.3119  143.5889 LP  0  0  0  0  0  0  0  0  0  0  0  0  # atno 17321 bound_to 7965
  140.6044  143.2167  151.7009 LP  0  0  0  0  0  0  0  0  0  0  0  0  # atno 17342 bound_to 10162
  139.5048  144.3741  152.0441 LP  0  0  0  0  0  0  0  0  0  0  0  0  # atno 17343 bound_to 10162
  156.0354  130.5442  150.8640 LP  0  0  0  0  0  0  0  0  0  0  0  0  # atno 17370 bound_to 10713
  157.5708  131.0946  150.9420 LP  0  0  0  0  0  0  0  0  0  0  0  0  # atno 17371 bound_to 10713
  139.9691  135.0133  156.9466 LP  0  0  0  0  0  0  0  0  0  0  0  0  # atno 17394 bound_to 11000
  140.5337  134.0788  155.7322 LP  0  0  0  0  0  0  0  0  0  0  0  0  # atno 17395 bound_to 11000

$$$$
