AV-unprocessed.smi:2896|AV-procd|sdf|11136|dock7
  -GOLD-   2272016 13D 1   1.00000     0.00000
 Structure written by MMmdl.
 50 51  0  0  0  0  0  0  0  0  2 V2000
  148.7764  132.9771  154.2496 C   0  0  0  0  0  0  0  0  0  0  0  0
  148.6175  134.5025  154.3794 C   0  0  2  0  0  0  0  0  0  0  0  0
  149.0970  134.9564  155.7760 C   0  0  0  0  0  0  0  0  0  0  0  0
  148.2637  134.4335  156.8555 N   0  0  0  0  0  0  0  0  0  0  0  0
  148.6115  134.3576  158.1522 C   0  0  0  0  0  0  0  0  0  0  0  0
  149.7143  134.7295  158.5566 O   0  0  0  0  0  0  0  0  0  0  0  0
  147.5727  133.7953  159.1560 C   0  0  0  0  0  0  0  0  0  0  0  0
  146.1671  133.6369  158.5206 C   0  0  0  0  0  0  0  0  0  0  0  0
  148.0325  132.3767  159.5782 C   0  0  0  0  0  0  0  0  0  0  0  0
  147.4973  134.7789  160.3397 C   0  0  0  0  0  0  0  0  0  0  0  0
  146.8485  134.4053  161.5418 C   0  0  0  0  0  0  0  0  0  0  0  0
  146.7879  135.3155  162.6133 C   0  0  0  0  0  0  0  0  0  0  0  0
  147.3809  136.5806  162.4495 C   0  0  0  0  0  0  0  0  0  0  0  0
  148.0033  136.9611  161.3156 N   0  0  0  0  0  0  0  0  0  0  0  0
  148.0561  136.0813  160.2924 C   0  0  0  0  0  0  0  0  0  0  0  0
  147.1610  134.9413  154.0877 C   0  0  0  0  0  0  0  0  0  0  0  0
  146.8078  134.9009  152.6454 N   0  3  0  0  0  0  0  0  0  0  0  0
  146.6598  133.5141  152.1425 C   0  0  0  0  0  0  0  0  0  0  0  0
  146.3474  133.5157  150.6366 C   0  0  0  0  0  0  0  0  0  0  0  0
  145.1718  134.2783  150.3953 O   0  0  0  0  0  0  0  0  0  0  0  0
  145.3293  135.6353  150.7898 C   0  0  0  0  0  0  0  0  0  0  0  0
  145.6098  135.7068  152.3007 C   0  0  0  0  0  0  0  0  0  0  0  0
  148.1252  132.4501  154.9478 H   0  0  0  0  0  0  0  0  0  0  0  0
  149.8019  132.6702  154.4578 H   0  0  0  0  0  0  0  0  0  0  0  0
  148.5372  132.6309  153.2442 H   0  0  0  0  0  0  0  0  0  0  0  0
  149.2819  134.9667  153.6508 H   0  0  0  0  0  0  0  0  0  0  0  0
  150.1452  134.6913  155.9249 H   0  0  0  0  0  0  0  0  0  0  0  0
  149.0524  136.0439  155.8422 H   0  0  0  0  0  0  0  0  0  0  0  0
  147.3387  134.1179  156.6011 H   0  0  0  0  0  0  0  0  0  0  0  0
  145.7516  134.5799  158.1645 H   0  0  0  0  0  0  0  0  0  0  0  0
  145.4581  133.2338  159.2446 H   0  0  0  0  0  0  0  0  0  0  0  0
  146.1861  132.9497  157.6732 H   0  0  0  0  0  0  0  0  0  0  0  0
  149.0228  132.3748  160.0358 H   0  0  0  0  0  0  0  0  0  0  0  0
  148.0796  131.7053  158.7195 H   0  0  0  0  0  0  0  0  0  0  0  0
  147.3401  131.9301  160.2927 H   0  0  0  0  0  0  0  0  0  0  0  0
  146.3945  133.4313  161.6476 H   0  0  0  0  0  0  0  0  0  0  0  0
  146.2977  135.0500  163.5382 H   0  0  0  0  0  0  0  0  0  0  0  0
  147.3546  137.3054  163.2496 H   0  0  0  0  0  0  0  0  0  0  0  0
  148.5681  136.4520  159.4181 H   0  0  0  0  0  0  0  0  0  0  0  0
  146.4896  134.2836  154.6423 H   0  0  0  0  0  0  0  0  0  0  0  0
  146.9706  135.9496  154.4556 H   0  0  0  0  0  0  0  0  0  0  0  0
  147.5775  132.9536  152.3244 H   0  0  0  0  0  0  0  0  0  0  0  0
  145.8613  133.0096  152.6892 H   0  0  0  0  0  0  0  0  0  0  0  0
  147.1836  133.9213  150.0645 H   0  0  0  0  0  0  0  0  0  0  0  0
  146.1857  132.4963  150.2854 H   0  0  0  0  0  0  0  0  0  0  0  0
  146.1356  136.1017  150.2211 H   0  0  0  0  0  0  0  0  0  0  0  0
  144.4156  136.1804  150.5514 H   0  0  0  0  0  0  0  0  0  0  0  0
  144.7466  135.3376  152.8569 H   0  0  0  0  0  0  0  0  0  0  0  0
  145.7529  136.7479  152.5869 H   0  0  0  0  0  0  0  0  0  0  0  0
  147.5889  135.3006  152.1452 H   0  0  0  0  0  0  0  0  0  0  0  0
  1  2  1  0  0  0  0
  1 23  1  0  0  0  0
  1 24  1  0  0  0  0
  1 25  1  0  0  0  0
  2  3  1  0  0  0  0
  2 16  1  0  0  0  0
  2 26  1  0  0  0  0
  3  4  1  0  0  0  0
  3 27  1  0  0  0  0
  3 28  1  0  0  0  0
  4  5  1  0  0  0  0
  4 29  1  0  0  0  0
  5  6  2  0  0  0  0
  5  7  1  0  0  0  0
  7  8  1  0  0  0  0
  7  9  1  0  0  0  0
  7 10  1  0  0  0  0
  8 30  1  0  0  0  0
  8 31  1  0  0  0  0
  8 32  1  0  0  0  0
  9 33  1  0  0  0  0
  9 34  1  0  0  0  0
  9 35  1  0  0  0  0
 10 15  1  0  0  0  0
 10 11  2  0  0  0  0
 11 12  1  0  0  0  0
 11 36  1  0  0  0  0
 12 13  2  0  0  0  0
 12 37  1  0  0  0  0
 13 14  1  0  0  0  0
 13 38  1  0  0  0  0
 14 15  2  0  0  0  0
 15 39  1  0  0  0  0
 16 17  1  0  0  0  0
 16 40  1  0  0  0  0
 16 41  1  0  0  0  0
 17 22  1  0  0  0  0
 17 18  1  0  0  0  0
 17 50  1  0  0  0  0
 18 19  1  0  0  0  0
 18 42  1  0  0  0  0
 18 43  1  0  0  0  0
 19 20  1  0  0  0  0
 19 44  1  0  0  0  0
 19 45  1  0  0  0  0
 20 21  1  0  0  0  0
 21 22  1  0  0  0  0
 21 46  1  0  0  0  0
 21 47  1  0  0  0  0
 22 48  1  0  0  0  0
 22 49  1  0  0  0  0
M  CHG  1  17   1
M  END
> <s_m_source_file>
AV-unprocessed.smi

> <i_m_source_file_index>
2896

> <i_lp_mmshare_version>
43012

> <i_f3d_flags>
0

> <s_epik_input>
W0NIMl0xW0NIMl1PW0NIMl1bQ0gyXU4xW0NIMl1bQ0BIXShbQ0gzXSlbQ0gyXVtOSF1DKD1PKUMoW0NIM10pKFtDSDNdKWMyW2NIXVtjSF1bY0hdbltjSF0y

> <s_epik_cmdline>
J2VwaWtfcHl0aG9uJywgJy1waCcsICc3LjAnLCAnLXRuJywgJzgnLCAnLW1hJywgJzIwMCcsICctbWV0YWxfYmluZGluZycsICctaW1hZScsICc8aW5maWxlLm1hZT4nLCAnLW9tYWUnLCAnPG91dGZpbGUubWFlPic=

> <r_epik_Ionization_Penalty>
0.378644

> <r_epik_Ionization_Penalty_Charging>
0.372108

> <r_epik_Ionization_Penalty_Neutral>
0.0065361

> <r_epik_State_Penalty>
0.380038

> <r_epik_Charging_Adjusted_Penalty>
0.752147

> <i_epik_Tot_Q>
1

> <i_epik_Tot_abs_Q>
1

> <r_epik_Metal_State_Penalty>
0.375202

> <b_epik_Metal_Only>
0

> <s_lp_Force_Field>
OPLS_2005

> <r_lp_Energy>
28.248

> <b_lp_Chiralities_Consistent>
1

> <s_lp_Variant>
AV-unprocessed.smi:2896-1

> <Gold.Version>
5.8.1

> <Gold.Id.Protein>
6NUR|6NUR_protein|mol2

> <Gold.PLP.Fitness>
46.6579

> <Gold.PLP.PLP>
-34.2634

> <Gold.PLP.part.hbond>
-3.7435

> <Gold.PLP.part.metal>
0.0000

> <Gold.PLP.part.buried>
-2.8733

> <Gold.PLP.part.nonpolar>
-27.9785

> <Gold.PLP.part.repulsive>
0.1904

> <Gold.PLP.ligand.clash>
0.0000

> <Gold.PLP.ligand.torsion>
1.1545

> <Gold.PLP.Chemscore.Hbond>
4.8400

> <Gold.PLP.Chemscore.CHOScore>
0.0000

> <Gold.PLP.Chemscore.Metal>
0.0000

> <Gold.Chemscore.Hbonds>
donor molecule, donor type, donor heavy atom, donor atom, acceptor molecule, acceptor atom, score
      L1  H    17    50       P1  7948  2.00
      P1  H  6896  6909       L1     6  0.59
      P1  H  6931  6943       L1    14  1.00
      P1  H  6934  6947       L1    14  0.33

> <Gold.PLP.Chemscore.Internal.Correction>
0.1834

> <Gold.Rescore>
     Score         DG    S(hbond)    S(metal)    S(lipo)     H(rot)  DE(clash)    DE(int)     intcor
     17.75     -20.36       3.02        0.00      79.79       1.78       0.01       2.60       ----

> <Gold.Chemscore.Fitness>
17.7540

> <Gold.Chemscore.DG>
-20.3608

> <Gold.Chemscore.ZeroCoef>
-5.4800

> <Gold.Chemscore.Hbond>
3.0222

> <Gold.Chemscore.Metal>
0.0000

> <Gold.Chemscore.Lipo>
79.7948

> <Gold.Chemscore.Internal_Hbond>
0.0000

> <Gold.Chemscore.DEClash>
0.0081

> <Gold.Chemscore.DEInternal>
2.5987

> <Gold.Chemscore.Rot>
1.7771

> <Gold.Chemscore.Internal.Correction>
   9.000000E+99

> <Gold.Chemscore.Hbonds>
donor molecule, donor type, donor heavy atom, donor atom, acceptor molecule, acceptor atom, score
      L1  H    17    50       P1  7948  0.99
      P1  H  6896  6909       L1     6  0.58
      P1  H  6931  6943       L1    14  0.30
      P1  H  6934  6947       L1    14  0.14

> <Gold.Chemscore.Hbond.Weighted>
-10.0942

> <Gold.Chemscore.Metal.Weighted>
-0.0000

> <Gold.Chemscore.Lipo.Weighted>
-9.3360

> <Gold.Chemscore.Internal_Hbond.Weighted>
0.0000

> <Gold.Chemscore.DEClash.Weighted>
0.0081

> <Gold.Chemscore.DEInternal.Weighted>
2.5987

> <Gold.Chemscore.Rot.Weighted>
4.5494

> <Gold.Chemscore.Internal.Correction.Weighted>
   9.000000E+99

> <Gold.Protein.RotatedTorsions>
[ 6907 6896 6895 6894 ] final   22.96 input  -60.11 | X-H torsion
[ 7974 7965 7964 7962 ] final   10.55 input  175.53 | X-H torsion
[ 8008 7997 7996 7995 ] final -100.41 input   59.86 | X-H torsion
[ 10167 10162 10161 10158 ] final   52.16 input  -65.29 | X-H torsion
[ 10718 10713 10712 10709 ] final  -50.60 input   66.30 | X-H torsion
[ 10763 10752 10751 10750 ] final  145.43 input  -60.55 | X-H torsion
[ 11005 11000 10999 10996 ] final  -67.76 input  -57.11 | X-H torsion

> <Gold.Protein.ActiveResidues>
 VAL166  LYS551  ARG553  GLY616  TRP617  ASP618  TYR619  PRO620  LYS621  CYS622 
 ASP623  PHE694  ASN695  SER759  ASP760  ASP761  ALA762  ILE779  LEU786  VAL792 
 PHE793  MET794  SER795  GLU796  ALA797  LYS798  CYS799  TRP800  GLU811  SER814 

> <Gold.Protein.RotatedAtoms>
  151.9350  135.0239  160.0531 H   0  0  0  0  0  0  0  0  0  0  0  0  # atno 6907 bound_to 6896
  152.2085  133.4889  159.5105 H   0  0  0  0  0  0  0  0  0  0  0  0  # atno 6908 bound_to 6896
  150.6971  134.1414  159.4149 H   0  0  0  0  0  0  0  0  0  0  0  0  # atno 6909 bound_to 6896
  146.2386  139.9617  142.8457 H   0  0  0  0  0  0  0  0  0  0  0  0  # atno 7974 bound_to 7965
  154.8282  140.0441  157.1458 H   0  0  0  0  0  0  0  0  0  0  0  0  # atno 8008 bound_to 7997
  154.9182  140.3023  155.5210 H   0  0  0  0  0  0  0  0  0  0  0  0  # atno 8009 bound_to 7997
  156.2985  140.2345  156.4229 H   0  0  0  0  0  0  0  0  0  0  0  0  # atno 8010 bound_to 7997
  140.2543  144.3444  150.6338 H   0  0  0  0  0  0  0  0  0  0  0  0  # atno 10167 bound_to 10162
  156.1786  130.4150  149.9541 H   0  0  0  0  0  0  0  0  0  0  0  0  # atno 10718 bound_to 10713
  154.0052  135.2919  155.3398 H   0  0  0  0  0  0  0  0  0  0  0  0  # atno 10763 bound_to 10752
  154.7136  135.5139  153.8706 H   0  0  0  0  0  0  0  0  0  0  0  0  # atno 10764 bound_to 10752
  153.0748  135.6659  154.0290 H   0  0  0  0  0  0  0  0  0  0  0  0  # atno 10765 bound_to 10752
  141.1516  133.6726  156.6342 H   0  0  0  0  0  0  0  0  0  0  0  0  # atno 11005 bound_to 11000
  145.1764  140.9746  143.4291 LP  0  0  0  0  0  0  0  0  0  0  0  0  # atno 17320 bound_to 7965
  144.9981  139.3624  143.6181 LP  0  0  0  0  0  0  0  0  0  0  0  0  # atno 17321 bound_to 7965
  140.6016  143.2167  151.7061 LP  0  0  0  0  0  0  0  0  0  0  0  0  # atno 17342 bound_to 10162
  139.5036  144.3784  152.0401 LP  0  0  0  0  0  0  0  0  0  0  0  0  # atno 17343 bound_to 10162
  156.7318  130.9046  151.3626 LP  0  0  0  0  0  0  0  0  0  0  0  0  # atno 17370 bound_to 10713
  157.6852  130.9179  150.0369 LP  0  0  0  0  0  0  0  0  0  0  0  0  # atno 17371 bound_to 10713
  140.3443  134.7822  157.4421 LP  0  0  0  0  0  0  0  0  0  0  0  0  # atno 17394 bound_to 11000
  140.0912  134.5598  155.8442 LP  0  0  0  0  0  0  0  0  0  0  0  0  # atno 17395 bound_to 11000

$$$$
