AV-unprocessed.smi:1675|AV-procd|sdf|6716|dock6
  -GOLD-   22720 7463D 1   1.00000     0.00000
 Structure written by MMmdl.
 40 42  0  0  0  0  0  0  0  0  1 V2000
  148.6433  133.9098  156.0749 N   0  0  0  0  0  0  0  0  0  0  0  0
  149.6255  134.1520  156.9467 C   0  0  0  0  0  0  0  0  0  0  0  0
  149.4336  134.1643  158.1614 O   0  0  0  0  0  0  0  0  0  0  0  0
  151.0173  134.4224  156.3659 C   0  0  0  0  0  0  0  0  0  0  0  0
  151.5175  135.7338  156.7436 N   0  0  0  0  0  0  0  0  0  0  0  0
  150.9026  136.6883  157.5312 C   0  0  0  0  0  0  0  0  0  0  0  0
  151.7746  137.7385  157.5898 C   0  0  0  0  0  0  0  0  0  0  0  0
  151.6442  138.9816  158.2592 N   0  0  0  0  0  0  0  0  0  0  0  0
  152.6298  139.7757  158.7137 C   0  0  0  0  0  0  0  0  0  0  0  0
  153.8293  139.5160  158.6210 O   0  0  0  0  0  0  0  0  0  0  0  0
  152.1834  141.0664  159.4081 C   0  0  0  0  0  0  0  0  0  0  0  0
  152.5180  142.3436  158.6035 C   0  0  1  0  0  0  0  0  0  0  0  0
  151.3541  142.8547  157.7266 C   0  0  0  0  0  0  0  0  0  0  0  0
  151.2909  144.3543  158.0732 C   0  0  1  0  0  0  0  0  0  0  0  0
  150.6819  144.5215  159.4770 C   0  0  0  0  0  0  0  0  0  0  0  0
  151.8155  144.0319  160.3962 C   0  0  0  0  0  0  0  0  0  0  0  0
  152.9139  143.6159  159.3960 C   0  0  2  0  0  0  0  0  0  0  0  0
  152.7567  144.6898  158.3241 C   0  0  0  0  0  0  0  0  0  0  0  0
  152.9002  137.3498  156.8182 C   0  0  0  0  0  0  0  0  0  0  0  0
  152.7397  136.1364  156.3128 N   0  0  0  0  0  0  0  0  0  0  0  0
  147.7090  133.7281  156.4123 H   0  0  0  0  0  0  0  0  0  0  0  0
  148.8354  133.9107  155.0838 H   0  0  0  0  0  0  0  0  0  0  0  0
  151.7293  133.6716  156.7112 H   0  0  0  0  0  0  0  0  0  0  0  0
  150.9722  134.3471  155.2784 H   0  0  0  0  0  0  0  0  0  0  0  0
  149.9241  136.5321  157.9608 H   0  0  0  0  0  0  0  0  0  0  0  0
  150.6991  139.3054  158.4057 H   0  0  0  0  0  0  0  0  0  0  0  0
  151.1069  141.0274  159.5813 H   0  0  0  0  0  0  0  0  0  0  0  0
  152.6351  141.1012  160.3993 H   0  0  0  0  0  0  0  0  0  0  0  0
  153.3491  142.0996  157.9389 H   0  0  0  0  0  0  0  0  0  0  0  0
  151.5795  142.7079  156.6696 H   0  0  0  0  0  0  0  0  0  0  0  0
  150.4095  142.3508  157.9348 H   0  0  0  0  0  0  0  0  0  0  0  0
  150.8020  144.9600  157.3099 H   0  0  0  0  0  0  0  0  0  0  0  0
  150.4493  145.5679  159.6789 H   0  0  0  0  0  0  0  0  0  0  0  0
  149.7651  143.9442  159.6026 H   0  0  0  0  0  0  0  0  0  0  0  0
  152.1679  144.8491  161.0265 H   0  0  0  0  0  0  0  0  0  0  0  0
  151.5046  143.2256  161.0591 H   0  0  0  0  0  0  0  0  0  0  0  0
  153.9098  143.5664  159.8369 H   0  0  0  0  0  0  0  0  0  0  0  0
  153.3928  144.5308  157.4515 H   0  0  0  0  0  0  0  0  0  0  0  0
  152.9109  145.7035  158.6987 H   0  0  0  0  0  0  0  0  0  0  0  0
  153.8094  137.8952  156.6123 H   0  0  0  0  0  0  0  0  0  0  0  0
  1  2  1  0  0  0  0
  1 21  1  0  0  0  0
  1 22  1  0  0  0  0
  2  3  2  0  0  0  0
  2  4  1  0  0  0  0
  4  5  1  0  0  0  0
  4 23  1  0  0  0  0
  4 24  1  0  0  0  0
  5 20  1  0  0  0  0
  5  6  1  0  0  0  0
  6  7  2  0  0  0  0
  6 25  1  0  0  0  0
  7  8  1  0  0  0  0
  7 19  1  0  0  0  0
  8  9  1  0  0  0  0
  8 26  1  0  0  0  0
  9 10  2  0  0  0  0
  9 11  1  0  0  0  0
 11 12  1  0  0  0  0
 11 27  1  0  0  0  0
 11 28  1  0  0  0  0
 12 17  1  0  0  0  0
 12 13  1  0  0  0  0
 12 29  1  0  0  0  0
 13 14  1  0  0  0  0
 13 30  1  0  0  0  0
 13 31  1  0  0  0  0
 14 18  1  0  0  0  0
 14 15  1  0  0  0  0
 14 32  1  0  0  0  0
 15 16  1  0  0  0  0
 15 33  1  0  0  0  0
 15 34  1  0  0  0  0
 16 17  1  0  0  0  0
 16 35  1  0  0  0  0
 16 36  1  0  0  0  0
 17 18  1  0  0  0  0
 17 37  1  0  0  0  0
 18 38  1  0  0  0  0
 18 39  1  0  0  0  0
 19 20  2  0  0  0  0
 19 40  1  0  0  0  0
M  END
> <s_m_source_file>
AV-unprocessed.smi

> <i_m_source_file_index>
1675

> <i_lp_mmshare_version>
43012

> <i_f3d_flags>
0

> <s_epik_input>
W05IMl1DKD1PKVtDSDJdbjFbY0hdYyhbY0hdbjEpW05IXUMoPU8pW0NIMl1bQ0BIXShbQ0gyXVtDQEBIXTIzKVtDQEBIXShbQ0gyXTMpW0NIMl1bQ0gyXTI=

> <s_epik_cmdline>
J2VwaWtfcHl0aG9uJywgJy1waCcsICc3LjAnLCAnLXRuJywgJzgnLCAnLW1hJywgJzIwMCcsICctbWV0YWxfYmluZGluZycsICctaW1hZScsICc8aW5maWxlLm1hZT4nLCAnLW9tYWUnLCAnPG91dGZpbGUubWFlPic=

> <r_lp_tautomer_probability>
1

> <r_epik_Ionization_Penalty>
2.17494e-05

> <r_epik_Ionization_Penalty_Charging>
0

> <r_epik_Ionization_Penalty_Neutral>
2.17494e-05

> <r_epik_State_Penalty>
-0

> <r_epik_Charging_Adjusted_Penalty>
0

> <i_epik_Tot_Q>
0

> <i_epik_Tot_abs_Q>
0

> <r_epik_Metal_State_Penalty>
-0

> <b_epik_Metal_Only>
0

> <s_lp_Force_Field>
OPLS_2005

> <r_lp_Energy>
53.8381

> <b_lp_Chiralities_Consistent>
1

> <s_lp_Variant>
AV-unprocessed.smi:1675-2

> <Gold.Version>
5.8.1

> <Gold.Id.Protein>
6NUR|6NUR_protein|mol2

> <Gold.PLP.Fitness>
43.6508

> <Gold.PLP.PLP>
-36.0373

> <Gold.PLP.part.hbond>
-3.0000

> <Gold.PLP.part.metal>
0.0000

> <Gold.PLP.part.buried>
-5.3898

> <Gold.PLP.part.nonpolar>
-27.4427

> <Gold.PLP.part.repulsive>
0.0787

> <Gold.PLP.ligand.clash>
0.0000

> <Gold.PLP.ligand.torsion>
0.7091

> <Gold.PLP.Chemscore.Hbond>
3.0000

> <Gold.PLP.Chemscore.CHOScore>
0.0000

> <Gold.PLP.Chemscore.Metal>
0.0000

> <Gold.Chemscore.Hbonds>
donor molecule, donor type, donor heavy atom, donor atom, acceptor molecule, acceptor atom, score
      P1  H  6896  6909       L1     3  1.00
      P1  H  7997  8008       L1    10  1.00
      P1  H 10752 10765       L1    20  0.80

> <Gold.PLP.Chemscore.Internal.Correction>
0.0318

> <Gold.Rescore>
     Score         DG    S(hbond)    S(metal)    S(lipo)     H(rot)  DE(clash)    DE(int)     intcor
     20.64     -22.66       2.98        0.00     108.89       2.15       0.13       1.88       ----

> <Gold.Chemscore.Fitness>
20.6415

> <Gold.Chemscore.DG>
-22.6577

> <Gold.Chemscore.ZeroCoef>
-5.4800

> <Gold.Chemscore.Hbond>
2.9756

> <Gold.Chemscore.Metal>
0.0000

> <Gold.Chemscore.Lipo>
108.8858

> <Gold.Chemscore.Internal_Hbond>
0.0000

> <Gold.Chemscore.DEClash>
0.1343

> <Gold.Chemscore.DEInternal>
1.8819

> <Gold.Chemscore.Rot>
2.1486

> <Gold.Chemscore.Internal.Correction>
   9.000000E+99

> <Gold.Chemscore.Hbonds>
donor molecule, donor type, donor heavy atom, donor atom, acceptor molecule, acceptor atom, score
      P1  H  6896  6909       L1     3  0.99
      P1  H  7997  8008       L1    10  0.99
      P1  H 10752 10765       L1    20  0.59

> <Gold.Chemscore.Hbond.Weighted>
-9.9384

> <Gold.Chemscore.Metal.Weighted>
-0.0000

> <Gold.Chemscore.Lipo.Weighted>
-12.7396

> <Gold.Chemscore.Internal_Hbond.Weighted>
0.0000

> <Gold.Chemscore.DEClash.Weighted>
0.1343

> <Gold.Chemscore.DEInternal.Weighted>
1.8819

> <Gold.Chemscore.Rot.Weighted>
5.5004

> <Gold.Chemscore.Internal.Correction.Weighted>
   9.000000E+99

> <Gold.Protein.RotatedTorsions>
[ 6907 6896 6895 6894 ] final    8.05 input  -60.11 | X-H torsion
[ 7974 7965 7964 7962 ] final -138.87 input  175.53 | X-H torsion
[ 8008 7997 7996 7995 ] final -105.87 input   59.86 | X-H torsion
[ 10167 10162 10161 10158 ] final -149.49 input  -65.29 | X-H torsion
[ 10718 10713 10712 10709 ] final   40.93 input   66.30 | X-H torsion
[ 10763 10752 10751 10750 ] final -160.67 input  -60.55 | X-H torsion
[ 11005 11000 10999 10996 ] final   40.70 input  -57.11 | X-H torsion

> <Gold.Protein.ActiveResidues>
 VAL166  LYS551  ARG553  GLY616  TRP617  ASP618  TYR619  PRO620  LYS621  CYS622 
 ASP623  PHE694  ASN695  SER759  ASP760  ASP761  ALA762  ILE779  LEU786  VAL792 
 PHE793  MET794  SER795  GLU796  ALA797  LYS798  CYS799  TRP800  GLU811  SER814 

> <Gold.Protein.RotatedAtoms>
  151.6997  135.0932  160.0248 H   0  0  0  0  0  0  0  0  0  0  0  0  # atno 6907 bound_to 6896
  152.3728  133.6437  159.6109 H   0  0  0  0  0  0  0  0  0  0  0  0  # atno 6908 bound_to 6896
  150.7686  133.9159  159.3425 H   0  0  0  0  0  0  0  0  0  0  0  0  # atno 6909 bound_to 6896
  144.8723  140.6385  143.5259 H   0  0  0  0  0  0  0  0  0  0  0  0  # atno 7974 bound_to 7965
  154.9062  140.0411  157.1920 H   0  0  0  0  0  0  0  0  0  0  0  0  # atno 8008 bound_to 7997
  154.8394  140.2912  155.5648 H   0  0  0  0  0  0  0  0  0  0  0  0  # atno 8009 bound_to 7997
  156.2991  140.2485  156.3334 H   0  0  0  0  0  0  0  0  0  0  0  0  # atno 8010 bound_to 7997
  139.7437  143.8622  152.2569 H   0  0  0  0  0  0  0  0  0  0  0  0  # atno 10167 bound_to 10162
  157.3878  130.7789  149.7244 H   0  0  0  0  0  0  0  0  0  0  0  0  # atno 10718 bound_to 10713
  154.7371  135.3060  154.8793 H   0  0  0  0  0  0  0  0  0  0  0  0  # atno 10763 bound_to 10752
  153.9619  135.6752  153.4749 H   0  0  0  0  0  0  0  0  0  0  0  0  # atno 10764 bound_to 10752
  153.0972  135.4929  154.8724 H   0  0  0  0  0  0  0  0  0  0  0  0  # atno 10765 bound_to 10752
  140.1905  134.3992  155.8149 H   0  0  0  0  0  0  0  0  0  0  0  0  # atno 11005 bound_to 11000
  145.4107  139.1580  143.4127 LP  0  0  0  0  0  0  0  0  0  0  0  0  # atno 17320 bound_to 7965
  146.2939  140.4211  142.8729 LP  0  0  0  0  0  0  0  0  0  0  0  0  # atno 17321 bound_to 7965
  139.8580  144.7131  150.9133 LP  0  0  0  0  0  0  0  0  0  0  0  0  # atno 17342 bound_to 10162
  140.7789  143.3841  151.1424 LP  0  0  0  0  0  0  0  0  0  0  0  0  # atno 17343 bound_to 10162
  155.9791  130.4044  150.3609 LP  0  0  0  0  0  0  0  0  0  0  0  0  # atno 17370 bound_to 10713
  157.1721  131.0371  151.2790 LP  0  0  0  0  0  0  0  0  0  0  0  0  # atno 17371 bound_to 10713
  141.2226  133.7044  156.8088 LP  0  0  0  0  0  0  0  0  0  0  0  0  # atno 17394 bound_to 11000
  140.2165  134.8789  157.3331 LP  0  0  0  0  0  0  0  0  0  0  0  0  # atno 17395 bound_to 11000

$$$$
