AV-unprocessed.smi:2827|AV-procd|sdf|10896|dock4
  -GOLD-   2272015343D 1   1.00000     0.00000
 Structure written by MMmdl.
 48 51  0  0  0  0  0  0  0  0  3 V2000
  152.5291  139.9061  155.3456 O   0  0  0  0  0  0  0  0  0  0  0  0
  151.3947  140.2864  155.6339 C   0  0  0  0  0  0  0  0  0  0  0  0
  150.3092  140.3452  154.5577 C   0  0  0  0  0  0  0  0  0  0  0  0
  149.6580  139.0434  154.4468 N   0  0  0  0  0  0  0  0  0  0  0  0
  148.2825  138.9368  154.2660 C   0  0  0  0  0  0  0  0  0  0  0  0
  147.5817  137.8036  154.4593 C   0  0  0  0  0  0  0  0  0  0  0  0
  148.2850  136.5806  154.8961 C   0  0  0  0  0  0  0  0  0  0  0  0
  147.6609  135.5457  155.1244 O   0  0  0  0  0  0  0  0  0  0  0  0
  149.7648  136.6748  155.0538 C   0  0  0  0  0  0  0  0  0  0  0  0
  150.6307  135.5837  155.4485 N   0  3  0  0  0  0  0  0  0  0  0  0
  150.2098  134.4322  155.3747 O   0  0  0  0  0  0  0  0  0  0  0  0
  151.7621  135.8428  155.8448 O   0  5  0  0  0  0  0  0  0  0  0  0
  150.3368  137.8807  154.8126 C   0  0  0  0  0  0  0  0  0  0  0  0
  151.0370  140.7128  156.8547 N   0  0  0  0  0  0  0  0  0  0  0  0
  151.9491  140.9672  157.9642 C   0  0  0  0  0  0  0  0  0  0  0  0
  151.3832  142.0566  158.9090 C   0  0  2  0  0  0  0  0  0  0  0  0
  150.6534  143.2326  158.1981 C   0  0  2  0  0  0  0  0  0  0  0  0
  151.6564  144.1092  157.4136 C   0  0  0  0  0  0  0  0  0  0  0  0
  152.7051  144.6876  158.3874 C   0  0  1  0  0  0  0  0  0  0  0  0
  151.9973  145.5544  159.4510 C   0  0  0  0  0  0  0  0  0  0  0  0
  150.9931  144.6815  160.2336 C   0  0  1  0  0  0  0  0  0  0  0  0
  149.9444  144.1053  159.2578 C   0  0  0  0  0  0  0  0  0  0  0  0
  151.7469  143.5254  160.9277 C   0  0  0  0  0  0  0  0  0  0  0  0
  152.4514  142.6545  159.8618 C   0  0  2  0  0  0  0  0  0  0  0  0
  153.4585  143.5340  159.0834 C   0  0  0  0  0  0  0  0  0  0  0  0
  149.5799  141.1136  154.8176 H   0  0  0  0  0  0  0  0  0  0  0  0
  150.7375  140.6375  153.5975 H   0  0  0  0  0  0  0  0  0  0  0  0
  147.8022  139.8513  153.9499 H   0  0  0  0  0  0  0  0  0  0  0  0
  146.5128  137.7700  154.3075 H   0  0  0  0  0  0  0  0  0  0  0  0
  151.4042  138.0269  154.8980 H   0  0  0  0  0  0  0  0  0  0  0  0
  150.0747  140.9859  156.9927 H   0  0  0  0  0  0  0  0  0  0  0  0
  152.0640  140.0329  158.5140 H   0  0  0  0  0  0  0  0  0  0  0  0
  152.9442  141.2244  157.6014 H   0  0  0  0  0  0  0  0  0  0  0  0
  150.6459  141.5459  159.5312 H   0  0  0  0  0  0  0  0  0  0  0  0
  149.8967  142.8534  157.5134 H   0  0  0  0  0  0  0  0  0  0  0  0
  152.1452  143.5315  156.6292 H   0  0  0  0  0  0  0  0  0  0  0  0
  151.1287  144.9180  156.9067 H   0  0  0  0  0  0  0  0  0  0  0  0
  153.4150  145.3024  157.8331 H   0  0  0  0  0  0  0  0  0  0  0  0
  152.7295  145.9908  160.1318 H   0  0  0  0  0  0  0  0  0  0  0  0
  151.4820  146.3902  158.9760 H   0  0  0  0  0  0  0  0  0  0  0  0
  150.4918  145.2917  160.9856 H   0  0  0  0  0  0  0  0  0  0  0  0
  149.3936  144.9129  158.7737 H   0  0  0  0  0  0  0  0  0  0  0  0
  149.2059  143.5157  159.8021 H   0  0  0  0  0  0  0  0  0  0  0  0
  152.4772  143.9224  161.6339 H   0  0  0  0  0  0  0  0  0  0  0  0
  151.0527  142.9208  161.5127 H   0  0  0  0  0  0  0  0  0  0  0  0
  152.9867  141.8474  160.3628 H   0  0  0  0  0  0  0  0  0  0  0  0
  154.0077  142.9427  158.3509 H   0  0  0  0  0  0  0  0  0  0  0  0
  154.2084  143.9358  159.7658 H   0  0  0  0  0  0  0  0  0  0  0  0
  1  2  2  0  0  0  0
  2  3  1  0  0  0  0
  2 14  1  0  0  0  0
  3  4  1  0  0  0  0
  3 26  1  0  0  0  0
  3 27  1  0  0  0  0
  4 13  1  0  0  0  0
  4  5  1  0  0  0  0
  5  6  2  0  0  0  0
  5 28  1  0  0  0  0
  6  7  1  0  0  0  0
  6 29  1  0  0  0  0
  7  8  2  0  0  0  0
  7  9  1  0  0  0  0
  9 10  1  0  0  0  0
  9 13  2  0  0  0  0
 10 11  2  0  0  0  0
 10 12  1  0  0  0  0
 13 30  1  0  0  0  0
 14 15  1  0  0  0  0
 14 31  1  0  0  0  0
 15 16  1  0  0  0  0
 15 32  1  0  0  0  0
 15 33  1  0  0  0  0
 16 24  1  0  0  0  0
 16 17  1  0  0  0  0
 16 34  1  0  0  0  0
 17 22  1  0  0  0  0
 17 18  1  0  0  0  0
 17 35  1  0  0  0  0
 18 19  1  0  0  0  0
 18 36  1  0  0  0  0
 18 37  1  0  0  0  0
 19 25  1  0  0  0  0
 19 20  1  0  0  0  0
 19 38  1  0  0  0  0
 20 21  1  0  0  0  0
 20 39  1  0  0  0  0
 20 40  1  0  0  0  0
 21 22  1  0  0  0  0
 21 23  1  0  0  0  0
 21 41  1  0  0  0  0
 22 42  1  0  0  0  0
 22 43  1  0  0  0  0
 23 24  1  0  0  0  0
 23 44  1  0  0  0  0
 23 45  1  0  0  0  0
 24 25  1  0  0  0  0
 24 46  1  0  0  0  0
 25 47  1  0  0  0  0
 25 48  1  0  0  0  0
M  CHG  1  10   1
M  CHG  1  12  -1
M  END
> <s_m_source_file>
AV-unprocessed.smi

> <i_m_source_file_index>
2827

> <i_lp_mmshare_version>
43012

> <i_f3d_flags>
0

> <s_epik_input>
Tz1bTitdKFtPLV0pYyhbY0hdMSljKD1PKVtjSF1bY0hdbjFbQ0gyXUMoPU8pW05IXVtDSDJdW0NASF0oW0NASF0yMylbQ0BASF00W0NIMl1bQ0BIXShbQ0gyXTMpW0NIMl1bQ0BIXShbQ0gyXTIpW0NIMl00

> <s_epik_cmdline>
J2VwaWtfcHl0aG9uJywgJy1waCcsICc3LjAnLCAnLXRuJywgJzgnLCAnLW1hJywgJzIwMCcsICctbWV0YWxfYmluZGluZycsICctaW1hZScsICc8aW5maWxlLm1hZT4nLCAnLW9tYWUnLCAnPG91dGZpbGUubWFlPic=

> <r_lp_tautomer_probability>
1

> <r_epik_Ionization_Penalty>
3.31423e-08

> <r_epik_Ionization_Penalty_Charging>
1.04538e-08

> <r_epik_Ionization_Penalty_Neutral>
2.26885e-08

> <r_epik_State_Penalty>
-0

> <r_epik_Charging_Adjusted_Penalty>
1.04538e-08

> <i_epik_Tot_Q>
0

> <i_epik_Tot_abs_Q>
2

> <r_epik_Metal_State_Penalty>
-0

> <b_epik_Metal_Only>
0

> <s_lp_Force_Field>
OPLS_2005

> <r_lp_Energy>
36.4142

> <b_lp_Chiralities_Consistent>
1

> <s_lp_Variant>
AV-unprocessed.smi:2827-1

> <Gold.Version>
5.8.1

> <Gold.Id.Protein>
6NUR|6NUR_protein|mol2

> <Gold.PLP.Fitness>
53.2900

> <Gold.PLP.PLP>
-49.4531

> <Gold.PLP.part.hbond>
-3.0000

> <Gold.PLP.part.metal>
0.0000

> <Gold.PLP.part.buried>
-1.5684

> <Gold.PLP.part.nonpolar>
-44.4612

> <Gold.PLP.part.repulsive>
0.2461

> <Gold.PLP.ligand.clash>
0.0000

> <Gold.PLP.ligand.torsion>
1.1475

> <Gold.PLP.Chemscore.Hbond>
2.0000

> <Gold.PLP.Chemscore.CHOScore>
0.0000

> <Gold.PLP.Chemscore.Metal>
0.0000

> <Gold.Chemscore.Hbonds>
donor molecule, donor type, donor heavy atom, donor atom, acceptor molecule, acceptor atom, score
      P1  H  7997  8009       L1     1  1.00
      P1  H 10752 10765       L1    12  1.00

> <Gold.PLP.Chemscore.Internal.Correction>
0.1319

> <Gold.Rescore>
     Score         DG    S(hbond)    S(metal)    S(lipo)     H(rot)  DE(clash)    DE(int)     intcor
     19.21     -23.94       1.94        0.00     140.63       1.75       1.36       3.37       ----

> <Gold.Chemscore.Fitness>
19.2068

> <Gold.Chemscore.DG>
-23.9387

> <Gold.Chemscore.ZeroCoef>
-5.4800

> <Gold.Chemscore.Hbond>
1.9447

> <Gold.Chemscore.Metal>
0.0000

> <Gold.Chemscore.Lipo>
140.6283

> <Gold.Chemscore.Internal_Hbond>
0.0000

> <Gold.Chemscore.DEClash>
1.3650

> <Gold.Chemscore.DEInternal>
3.3670

> <Gold.Chemscore.Rot>
1.7540

> <Gold.Chemscore.Internal.Correction>
   9.000000E+99

> <Gold.Chemscore.Hbonds>
donor molecule, donor type, donor heavy atom, donor atom, acceptor molecule, acceptor atom, score
      P1  H  7997  8009       L1     1  0.96
      P1  H 10752 10765       L1    12  0.98

> <Gold.Chemscore.Hbond.Weighted>
-6.4954

> <Gold.Chemscore.Metal.Weighted>
-0.0000

> <Gold.Chemscore.Lipo.Weighted>
-16.4535

> <Gold.Chemscore.Internal_Hbond.Weighted>
0.0000

> <Gold.Chemscore.DEClash.Weighted>
1.3650

> <Gold.Chemscore.DEInternal.Weighted>
3.3670

> <Gold.Chemscore.Rot.Weighted>
4.4902

> <Gold.Chemscore.Internal.Correction.Weighted>
   9.000000E+99

> <Gold.Protein.RotatedTorsions>
[ 6907 6896 6895 6894 ] final   24.73 input  -60.11 | X-H torsion
[ 7974 7965 7964 7962 ] final   40.87 input  175.53 | X-H torsion
[ 8008 7997 7996 7995 ] final -142.71 input   59.86 | X-H torsion
[ 10167 10162 10161 10158 ] final  -34.56 input  -65.29 | X-H torsion
[ 10718 10713 10712 10709 ] final  -85.74 input   66.30 | X-H torsion
[ 10763 10752 10751 10750 ] final -153.73 input  -60.55 | X-H torsion
[ 11005 11000 10999 10996 ] final -142.57 input  -57.11 | X-H torsion

> <Gold.Protein.ActiveResidues>
 VAL166  LYS551  ARG553  GLY616  TRP617  ASP618  TYR619  PRO620  LYS621  CYS622 
 ASP623  PHE694  ASN695  SER759  ASP760  ASP761  ALA762  ILE779  LEU786  VAL792 
 PHE793  MET794  SER795  GLU796  ALA797  LYS798  CYS799  TRP800  GLU811  SER814 

> <Gold.Protein.RotatedAtoms>
  151.9619  135.0119  160.0547 H   0  0  0  0  0  0  0  0  0  0  0  0  # atno 6907 bound_to 6896
  152.1861  133.4736  159.4992 H   0  0  0  0  0  0  0  0  0  0  0  0  # atno 6908 bound_to 6896
  150.6926  134.1689  159.4247 H   0  0  0  0  0  0  0  0  0  0  0  0  # atno 6909 bound_to 6896
  146.0870  139.5482  142.9500 H   0  0  0  0  0  0  0  0  0  0  0  0  # atno 7974 bound_to 7965
  155.4986  140.0573  157.2942 H   0  0  0  0  0  0  0  0  0  0  0  0  # atno 8008 bound_to 7997
  154.4595  140.1989  156.0233 H   0  0  0  0  0  0  0  0  0  0  0  0  # atno 8009 bound_to 7997
  156.0864  140.3240  155.7763 H   0  0  0  0  0  0  0  0  0  0  0  0  # atno 8010 bound_to 7997
  140.7183  143.3539  151.2099 H   0  0  0  0  0  0  0  0  0  0  0  0  # atno 10167 bound_to 10162
  155.9994  130.4741  150.4608 H   0  0  0  0  0  0  0  0  0  0  0  0  # atno 10718 bound_to 10713
  154.7908  135.3206  154.7782 H   0  0  0  0  0  0  0  0  0  0  0  0  # atno 10763 bound_to 10752
  153.8471  135.6865  153.4800 H   0  0  0  0  0  0  0  0  0  0  0  0  # atno 10764 bound_to 10752
  153.1577  135.4673  154.9668 H   0  0  0  0  0  0  0  0  0  0  0  0  # atno 10765 bound_to 10752
  140.8212  134.2629  157.4899 H   0  0  0  0  0  0  0  0  0  0  0  0  # atno 11005 bound_to 11000
  145.6112  141.0339  143.1966 LP  0  0  0  0  0  0  0  0  0  0  0  0  # atno 17320 bound_to 7965
  144.7332  139.7662  143.7339 LP  0  0  0  0  0  0  0  0  0  0  0  0  # atno 17321 bound_to 7965
  139.7076  143.9429  152.2933 LP  0  0  0  0  0  0  0  0  0  0  0  0  # atno 17342 bound_to 10162
  139.9144  144.6837  150.8528 LP  0  0  0  0  0  0  0  0  0  0  0  0  # atno 17343 bound_to 10162
  157.2632  131.0571  151.2307 LP  0  0  0  0  0  0  0  0  0  0  0  0  # atno 17370 bound_to 10713
  157.3414  130.7035  149.6384 LP  0  0  0  0  0  0  0  0  0  0  0  0  # atno 17371 bound_to 10713
  139.8708  134.9536  156.4150 LP  0  0  0  0  0  0  0  0  0  0  0  0  # atno 17394 bound_to 11000
  140.9097  133.7720  155.9777 LP  0  0  0  0  0  0  0  0  0  0  0  0  # atno 17395 bound_to 11000

$$$$
