AV-unprocessed.smi:1956|AV-procd|sdf|7902|dock8
  -GOLD-   2272010 63D 1   1.00000     0.00000
 Structure written by MMmdl.
 46 47  0  0  0  0  0  0  0  0  2 V2000
  152.5511  142.1826  159.2263 C   0  0  0  0  0  0  0  0  0  0  0  0
  152.9613  141.0949  158.4048 O   0  0  0  0  0  0  0  0  0  0  0  0
  152.1241  140.6933  157.3841 C   0  0  0  0  0  0  0  0  0  0  0  0
  150.7863  141.1342  157.3959 C   0  0  0  0  0  0  0  0  0  0  0  0
  149.9248  140.7304  156.3579 C   0  0  0  0  0  0  0  0  0  0  0  0
  150.4307  139.8918  155.3345 C   0  0  0  0  0  0  0  0  0  0  0  0
  149.6812  139.4105  154.2248 N   0  0  0  0  0  0  0  0  0  0  0  0
  148.4352  139.7257  153.8301 C   0  0  0  0  0  0  0  0  0  0  0  0
  147.6818  140.5209  154.3902 O   0  0  0  0  0  0  0  0  0  0  0  0
  148.0949  139.0530  152.7214 N   0  0  0  0  0  0  0  0  0  0  0  0
  146.8080  139.1600  152.0432 C   0  0  0  0  0  0  0  0  0  0  0  0
  146.6697  138.1122  150.9211 C   0  0  0  0  0  0  0  0  0  0  0  0
  145.6490  137.0808  151.2341 N   0  3  1  0  0  0  0  0  0  0  0  0
  145.8399  135.8400  150.4391 C   0  0  0  0  0  0  0  0  0  0  0  0
  144.6805  134.8558  150.6599 C   0  0  0  0  0  0  0  0  0  0  0  0
  144.5064  134.5345  152.1509 C   0  0  0  0  0  0  0  0  0  0  0  0
  144.3715  135.8200  152.9882 C   0  0  2  0  0  0  0  0  0  0  0  0
  142.9995  136.4976  152.8249 C   0  0  0  0  0  0  0  0  0  0  0  0
  145.5368  136.7855  152.6887 C   0  0  0  0  0  0  0  0  0  0  0  0
  151.7862  139.5094  155.4158 C   0  0  0  0  0  0  0  0  0  0  0  0
  152.6169  139.8926  156.4076 N   0  0  0  0  0  0  0  0  0  0  0  0
  153.3150  142.3732  159.9799 H   0  0  0  0  0  0  0  0  0  0  0  0
  151.6193  141.9601  159.7485 H   0  0  0  0  0  0  0  0  0  0  0  0
  152.4259  143.0966  158.6438 H   0  0  0  0  0  0  0  0  0  0  0  0
  150.4259  141.7733  158.1885 H   0  0  0  0  0  0  0  0  0  0  0  0
  148.9051  141.0785  156.3767 H   0  0  0  0  0  0  0  0  0  0  0  0
  150.1580  138.7242  153.6583 H   0  0  0  0  0  0  0  0  0  0  0  0
  148.7697  138.4149  152.3248 H   0  0  0  0  0  0  0  0  0  0  0  0
  146.0346  139.0276  152.7985 H   0  0  0  0  0  0  0  0  0  0  0  0
  146.6810  140.1675  151.6430 H   0  0  0  0  0  0  0  0  0  0  0  0
  146.3792  138.6283  150.0051 H   0  0  0  0  0  0  0  0  0  0  0  0
  147.6287  137.6353  150.7127 H   0  0  0  0  0  0  0  0  0  0  0  0
  145.8990  136.0843  149.3778 H   0  0  0  0  0  0  0  0  0  0  0  0
  146.7885  135.3742  150.7109 H   0  0  0  0  0  0  0  0  0  0  0  0
  143.7581  135.2767  150.2581 H   0  0  0  0  0  0  0  0  0  0  0  0
  144.8633  133.9368  150.1024 H   0  0  0  0  0  0  0  0  0  0  0  0
  143.6427  133.8856  152.3008 H   0  0  0  0  0  0  0  0  0  0  0  0
  145.3742  133.9712  152.4969 H   0  0  0  0  0  0  0  0  0  0  0  0
  144.4475  135.5322  154.0376 H   0  0  0  0  0  0  0  0  0  0  0  0
  142.8360  136.8492  151.8062 H   0  0  0  0  0  0  0  0  0  0  0  0
  142.9083  137.3587  153.4876 H   0  0  0  0  0  0  0  0  0  0  0  0
  142.1908  135.8091  153.0715 H   0  0  0  0  0  0  0  0  0  0  0  0
  146.4751  136.3489  153.0350 H   0  0  0  0  0  0  0  0  0  0  0  0
  145.3960  137.7027  153.2591 H   0  0  0  0  0  0  0  0  0  0  0  0
  152.2217  138.8734  154.6590 H   0  0  0  0  0  0  0  0  0  0  0  0
  144.7615  137.4648  150.9422 H   0  0  0  0  0  0  0  0  0  0  0  0
  1  2  1  0  0  0  0
  1 22  1  0  0  0  0
  1 23  1  0  0  0  0
  1 24  1  0  0  0  0
  2  3  1  0  0  0  0
  3 21  1  0  0  0  0
  3  4  2  0  0  0  0
  4  5  1  0  0  0  0
  4 25  1  0  0  0  0
  5  6  2  0  0  0  0
  5 26  1  0  0  0  0
  6  7  1  0  0  0  0
  6 20  1  0  0  0  0
  7  8  1  0  0  0  0
  7 27  1  0  0  0  0
  8  9  2  0  0  0  0
  8 10  1  0  0  0  0
 10 11  1  0  0  0  0
 10 28  1  0  0  0  0
 11 12  1  0  0  0  0
 11 29  1  0  0  0  0
 11 30  1  0  0  0  0
 12 13  1  0  0  0  0
 12 31  1  0  0  0  0
 12 32  1  0  0  0  0
 13 19  1  0  0  0  0
 13 14  1  0  0  0  0
 13 46  1  0  0  0  0
 14 15  1  0  0  0  0
 14 33  1  0  0  0  0
 14 34  1  0  0  0  0
 15 16  1  0  0  0  0
 15 35  1  0  0  0  0
 15 36  1  0  0  0  0
 16 17  1  0  0  0  0
 16 37  1  0  0  0  0
 16 38  1  0  0  0  0
 17 18  1  0  0  0  0
 17 19  1  0  0  0  0
 17 39  1  0  0  0  0
 18 40  1  0  0  0  0
 18 41  1  0  0  0  0
 18 42  1  0  0  0  0
 19 43  1  0  0  0  0
 19 44  1  0  0  0  0
 20 21  2  0  0  0  0
 20 45  1  0  0  0  0
M  CHG  1  13   1
M  END
> <s_m_source_file>
AV-unprocessed.smi

> <i_m_source_file_index>
1956

> <i_lp_mmshare_version>
43012

> <i_f3d_flags>
0

> <s_epik_input>
W0NIM11PYzFbY0hdW2NIXWMoW2NIXW4xKVtOSF1DKD1PKVtOSF1bQ0gyXVtDSDJdTjJbQ0gyXVtDSDJdW0NIMl1bQ0BASF0oW0NIM10pW0NIMl0y

> <s_epik_cmdline>
J2VwaWtfcHl0aG9uJywgJy1waCcsICc3LjAnLCAnLXRuJywgJzgnLCAnLW1hJywgJzIwMCcsICctbWV0YWxfYmluZGluZycsICctaW1hZScsICc8aW5maWxlLm1hZT4nLCAnLW9tYWUnLCAnPG91dGZpbGUubWFlPic=

> <r_lp_tautomer_probability>
1

> <r_epik_Ionization_Penalty>
0.00179545

> <r_epik_Ionization_Penalty_Charging>
0.00171832

> <r_epik_Ionization_Penalty_Neutral>
7.7124e-05

> <r_epik_State_Penalty>
0.0011618

> <r_epik_Charging_Adjusted_Penalty>
0.00288012

> <i_epik_Tot_Q>
1

> <i_epik_Tot_abs_Q>
1

> <r_epik_Metal_State_Penalty>
-0

> <b_epik_Metal_Only>
0

> <s_lp_Force_Field>
OPLS_2005

> <r_lp_Energy>
22.555

> <b_lp_Chiralities_Consistent>
1

> <s_lp_Variant>
AV-unprocessed.smi:1956-3

> <Gold.Version>
5.8.1

> <Gold.Id.Protein>
6NUR|6NUR_protein|mol2

> <Gold.PLP.Fitness>
42.1550

> <Gold.PLP.PLP>
-35.0776

> <Gold.PLP.part.hbond>
-4.9052

> <Gold.PLP.part.metal>
0.0000

> <Gold.PLP.part.buried>
3.6050

> <Gold.PLP.part.nonpolar>
-34.0064

> <Gold.PLP.part.repulsive>
0.3485

> <Gold.PLP.ligand.clash>
0.0000

> <Gold.PLP.ligand.torsion>
0.8621

> <Gold.PLP.Chemscore.Hbond>
2.9183

> <Gold.PLP.Chemscore.CHOScore>
0.0000

> <Gold.PLP.Chemscore.Metal>
0.0000

> <Gold.Chemscore.Hbonds>
donor molecule, donor type, donor heavy atom, donor atom, acceptor molecule, acceptor atom, score
      L1  H    10    28       P1  7948  0.46
      L1  H    13    46       P1 10171  0.94
      P1  H  7997  8010       L1    21  1.00

> <Gold.PLP.Chemscore.Internal.Correction>
0.0468

> <Gold.Rescore>
     Score         DG    S(hbond)    S(metal)    S(lipo)     H(rot)  DE(clash)    DE(int)     intcor
     16.72     -19.74       2.86        0.00      77.63       1.71       2.10       0.92       ----

> <Gold.Chemscore.Fitness>
16.7178

> <Gold.Chemscore.DG>
-19.7449

> <Gold.Chemscore.ZeroCoef>
-5.4800

> <Gold.Chemscore.Hbond>
2.8627

> <Gold.Chemscore.Metal>
0.0000

> <Gold.Chemscore.Lipo>
77.6331

> <Gold.Chemscore.Internal_Hbond>
0.0000

> <Gold.Chemscore.DEClash>
2.1026

> <Gold.Chemscore.DEInternal>
0.9246

> <Gold.Chemscore.Rot>
1.7107

> <Gold.Chemscore.Internal.Correction>
   9.000000E+99

> <Gold.Chemscore.Hbonds>
donor molecule, donor type, donor heavy atom, donor atom, acceptor molecule, acceptor atom, score
      L1  H    10    28       P1  7948  0.46
      L1  H    13    46       P1 10171  0.91
      P1  H  7997  8010       L1    21  0.65

> <Gold.Chemscore.Hbond.Weighted>
-9.5613

> <Gold.Chemscore.Metal.Weighted>
-0.0000

> <Gold.Chemscore.Lipo.Weighted>
-9.0831

> <Gold.Chemscore.Internal_Hbond.Weighted>
0.0000

> <Gold.Chemscore.DEClash.Weighted>
2.1026

> <Gold.Chemscore.DEInternal.Weighted>
0.9246

> <Gold.Chemscore.Rot.Weighted>
4.3794

> <Gold.Chemscore.Internal.Correction.Weighted>
   9.000000E+99

> <Gold.Protein.RotatedTorsions>
[ 6907 6896 6895 6894 ] final  164.37 input  -60.11 | X-H torsion
[ 7974 7965 7964 7962 ] final  141.41 input  175.53 | X-H torsion
[ 8008 7997 7996 7995 ] final   77.44 input   59.86 | X-H torsion
[ 10167 10162 10161 10158 ] final  105.01 input  -65.29 | X-H torsion
[ 10718 10713 10712 10709 ] final   74.66 input   66.30 | X-H torsion
[ 10763 10752 10751 10750 ] final  -49.32 input  -60.55 | X-H torsion
[ 11005 11000 10999 10996 ] final  132.93 input  -57.11 | X-H torsion

> <Gold.Protein.ActiveResidues>
 VAL166  LYS551  ARG553  GLY616  TRP617  ASP618  TYR619  PRO620  LYS621  CYS622 
 ASP623  PHE694  ASN695  SER759  ASP760  ASP761  ALA762  ILE779  LEU786  VAL792 
 PHE793  MET794  SER795  GLU796  ALA797  LYS798  CYS799  TRP800  GLU811  SER814 

> <Gold.Protein.RotatedAtoms>
  151.9108  133.3561  159.3862 H   0  0  0  0  0  0  0  0  0  0  0  0  # atno 6907 bound_to 6896
  150.7058  134.4733  159.5445 H   0  0  0  0  0  0  0  0  0  0  0  0  # atno 6908 bound_to 6896
  152.2339  134.8295  160.0520 H   0  0  0  0  0  0  0  0  0  0  0  0  # atno 6909 bound_to 6896
  144.9098  139.5308  143.5714 H   0  0  0  0  0  0  0  0  0  0  0  0  # atno 7974 bound_to 7965
  155.8417  140.3462  155.5636 H   0  0  0  0  0  0  0  0  0  0  0  0  # atno 8008 bound_to 7997
  155.8134  140.0902  157.1910 H   0  0  0  0  0  0  0  0  0  0  0  0  # atno 8009 bound_to 7997
  154.4005  140.1443  156.3401 H   0  0  0  0  0  0  0  0  0  0  0  0  # atno 8010 bound_to 7997
  139.7129  144.7074  151.0997 H   0  0  0  0  0  0  0  0  0  0  0  0  # atno 10167 bound_to 10162
  157.6601  130.9688  150.1242 H   0  0  0  0  0  0  0  0  0  0  0  0  # atno 10718 bound_to 10713
  154.0921  135.6576  153.4854 H   0  0  0  0  0  0  0  0  0  0  0  0  # atno 10763 bound_to 10752
  153.0318  135.5205  154.7370 H   0  0  0  0  0  0  0  0  0  0  0  0  # atno 10764 bound_to 10752
  154.6497  135.2999  154.9971 H   0  0  0  0  0  0  0  0  0  0  0  0  # atno 10765 bound_to 10752
  139.9820  134.9545  156.9652 H   0  0  0  0  0  0  0  0  0  0  0  0  # atno 11005 bound_to 11000
  146.3153  139.7896  142.8988 LP  0  0  0  0  0  0  0  0  0  0  0  0  # atno 17320 bound_to 7965
  145.3473  141.0300  143.3358 LP  0  0  0  0  0  0  0  0  0  0  0  0  # atno 17321 bound_to 7965
  140.7737  143.5269  150.9470 LP  0  0  0  0  0  0  0  0  0  0  0  0  # atno 17342 bound_to 10162
  139.8954  143.6901  152.3139 LP  0  0  0  0  0  0  0  0  0  0  0  0  # atno 17343 bound_to 10162
  156.2106  130.3666  149.8675 LP  0  0  0  0  0  0  0  0  0  0  0  0  # atno 17370 bound_to 10713
  156.6555  130.8761  151.3538 LP  0  0  0  0  0  0  0  0  0  0  0  0  # atno 17371 bound_to 10713
  140.5077  134.1033  155.7263 LP  0  0  0  0  0  0  0  0  0  0  0  0  # atno 17394 bound_to 11000
  141.1491  133.9002  157.2143 LP  0  0  0  0  0  0  0  0  0  0  0  0  # atno 17395 bound_to 11000

$$$$
