#       Name:                AV-unprocessed.smi:493
#       Creating user name   scv26
#       Creation time:       Thu Mar 26 23:15:44 2020


#       File generated by GOLD software.
#

@<TRIPOS>MOLECULE
AV-unprocessed.smi:493
    51    52     1
SMALL
NO_CHARGES


@<TRIPOS>ATOM
      1 ****        -4.5380   2.2012   3.0537 C.3            1 S1                 0.0000
      2 ****        -3.3318   2.6466   2.2082 C.3            1 S1                 0.0000
      3 ****        -3.8403   3.1825   0.8533 C.3            1 S1                 0.0000
      4 ****        -2.5628   3.7450   2.9724 C.3            1 S1                 0.0000
      5 ****        -2.4868   1.4622   2.0136 N.am           1 S1                 0.0000
      6 ****        -1.3221   1.3654   1.3482 C.2            1 S1                 0.0000
      7 ****        -0.7863   2.3076   0.7638 O.2            1 S1                 0.0000
      8 ****        -0.6802  -0.0292   1.3326 C.3            1 S1                 0.0000
      9 ****         0.7709   0.0029   1.0861 N.am           1 S1                 0.0000
     10 ****         1.2029  -0.2465  -0.2309 C.2            1 S1                 0.0000
     11 ****         2.5029  -0.2133  -0.5668 C.2            1 S1                 0.0000
     12 ****         3.0339  -0.6760  -2.2350 S.o2           1 S1                 0.0000
     13 ****         2.7984   0.4888  -3.1018 O.2            1 S1                 0.0000
     14 ****         4.3836  -1.2531  -2.1325 O.2            1 S1                 0.0000
     15 ****         1.9739  -1.9403  -2.7615 N.3            1 S1                 0.0000
     16 ****         2.0021  -2.3155  -4.1816 C.3            1 S1                 0.0000
     17 ****         2.2464  -3.8237  -4.2066 C.3            1 S1                 0.0000
     18 ****         1.5939  -4.2981  -2.9173 C.3            1 S1                 0.0000
     19 ****         1.8834  -3.1580  -1.9413 C.3            1 S1                 0.0000
     20 ****         3.4760   0.0233   0.4738 C.2            1 S1                 0.0000
     21 ****         3.0720   0.2475   1.7399 C.2            1 S1                 0.0000
     22 ****         1.6501   0.2578   2.1044 C.2            1 S1                 0.0000
     23 ****         1.2726   0.4791   3.2553 O.2            1 S1                 0.0000
     24 ****        -5.2169   3.0330   3.2455 H              1 S1                 0.0000
     25 ****        -4.2232   1.8065   4.0207 H              1 S1                 0.0000
     26 ****        -5.1107   1.4206   2.5512 H              1 S1                 0.0000
     27 ****        -4.3550   2.4059   0.2866 H              1 S1                 0.0000
     28 ****        -3.0298   3.5624   0.2315 H              1 S1                 0.0000
     29 ****        -4.5433   4.0038   0.9955 H              1 S1                 0.0000
     30 ****        -3.2132   4.5885   3.2063 H              1 S1                 0.0000
     31 ****        -1.7275   4.1391   2.3935 H              1 S1                 0.0000
     32 ****        -2.1624   3.3689   3.9147 H              1 S1                 0.0000
     33 ****        -2.8267   0.6150   2.4450 H              1 S1                 0.0000
     34 ****        -0.8877  -0.5360   2.2771 H              1 S1                 0.0000
     35 ****        -1.1857  -0.6257   0.5721 H              1 S1                 0.0000
     36 ****         0.4172  -0.4674  -0.9387 H              1 S1                 0.0000
     37 ****         1.0375  -2.0707  -4.6273 H              1 S1                 0.0000
     38 ****         2.7749  -1.7705  -4.7253 H              1 S1                 0.0000
     39 ****         1.8345  -4.3054  -5.0939 H              1 S1                 0.0000
     40 ****         3.3179  -4.0268  -4.1770 H              1 S1                 0.0000
     41 ****         0.5175  -4.3997  -3.0623 H              1 S1                 0.0000
     42 ****         1.9808  -5.2577  -2.5736 H              1 S1                 0.0000
     43 ****         2.8355  -3.3302  -1.4379 H              1 S1                 0.0000
     44 ****         1.1102  -3.0578  -1.1793 H              1 S1                 0.0000
     45 ****         4.5301   0.0244   0.2391 H              1 S1                 0.0000
     46 ****         3.8115   0.4257   2.5067 H              1 S1                 0.0000
     47 ****        -1.2191   3.2091   0.7669 LP             1 S1                 0.0000
     48 ****         0.0816   2.1712   0.2861 LP             1 S1                 0.0000
     49 ****         1.1342  -1.4198  -2.6067 LP             1 S1                 0.0000
     50 ****         0.2960   0.4763   3.4704 LP             1 S1                 0.0000
     51 ****         1.9426   0.6616   3.9749 LP             1 S1                 0.0000
@<TRIPOS>BOND
    1    1    2 1     
    2    1   24 1     
    3    1   25 1     
    4    1   26 1     
    5    2    3 1     
    6    2    4 1     
    7    2    5 1     
    8    3   27 1     
    9    3   28 1     
   10    3   29 1     
   11    4   30 1     
   12    4   31 1     
   13    4   32 1     
   14    5    6 am    
   15    5   33 1     
   16    6    7 2     
   17    6    8 1     
   18    8    9 1     
   19    8   34 1     
   20    8   35 1     
   21    9   22 am    
   22    9   10 1     
   23   10   11 2     
   24   10   36 1     
   25   11   12 1     
   26   11   20 1     
   27   12   13 2     
   28   12   14 2     
   29   12   15 1     
   30   15   19 1     
   31   15   16 1     
   32   16   17 1     
   33   16   37 1     
   34   16   38 1     
   35   17   18 1     
   36   17   39 1     
   37   17   40 1     
   38   18   19 1     
   39   18   41 1     
   40   18   42 1     
   41   19   43 1     
   42   19   44 1     
   43   20   21 2     
   44   20   45 1     
   45   21   22 1     
   46   21   46 1     
   47   22   23 2     
   48    7   47 1     
   49    7   48 1     
   50   15   49 1     
   51   23   50 1     
   52   23   51 1     
@<TRIPOS>SUBSTRUCTURE
      1 S1             1
@<TRIPOS>SET
LONE_PAIRS      STATIC     ATOMS    <user>   **** ""
7 47 48 13 14 49 50 51
DONOR_HYDROGENS      STATIC     ATOMS    <user>   **** ""
1 33
ATOM$BLUE        STATIC     ATOMS    COLORGROUP SYSTEM
7 47 48 13 14 49 50 51
ATOM$RED        STATIC     ATOMS    COLORGROUP SYSTEM
1 33
