#       Name:                AV-unprocessed.smi:2375
#       Creating user name   scv26
#       Creation time:       Fri Mar 27 13:07:20 2020


#       File generated by GOLD software.
#

@<TRIPOS>MOLECULE
AV-unprocessed.smi:2375
    40    41     1
SMALL
NO_CHARGES


@<TRIPOS>ATOM
      1 ****        -3.1566  -1.3427  -2.4135 C.3            1 S1                 0.0000
      2 ****        -2.4457  -0.1279  -1.9223 C.2            1 S1                 0.0000
      3 ****        -1.8241   0.8423  -2.6689 C.2            1 S1                 0.0000
      4 ****        -1.2396   1.8542  -1.9047 N.2            1 S1                 0.0000
      5 ****        -1.4027   1.6626  -0.5925 C.2            1 S1                 0.0000
      6 ****        -0.8407   2.5706   0.4590 C.3            1 S1                 0.0000
      7 ****        -1.4484   3.9789   0.3885 C.3            1 S1                 0.0000
      8 ****         0.7022   2.5826   0.4933 C.3            1 S1                 0.0000
      9 ****         1.2578   1.2336   0.5802 N.am           1 S1                 0.0000
     10 ****         1.8930   0.5797  -0.4082 C.2            1 S1                 0.0000
     11 ****         2.1420   1.0768  -1.5048 O.2            1 S1                 0.0000
     12 ****         2.2424  -0.6840  -0.1093 N.am           1 S1                 0.0000
     13 ****         2.9386  -1.6503  -0.9598 C.3            1 S1                 0.0000
     14 ****         2.8708  -3.0821  -0.3755 C.3            1 S1                 0.0000
     15 ****         4.2731  -3.6018  -0.5438 C.2            1 S1                 0.0000
     16 ****         5.1188  -2.6577  -0.9519 C.2            1 S1                 0.0000
     17 ****         4.4447  -1.3255  -1.1334 C.3            1 S1                 0.0000
     18 ****        -2.3191   0.2080  -0.2161 S.3            1 S1                 0.0000
     19 ****        -3.1948  -1.3623  -3.5030 H              1 S1                 0.0000
     20 ****        -4.1804  -1.3696  -2.0402 H              1 S1                 0.0000
     21 ****        -2.6501  -2.2479  -2.0780 H              1 S1                 0.0000
     22 ****        -1.7469   0.8904  -3.7450 H              1 S1                 0.0000
     23 ****        -1.1618   2.1532   1.4144 H              1 S1                 0.0000
     24 ****        -2.5356   3.9411   0.4640 H              1 S1                 0.0000
     25 ****        -1.1961   4.4722  -0.5507 H              1 S1                 0.0000
     26 ****        -1.0820   4.6056   1.2019 H              1 S1                 0.0000
     27 ****         1.0867   3.1037  -0.3850 H              1 S1                 0.0000
     28 ****         1.0496   3.1502   1.3569 H              1 S1                 0.0000
     29 ****         1.1093   0.7390   1.4476 H              1 S1                 0.0000
     30 ****         2.0353  -0.9961   0.8284 H              1 S1                 0.0000
     31 ****         2.4688  -1.6761  -1.9450 H              1 S1                 0.0000
     32 ****         2.6137  -3.0893   0.6846 H              1 S1                 0.0000
     33 ****         2.1544  -3.7060  -0.9108 H              1 S1                 0.0000
     34 ****         4.5389  -4.6258  -0.3266 H              1 S1                 0.0000
     35 ****         6.1772  -2.7964  -1.1169 H              1 S1                 0.0000
     36 ****         4.6598  -0.9049  -2.1163 H              1 S1                 0.0000
     37 ****         4.8120  -0.6364  -0.3717 H              1 S1                 0.0000
     38 ****        -0.7531   2.6354  -2.2959 LP             1 S1                 0.0000
     39 ****         1.8685   2.0185  -1.7006 LP             1 S1                 0.0000
     40 ****         2.6180   0.5394  -2.2009 LP             1 S1                 0.0000
@<TRIPOS>BOND
    1    1    2 1     
    2    1   19 1     
    3    1   20 1     
    4    1   21 1     
    5    2   18 1     
    6    2    3 2     
    7    3    4 1     
    8    3   22 1     
    9    4    5 2     
   10    5    6 1     
   11    5   18 1     
   12    6    7 1     
   13    6    8 1     
   14    6   23 1     
   15    7   24 1     
   16    7   25 1     
   17    7   26 1     
   18    8    9 1     
   19    8   27 1     
   20    8   28 1     
   21    9   10 am    
   22    9   29 1     
   23   10   11 2     
   24   10   12 am    
   25   12   13 1     
   26   12   30 1     
   27   13   17 1     
   28   13   14 1     
   29   13   31 1     
   30   14   15 1     
   31   14   32 1     
   32   14   33 1     
   33   15   16 2     
   34   15   34 1     
   35   16   17 1     
   36   16   35 1     
   37   17   36 1     
   38   17   37 1     
   39    4   38 1     
   40   11   39 1     
   41   11   40 1     
@<TRIPOS>SUBSTRUCTURE
      1 S1             1
@<TRIPOS>SET
LONE_PAIRS      STATIC     ATOMS    <user>   **** ""
3 38 39 40
DONOR_HYDROGENS      STATIC     ATOMS    <user>   **** ""
2 29 30
ATOM$BLUE        STATIC     ATOMS    COLORGROUP SYSTEM
3 38 39 40
ATOM$RED        STATIC     ATOMS    COLORGROUP SYSTEM
2 29 30
