AV-unprocessed.smi:2721|AV-procd|sdf|10501|dock5
  -GOLD-   2272014543D 1   1.00000     0.00000
 Structure written by MMmdl.
 29 30  0  0  0  0  0  0  0  0  2 V2000
  145.0535  141.8134  155.6431 C   0  0  0  0  0  0  0  0  0  0  0  0
  146.4188  141.6776  155.1828 N   0  0  0  0  0  0  0  0  0  0  0  0
  147.5797  141.6623  155.9240 C   0  0  0  0  0  0  0  0  0  0  0  0
  148.6280  141.5146  155.0552 C   0  0  0  0  0  0  0  0  0  0  0  0
  150.1244  141.4524  155.2984 C   0  0  2  0  0  0  0  0  0  0  0  0
  150.7281  140.2557  154.8007 O   0  0  0  0  0  0  0  0  0  0  0  0
  150.4847  139.0679  155.5524 C   0  0  0  0  0  0  0  0  0  0  0  0
  150.9692  139.2353  157.0006 C   0  0  0  0  0  0  0  0  0  0  0  0
  150.3231  140.4615  157.6527 C   0  0  0  0  0  0  0  0  0  0  0  0
  150.5541  141.6948  156.7677 C   0  0  2  0  0  0  0  0  0  0  0  0
  149.9209  142.8988  157.3377 N   0  3  0  0  0  0  0  0  0  0  0  0
  147.9817  141.4493  153.7866 C   0  0  0  0  0  0  0  0  0  0  0  0
  146.6658  141.5496  153.8648 N   0  0  0  0  0  0  0  0  0  0  0  0
  150.5851  142.2486  154.7121 H   0  0  0  0  0  0  0  0  0  0  0  0
  151.6281  141.8863  156.7643 H   0  0  0  0  0  0  0  0  0  0  0  0
  145.0270  141.8438  156.7327 H   0  0  0  0  0  0  0  0  0  0  0  0
  144.4603  140.9658  155.2981 H   0  0  0  0  0  0  0  0  0  0  0  0
  144.6229  142.7355  155.2517 H   0  0  0  0  0  0  0  0  0  0  0  0
  147.5539  141.7585  156.9989 H   0  0  0  0  0  0  0  0  0  0  0  0
  149.4306  138.7979  155.5215 H   0  0  0  0  0  0  0  0  0  0  0  0
  151.0218  138.2465  155.0780 H   0  0  0  0  0  0  0  0  0  0  0  0
  150.7452  138.3385  157.5792 H   0  0  0  0  0  0  0  0  0  0  0  0
  152.0541  139.3480  157.0079 H   0  0  0  0  0  0  0  0  0  0  0  0
  149.2588  140.2861  157.8051 H   0  0  0  0  0  0  0  0  0  0  0  0
  150.7510  140.6203  158.6433 H   0  0  0  0  0  0  0  0  0  0  0  0
  150.5926  143.3959  157.9054 H   0  0  0  0  0  0  0  0  0  0  0  0
  149.1351  142.6270  157.9109 H   0  0  0  0  0  0  0  0  0  0  0  0
  148.4323  141.3375  152.8113 H   0  0  0  0  0  0  0  0  0  0  0  0
  149.6007  143.4986  156.5908 H   0  0  0  0  0  0  0  0  0  0  0  0
  1  2  1  0  0  0  0
  1 16  1  0  0  0  0
  1 17  1  0  0  0  0
  1 18  1  0  0  0  0
  2 13  1  0  0  0  0
  2  3  1  0  0  0  0
  3  4  2  0  0  0  0
  3 19  1  0  0  0  0
  4  5  1  0  0  0  0
  4 12  1  0  0  0  0
  5 14  1  0  0  0  0
  5 10  1  0  0  0  0
  5  6  1  0  0  0  0
  6  7  1  0  0  0  0
  7  8  1  0  0  0  0
  7 20  1  0  0  0  0
  7 21  1  0  0  0  0
  8  9  1  0  0  0  0
  8 22  1  0  0  0  0
  8 23  1  0  0  0  0
  9 10  1  0  0  0  0
  9 24  1  0  0  0  0
  9 25  1  0  0  0  0
 10 15  1  0  0  0  0
 10 11  1  0  0  0  0
 11 26  1  0  0  0  0
 11 27  1  0  0  0  0
 11 29  1  0  0  0  0
 12 13  2  0  0  0  0
 12 28  1  0  0  0  0
M  CHG  1  11   1
M  END
> <s_m_source_file>
AV-unprocessed.smi

> <i_m_source_file_index>
2721

> <i_lp_mmshare_version>
43012

> <i_f3d_flags>
0

> <s_epik_input>
W0NIM11uMVtjSF1jKFtjSF1uMSlbQ0BIXTJPW0NIMl1bQ0gyXVtDSDJdW0NAQEhdMltOSDJd

> <s_epik_cmdline>
J2VwaWtfcHl0aG9uJywgJy1waCcsICc3LjAnLCAnLXRuJywgJzgnLCAnLW1hJywgJzIwMCcsICctbWV0YWxfYmluZGluZycsICctaW1hZScsICc8aW5maWxlLm1hZT4nLCAnLW9tYWUnLCAnPG91dGZpbGUubWFlPic=

> <r_lp_tautomer_probability>
1

> <r_epik_Ionization_Penalty>
0.0061467

> <r_epik_Ionization_Penalty_Charging>
0.00611941

> <r_epik_Ionization_Penalty_Neutral>
2.72888e-05

> <r_epik_State_Penalty>
0.00451057

> <r_epik_Charging_Adjusted_Penalty>
0.01063

> <i_epik_Tot_Q>
1

> <i_epik_Tot_abs_Q>
1

> <r_epik_Metal_State_Penalty>
-0

> <b_epik_Metal_Only>
0

> <s_lp_Force_Field>
OPLS_2005

> <r_lp_Energy>
14.6487

> <b_lp_Chiralities_Consistent>
1

> <s_lp_Variant>
AV-unprocessed.smi:2721-2

> <Gold.Version>
5.8.1

> <Gold.Id.Protein>
6NUR|6NUR_protein|mol2

> <Gold.PLP.Fitness>
32.0745

> <Gold.PLP.PLP>
-20.0839

> <Gold.PLP.part.hbond>
-2.0000

> <Gold.PLP.part.metal>
0.0000

> <Gold.PLP.part.buried>
-3.7994

> <Gold.PLP.part.nonpolar>
-14.7902

> <Gold.PLP.part.repulsive>
0.2704

> <Gold.PLP.ligand.clash>
0.0000

> <Gold.PLP.ligand.torsion>
0.0350

> <Gold.PLP.Chemscore.Hbond>
3.0000

> <Gold.PLP.Chemscore.CHOScore>
1.0000

> <Gold.PLP.Chemscore.Metal>
0.0000

> <Gold.Chemscore.Hbonds>
donor molecule, donor type, donor heavy atom, donor atom, acceptor molecule, acceptor atom, score
      L1  H    11    29       P1  8028  2.00
      P1  H  7989  7998       L1     6  1.00
      L1  C    12    28       P1  7957  1.00

> <Gold.PLP.Chemscore.Internal.Correction>
0.0607

> <Gold.Rescore>
     Score         DG    S(hbond)    S(metal)    S(lipo)     H(rot)  DE(clash)    DE(int)     intcor
     14.23     -14.59       1.85        0.00      46.98       1.00       0.04       0.31       ----

> <Gold.Chemscore.Fitness>
14.2308

> <Gold.Chemscore.DG>
-14.5863

> <Gold.Chemscore.ZeroCoef>
-5.4800

> <Gold.Chemscore.Hbond>
1.8473

> <Gold.Chemscore.Metal>
0.0000

> <Gold.Chemscore.Lipo>
46.9767

> <Gold.Chemscore.Internal_Hbond>
0.0000

> <Gold.Chemscore.DEClash>
0.0414

> <Gold.Chemscore.DEInternal>
0.3142

> <Gold.Chemscore.Rot>
1.0000

> <Gold.Chemscore.Internal.Correction>
   9.000000E+99

> <Gold.Chemscore.Hbonds>
donor molecule, donor type, donor heavy atom, donor atom, acceptor molecule, acceptor atom, score
      L1  H    11    29       P1  8028  1.00
      P1  H  7989  7998       L1     6  0.30

> <Gold.Chemscore.Hbond.Weighted>
-6.1701

> <Gold.Chemscore.Metal.Weighted>
-0.0000

> <Gold.Chemscore.Lipo.Weighted>
-5.4963

> <Gold.Chemscore.Internal_Hbond.Weighted>
0.0000

> <Gold.Chemscore.DEClash.Weighted>
0.0414

> <Gold.Chemscore.DEInternal.Weighted>
0.3142

> <Gold.Chemscore.Rot.Weighted>
2.5600

> <Gold.Chemscore.Internal.Correction.Weighted>
   9.000000E+99

> <Gold.Protein.RotatedTorsions>
[ 6907 6896 6895 6894 ] final  171.93 input  -60.11 | X-H torsion
[ 7974 7965 7964 7962 ] final   85.43 input  175.53 | X-H torsion
[ 8008 7997 7996 7995 ] final   11.44 input   59.86 | X-H torsion
[ 10167 10162 10161 10158 ] final  -75.77 input  -65.29 | X-H torsion
[ 10718 10713 10712 10709 ] final -157.85 input   66.30 | X-H torsion
[ 10763 10752 10751 10750 ] final   53.48 input  -60.55 | X-H torsion
[ 11005 11000 10999 10996 ] final   33.94 input  -57.11 | X-H torsion

> <Gold.Protein.ActiveResidues>
 VAL166  LYS551  ARG553  GLY616  TRP617  ASP618  TYR619  PRO620  LYS621  CYS622 
 ASP623  PHE694  ASN695  SER759  ASP760  ASP761  ALA762  ILE779  LEU786  VAL792 
 PHE793  MET794  SER795  GLU796  ALA797  LYS798  CYS799  TRP800  GLU811  SER814 

> <Gold.Protein.RotatedAtoms>
  151.7924  133.3361  159.3502 H   0  0  0  0  0  0  0  0  0  0  0  0  # atno 6907 bound_to 6896
  150.7387  134.5830  159.5957 H   0  0  0  0  0  0  0  0  0  0  0  0  # atno 6908 bound_to 6896
  152.3200  134.7393  160.0367 H   0  0  0  0  0  0  0  0  0  0  0  0  # atno 6909 bound_to 6896
  145.5856  139.2331  143.2328 H   0  0  0  0  0  0  0  0  0  0  0  0  # atno 7974 bound_to 7965
  154.8069  140.2861  155.5881 H   0  0  0  0  0  0  0  0  0  0  0  0  # atno 8008 bound_to 7997
  156.2984  140.2576  156.2879 H   0  0  0  0  0  0  0  0  0  0  0  0  # atno 8009 bound_to 7997
  154.9493  140.0379  157.2125 H   0  0  0  0  0  0  0  0  0  0  0  0  # atno 8010 bound_to 7997
  140.4914  143.2379  151.7900 H   0  0  0  0  0  0  0  0  0  0  0  0  # atno 10167 bound_to 10162
  156.5460  130.8584  151.2764 H   0  0  0  0  0  0  0  0  0  0  0  0  # atno 10718 bound_to 10713
  152.9796  135.5777  154.4749 H   0  0  0  0  0  0  0  0  0  0  0  0  # atno 10763 bound_to 10752
  154.4306  135.2773  155.1917 H   0  0  0  0  0  0  0  0  0  0  0  0  # atno 10764 bound_to 10752
  154.3627  135.6185  153.5752 H   0  0  0  0  0  0  0  0  0  0  0  0  # atno 10765 bound_to 10752
  140.2579  134.3226  155.7867 H   0  0  0  0  0  0  0  0  0  0  0  0  # atno 11005 bound_to 11000
  146.1684  140.6683  142.9244 LP  0  0  0  0  0  0  0  0  0  0  0  0  # atno 17320 bound_to 7965
  144.7374  140.4847  143.6894 LP  0  0  0  0  0  0  0  0  0  0  0  0  # atno 17321 bound_to 7965
  139.4852  144.4644  151.9502 LP  0  0  0  0  0  0  0  0  0  0  0  0  # atno 17342 bound_to 10162
  140.3730  144.2831  150.5917 LP  0  0  0  0  0  0  0  0  0  0  0  0  # atno 17343 bound_to 10162
  157.7396  130.9835  150.2327 LP  0  0  0  0  0  0  0  0  0  0  0  0  # atno 17370 bound_to 10713
  156.2928  130.3748  149.7825 LP  0  0  0  0  0  0  0  0  0  0  0  0  # atno 17371 bound_to 10713
  141.2194  133.7392  156.9141 LP  0  0  0  0  0  0  0  0  0  0  0  0  # atno 17394 bound_to 11000
  140.1493  134.9241  157.2571 LP  0  0  0  0  0  0  0  0  0  0  0  0  # atno 17395 bound_to 11000

$$$$
