#       Name:                AV-unprocessed.smi:3099
#       Creating user name   scv26
#       Creation time:       Fri Mar 27 17:17:49 2020


#       File generated by GOLD software.
#

@<TRIPOS>MOLECULE
AV-unprocessed.smi:3099
    35    36     1
SMALL
NO_CHARGES


@<TRIPOS>ATOM
      1 ****        -3.4174   1.7489   0.4859 C.3            1 S1                 0.0000
      2 ****        -2.3330   2.7329   0.5163 N.pl3          1 S1                 0.0000
      3 ****        -2.5685   4.0509   0.5243 C.2            1 S1                 0.0000
      4 ****        -1.3792   4.6557   0.5548 N.pl3          1 S1                 1.0000
      5 ****        -0.3793   3.7227   0.5662 C.2            1 S1                 0.0000
      6 ****        -0.9791   2.4857   0.5411 C.2            1 S1                 0.0000
      7 ****        -0.4099   1.0994   0.5355 C.3            1 S1                 0.0000
      8 ****         1.1288   1.0847   0.5746 C.3            1 S1                 0.0000
      9 ****         1.6515  -0.2765   0.5816 N.am           1 S1                 0.0000
     10 ****         1.7755  -1.0585  -0.5016 C.2            1 S1                 0.0000
     11 ****         1.4546  -0.6958  -1.6339 O.2            1 S1                 0.0000
     12 ****         2.3505  -2.4578  -0.2628 C.3            1 S1                 0.0000
     13 ****         1.8701  -3.4833  -1.2764 C.3            1 S1                 0.0000
     14 ****         0.4361  -3.9656  -1.2715 C.3            1 S1                 0.0000
     15 ****         1.5460  -4.8994  -0.8571 C.3            1 S1                 0.0000
     16 ****        -4.3830   2.2533   0.4297 H              1 S1                 0.0000
     17 ****        -3.3766   1.1454   1.3930 H              1 S1                 0.0000
     18 ****        -3.2945   1.1072  -0.3870 H              1 S1                 0.0000
     19 ****        -3.5294   4.5339   0.5089 H              1 S1                 0.0000
     20 ****         0.6642   4.0016   0.5899 H              1 S1                 0.0000
     21 ****        -0.8069   0.5549   1.3930 H              1 S1                 0.0000
     22 ****        -0.7662   0.5848  -0.3578 H              1 S1                 0.0000
     23 ****         1.5414   1.6342  -0.2735 H              1 S1                 0.0000
     24 ****         1.4849   1.5850   1.4754 H              1 S1                 0.0000
     25 ****         1.9426  -0.6516   1.4730 H              1 S1                 0.0000
     26 ****         3.4392  -2.4089  -0.2957 H              1 S1                 0.0000
     27 ****         2.0769  -2.7915   0.7396 H              1 S1                 0.0000
     28 ****         2.3256  -3.3722  -2.2591 H              1 S1                 0.0000
     29 ****        -0.2222  -3.5902  -0.4906 H              1 S1                 0.0000
     30 ****        -0.0370  -4.1413  -2.2354 H              1 S1                 0.0000
     31 ****         1.8135  -5.6989  -1.5450 H              1 S1                 0.0000
     32 ****         1.6224  -5.1492   0.1994 H              1 S1                 0.0000
     33 ****        -1.2408   5.6585   0.5667 H              1 S1                 0.0000
     34 ****         1.0814   0.2207  -1.7784 LP             1 S1                 0.0000
     35 ****         1.5671  -1.3177  -2.4089 LP             1 S1                 0.0000
@<TRIPOS>BOND
    1    1    2 1     
    2    1   16 1     
    3    1   17 1     
    4    1   18 1     
    5    2    6 1     
    6    2    3 1     
    7    3    4 2     
    8    3   19 1     
    9    4    5 1     
   10    4   33 1     
   11    5    6 2     
   12    5   20 1     
   13    6    7 1     
   14    7    8 1     
   15    7   21 1     
   16    7   22 1     
   17    8    9 1     
   18    8   23 1     
   19    8   24 1     
   20    9   10 am    
   21    9   25 1     
   22   10   11 2     
   23   10   12 1     
   24   12   13 1     
   25   12   26 1     
   26   12   27 1     
   27   13   15 1     
   28   13   14 1     
   29   13   28 1     
   30   14   15 1     
   31   14   29 1     
   32   14   30 1     
   33   15   31 1     
   34   15   32 1     
   35   11   34 1     
   36   11   35 1     
@<TRIPOS>SUBSTRUCTURE
      1 S1             1
@<TRIPOS>SET
LONE_PAIRS      STATIC     ATOMS    <user>   **** ""
2 34 35
DONOR_HYDROGENS      STATIC     ATOMS    <user>   **** ""
2 33 25
ATOM$BLUE        STATIC     ATOMS    COLORGROUP SYSTEM
2 34 35
ATOM$RED        STATIC     ATOMS    COLORGROUP SYSTEM
2 33 25
