AV-unprocessed.smi:1068|AV-procd|sdf|4674|dock10
  -GOLD-   22720 3193D 1   1.00000     0.00000
 Structure written by MMmdl.
 51 52  0  0  0  0  0  0  0  0  1 V2000
  144.4772  133.6482  149.8310 C   0  0  0  0  0  0  0  0  0  0  0  0
  144.5316  133.9261  151.3519 C   0  0  0  0  0  0  0  0  0  0  0  0
  143.0631  133.9352  151.8377 C   0  0  0  0  0  0  0  0  0  0  0  0
  145.3013  132.7935  152.0556 C   0  0  0  0  0  0  0  0  0  0  0  0
  145.2193  135.2706  151.6456 C   0  0  0  0  0  0  0  0  0  0  0  0
  145.7335  135.9343  150.6018 N   0  0  0  0  0  0  0  0  0  0  0  0
  146.4495  137.0485  150.8589 C   0  0  0  0  0  0  0  0  0  0  0  0
  146.6856  137.4985  152.1731 C   0  0  0  0  0  0  0  0  0  0  0  0
  147.4640  138.6712  152.3664 N   0  0  0  0  0  0  0  0  0  0  0  0
  147.4438  139.5307  153.3988 C   0  0  0  0  0  0  0  0  0  0  0  0
  146.6856  139.4680  154.3655 O   0  0  0  0  0  0  0  0  0  0  0  0
  148.3675  140.4911  153.2462 N   0  0  0  0  0  0  0  0  0  0  0  0
  148.6228  141.5769  154.1937 C   0  0  0  0  0  0  0  0  0  0  0  0
  149.8052  141.3400  155.1476 C   0  0  0  0  0  0  0  0  0  0  0  0
  150.4220  140.2777  155.0795 O   0  0  0  0  0  0  0  0  0  0  0  0
  150.1178  142.3079  156.0263 N   0  0  0  0  0  0  0  0  0  0  0  0
  151.2120  142.2629  156.9904 C   0  0  0  0  0  0  0  0  0  0  0  0
  150.9985  141.1186  158.0027 C   0  0  0  0  0  0  0  0  0  0  0  0
  152.0964  141.1074  159.0787 C   0  0  0  0  0  0  0  0  0  0  0  0
  152.1916  142.4643  159.7933 C   0  0  0  0  0  0  0  0  0  0  0  0
  152.4110  143.6062  158.7884 C   0  0  0  0  0  0  0  0  0  0  0  0
  151.3137  143.6202  157.7120 C   0  0  0  0  0  0  0  0  0  0  0  0
  146.1406  136.6957  153.2040 C   0  0  0  0  0  0  0  0  0  0  0  0
  145.4264  135.5828  152.9316 N   0  0  0  0  0  0  0  0  0  0  0  0
  143.9452  132.7209  149.6154 H   0  0  0  0  0  0  0  0  0  0  0  0
  145.4730  133.5465  149.3982 H   0  0  0  0  0  0  0  0  0  0  0  0
  143.9654  134.4505  149.2982 H   0  0  0  0  0  0  0  0  0  0  0  0
  142.4971  134.7456  151.3765 H   0  0  0  0  0  0  0  0  0  0  0  0
  142.9904  134.0547  152.9191 H   0  0  0  0  0  0  0  0  0  0  0  0
  142.5572  133.0012  151.5907 H   0  0  0  0  0  0  0  0  0  0  0  0
  144.8404  131.8229  151.8691 H   0  0  0  0  0  0  0  0  0  0  0  0
  145.3271  132.9436  153.1355 H   0  0  0  0  0  0  0  0  0  0  0  0
  146.3333  132.7402  151.7070 H   0  0  0  0  0  0  0  0  0  0  0  0
  146.8429  137.5810  150.0051 H   0  0  0  0  0  0  0  0  0  0  0  0
  148.1002  138.8947  151.6149 H   0  0  0  0  0  0  0  0  0  0  0  0
  148.9448  140.4680  152.4184 H   0  0  0  0  0  0  0  0  0  0  0  0
  148.8234  142.4822  153.6204 H   0  0  0  0  0  0  0  0  0  0  0  0
  147.7263  141.7791  154.7823 H   0  0  0  0  0  0  0  0  0  0  0  0
  149.5607  143.1498  156.0130 H   0  0  0  0  0  0  0  0  0  0  0  0
  152.1493  142.0930  156.4567 H   0  0  0  0  0  0  0  0  0  0  0  0
  150.0244  141.2268  158.4818 H   0  0  0  0  0  0  0  0  0  0  0  0
  150.9838  140.1573  157.4880 H   0  0  0  0  0  0  0  0  0  0  0  0
  151.8981  140.3181  159.8042 H   0  0  0  0  0  0  0  0  0  0  0  0
  153.0560  140.8697  158.6176 H   0  0  0  0  0  0  0  0  0  0  0  0
  151.2764  142.6451  160.3584 H   0  0  0  0  0  0  0  0  0  0  0  0
  153.0051  142.4464  160.5193 H   0  0  0  0  0  0  0  0  0  0  0  0
  152.4305  144.5627  159.3113 H   0  0  0  0  0  0  0  0  0  0  0  0
  153.3865  143.4935  158.3135 H   0  0  0  0  0  0  0  0  0  0  0  0
  151.5179  144.4126  156.9907 H   0  0  0  0  0  0  0  0  0  0  0  0
  150.3573  143.8651  158.1765 H   0  0  0  0  0  0  0  0  0  0  0  0
  146.2826  136.9076  154.2519 H   0  0  0  0  0  0  0  0  0  0  0  0
  1  2  1  0  0  0  0
  1 25  1  0  0  0  0
  1 26  1  0  0  0  0
  1 27  1  0  0  0  0
  2  3  1  0  0  0  0
  2  4  1  0  0  0  0
  2  5  1  0  0  0  0
  3 28  1  0  0  0  0
  3 29  1  0  0  0  0
  3 30  1  0  0  0  0
  4 31  1  0  0  0  0
  4 32  1  0  0  0  0
  4 33  1  0  0  0  0
  5 24  1  0  0  0  0
  5  6  2  0  0  0  0
  6  7  1  0  0  0  0
  7  8  2  0  0  0  0
  7 34  1  0  0  0  0
  8  9  1  0  0  0  0
  8 23  1  0  0  0  0
  9 10  1  0  0  0  0
  9 35  1  0  0  0  0
 10 11  2  0  0  0  0
 10 12  1  0  0  0  0
 12 13  1  0  0  0  0
 12 36  1  0  0  0  0
 13 14  1  0  0  0  0
 13 37  1  0  0  0  0
 13 38  1  0  0  0  0
 14 15  2  0  0  0  0
 14 16  1  0  0  0  0
 16 17  1  0  0  0  0
 16 39  1  0  0  0  0
 17 22  1  0  0  0  0
 17 18  1  0  0  0  0
 17 40  1  0  0  0  0
 18 19  1  0  0  0  0
 18 41  1  0  0  0  0
 18 42  1  0  0  0  0
 19 20  1  0  0  0  0
 19 43  1  0  0  0  0
 19 44  1  0  0  0  0
 20 21  1  0  0  0  0
 20 45  1  0  0  0  0
 20 46  1  0  0  0  0
 21 22  1  0  0  0  0
 21 47  1  0  0  0  0
 21 48  1  0  0  0  0
 22 49  1  0  0  0  0
 22 50  1  0  0  0  0
 23 24  2  0  0  0  0
 23 51  1  0  0  0  0
M  END
> <s_m_source_file>
AV-unprocessed.smi

> <i_m_source_file_index>
1068

> <i_lp_mmshare_version>
43012

> <i_f3d_flags>
0

> <s_epik_input>
W0NIM11DKFtDSDNdKShbQ0gzXSljMW5bY0hdYyhbY0hdbjEpW05IXUMoPU8pW05IXVtDSDJdQyg9TylbTkhdW0NIXTJbQ0gyXVtDSDJdW0NIMl1bQ0gyXVtDSDJdMg==

> <s_epik_cmdline>
J2VwaWtfcHl0aG9uJywgJy1waCcsICc3LjAnLCAnLXRuJywgJzgnLCAnLW1hJywgJzIwMCcsICctbWV0YWxfYmluZGluZycsICctaW1hZScsICc8aW5maWxlLm1hZT4nLCAnLW9tYWUnLCAnPG91dGZpbGUubWFlPic=

> <r_lp_tautomer_probability>
1

> <r_epik_Ionization_Penalty>
2.47974e-05

> <r_epik_Ionization_Penalty_Charging>
0

> <r_epik_Ionization_Penalty_Neutral>
2.47974e-05

> <r_epik_State_Penalty>
-0

> <r_epik_Charging_Adjusted_Penalty>
0

> <i_epik_Tot_Q>
0

> <i_epik_Tot_abs_Q>
0

> <r_epik_Metal_State_Penalty>
-0

> <b_epik_Metal_Only>
0

> <s_lp_Force_Field>
OPLS_2005

> <r_lp_Energy>
3.00881

> <b_lp_Chiralities_Consistent>
1

> <s_lp_Variant>
AV-unprocessed.smi:1068-1

> <Gold.Version>
5.8.1

> <Gold.Id.Protein>
6NUR|6NUR_protein|mol2

> <Gold.PLP.Fitness>
53.6545

> <Gold.PLP.PLP>
-42.3903

> <Gold.PLP.part.hbond>
-4.6652

> <Gold.PLP.part.metal>
0.0000

> <Gold.PLP.part.buried>
2.5045

> <Gold.PLP.part.nonpolar>
-40.6960

> <Gold.PLP.part.repulsive>
1.0518

> <Gold.PLP.ligand.clash>
0.0000

> <Gold.PLP.ligand.torsion>
0.4051

> <Gold.PLP.Chemscore.Hbond>
3.8480

> <Gold.PLP.Chemscore.CHOScore>
0.1240

> <Gold.PLP.Chemscore.Metal>
0.0000

> <Gold.Chemscore.Hbonds>
donor molecule, donor type, donor heavy atom, donor atom, acceptor molecule, acceptor atom, score
      L1  H     9    35       P1  7957  0.88
      L1  H    12    36       P1  7957  0.88
      L1  H    16    39       P1  8028  1.00
      P1  H  7989  7998       L1    15  0.67

> <Gold.PLP.Chemscore.Internal.Correction>
0.1584

> <Gold.Rescore>
     Score         DG    S(hbond)    S(metal)    S(lipo)     H(rot)  DE(clash)    DE(int)     intcor
     21.39     -25.59       3.40        0.00     110.73       1.64       2.85       1.35       ----

> <Gold.Chemscore.Fitness>
21.3917

> <Gold.Chemscore.DG>
-25.5950

> <Gold.Chemscore.ZeroCoef>
-5.4800

> <Gold.Chemscore.Hbond>
3.4030

> <Gold.Chemscore.Metal>
0.0000

> <Gold.Chemscore.Lipo>
110.7303

> <Gold.Chemscore.Internal_Hbond>
0.0000

> <Gold.Chemscore.DEClash>
2.8516

> <Gold.Chemscore.DEInternal>
1.3517

> <Gold.Chemscore.Rot>
1.6431

> <Gold.Chemscore.Internal.Correction>
   9.000000E+99

> <Gold.Chemscore.Hbonds>
donor molecule, donor type, donor heavy atom, donor atom, acceptor molecule, acceptor atom, score
      L1  H     9    35       P1  7957  0.68
      L1  H    12    36       P1  7957  0.85
      L1  H    16    39       P1  8028  1.00
      P1  H  7989  7998       L1    15  0.08

> <Gold.Chemscore.Hbond.Weighted>
-11.3659

> <Gold.Chemscore.Metal.Weighted>
-0.0000

> <Gold.Chemscore.Lipo.Weighted>
-12.9554

> <Gold.Chemscore.Internal_Hbond.Weighted>
0.0000

> <Gold.Chemscore.DEClash.Weighted>
2.8516

> <Gold.Chemscore.DEInternal.Weighted>
1.3517

> <Gold.Chemscore.Rot.Weighted>
4.2063

> <Gold.Chemscore.Internal.Correction.Weighted>
   9.000000E+99

> <Gold.Protein.RotatedTorsions>
[ 6907 6896 6895 6894 ] final -160.08 input  -60.11 | X-H torsion
[ 7974 7965 7964 7962 ] final   26.27 input  175.53 | X-H torsion
[ 8008 7997 7996 7995 ] final  -37.52 input   59.86 | X-H torsion
[ 10167 10162 10161 10158 ] final  136.85 input  -65.29 | X-H torsion
[ 10718 10713 10712 10709 ] final   62.13 input   66.30 | X-H torsion
[ 10763 10752 10751 10750 ] final  -63.25 input  -60.55 | X-H torsion
[ 11005 11000 10999 10996 ] final -110.19 input  -57.11 | X-H torsion

> <Gold.Protein.ActiveResidues>
 VAL166  LYS551  ARG553  GLY616  TRP617  ASP618  TYR619  PRO620  LYS621  CYS622 
 ASP623  PHE694  ASN695  SER759  ASP760  ASP761  ALA762  ILE779  LEU786  VAL792 
 PHE793  MET794  SER795  GLU796  ALA797  LYS798  CYS799  TRP800  GLU811  SER814 

> <Gold.Protein.RotatedAtoms>
  151.3436  133.3953  159.2673 H   0  0  0  0  0  0  0  0  0  0  0  0  # atno 6907 bound_to 6896
  150.9858  134.9204  159.7881 H   0  0  0  0  0  0  0  0  0  0  0  0  # atno 6908 bound_to 6896
  152.5232  134.3400  159.9266 H   0  0  0  0  0  0  0  0  0  0  0  0  # atno 6909 bound_to 6896
  146.1846  139.7352  142.8876 H   0  0  0  0  0  0  0  0  0  0  0  0  # atno 7974 bound_to 7965
  154.4052  140.1602  156.2550 H   0  0  0  0  0  0  0  0  0  0  0  0  # atno 8008 bound_to 7997
  155.9086  140.3429  155.6058 H   0  0  0  0  0  0  0  0  0  0  0  0  # atno 8009 bound_to 7997
  155.7363  140.0787  157.2257 H   0  0  0  0  0  0  0  0  0  0  0  0  # atno 8010 bound_to 7997
  139.5165  144.6442  151.5486 H   0  0  0  0  0  0  0  0  0  0  0  0  # atno 10167 bound_to 10162
  157.5878  130.9033  149.9549 H   0  0  0  0  0  0  0  0  0  0  0  0  # atno 10718 bound_to 10713
  154.3121  135.6213  153.5470 H   0  0  0  0  0  0  0  0  0  0  0  0  # atno 10763 bound_to 10752
  152.9828  135.5704  154.5165 H   0  0  0  0  0  0  0  0  0  0  0  0  # atno 10764 bound_to 10752
  154.4817  135.2863  155.1542 H   0  0  0  0  0  0  0  0  0  0  0  0  # atno 10765 bound_to 10752
  141.0805  133.9227  157.2298 H   0  0  0  0  0  0  0  0  0  0  0  0  # atno 11005 bound_to 11000
  145.3976  141.0381  143.3089 LP  0  0  0  0  0  0  0  0  0  0  0  0  # atno 17320 bound_to 7965
  144.8375  139.5526  143.6915 LP  0  0  0  0  0  0  0  0  0  0  0  0  # atno 17321 bound_to 7965
  140.6220  143.9240  150.6534 LP  0  0  0  0  0  0  0  0  0  0  0  0  # atno 17342 bound_to 10162
  140.2516  143.3589  152.1400 LP  0  0  0  0  0  0  0  0  0  0  0  0  # atno 17343 bound_to 10162
  156.0929  130.3662  150.0360 LP  0  0  0  0  0  0  0  0  0  0  0  0  # atno 17370 bound_to 10713
  156.8488  130.9451  151.3627 LP  0  0  0  0  0  0  0  0  0  0  0  0  # atno 17371 bound_to 10713
  139.9619  135.0152  156.9284 LP  0  0  0  0  0  0  0  0  0  0  0  0  # atno 17394 bound_to 11000
  140.5478  134.0657  155.7360 LP  0  0  0  0  0  0  0  0  0  0  0  0  # atno 17395 bound_to 11000

$$$$
