AV-unprocessed.smi:2061|AV-procd|sdf|8366|dock4
  -GOLD-   2272011 43D 1   1.00000     0.00000
 Structure written by MMmdl.
 46 47  0  0  0  0  0  0  0  0  2 V2000
  136.8056  139.5659  154.1055 C   0  0  0  0  0  0  0  0  0  0  0  0
  138.2902  139.5511  153.9765 C   0  0  0  0  0  0  0  0  0  0  0  0
  139.1551  138.7578  153.2771 C   0  0  0  0  0  0  0  0  0  0  0  0
  140.4294  139.3012  153.6136 C   0  0  0  0  0  0  0  0  0  0  0  0
  141.6889  138.8322  153.1591 N   0  0  0  0  0  0  0  0  0  0  0  0
  142.0996  137.5620  153.0088 C   0  0  0  0  0  0  0  0  0  0  0  0
  141.4131  136.5602  153.2115 O   0  0  0  0  0  0  0  0  0  0  0  0
  143.3760  137.5064  152.6018 N   0  0  0  0  0  0  0  0  0  0  0  0
  144.1153  136.2716  152.3565 C   0  0  0  0  0  0  0  0  0  0  0  0
  145.6490  136.4901  152.2576 C   0  0  2  0  0  0  0  0  0  0  0  0
  145.9617  137.5837  151.2073 C   0  0  0  0  0  0  0  0  0  0  0  0
  146.3424  135.1873  151.9926 N   0  3  1  0  0  0  0  0  0  0  0  0
  146.5000  134.2883  153.1686 C   0  0  0  0  0  0  0  0  0  0  0  0
  147.2676  133.0075  152.7875 C   0  0  1  0  0  0  0  0  0  0  0  0
  147.3780  132.0287  153.9619 C   0  0  0  0  0  0  0  0  0  0  0  0
  146.5892  132.3499  151.7256 O   0  0  0  0  0  0  0  0  0  0  0  0
  146.5163  133.1522  150.5548 C   0  0  1  0  0  0  0  0  0  0  0  0
  145.8567  132.3216  149.4484 C   0  0  0  0  0  0  0  0  0  0  0  0
  145.7177  134.4287  150.8749 C   0  0  0  0  0  0  0  0  0  0  0  0
  140.3434  140.3250  154.4425 N   0  0  0  0  0  0  0  0  0  0  0  0
  138.9741  140.4946  154.6784 O   0  0  0  0  0  0  0  0  0  0  0  0
  136.3568  138.7515  153.5365 H   0  0  0  0  0  0  0  0  0  0  0  0
  136.3946  140.5049  153.7342 H   0  0  0  0  0  0  0  0  0  0  0  0
  136.5077  139.4537  155.1480 H   0  0  0  0  0  0  0  0  0  0  0  0
  138.8994  137.9269  152.6372 H   0  0  0  0  0  0  0  0  0  0  0  0
  142.3574  139.5523  152.9273 H   0  0  0  0  0  0  0  0  0  0  0  0
  143.8702  138.3745  152.4534 H   0  0  0  0  0  0  0  0  0  0  0  0
  143.8502  135.5626  153.1397 H   0  0  0  0  0  0  0  0  0  0  0  0
  143.7456  135.8404  151.4257 H   0  0  0  0  0  0  0  0  0  0  0  0
  146.0173  136.8637  153.2145 H   0  0  0  0  0  0  0  0  0  0  0  0
  145.4183  138.5063  151.4111 H   0  0  0  0  0  0  0  0  0  0  0  0
  145.6892  137.2610  150.2019 H   0  0  0  0  0  0  0  0  0  0  0  0
  147.0164  137.8596  151.2054 H   0  0  0  0  0  0  0  0  0  0  0  0
  147.0623  134.7824  153.9603 H   0  0  0  0  0  0  0  0  0  0  0  0
  145.5166  134.0373  153.5703 H   0  0  0  0  0  0  0  0  0  0  0  0
  148.2760  133.2689  152.4616 H   0  0  0  0  0  0  0  0  0  0  0  0
  147.8959  132.4848  154.8061 H   0  0  0  0  0  0  0  0  0  0  0  0
  147.9352  131.1369  153.6741 H   0  0  0  0  0  0  0  0  0  0  0  0
  146.3935  131.7096  154.3053 H   0  0  0  0  0  0  0  0  0  0  0  0
  147.5250  133.4182  150.2336 H   0  0  0  0  0  0  0  0  0  0  0  0
  145.7846  132.8894  148.5202 H   0  0  0  0  0  0  0  0  0  0  0  0
  144.8495  132.0147  149.7319 H   0  0  0  0  0  0  0  0  0  0  0  0
  146.4337  131.4200  149.2411 H   0  0  0  0  0  0  0  0  0  0  0  0
  144.6927  134.1676  151.1441 H   0  0  0  0  0  0  0  0  0  0  0  0
  145.6578  135.0358  149.9736 H   0  0  0  0  0  0  0  0  0  0  0  0
  147.2805  135.4226  151.7014 H   0  0  0  0  0  0  0  0  0  0  0  0
  1  2  1  0  0  0  0
  1 22  1  0  0  0  0
  1 23  1  0  0  0  0
  1 24  1  0  0  0  0
  2 21  1  0  0  0  0
  2  3  2  0  0  0  0
  3  4  1  0  0  0  0
  3 25  1  0  0  0  0
  4  5  1  0  0  0  0
  4 20  2  0  0  0  0
  5  6  1  0  0  0  0
  5 26  1  0  0  0  0
  6  7  2  0  0  0  0
  6  8  1  0  0  0  0
  8  9  1  0  0  0  0
  8 27  1  0  0  0  0
  9 10  1  0  0  0  0
  9 28  1  0  0  0  0
  9 29  1  0  0  0  0
 10 11  1  0  0  0  0
 10 12  1  0  0  0  0
 10 30  1  0  0  0  0
 11 31  1  0  0  0  0
 11 32  1  0  0  0  0
 11 33  1  0  0  0  0
 12 19  1  0  0  0  0
 12 13  1  0  0  0  0
 12 46  1  0  0  0  0
 13 14  1  0  0  0  0
 13 34  1  0  0  0  0
 13 35  1  0  0  0  0
 14 15  1  0  0  0  0
 14 16  1  0  0  0  0
 14 36  1  0  0  0  0
 15 37  1  0  0  0  0
 15 38  1  0  0  0  0
 15 39  1  0  0  0  0
 16 17  1  0  0  0  0
 17 18  1  0  0  0  0
 17 19  1  0  0  0  0
 17 40  1  0  0  0  0
 18 41  1  0  0  0  0
 18 42  1  0  0  0  0
 18 43  1  0  0  0  0
 19 44  1  0  0  0  0
 19 45  1  0  0  0  0
 20 21  1  0  0  0  0
M  CHG  1  12   1
M  END
> <s_m_source_file>
AV-unprocessed.smi

> <i_m_source_file_index>
2061

> <i_lp_mmshare_version>
43012

> <i_f3d_flags>
0

> <s_epik_input>
W0NIM11jMVtjSF1jKG5vMSlbTkhdQyg9TylbTkhdW0NIMl1bQ0BIXShbQ0gzXSlOMltDSDJdW0NAQEhdKFtDSDNdKU9bQ0BASF0oW0NIM10pW0NIMl0y

> <s_epik_cmdline>
J2VwaWtfcHl0aG9uJywgJy1waCcsICc3LjAnLCAnLXRuJywgJzgnLCAnLW1hJywgJzIwMCcsICctbWV0YWxfYmluZGluZycsICctaW1hZScsICc8aW5maWxlLm1hZT4nLCAnLW9tYWUnLCAnPG91dGZpbGUubWFlPic=

> <r_epik_Ionization_Penalty>
0.707076

> <r_epik_Ionization_Penalty_Charging>
0.707039

> <r_epik_Ionization_Penalty_Neutral>
3.6548e-05

> <r_epik_State_Penalty>
0.730276

> <r_epik_Charging_Adjusted_Penalty>
1.43732

> <i_epik_Tot_Q>
1

> <i_epik_Tot_abs_Q>
1

> <r_epik_Metal_State_Penalty>
0.743132

> <b_epik_Metal_Only>
0

> <s_lp_Force_Field>
OPLS_2005

> <r_lp_Energy>
18.102

> <b_lp_Chiralities_Consistent>
1

> <s_lp_Variant>
AV-unprocessed.smi:2061-7

> <Gold.Version>
5.8.1

> <Gold.Id.Protein>
6NUR|6NUR_protein|mol2

> <Gold.PLP.Fitness>
41.8010

> <Gold.PLP.PLP>
-31.7488

> <Gold.PLP.part.hbond>
-4.9937

> <Gold.PLP.part.metal>
0.0000

> <Gold.PLP.part.buried>
2.7524

> <Gold.PLP.part.nonpolar>
-29.9708

> <Gold.PLP.part.repulsive>
0.7273

> <Gold.PLP.ligand.clash>
0.0000

> <Gold.PLP.ligand.torsion>
0.6976

> <Gold.PLP.Chemscore.Hbond>
3.7977

> <Gold.PLP.Chemscore.CHOScore>
0.0000

> <Gold.PLP.Chemscore.Metal>
0.0000

> <Gold.Chemscore.Hbonds>
donor molecule, donor type, donor heavy atom, donor atom, acceptor molecule, acceptor atom, score
      L1  H     5    26       P1 10175  1.00
      L1  H     8    27       P1 10175  0.77
      L1  H    12    46       P1  7948  2.00

> <Gold.PLP.Chemscore.Internal.Correction>
0.0543

> <Gold.Rescore>
     Score         DG    S(hbond)    S(metal)    S(lipo)     H(rot)  DE(clash)    DE(int)     intcor
     17.47     -18.99       2.78        0.00      70.66       1.58       0.99       0.53       ----

> <Gold.Chemscore.Fitness>
17.4695

> <Gold.Chemscore.DG>
-18.9946

> <Gold.Chemscore.ZeroCoef>
-5.4800

> <Gold.Chemscore.Hbond>
2.7846

> <Gold.Chemscore.Metal>
0.0000

> <Gold.Chemscore.Lipo>
70.6636

> <Gold.Chemscore.Internal_Hbond>
0.0000

> <Gold.Chemscore.DEClash>
0.9946

> <Gold.Chemscore.DEInternal>
0.5306

> <Gold.Chemscore.Rot>
1.5834

> <Gold.Chemscore.Internal.Correction>
   9.000000E+99

> <Gold.Chemscore.Hbonds>
donor molecule, donor type, donor heavy atom, donor atom, acceptor molecule, acceptor atom, score
      L1  H     5    26       P1 10175  0.91
      L1  H     8    27       P1 10175  0.74
      L1  H    12    46       P1  7948  0.97

> <Gold.Chemscore.Hbond.Weighted>
-9.3004

> <Gold.Chemscore.Metal.Weighted>
-0.0000

> <Gold.Chemscore.Lipo.Weighted>
-8.2676

> <Gold.Chemscore.Internal_Hbond.Weighted>
0.0000

> <Gold.Chemscore.DEClash.Weighted>
0.9946

> <Gold.Chemscore.DEInternal.Weighted>
0.5306

> <Gold.Chemscore.Rot.Weighted>
4.0535

> <Gold.Chemscore.Internal.Correction.Weighted>
   9.000000E+99

> <Gold.Protein.RotatedTorsions>
[ 6907 6896 6895 6894 ] final   26.30 input  -60.11 | X-H torsion
[ 7974 7965 7964 7962 ] final  125.36 input  175.53 | X-H torsion
[ 8008 7997 7996 7995 ] final -121.59 input   59.86 | X-H torsion
[ 10167 10162 10161 10158 ] final   24.28 input  -65.29 | X-H torsion
[ 10718 10713 10712 10709 ] final -138.14 input   66.30 | X-H torsion
[ 10763 10752 10751 10750 ] final   -3.50 input  -60.55 | X-H torsion
[ 11005 11000 10999 10996 ] final   72.33 input  -57.11 | X-H torsion

> <Gold.Protein.ActiveResidues>
 VAL166  LYS551  ARG553  GLY616  TRP617  ASP618  TYR619  PRO620  LYS621  CYS622 
 ASP623  PHE694  ASN695  SER759  ASP760  ASP761  ALA762  ILE779  LEU786  VAL792 
 PHE793  MET794  SER795  GLU796  ALA797  LYS798  CYS799  TRP800  GLU811  SER814 

> <Gold.Protein.RotatedAtoms>
  151.9854  135.0007  160.0559 H   0  0  0  0  0  0  0  0  0  0  0  0  # atno 6907 bound_to 6896
  152.1658  133.4606  159.4892 H   0  0  0  0  0  0  0  0  0  0  0  0  # atno 6908 bound_to 6896
  150.6894  134.1933  159.4336 H   0  0  0  0  0  0  0  0  0  0  0  0  # atno 6909 bound_to 6896
  145.0739  139.3709  143.4943 H   0  0  0  0  0  0  0  0  0  0  0  0  # atno 7974 bound_to 7965
  155.1505  140.0403  157.2820 H   0  0  0  0  0  0  0  0  0  0  0  0  # atno 8008 bound_to 7997
  154.6408  140.2546  155.7298 H   0  0  0  0  0  0  0  0  0  0  0  0  # atno 8009 bound_to 7997
  156.2531  140.2856  156.0800 H   0  0  0  0  0  0  0  0  0  0  0  0  # atno 8010 bound_to 7997
  140.5201  144.0017  150.6413 H   0  0  0  0  0  0  0  0  0  0  0  0  # atno 10167 bound_to 10162
  156.2960  130.7402  151.1441 H   0  0  0  0  0  0  0  0  0  0  0  0  # atno 10718 bound_to 10713
  153.3722  135.6995  153.6629 H   0  0  0  0  0  0  0  0  0  0  0  0  # atno 10763 bound_to 10752
  153.5275  135.3599  155.2661 H   0  0  0  0  0  0  0  0  0  0  0  0  # atno 10764 bound_to 10752
  154.8682  135.4172  154.3002 H   0  0  0  0  0  0  0  0  0  0  0  0  # atno 10765 bound_to 10752
  139.9496  134.7250  156.0894 H   0  0  0  0  0  0  0  0  0  0  0  0  # atno 11005 bound_to 11000
  146.3529  140.0497  142.8637 LP  0  0  0  0  0  0  0  0  0  0  0  0  # atno 17320 bound_to 7965
  145.1259  140.9490  143.4573 LP  0  0  0  0  0  0  0  0  0  0  0  0  # atno 17321 bound_to 7965
  140.3363  143.3046  152.0635 LP  0  0  0  0  0  0  0  0  0  0  0  0  # atno 17342 bound_to 10162
  139.4921  144.6474  151.6750 LP  0  0  0  0  0  0  0  0  0  0  0  0  # atno 17343 bound_to 10162
  157.7355  131.0571  150.5464 LP  0  0  0  0  0  0  0  0  0  0  0  0  # atno 17370 bound_to 10713
  156.5586  130.4250  149.6074 LP  0  0  0  0  0  0  0  0  0  0  0  0  # atno 17371 bound_to 10713
  141.1156  133.6629  156.3086 LP  0  0  0  0  0  0  0  0  0  0  0  0  # atno 17394 bound_to 11000
  140.5750  134.5802  157.5466 LP  0  0  0  0  0  0  0  0  0  0  0  0  # atno 17395 bound_to 11000

$$$$
