AV-unprocessed.smi:2442|AV-procd|sdf|9623|dock7
  -GOLD-   2272013253D 1   1.00000     0.00000
 Structure written by MMmdl.
 46 47  0  0  0  0  0  0  0  0  1 V2000
  144.6058  135.7922  151.7490 C   0  0  0  0  0  0  0  0  0  0  0  0
  145.7520  135.4739  150.9762 O   0  0  0  0  0  0  0  0  0  0  0  0
  146.0184  134.0796  150.8810 C   0  0  2  0  0  0  0  0  0  0  0  0
  144.7859  133.3454  150.3118 C   0  0  0  0  0  0  0  0  0  0  0  0
  144.9829  131.8205  150.3231 C   0  0  0  0  0  0  0  0  0  0  0  0
  145.3127  131.3088  151.7342 C   0  0  0  0  0  0  0  0  0  0  0  0
  146.5431  132.0262  152.3097 C   0  0  0  0  0  0  0  0  0  0  0  0
  146.3457  133.5579  152.3007 C   0  0  1  0  0  0  0  0  0  0  0  0
  147.4759  134.2556  152.9188 N   0  0  0  0  0  0  0  0  0  0  0  0
  147.9361  134.1093  154.1708 C   0  0  0  0  0  0  0  0  0  0  0  0
  147.4836  133.3108  154.9912 O   0  0  0  0  0  0  0  0  0  0  0  0
  148.9342  134.9659  154.4327 N   0  0  0  0  0  0  0  0  0  0  0  0
  149.5953  135.1195  155.7268 C   0  0  0  0  0  0  0  0  0  0  0  0
  151.0379  135.6551  155.5999 C   0  0  0  0  0  0  0  0  0  0  0  0
  151.1327  137.1507  155.3175 C   0  0  0  0  0  0  0  0  0  0  0  0
  150.1950  137.7516  154.4501 C   0  0  0  0  0  0  0  0  0  0  0  0
  150.2684  139.1397  154.2255 C   0  0  0  0  0  0  0  0  0  0  0  0
  151.1977  139.9335  154.7952 N   0  0  0  0  0  0  0  0  0  0  0  0
  152.0987  139.3569  155.6178 C   0  0  0  0  0  0  0  0  0  0  0  0
  152.1190  137.9763  155.9136 C   0  0  0  0  0  0  0  0  0  0  0  0
  153.1722  137.4284  156.8595 C   0  0  0  0  0  0  0  0  0  0  0  0
  144.4683  136.8732  151.7658 H   0  0  0  0  0  0  0  0  0  0  0  0
  144.7044  135.4536  152.7800 H   0  0  0  0  0  0  0  0  0  0  0  0
  143.7068  135.3490  151.3184 H   0  0  0  0  0  0  0  0  0  0  0  0
  146.8707  133.9010  150.2237 H   0  0  0  0  0  0  0  0  0  0  0  0
  143.9036  133.6012  150.9001 H   0  0  0  0  0  0  0  0  0  0  0  0
  144.5815  133.6728  149.2928 H   0  0  0  0  0  0  0  0  0  0  0  0
  144.0843  131.3277  149.9509 H   0  0  0  0  0  0  0  0  0  0  0  0
  145.7890  131.5517  149.6393 H   0  0  0  0  0  0  0  0  0  0  0  0
  144.4559  131.4670  152.3903 H   0  0  0  0  0  0  0  0  0  0  0  0
  145.4884  130.2330  151.7081 H   0  0  0  0  0  0  0  0  0  0  0  0
  146.7285  131.6778  153.3264 H   0  0  0  0  0  0  0  0  0  0  0  0
  147.4213  131.7502  151.7251 H   0  0  0  0  0  0  0  0  0  0  0  0
  145.4892  133.7798  152.9387 H   0  0  0  0  0  0  0  0  0  0  0  0
  147.9364  134.9407  152.3379 H   0  0  0  0  0  0  0  0  0  0  0  0
  149.2367  135.5816  153.6921 H   0  0  0  0  0  0  0  0  0  0  0  0
  149.0042  135.7652  156.3768 H   0  0  0  0  0  0  0  0  0  0  0  0
  149.6137  134.1451  156.2150 H   0  0  0  0  0  0  0  0  0  0  0  0
  151.6022  135.4161  156.5009 H   0  0  0  0  0  0  0  0  0  0  0  0
  151.5435  135.1201  154.7950 H   0  0  0  0  0  0  0  0  0  0  0  0
  149.4224  137.1652  153.9753 H   0  0  0  0  0  0  0  0  0  0  0  0
  149.5585  139.6259  153.5729 H   0  0  0  0  0  0  0  0  0  0  0  0
  152.8271  140.0232  156.0561 H   0  0  0  0  0  0  0  0  0  0  0  0
  153.9160  138.1887  157.1003 H   0  0  0  0  0  0  0  0  0  0  0  0
  153.6972  136.5844  156.4129 H   0  0  0  0  0  0  0  0  0  0  0  0
  152.7155  137.1042  157.7940 H   0  0  0  0  0  0  0  0  0  0  0  0
  1  2  1  0  0  0  0
  1 22  1  0  0  0  0
  1 23  1  0  0  0  0
  1 24  1  0  0  0  0
  2  3  1  0  0  0  0
  3  8  1  0  0  0  0
  3  4  1  0  0  0  0
  3 25  1  0  0  0  0
  4  5  1  0  0  0  0
  4 26  1  0  0  0  0
  4 27  1  0  0  0  0
  5  6  1  0  0  0  0
  5 28  1  0  0  0  0
  5 29  1  0  0  0  0
  6  7  1  0  0  0  0
  6 30  1  0  0  0  0
  6 31  1  0  0  0  0
  7  8  1  0  0  0  0
  7 32  1  0  0  0  0
  7 33  1  0  0  0  0
  8  9  1  0  0  0  0
  8 34  1  0  0  0  0
  9 10  1  0  0  0  0
  9 35  1  0  0  0  0
 10 11  2  0  0  0  0
 10 12  1  0  0  0  0
 12 13  1  0  0  0  0
 12 36  1  0  0  0  0
 13 14  1  0  0  0  0
 13 37  1  0  0  0  0
 13 38  1  0  0  0  0
 14 15  1  0  0  0  0
 14 39  1  0  0  0  0
 14 40  1  0  0  0  0
 15 20  1  0  0  0  0
 15 16  2  0  0  0  0
 16 17  1  0  0  0  0
 16 41  1  0  0  0  0
 17 18  2  0  0  0  0
 17 42  1  0  0  0  0
 18 19  1  0  0  0  0
 19 20  2  0  0  0  0
 19 43  1  0  0  0  0
 20 21  1  0  0  0  0
 21 44  1  0  0  0  0
 21 45  1  0  0  0  0
 21 46  1  0  0  0  0
M  END
> <s_m_source_file>
AV-unprocessed.smi

> <i_m_source_file_index>
2442

> <i_lp_mmshare_version>
43012

> <i_f3d_flags>
0

> <s_epik_input>
W0NIM11PW0NAQEhdMVtDSDJdW0NIMl1bQ0gyXVtDSDJdW0NASF0xW05IXUMoPU8pW05IXVtDSDJdW0NIMl1jMltjSF1bY0hdbltjSF1jMltDSDNd

> <s_epik_cmdline>
J2VwaWtfcHl0aG9uJywgJy1waCcsICc3LjAnLCAnLXRuJywgJzgnLCAnLW1hJywgJzIwMCcsICctbWV0YWxfYmluZGluZycsICctaW1hZScsICc8aW5maWxlLm1hZT4nLCAnLW9tYWUnLCAnPG91dGZpbGUubWFlPic=

> <r_epik_Ionization_Penalty>
0.106136

> <r_epik_Ionization_Penalty_Charging>
0

> <r_epik_Ionization_Penalty_Neutral>
0.106136

> <r_epik_State_Penalty>
0.0959393

> <r_epik_Charging_Adjusted_Penalty>
0.0959393

> <i_epik_Tot_Q>
0

> <i_epik_Tot_abs_Q>
0

> <r_epik_Metal_State_Penalty>
0.0812517

> <b_epik_Metal_Only>
0

> <s_lp_Force_Field>
OPLS_2005

> <r_lp_Energy>
10.1716

> <b_lp_Chiralities_Consistent>
1

> <s_lp_Variant>
AV-unprocessed.smi:2442-1

> <Gold.Version>
5.8.1

> <Gold.Id.Protein>
6NUR|6NUR_protein|mol2

> <Gold.PLP.Fitness>
45.6593

> <Gold.PLP.PLP>
-34.8248

> <Gold.PLP.part.hbond>
-3.0000

> <Gold.PLP.part.metal>
0.0000

> <Gold.PLP.part.buried>
-3.5293

> <Gold.PLP.part.nonpolar>
-28.2407

> <Gold.PLP.part.repulsive>
0.3322

> <Gold.PLP.ligand.clash>
0.0000

> <Gold.PLP.ligand.torsion>
0.5736

> <Gold.PLP.Chemscore.Hbond>
2.9760

> <Gold.PLP.Chemscore.CHOScore>
1.0000

> <Gold.PLP.Chemscore.Metal>
0.0000

> <Gold.Chemscore.Hbonds>
donor molecule, donor type, donor heavy atom, donor atom, acceptor molecule, acceptor atom, score
      L1  H     9    35       P1  7948  1.00
      L1  H    12    36       P1  7948  0.96
      P1  H  7989  7998       L1    18  1.00
      L1  C    17    42       P1  7957  1.00

> <Gold.PLP.Chemscore.Internal.Correction>
0.0537

> <Gold.Rescore>
     Score         DG    S(hbond)    S(metal)    S(lipo)     H(rot)  DE(clash)    DE(int)     intcor
     18.53     -20.12       2.30        0.00      95.28       1.64       0.09       1.50       ----

> <Gold.Chemscore.Fitness>
18.5256

> <Gold.Chemscore.DG>
-20.1211

> <Gold.Chemscore.ZeroCoef>
-5.4800

> <Gold.Chemscore.Hbond>
2.3014

> <Gold.Chemscore.Metal>
0.0000

> <Gold.Chemscore.Lipo>
95.2817

> <Gold.Chemscore.Internal_Hbond>
0.0000

> <Gold.Chemscore.DEClash>
0.0930

> <Gold.Chemscore.DEInternal>
1.5025

> <Gold.Chemscore.Rot>
1.6380

> <Gold.Chemscore.Internal.Correction>
   9.000000E+99

> <Gold.Chemscore.Hbonds>
donor molecule, donor type, donor heavy atom, donor atom, acceptor molecule, acceptor atom, score
      L1  H     9    35       P1  7948  0.78
      L1  H    12    36       P1  7948  0.51
      P1  H  7989  7998       L1    18  0.30

> <Gold.Chemscore.Hbond.Weighted>
-7.6866

> <Gold.Chemscore.Metal.Weighted>
-0.0000

> <Gold.Chemscore.Lipo.Weighted>
-11.1480

> <Gold.Chemscore.Internal_Hbond.Weighted>
0.0000

> <Gold.Chemscore.DEClash.Weighted>
0.0930

> <Gold.Chemscore.DEInternal.Weighted>
1.5025

> <Gold.Chemscore.Rot.Weighted>
4.1934

> <Gold.Chemscore.Internal.Correction.Weighted>
   9.000000E+99

> <Gold.Protein.RotatedTorsions>
[ 6907 6896 6895 6894 ] final   49.97 input  -60.11 | X-H torsion
[ 7974 7965 7964 7962 ] final -117.33 input  175.53 | X-H torsion
[ 8008 7997 7996 7995 ] final  -18.50 input   59.86 | X-H torsion
[ 10167 10162 10161 10158 ] final    1.49 input  -65.29 | X-H torsion
[ 10718 10713 10712 10709 ] final   -4.83 input   66.30 | X-H torsion
[ 10763 10752 10751 10750 ] final  125.51 input  -60.55 | X-H torsion
[ 11005 11000 10999 10996 ] final   49.08 input  -57.11 | X-H torsion

> <Gold.Protein.ActiveResidues>
 VAL166  LYS551  ARG553  GLY616  TRP617  ASP618  TYR619  PRO620  LYS621  CYS622 
 ASP623  PHE694  ASN695  SER759  ASP760  ASP761  ALA762  ILE779  LEU786  VAL792 
 PHE793  MET794  SER795  GLU796  ALA797  LYS798  CYS799  TRP800  GLU811  SER814 

> <Gold.Protein.RotatedAtoms>
  152.2967  134.7659  160.0366 H   0  0  0  0  0  0  0  0  0  0  0  0  # atno 6907 bound_to 6896
  151.8187  133.3386  159.3585 H   0  0  0  0  0  0  0  0  0  0  0  0  # atno 6908 bound_to 6896
  150.7254  134.5524  159.5845 H   0  0  0  0  0  0  0  0  0  0  0  0  # atno 6909 bound_to 6896
  145.0865  140.8461  143.4008 H   0  0  0  0  0  0  0  0  0  0  0  0  # atno 7974 bound_to 7965
  154.4902  140.2114  155.9565 H   0  0  0  0  0  0  0  0  0  0  0  0  # atno 8008 bound_to 7997
  156.1294  140.3199  155.8295 H   0  0  0  0  0  0  0  0  0  0  0  0  # atno 8009 bound_to 7997
  155.4324  140.0504  157.3008 H   0  0  0  0  0  0  0  0  0  0  0  0  # atno 8010 bound_to 7997
  140.6680  143.7126  150.7866 H   0  0  0  0  0  0  0  0  0  0  0  0  # atno 10167 bound_to 10162
  156.7555  130.5253  149.5795 H   0  0  0  0  0  0  0  0  0  0  0  0  # atno 10718 bound_to 10713
  153.6784  135.3318  155.3172 H   0  0  0  0  0  0  0  0  0  0  0  0  # atno 10763 bound_to 10752
  154.8472  135.4403  154.1632 H   0  0  0  0  0  0  0  0  0  0  0  0  # atno 10764 bound_to 10752
  153.2642  135.6994  153.7624 H   0  0  0  0  0  0  0  0  0  0  0  0  # atno 10765 bound_to 10752
  140.1134  134.4924  155.8658 H   0  0  0  0  0  0  0  0  0  0  0  0  # atno 11005 bound_to 11000
  145.1117  139.2753  143.5634 LP  0  0  0  0  0  0  0  0  0  0  0  0  # atno 17320 bound_to 7965
  146.3531  140.0714  142.8623 LP  0  0  0  0  0  0  0  0  0  0  0  0  # atno 17321 bound_to 7965
  140.0807  143.4972  152.2532 LP  0  0  0  0  0  0  0  0  0  0  0  0  # atno 17342 bound_to 10162
  139.5936  144.7559  151.3339 LP  0  0  0  0  0  0  0  0  0  0  0  0  # atno 17343 bound_to 10162
  156.1373  130.6220  151.0418 LP  0  0  0  0  0  0  0  0  0  0  0  0  # atno 17370 bound_to 10713
  157.6758  131.0851  150.7498 LP  0  0  0  0  0  0  0  0  0  0  0  0  # atno 17371 bound_to 10713
  141.2135  133.6735  156.6749 LP  0  0  0  0  0  0  0  0  0  0  0  0  # atno 17394 bound_to 11000
  140.3060  134.8124  157.4137 LP  0  0  0  0  0  0  0  0  0  0  0  0  # atno 17395 bound_to 11000

$$$$
