#       Name:                AV-unprocessed.smi:2000
#       Creating user name   scv26
#       Creation time:       Fri Mar 27 10:32:15 2020


#       File generated by GOLD software.
#

@<TRIPOS>MOLECULE
AV-unprocessed.smi:2000
    49    50     1
SMALL
NO_CHARGES


@<TRIPOS>ATOM
      1 ****        -3.7094  -1.8321  -2.2333 C.3            1 S1                 0.0000
      2 ****        -3.4011  -0.8907  -1.0585 C.3            1 S1                 0.0000
      3 ****        -1.8996  -0.5899  -0.9604 C.2            1 S1                 0.0000
      4 ****        -1.0816  -1.5086  -0.9153 O.2            1 S1                 0.0000
      5 ****        -1.5500   0.7062  -0.9341 N.am           1 S1                 0.0000
      6 ****        -0.1797   1.2018  -0.8458 C.3            1 S1                 0.0000
      7 ****         0.3598   1.2786   0.5829 C.ar           1 S1                 0.0000
      8 ****        -0.4851   1.7187   1.6268 C.ar           1 S1                 0.0000
      9 ****         0.0203   1.8124   2.9353 C.ar           1 S1                 0.0000
     10 ****         1.3667   1.4727   3.1536 C.ar           1 S1                 0.0000
     11 ****         2.1923   1.0644   2.1690 N.ar           1 S1                 0.0000
     12 ****         1.7095   0.9678   0.9057 C.ar           1 S1                 0.0000
     13 ****         2.5993   0.5187  -0.0863 N.3            1 S1                 0.0000
     14 ****         2.5490  -0.9244  -0.2819 C.3            1 S1                 0.0000
     15 ****         3.3671  -1.3135  -1.5251 C.3            1 S1                 0.0000
     16 ****         4.7005  -0.8275  -1.3932 O.3            1 S1                 0.0000
     17 ****         4.7455   0.5917  -1.2715 C.3            1 S1                 0.0000
     18 ****         3.9655   1.0268  -0.0190 C.3            1 S1                 0.0000
     19 ****        -4.0145  -1.6405   0.5235 S.o2           1 S1                 0.0000
     20 ****        -3.6129  -0.3560   1.7806 C.3            1 S1                 0.0000
     21 ****        -5.4785  -1.7499   0.4325 O.2            1 S1                 0.0000
     22 ****        -3.2213  -2.8417   0.8274 O.2            1 S1                 0.0000
     23 ****        -3.3512  -1.4193  -3.1769 H              1 S1                 0.0000
     24 ****        -4.7836  -1.9911  -2.3313 H              1 S1                 0.0000
     25 ****        -3.2444  -2.8093  -2.0967 H              1 S1                 0.0000
     26 ****        -3.9491   0.0412  -1.2025 H              1 S1                 0.0000
     27 ****        -2.2823   1.3995  -0.9834 H              1 S1                 0.0000
     28 ****         0.4577   0.6038  -1.4969 H              1 S1                 0.0000
     29 ****        -0.1631   2.2098  -1.2602 H              1 S1                 0.0000
     30 ****        -1.5129   1.9867   1.4318 H              1 S1                 0.0000
     31 ****        -0.6075   2.1408   3.7502 H              1 S1                 0.0000
     32 ****         1.7932   1.5335   4.1438 H              1 S1                 0.0000
     33 ****         2.9516  -1.4216   0.6018 H              1 S1                 0.0000
     34 ****         1.5179  -1.2587  -0.3936 H              1 S1                 0.0000
     35 ****         3.3926  -2.3978  -1.6345 H              1 S1                 0.0000
     36 ****         2.9103  -0.9119  -2.4312 H              1 S1                 0.0000
     37 ****         5.7855   0.9094  -1.1963 H              1 S1                 0.0000
     38 ****         4.3334   1.0571  -2.1684 H              1 S1                 0.0000
     39 ****         3.9525   2.1147   0.0579 H              1 S1                 0.0000
     40 ****         4.4625   0.6420   0.8728 H              1 S1                 0.0000
     41 ****        -4.0528  -0.6392   2.7366 H              1 S1                 0.0000
     42 ****        -4.0176   0.6060   1.4673 H              1 S1                 0.0000
     43 ****        -2.5325  -0.2821   1.8977 H              1 S1                 0.0000
     44 ****        -1.3942  -2.4581  -0.9426 LP             1 S1                 0.0000
     45 ****        -0.1046  -1.3054  -0.8514 LP             1 S1                 0.0000
     46 ****         3.1455   0.8365   2.3673 LP             1 S1                 0.0000
     47 ****         2.2390   0.9510  -0.9130 LP             1 S1                 0.0000
     48 ****         5.2236  -1.0983  -2.2013 LP             1 S1                 0.0000
     49 ****         5.1124  -1.2340  -0.5778 LP             1 S1                 0.0000
@<TRIPOS>BOND
    1    1    2 1     
    2    1   23 1     
    3    1   24 1     
    4    1   25 1     
    5    2    3 1     
    6    2   19 1     
    7    2   26 1     
    8    3    4 2     
    9    3    5 am    
   10    5    6 1     
   11    5   27 1     
   12    6    7 1     
   13    6   28 1     
   14    6   29 1     
   15    7   12 ar    
   16    7    8 ar    
   17    8    9 ar    
   18    8   30 1     
   19    9   10 ar    
   20    9   31 1     
   21   10   11 ar    
   22   10   32 1     
   23   11   12 ar    
   24   12   13 1     
   25   13   18 1     
   26   13   14 1     
   27   14   15 1     
   28   14   33 1     
   29   14   34 1     
   30   15   16 1     
   31   15   35 1     
   32   15   36 1     
   33   16   17 1     
   34   17   18 1     
   35   17   37 1     
   36   17   38 1     
   37   18   39 1     
   38   18   40 1     
   39   19   20 1     
   40   19   21 2     
   41   19   22 2     
   42   20   41 1     
   43   20   42 1     
   44   20   43 1     
   45    4   44 1     
   46    4   45 1     
   47   11   46 1     
   48   13   47 1     
   49   16   48 1     
   50   16   49 1     
@<TRIPOS>SUBSTRUCTURE
      1 S1             1
@<TRIPOS>SET
LONE_PAIRS      STATIC     ATOMS    <user>   **** ""
8 44 45 46 47 48 49 21 22
DONOR_HYDROGENS      STATIC     ATOMS    <user>   **** ""
1 27
ATOM$BLUE        STATIC     ATOMS    COLORGROUP SYSTEM
8 44 45 46 47 48 49 21 22
ATOM$RED        STATIC     ATOMS    COLORGROUP SYSTEM
1 27
