AV-unprocessed.smi:2707|AV-procd|sdf|10456|dock3
  -GOLD-   2272014493D 1   1.00000     0.00000
 Structure written by MMmdl.
 44 45  0  0  0  0  0  0  0  0  1 V2000
  148.3609  141.6954  153.9370 C   0  0  0  0  0  0  0  0  0  0  0  0
  146.9792  141.4579  154.5821 C   0  0  1  0  0  0  0  0  0  0  0  0
  146.2251  140.4476  153.8269 N   0  0  0  0  0  0  0  0  0  0  0  0
  146.4984  139.1403  153.6807 C   0  0  0  0  0  0  0  0  0  0  0  0
  147.4826  138.5845  154.1677 O   0  0  0  0  0  0  0  0  0  0  0  0
  145.5533  138.5331  152.9424 N   0  0  0  0  0  0  0  0  0  0  0  0
  145.4742  137.1639  152.5770 C   0  0  0  0  0  0  0  0  0  0  0  0
  144.9188  136.9085  151.3072 C   0  0  0  0  0  0  0  0  0  0  0  0
  144.8086  135.5747  150.8799 C   0  0  0  0  0  0  0  0  0  0  0  0
  145.2653  134.5635  151.7550 C   0  0  0  0  0  0  0  0  0  0  0  0
  145.2063  133.0635  151.4138 C   0  0  0  0  0  0  0  0  0  0  0  0
  146.0140  132.7149  150.1430 C   0  0  0  0  0  0  0  0  0  0  0  0
  143.7430  132.6432  151.1633 C   0  0  0  0  0  0  0  0  0  0  0  0
  145.7956  132.2409  152.5784 C   0  0  0  0  0  0  0  0  0  0  0  0
  145.7913  134.8724  152.9656 N   0  0  0  0  0  0  0  0  0  0  0  0
  145.8928  136.1430  153.3663 N   0  0  0  0  0  0  0  0  0  0  0  0
  147.1050  141.0566  156.0761 C   0  0  0  0  0  0  0  0  0  0  0  0
  145.7447  141.2160  156.7659 C   0  0  0  0  0  0  0  0  0  0  0  0
  144.9314  142.6253  155.9287 S   0  0  0  0  0  0  0  0  0  0  0  0
  143.6389  142.1768  155.3883 O   0  0  0  0  0  0  0  0  0  0  0  0
  145.0242  143.8253  156.7738 O   0  0  0  0  0  0  0  0  0  0  0  0
  146.1495  142.7581  154.5631 C   0  0  0  0  0  0  0  0  0  0  0  0
  148.8978  142.5016  154.4378 H   0  0  0  0  0  0  0  0  0  0  0  0
  148.2639  141.9705  152.8861 H   0  0  0  0  0  0  0  0  0  0  0  0
  148.9955  140.8108  153.9906 H   0  0  0  0  0  0  0  0  0  0  0  0
  145.3860  140.7840  153.3774 H   0  0  0  0  0  0  0  0  0  0  0  0
  144.7987  139.1153  152.6112 H   0  0  0  0  0  0  0  0  0  0  0  0
  144.5822  137.7145  150.6715 H   0  0  0  0  0  0  0  0  0  0  0  0
  144.3853  135.3625  149.9106 H   0  0  0  0  0  0  0  0  0  0  0  0
  145.9591  131.6485  149.9205 H   0  0  0  0  0  0  0  0  0  0  0  0
  147.0703  132.9624  150.2559 H   0  0  0  0  0  0  0  0  0  0  0  0
  145.6351  133.2425  149.2667 H   0  0  0  0  0  0  0  0  0  0  0  0
  143.3010  133.2148  150.3463 H   0  0  0  0  0  0  0  0  0  0  0  0
  143.1204  132.7966  152.0456 H   0  0  0  0  0  0  0  0  0  0  0  0
  143.6722  131.5869  150.9013 H   0  0  0  0  0  0  0  0  0  0  0  0
  145.7846  131.1733  152.3567 H   0  0  0  0  0  0  0  0  0  0  0  0
  145.2314  132.3823  153.5010 H   0  0  0  0  0  0  0  0  0  0  0  0
  146.8295  132.5244  152.7792 H   0  0  0  0  0  0  0  0  0  0  0  0
  147.5086  140.0549  156.2213 H   0  0  0  0  0  0  0  0  0  0  0  0
  147.8087  141.7351  156.5602 H   0  0  0  0  0  0  0  0  0  0  0  0
  145.1277  140.3297  156.6163 H   0  0  0  0  0  0  0  0  0  0  0  0
  145.8288  141.4075  157.8356 H   0  0  0  0  0  0  0  0  0  0  0  0
  146.7777  143.6232  154.7776 H   0  0  0  0  0  0  0  0  0  0  0  0
  145.6385  142.9427  153.6175 H   0  0  0  0  0  0  0  0  0  0  0  0
  1  2  1  0  0  0  0
  1 23  1  0  0  0  0
  1 24  1  0  0  0  0
  1 25  1  0  0  0  0
  2 22  1  0  0  0  0
  2  3  1  0  0  0  0
  2 17  1  0  0  0  0
  3  4  1  0  0  0  0
  3 26  1  0  0  0  0
  4  5  2  0  0  0  0
  4  6  1  0  0  0  0
  6  7  1  0  0  0  0
  6 27  1  0  0  0  0
  7 16  1  0  0  0  0
  7  8  2  0  0  0  0
  8  9  1  0  0  0  0
  8 28  1  0  0  0  0
  9 10  2  0  0  0  0
  9 29  1  0  0  0  0
 10 11  1  0  0  0  0
 10 15  1  0  0  0  0
 11 12  1  0  0  0  0
 11 13  1  0  0  0  0
 11 14  1  0  0  0  0
 12 30  1  0  0  0  0
 12 31  1  0  0  0  0
 12 32  1  0  0  0  0
 13 33  1  0  0  0  0
 13 34  1  0  0  0  0
 13 35  1  0  0  0  0
 14 36  1  0  0  0  0
 14 37  1  0  0  0  0
 14 38  1  0  0  0  0
 15 16  2  0  0  0  0
 17 18  1  0  0  0  0
 17 39  1  0  0  0  0
 17 40  1  0  0  0  0
 18 19  1  0  0  0  0
 18 41  1  0  0  0  0
 18 42  1  0  0  0  0
 19 20  2  0  0  0  0
 19 21  2  0  0  0  0
 19 22  1  0  0  0  0
 22 43  1  0  0  0  0
 22 44  1  0  0  0  0
M  END
> <s_m_source_file>
AV-unprocessed.smi

> <i_m_source_file_index>
2707

> <i_lp_mmshare_version>
43012

> <i_f3d_flags>
0

> <s_epik_input>
Tz1TKD1PKShbQ0gyXTEpW0NIMl1bQ0gyXVtDQEBdMShbQ0gzXSlbTkhdQyg9TylbTkhdYzJbY0hdW2NIXWMobm4yKUMoW0NIM10pKFtDSDNdKVtDSDNd

> <s_epik_cmdline>
J2VwaWtfcHl0aG9uJywgJy1waCcsICc3LjAnLCAnLXRuJywgJzgnLCAnLW1hJywgJzIwMCcsICctbWV0YWxfYmluZGluZycsICctaW1hZScsICc8aW5maWxlLm1hZT4nLCAnLW9tYWUnLCAnPG91dGZpbGUubWFlPic=

> <r_lp_tautomer_probability>
1

> <r_epik_Ionization_Penalty>
0.00910408

> <r_epik_Ionization_Penalty_Charging>
0

> <r_epik_Ionization_Penalty_Neutral>
0.00910408

> <r_epik_State_Penalty>
-0

> <r_epik_Charging_Adjusted_Penalty>
0

> <i_epik_Tot_Q>
0

> <i_epik_Tot_abs_Q>
0

> <r_epik_Metal_State_Penalty>
-0

> <b_epik_Metal_Only>
0

> <s_lp_Force_Field>
OPLS_2005

> <r_lp_Energy>
10.5571

> <b_lp_Chiralities_Consistent>
1

> <s_lp_Variant>
AV-unprocessed.smi:2707-1

> <Gold.Version>
5.8.1

> <Gold.Id.Protein>
6NUR|6NUR_protein|mol2

> <Gold.PLP.Fitness>
34.9259

> <Gold.PLP.PLP>
-29.5862

> <Gold.PLP.part.hbond>
-2.0000

> <Gold.PLP.part.metal>
0.0000

> <Gold.PLP.part.buried>
-1.3506

> <Gold.PLP.part.nonpolar>
-28.2413

> <Gold.PLP.part.repulsive>
1.7219

> <Gold.PLP.ligand.clash>
0.0000

> <Gold.PLP.ligand.torsion>
0.2781

> <Gold.PLP.Chemscore.Hbond>
1.9600

> <Gold.PLP.Chemscore.CHOScore>
0.0000

> <Gold.PLP.Chemscore.Metal>
0.0000

> <Gold.Chemscore.Hbonds>
donor molecule, donor type, donor heavy atom, donor atom, acceptor molecule, acceptor atom, score
      L1  H     3    26       P1 10175  1.00
      L1  H     6    27       P1 10175  1.00

> <Gold.PLP.Chemscore.Internal.Correction>
0.0159

> <Gold.Rescore>
     Score         DG    S(hbond)    S(metal)    S(lipo)     H(rot)  DE(clash)    DE(int)     intcor
     14.12     -16.49       1.95        0.00      65.11       1.22       0.91       1.46       ----

> <Gold.Chemscore.Fitness>
14.1234

> <Gold.Chemscore.DG>
-16.4909

> <Gold.Chemscore.ZeroCoef>
-5.4800

> <Gold.Chemscore.Hbond>
1.9544

> <Gold.Chemscore.Metal>
0.0000

> <Gold.Chemscore.Lipo>
65.1051

> <Gold.Chemscore.Internal_Hbond>
0.0000

> <Gold.Chemscore.DEClash>
0.9059

> <Gold.Chemscore.DEInternal>
1.4616

> <Gold.Chemscore.Rot>
1.2242

> <Gold.Chemscore.Internal.Correction>
   9.000000E+99

> <Gold.Chemscore.Hbonds>
donor molecule, donor type, donor heavy atom, donor atom, acceptor molecule, acceptor atom, score
      L1  H     3    26       P1 10175  0.78
      L1  H     6    27       P1 10175  1.00

> <Gold.Chemscore.Hbond.Weighted>
-6.5276

> <Gold.Chemscore.Metal.Weighted>
-0.0000

> <Gold.Chemscore.Lipo.Weighted>
-7.6173

> <Gold.Chemscore.Internal_Hbond.Weighted>
0.0000

> <Gold.Chemscore.DEClash.Weighted>
0.9059

> <Gold.Chemscore.DEInternal.Weighted>
1.4616

> <Gold.Chemscore.Rot.Weighted>
3.1340

> <Gold.Chemscore.Internal.Correction.Weighted>
   9.000000E+99

> <Gold.Protein.RotatedTorsions>
[ 6907 6896 6895 6894 ] final -109.49 input  -60.11 | X-H torsion
[ 7974 7965 7964 7962 ] final -110.39 input  175.53 | X-H torsion
[ 8008 7997 7996 7995 ] final  -99.25 input   59.86 | X-H torsion
[ 10167 10162 10161 10158 ] final  -56.89 input  -65.29 | X-H torsion
[ 10718 10713 10712 10709 ] final -178.98 input   66.30 | X-H torsion
[ 10763 10752 10751 10750 ] final   38.35 input  -60.55 | X-H torsion
[ 11005 11000 10999 10996 ] final  -28.53 input  -57.11 | X-H torsion

> <Gold.Protein.ActiveResidues>
 VAL166  LYS551  ARG553  GLY616  TRP617  ASP618  TYR619  PRO620  LYS621  CYS622 
 ASP623  PHE694  ASN695  SER759  ASP760  ASP761  ALA762  ILE779  LEU786  VAL792 
 PHE793  MET794  SER795  GLU796  ALA797  LYS798  CYS799  TRP800  GLU811  SER814 

> <Gold.Protein.RotatedAtoms>
  150.7565  133.9522  159.3488 H   0  0  0  0  0  0  0  0  0  0  0  0  # atno 6907 bound_to 6896
  151.7440  135.0846  160.0329 H   0  0  0  0  0  0  0  0  0  0  0  0  # atno 6908 bound_to 6896
  152.3510  133.6142  159.5980 H   0  0  0  0  0  0  0  0  0  0  0  0  # atno 6909 bound_to 6896
  145.1689  140.8915  143.3547 H   0  0  0  0  0  0  0  0  0  0  0  0  # atno 7974 bound_to 7965
  154.8123  140.0449  157.1351 H   0  0  0  0  0  0  0  0  0  0  0  0  # atno 8008 bound_to 7997
  154.9354  140.3045  155.5127 H   0  0  0  0  0  0  0  0  0  0  0  0  # atno 8009 bound_to 7997
  156.2973  140.2315  156.4418 H   0  0  0  0  0  0  0  0  0  0  0  0  # atno 8010 bound_to 7997
  140.6291  143.2451  151.5288 H   0  0  0  0  0  0  0  0  0  0  0  0  # atno 10167 bound_to 10162
  156.8523  130.9723  151.3091 H   0  0  0  0  0  0  0  0  0  0  0  0  # atno 10718 bound_to 10713
  153.0004  135.6252  154.2290 H   0  0  0  0  0  0  0  0  0  0  0  0  # atno 10763 bound_to 10752
  154.2032  135.2803  155.2985 H   0  0  0  0  0  0  0  0  0  0  0  0  # atno 10764 bound_to 10752
  154.5666  135.5689  153.7115 H   0  0  0  0  0  0  0  0  0  0  0  0  # atno 10765 bound_to 10752
  140.9217  133.7395  156.0810 H   0  0  0  0  0  0  0  0  0  0  0  0  # atno 11005 bound_to 11000
  145.0254  139.3387  143.6051 LP  0  0  0  0  0  0  0  0  0  0  0  0  # atno 17320 bound_to 7965
  146.3471  139.9570  142.8722 LP  0  0  0  0  0  0  0  0  0  0  0  0  # atno 17321 bound_to 7965
  139.5507  144.2403  152.1525 LP  0  0  0  0  0  0  0  0  0  0  0  0  # atno 17342 bound_to 10162
  140.1642  144.4997  150.6615 LP  0  0  0  0  0  0  0  0  0  0  0  0  # atno 17343 bound_to 10162
  157.6297  130.8719  149.9251 LP  0  0  0  0  0  0  0  0  0  0  0  0  # atno 17370 bound_to 10713
  156.0822  130.3672  150.0559 LP  0  0  0  0  0  0  0  0  0  0  0  0  # atno 17371 bound_to 10713
  140.7980  134.3542  157.5447 LP  0  0  0  0  0  0  0  0  0  0  0  0  # atno 17394 bound_to 11000
  139.8777  134.9180  156.3192 LP  0  0  0  0  0  0  0  0  0  0  0  0  # atno 17395 bound_to 11000

$$$$
