#       Name:                AV-unprocessed.smi:893
#       Creating user name   scv26
#       Creation time:       Fri Mar 27 01:55:45 2020


#       File generated by GOLD software.
#

@<TRIPOS>MOLECULE
AV-unprocessed.smi:893
    32    33     1
SMALL
NO_CHARGES


@<TRIPOS>ATOM
      1 ****        -2.2313   0.9537  -1.0546 C.3            1 S1                 0.0000
      2 ****        -1.6413  -0.4640  -1.1226 C.3            1 S1                 0.0000
      3 ****        -0.0948  -0.5118  -1.0584 C.3            1 S1                 0.0000
      4 ****         0.4492   0.0290   0.2526 C.2            1 S1                 0.0000
      5 ****         1.4160   1.0584   0.4562 C.2            1 S1                 0.0000
      6 ****         1.6685   1.2902   1.7340 N.2            1 S1                 0.0000
      7 ****         0.8793   0.4192   2.3933 N.pl3          1 S1                 0.0000
      8 ****         0.9028   0.3890   3.8399 C.3            1 S1                 0.0000
      9 ****         0.1327  -0.3505   1.5287 C.2            1 S1                 0.0000
     10 ****         0.4842   0.1519  -2.2097 N.am           1 S1                 0.0000
     11 ****         1.2143  -0.6869  -2.9425 C.2            1 S1                 0.0000
     12 ****         1.7997  -0.3161  -3.9572 O.2            1 S1                 0.0000
     13 ****         1.1869  -1.9205  -2.4015 N.pl3          1 S1                -1.0000
     14 ****         0.4299  -1.9366  -1.2825 C.2            1 S1                 0.0000
     15 ****         0.1518  -2.8690  -0.5284 O.2            1 S1                 0.0000
     16 ****        -3.3199   0.9193  -1.0986 H              1 S1                 0.0000
     17 ****        -1.8878   1.5687  -1.8866 H              1 S1                 0.0000
     18 ****        -1.9555   1.4577  -0.1282 H              1 S1                 0.0000
     19 ****        -2.0607  -1.0567  -0.3082 H              1 S1                 0.0000
     20 ****        -1.9869  -0.9389  -2.0425 H              1 S1                 0.0000
     21 ****         1.9400   1.6428  -0.2858 H              1 S1                 0.0000
     22 ****         0.2229  -0.3794   4.2091 H              1 S1                 0.0000
     23 ****         0.5928   1.3570   4.2343 H              1 S1                 0.0000
     24 ****         1.9119   0.1659   4.1878 H              1 S1                 0.0000
     25 ****        -0.5551  -1.1030   1.8857 H              1 S1                 0.0000
     26 ****         0.3495   1.1310  -2.4141 H              1 S1                 0.0000
     27 ****         2.3015   1.9598   2.1225 LP             1 S1                 0.0000
     28 ****         1.7348   0.6373  -4.2518 LP             1 S1                 0.0000
     29 ****         2.3411  -0.9678  -4.4885 LP             1 S1                 0.0000
     30 ****         1.6623  -2.7161  -2.7771 LP             1 S1                 0.0000
     31 ****        -0.4363  -2.7121   0.2650 LP             1 S1                 0.0000
     32 ****         0.5141  -3.7834  -0.7092 LP             1 S1                 0.0000
@<TRIPOS>BOND
    1    1    2 1     
    2    1   16 1     
    3    1   17 1     
    4    1   18 1     
    5    2    3 1     
    6    2   19 1     
    7    2   20 1     
    8    3   14 1     
    9    3    4 1     
   10    3   10 1     
   11    4    9 2     
   12    4    5 1     
   13    5    6 2     
   14    5   21 1     
   15    6    7 1     
   16    7    8 1     
   17    7    9 1     
   18    8   22 1     
   19    8   23 1     
   20    8   24 1     
   21    9   25 1     
   22   10   11 am    
   23   10   26 1     
   24   11   12 2     
   25   11   13 1     
   26   13   14 1     
   27   14   15 2     
   28    6   27 1     
   29   12   28 1     
   30   12   29 1     
   31   13   30 1     
   32   15   31 1     
   33   15   32 1     
@<TRIPOS>SUBSTRUCTURE
      1 S1             1
@<TRIPOS>SET
LONE_PAIRS      STATIC     ATOMS    <user>   **** ""
6 27 28 29 30 31 32
DONOR_HYDROGENS      STATIC     ATOMS    <user>   **** ""
1 26
ATOM$BLUE        STATIC     ATOMS    COLORGROUP SYSTEM
6 27 28 29 30 31 32
ATOM$RED        STATIC     ATOMS    COLORGROUP SYSTEM
1 26
