#       Name:                AV-unprocessed.smi:3194
#       Creating user name   scv26
#       Creation time:       Fri Mar 27 18:04:47 2020


#       File generated by GOLD software.
#

@<TRIPOS>MOLECULE
AV-unprocessed.smi:3194
    33    33     1
SMALL
NO_CHARGES


@<TRIPOS>ATOM
      1 ****        -2.8700  -2.1318   0.7622 C.3            1 S1                 0.0000
      2 ****        -2.2208  -0.9155   0.0788 C.3            1 S1                 0.0000
      3 ****        -2.5537  -0.7961  -1.4202 C.3            1 S1                 0.0000
      4 ****        -2.2696  -1.9934  -2.1155 O.3            1 S1                 0.0000
      5 ****        -0.7728  -0.9079   0.2673 N.am           1 S1                 0.0000
      6 ****        -0.1212  -0.4333   1.3424 C.2            1 S1                 0.0000
      7 ****        -0.6970   0.0560   2.3152 O.2            1 S1                 0.0000
      8 ****         1.4126  -0.5133   1.3122 C.3            1 S1                 0.0000
      9 ****         1.8679  -0.5033   2.5673 F              1 S1                 0.0000
     10 ****         1.7834  -1.6687   0.7540 F              1 S1                 0.0000
     11 ****         1.9891   0.6622   0.5273 C.ar           1 S1                 0.0000
     12 ****         2.4502   1.8231   1.1891 C.ar           1 S1                 0.0000
     13 ****         2.9602   2.8841   0.4164 C.ar           1 S1                 0.0000
     14 ****         2.9900   2.7503  -0.9845 C.ar           1 S1                 0.0000
     15 ****         2.5045   1.5566  -1.5531 C.ar           1 S1                 0.0000
     16 ****         2.0129   0.5341  -0.8215 N.ar           1 S1                 0.0000
     17 ****        -2.6226  -0.0183   0.5531 H              1 S1                 0.0000
     18 ****        -3.9495  -2.1348   0.6095 H              1 S1                 0.0000
     19 ****        -2.6913  -2.1205   1.8377 H              1 S1                 0.0000
     20 ****        -2.4754  -3.0711   0.3733 H              1 S1                 0.0000
     21 ****        -3.6143  -0.5768  -1.5470 H              1 S1                 0.0000
     22 ****        -2.0042   0.0282  -1.8767 H              1 S1                 0.0000
     23 ****        -2.5041  -1.8768  -3.0236 H              1 S1                 0.0000
     24 ****        -0.2190  -1.2883  -0.4871 H              1 S1                 0.0000
     25 ****         2.4110   1.9054   2.2652 H              1 S1                 0.0000
     26 ****         3.3204   3.7853   0.8901 H              1 S1                 0.0000
     27 ****         3.3741   3.5437  -1.6084 H              1 S1                 0.0000
     28 ****         2.5101   1.4197  -2.6244 H              1 S1                 0.0000
     29 ****        -2.8009  -2.7447  -1.7239 LP             1 S1                 0.0000
     30 ****        -1.2943  -2.2018  -2.0433 LP             1 S1                 0.0000
     31 ****        -1.6953   0.1136   2.3285 LP             1 S1                 0.0000
     32 ****        -0.1662   0.3957   3.0917 LP             1 S1                 0.0000
     33 ****         1.6749  -0.2967  -1.2636 LP             1 S1                 0.0000
@<TRIPOS>BOND
    1    1    2 1     
    2    1   18 1     
    3    1   19 1     
    4    1   20 1     
    5    2   17 1     
    6    2    3 1     
    7    2    5 1     
    8    3    4 1     
    9    3   21 1     
   10    3   22 1     
   11    4   23 1     
   12    5    6 am    
   13    5   24 1     
   14    6    7 2     
   15    6    8 1     
   16    8    9 1     
   17    8   10 1     
   18    8   11 1     
   19   11   16 ar    
   20   11   12 ar    
   21   12   13 ar    
   22   12   25 1     
   23   13   14 ar    
   24   13   26 1     
   25   14   15 ar    
   26   14   27 1     
   27   15   16 ar    
   28   15   28 1     
   29    4   29 1     
   30    4   30 1     
   31    7   31 1     
   32    7   32 1     
   33   16   33 1     
@<TRIPOS>SUBSTRUCTURE
      1 S1             1
@<TRIPOS>SET
LONE_PAIRS      STATIC     ATOMS    <user>   **** ""
5 29 30 31 32 33
DONOR_HYDROGENS      STATIC     ATOMS    <user>   **** ""
2 23 24
ATOM$BLUE        STATIC     ATOMS    COLORGROUP SYSTEM
5 29 30 31 32 33
ATOM$RED        STATIC     ATOMS    COLORGROUP SYSTEM
2 23 24
