#       Name:                AV-unprocessed.smi:49
#       Creating user name   scv26
#       Creation time:       Thu Mar 26 16:33:33 2020


#       File generated by GOLD software.
#

@<TRIPOS>MOLECULE
AV-unprocessed.smi:49
    32    33     1
SMALL
NO_CHARGES


@<TRIPOS>ATOM
      1 ****        -4.5093   0.9089   0.1407 C.3            1 S1                 0.0000
      2 ****        -3.7247  -0.3308   0.5836 C.3            1 S1                 0.0000
      3 ****        -2.2490  -0.1007   0.6047 C.2            1 S1                 0.0000
      4 ****        -1.4485  -0.1676  -0.4540 N.2            1 S1                 0.0000
      5 ****        -0.2503   0.1440   0.1250 C.2            1 S1                 0.0000
      6 ****         1.0305   0.1540  -0.6499 C.3            1 S1                 0.0000
      7 ****         1.7617  -1.1911  -0.6346 C.3            1 S1                 0.0000
      8 ****         3.2020  -0.7856  -0.9298 C.3            1 S1                 0.0000
      9 ****         4.1286  -1.7544  -0.4873 O.3            1 S1                 0.0000
     10 ****         3.3507   0.5433  -0.1822 C.3            1 S1                 0.0000
     11 ****         2.0028   1.1456  -0.1432 N.4            1 S1                 1.0000
     12 ****        -0.2803   0.3730   1.4386 N.2            1 S1                 0.0000
     13 ****        -1.5915   0.2199   1.7210 N.pl3          1 S1                 0.0000
     14 ****         0.8150   0.4236  -1.6850 H              1 S1                 0.0000
     15 ****         3.3265  -0.6237  -2.0016 H              1 S1                 0.0000
     16 ****        -1.9743   0.3304   2.6495 H              1 S1                 0.0000
     17 ****        -5.5804   0.7063   0.1276 H              1 S1                 0.0000
     18 ****        -4.2177   1.2222  -0.8621 H              1 S1                 0.0000
     19 ****        -4.3368   1.7462   0.8176 H              1 S1                 0.0000
     20 ****        -4.0515  -0.6422   1.5764 H              1 S1                 0.0000
     21 ****        -3.9381  -1.1630  -0.0882 H              1 S1                 0.0000
     22 ****         1.7034  -1.6354   0.3611 H              1 S1                 0.0000
     23 ****         1.3539  -1.9089  -1.3470 H              1 S1                 0.0000
     24 ****         3.9941  -2.5510  -0.9786 H              1 S1                 0.0000
     25 ****         3.6689   0.3749   0.8477 H              1 S1                 0.0000
     26 ****         4.0755   1.2076  -0.6536 H              1 S1                 0.0000
     27 ****         1.9651   1.9804  -0.7099 H              1 S1                 0.0000
     28 ****         1.7749   1.3733   0.8144 H              1 S1                 0.0000
     29 ****        -1.6626  -0.3848  -1.4064 LP             1 S1                 0.0000
     30 ****         3.9892  -1.9326   0.4867 LP             1 S1                 0.0000
     31 ****         5.0597  -1.4212  -0.6354 LP             1 S1                 0.0000
     32 ****         0.4737   0.5996   2.0551 LP             1 S1                 0.0000
@<TRIPOS>BOND
    1    1    2 1     
    2    1   17 1     
    3    1   18 1     
    4    1   19 1     
    5    2    3 1     
    6    2   20 1     
    7    2   21 1     
    8    3   13 1     
    9    3    4 2     
   10    4    5 1     
   11    5    6 1     
   12    5   12 2     
   13    6   14 1     
   14    6   11 1     
   15    6    7 1     
   16    7    8 1     
   17    7   22 1     
   18    7   23 1     
   19    8   15 1     
   20    8    9 1     
   21    8   10 1     
   22    9   24 1     
   23   10   11 1     
   24   10   25 1     
   25   10   26 1     
   26   11   27 1     
   27   11   28 1     
   28   12   13 1     
   29   13   16 1     
   30    4   29 1     
   31    9   30 1     
   32    9   31 1     
   33   12   32 1     
@<TRIPOS>SUBSTRUCTURE
      1 S1             1
@<TRIPOS>SET
LONE_PAIRS      STATIC     ATOMS    <user>   **** ""
4 29 30 31 32
DONOR_HYDROGENS      STATIC     ATOMS    <user>   **** ""
4 24 27 28 16
ATOM$BLUE        STATIC     ATOMS    COLORGROUP SYSTEM
4 29 30 31 32
ATOM$RED        STATIC     ATOMS    COLORGROUP SYSTEM
4 24 27 28 16
