AV-unprocessed.smi:1732|AV-procd|sdf|6976|dock8
  -GOLD-   22720 8193D 1   1.00000     0.00000
 Structure written by MMmdl.
 36 37  0  0  0  0  0  0  0  0  1 V2000
  151.4632  139.6970  154.7124 O   0  0  0  0  0  0  0  0  0  0  0  0
  150.9695  139.9323  155.8145 C   0  0  0  0  0  0  0  0  0  0  0  0
  150.9089  141.3749  156.3129 C   0  0  0  0  0  0  0  0  0  0  0  0
  151.5637  141.4516  157.5711 O   0  0  0  0  0  0  0  0  0  0  0  0
  151.3736  142.6871  158.2435 C   0  0  0  0  0  0  0  0  0  0  0  0
  151.9757  143.8307  157.4304 C   0  0  0  0  0  0  0  0  0  0  0  0
  152.1712  144.9529  158.4509 C   0  0  0  0  0  0  0  0  0  0  0  0
  152.4260  144.2557  159.7960 C   0  0  0  0  0  0  0  0  0  0  0  0
  152.1228  142.7661  159.5788 C   0  0  0  0  0  0  0  0  0  0  0  0
  150.4322  139.0138  156.6420 N   0  0  0  0  0  0  0  0  0  0  0  0
  150.3600  137.6178  156.5032 C   0  0  0  0  0  0  0  0  0  0  0  0
  149.3852  136.9534  155.8291 C   0  0  0  0  0  0  0  0  0  0  0  0
  149.3828  135.5053  155.7054 C   0  0  0  0  0  0  0  0  0  0  0  0
  148.2444  134.7677  155.0177 C   0  0  0  0  0  0  0  0  0  0  0  0
  147.3678  135.6192  154.4836 F   0  0  0  0  0  0  0  0  0  0  0  0
  148.7043  133.9772  154.0477 F   0  0  0  0  0  0  0  0  0  0  0  0
  147.5990  134.0072  155.9011 F   0  0  0  0  0  0  0  0  0  0  0  0
  150.3966  134.8502  156.3008 C   0  0  0  0  0  0  0  0  0  0  0  0
  151.4141  135.5271  156.9766 N   0  0  0  0  0  0  0  0  0  0  0  0
  151.4684  136.8702  157.1200 C   0  0  0  0  0  0  0  0  0  0  0  0
  152.3994  137.3920  157.7330 O   0  0  0  0  0  0  0  0  0  0  0  0
  152.1481  134.9652  157.3829 H   0  0  0  0  0  0  0  0  0  0  0  0
  151.3929  142.0376  155.5935 H   0  0  0  0  0  0  0  0  0  0  0  0
  149.8638  141.6756  156.3947 H   0  0  0  0  0  0  0  0  0  0  0  0
  150.3109  142.8855  158.3954 H   0  0  0  0  0  0  0  0  0  0  0  0
  152.9448  143.5303  157.0290 H   0  0  0  0  0  0  0  0  0  0  0  0
  151.3458  144.1280  156.5913 H   0  0  0  0  0  0  0  0  0  0  0  0
  152.9824  145.6255  158.1701 H   0  0  0  0  0  0  0  0  0  0  0  0
  151.2598  145.5486  158.5168 H   0  0  0  0  0  0  0  0  0  0  0  0
  153.4574  144.3917  160.1229 H   0  0  0  0  0  0  0  0  0  0  0  0
  151.7820  144.6779  160.5682 H   0  0  0  0  0  0  0  0  0  0  0  0
  151.5543  142.3330  160.4021 H   0  0  0  0  0  0  0  0  0  0  0  0
  153.0621  142.2162  159.5043 H   0  0  0  0  0  0  0  0  0  0  0  0
  149.9978  139.3746  157.4797 H   0  0  0  0  0  0  0  0  0  0  0  0
  148.5874  137.4861  155.3379 H   0  0  0  0  0  0  0  0  0  0  0  0
  150.5040  133.7755  156.3107 H   0  0  0  0  0  0  0  0  0  0  0  0
  1  2  2  0  0  0  0
  2  3  1  0  0  0  0
  2 10  1  0  0  0  0
  3  4  1  0  0  0  0
  3 23  1  0  0  0  0
  3 24  1  0  0  0  0
  4  5  1  0  0  0  0
  5  9  1  0  0  0  0
  5  6  1  0  0  0  0
  5 25  1  0  0  0  0
  6  7  1  0  0  0  0
  6 26  1  0  0  0  0
  6 27  1  0  0  0  0
  7  8  1  0  0  0  0
  7 28  1  0  0  0  0
  7 29  1  0  0  0  0
  8  9  1  0  0  0  0
  8 30  1  0  0  0  0
  8 31  1  0  0  0  0
  9 32  1  0  0  0  0
  9 33  1  0  0  0  0
 10 11  1  0  0  0  0
 10 34  1  0  0  0  0
 11 20  1  0  0  0  0
 11 12  2  0  0  0  0
 12 13  1  0  0  0  0
 12 35  1  0  0  0  0
 13 14  1  0  0  0  0
 13 18  2  0  0  0  0
 14 15  1  0  0  0  0
 14 16  1  0  0  0  0
 14 17  1  0  0  0  0
 18 19  1  0  0  0  0
 18 36  1  0  0  0  0
 19 22  1  0  0  0  0
 19 20  1  0  0  0  0
 20 21  2  0  0  0  0
M  END
> <s_m_source_file>
AV-unprocessed.smi

> <i_m_source_file_index>
1732

> <i_lp_mmshare_version>
43012

> <i_f3d_flags>
0

> <s_epik_input>
W0NIMl0xW0NIMl1bQ0gyXVtDSDJdW0NIXTFPW0NIMl1DKD1PKVtOSF1jMltjSF1jKEMoRikoRilGKVtjSF1bbkhdYzI9Tw==

> <s_epik_cmdline>
J2VwaWtfcHl0aG9uJywgJy1waCcsICc3LjAnLCAnLXRuJywgJzgnLCAnLW1hJywgJzIwMCcsICctbWV0YWxfYmluZGluZycsICctaW1hZScsICc8aW5maWxlLm1hZT4nLCAnLW9tYWUnLCAnPG91dGZpbGUubWFlPic=

> <r_lp_tautomer_probability>
0.999

> <r_epik_Ionization_Penalty>
0.0109735

> <r_epik_Ionization_Penalty_Charging>
0.0109734

> <r_epik_Ionization_Penalty_Neutral>
9.17026e-08

> <r_epik_State_Penalty>
0.0084206

> <r_epik_Charging_Adjusted_Penalty>
0.019394

> <i_epik_Tot_Q>
0

> <i_epik_Tot_abs_Q>
0

> <r_epik_Metal_State_Penalty>
0.328349

> <b_epik_Metal_Only>
0

> <s_lp_Force_Field>
OPLS_2005

> <r_lp_Energy>
36.3652

> <b_lp_Chiralities_Consistent>
1

> <s_lp_Variant>
AV-unprocessed.smi:1732-1

> <Gold.Version>
5.8.1

> <Gold.Id.Protein>
6NUR|6NUR_protein|mol2

> <Gold.PLP.Fitness>
35.1824

> <Gold.PLP.PLP>
-33.7778

> <Gold.PLP.part.hbond>
-1.0000

> <Gold.PLP.part.metal>
0.0000

> <Gold.PLP.part.buried>
-4.6236

> <Gold.PLP.part.nonpolar>
-28.7466

> <Gold.PLP.part.repulsive>
1.3043

> <Gold.PLP.ligand.clash>
0.0000

> <Gold.PLP.ligand.torsion>
0.8322

> <Gold.PLP.Chemscore.Hbond>
1.0000

> <Gold.PLP.Chemscore.CHOScore>
0.0000

> <Gold.PLP.Chemscore.Metal>
0.0000

> <Gold.Chemscore.Hbonds>
donor molecule, donor type, donor heavy atom, donor atom, acceptor molecule, acceptor atom, score
      P1  H  7989  7998       L1     1  1.00

> <Gold.PLP.Chemscore.Internal.Correction>
0.0690

> <Gold.Rescore>
     Score         DG    S(hbond)    S(metal)    S(lipo)     H(rot)  DE(clash)    DE(int)     intcor
     13.96     -14.87       1.00        0.00      86.78       1.60       0.07       0.84       ----

> <Gold.Chemscore.Fitness>
13.9605

> <Gold.Chemscore.DG>
-14.8734

> <Gold.Chemscore.ZeroCoef>
-5.4800

> <Gold.Chemscore.Hbond>
0.9994

> <Gold.Chemscore.Metal>
0.0000

> <Gold.Chemscore.Lipo>
86.7819

> <Gold.Chemscore.Internal_Hbond>
0.0000

> <Gold.Chemscore.DEClash>
0.0701

> <Gold.Chemscore.DEInternal>
0.8428

> <Gold.Chemscore.Rot>
1.6009

> <Gold.Chemscore.Internal.Correction>
   9.000000E+99

> <Gold.Chemscore.Hbonds>
donor molecule, donor type, donor heavy atom, donor atom, acceptor molecule, acceptor atom, score
      P1  H  7989  7998       L1     1  0.99

> <Gold.Chemscore.Hbond.Weighted>
-3.3381

> <Gold.Chemscore.Metal.Weighted>
-0.0000

> <Gold.Chemscore.Lipo.Weighted>
-10.1535

> <Gold.Chemscore.Internal_Hbond.Weighted>
0.0000

> <Gold.Chemscore.DEClash.Weighted>
0.0701

> <Gold.Chemscore.DEInternal.Weighted>
0.8428

> <Gold.Chemscore.Rot.Weighted>
4.0982

> <Gold.Chemscore.Internal.Correction.Weighted>
   9.000000E+99

> <Gold.Protein.RotatedTorsions>
[ 6907 6896 6895 6894 ] final  154.50 input  -60.11 | X-H torsion
[ 7974 7965 7964 7962 ] final   75.38 input  175.53 | X-H torsion
[ 8008 7997 7996 7995 ] final   50.84 input   59.86 | X-H torsion
[ 10167 10162 10161 10158 ] final  146.84 input  -65.29 | X-H torsion
[ 10718 10713 10712 10709 ] final  -85.69 input   66.30 | X-H torsion
[ 10763 10752 10751 10750 ] final  -61.19 input  -60.55 | X-H torsion
[ 11005 11000 10999 10996 ] final  -19.82 input  -57.11 | X-H torsion

> <Gold.Protein.ActiveResidues>
 VAL166  LYS551  ARG553  GLY616  TRP617  ASP618  TYR619  PRO620  LYS621  CYS622 
 ASP623  PHE694  ASN695  SER759  ASP760  ASP761  ALA762  ILE779  LEU786  VAL792 
 PHE793  MET794  SER795  GLU796  ALA797  LYS798  CYS799  TRP800  GLU811  SER814 

> <Gold.Protein.RotatedAtoms>
  152.0576  133.4047  159.4403 H   0  0  0  0  0  0  0  0  0  0  0  0  # atno 6907 bound_to 6896
  150.6867  134.3237  159.4806 H   0  0  0  0  0  0  0  0  0  0  0  0  # atno 6908 bound_to 6896
  152.1054  134.9312  160.0619 H   0  0  0  0  0  0  0  0  0  0  0  0  # atno 6909 bound_to 6896
  145.7164  139.2632  143.1621 H   0  0  0  0  0  0  0  0  0  0  0  0  # atno 7974 bound_to 7965
  155.4254  140.3448  155.4275 H   0  0  0  0  0  0  0  0  0  0  0  0  # atno 8008 bound_to 7997
  156.1368  140.1530  156.9013 H   0  0  0  0  0  0  0  0  0  0  0  0  # atno 8009 bound_to 7997
  154.4938  140.0833  156.7633 H   0  0  0  0  0  0  0  0  0  0  0  0  # atno 8010 bound_to 7997
  139.4900  144.5800  151.6891 H   0  0  0  0  0  0  0  0  0  0  0  0  # atno 10167 bound_to 10162
  155.9995  130.4739  150.4600 H   0  0  0  0  0  0  0  0  0  0  0  0  # atno 10718 bound_to 10713
  154.2807  135.6272  153.5346 H   0  0  0  0  0  0  0  0  0  0  0  0  # atno 10763 bound_to 10752
  152.9866  135.5632  154.5498 H   0  0  0  0  0  0  0  0  0  0  0  0  # atno 10764 bound_to 10752
  154.5088  135.2876  155.1335 H   0  0  0  0  0  0  0  0  0  0  0  0  # atno 10765 bound_to 10752
  140.8404  133.7931  155.9854 H   0  0  0  0  0  0  0  0  0  0  0  0  # atno 11005 bound_to 11000
  146.0666  140.7914  142.9708 LP  0  0  0  0  0  0  0  0  0  0  0  0  # atno 17320 bound_to 7965
  144.6928  140.3278  143.7221 LP  0  0  0  0  0  0  0  0  0  0  0  0  # atno 17321 bound_to 7965
  140.5404  144.0589  150.6086 LP  0  0  0  0  0  0  0  0  0  0  0  0  # atno 17342 bound_to 10162
  140.3609  143.2909  152.0385 LP  0  0  0  0  0  0  0  0  0  0  0  0  # atno 17343 bound_to 10162
  157.2625  131.0570  151.2311 LP  0  0  0  0  0  0  0  0  0  0  0  0  # atno 17370 bound_to 10713
  157.3420  130.7038  149.6387 LP  0  0  0  0  0  0  0  0  0  0  0  0  # atno 17371 bound_to 10713
  140.8902  134.2505  157.5098 LP  0  0  0  0  0  0  0  0  0  0  0  0  # atno 17394 bound_to 11000
  139.8703  134.9657  156.4539 LP  0  0  0  0  0  0  0  0  0  0  0  0  # atno 17395 bound_to 11000

$$$$
