AV-unprocessed.smi:1510|AV-procd|sdf|6097|dock7
  -GOLD-   22720 6223D 1   1.00000     0.00000
 Structure written by MMmdl.
 33 34  0  0  0  0  0  0  0  0  1 V2000
  150.2338  140.4116  154.7802 O   0  0  0  0  0  0  0  0  0  0  0  0
  149.4859  141.3326  155.1121 C   0  0  0  0  0  0  0  0  0  0  0  0
  148.1353  141.5480  154.4126 C   0  0  0  0  0  0  0  0  0  0  0  0
  147.4454  140.2954  154.0720 N   0  0  0  0  0  0  0  0  0  0  0  0
  147.2560  140.1056  152.7115 N   0  0  0  0  0  0  0  0  0  0  0  0
  146.6773  139.0345  152.2846 C   0  0  0  0  0  0  0  0  0  0  0  0
  146.5146  138.8851  150.9293 O   0  0  0  0  0  0  0  0  0  0  0  0
  146.2118  138.0182  153.2023 C   0  0  0  0  0  0  0  0  0  0  0  0
  146.3969  138.2141  154.5260 C   0  0  0  0  0  0  0  0  0  0  0  0
  147.0522  139.4164  155.0445 C   0  0  0  0  0  0  0  0  0  0  0  0
  147.2356  139.6200  156.2445 O   0  0  0  0  0  0  0  0  0  0  0  0
  149.7933  142.2120  156.0754 N   0  0  0  0  0  0  0  0  0  0  0  0
  151.0315  142.1945  156.8414 C   0  0  0  0  0  0  0  0  0  0  0  0
  151.1325  143.4389  157.7338 C   0  0  1  0  0  0  0  0  0  0  0  0
  150.0276  143.5352  158.7830 C   0  0  0  0  0  0  0  0  0  0  0  0
  150.6668  144.4401  159.8115 C   0  0  0  0  0  0  0  0  0  0  0  0
  152.1208  143.9741  159.7860 C   0  0  0  0  0  0  0  0  0  0  0  0
  152.3410  143.4232  158.4891 O   0  0  0  0  0  0  0  0  0  0  0  0
  145.5805  138.8963  150.7869 H   0  0  0  0  0  0  0  0  0  0  0  0
  147.4958  142.1688  155.0430 H   0  0  0  0  0  0  0  0  0  0  0  0
  148.3123  142.1356  153.5100 H   0  0  0  0  0  0  0  0  0  0  0  0
  145.7287  137.1278  152.8277 H   0  0  0  0  0  0  0  0  0  0  0  0
  146.0540  137.4637  155.2231 H   0  0  0  0  0  0  0  0  0  0  0  0
  149.1337  142.9472  156.2853 H   0  0  0  0  0  0  0  0  0  0  0  0
  151.0581  141.2946  157.4580 H   0  0  0  0  0  0  0  0  0  0  0  0
  151.8828  142.1459  156.1606 H   0  0  0  0  0  0  0  0  0  0  0  0
  151.1255  144.3443  157.1243 H   0  0  0  0  0  0  0  0  0  0  0  0
  149.0939  143.9319  158.3835 H   0  0  0  0  0  0  0  0  0  0  0  0
  149.8256  142.5566  159.2213 H   0  0  0  0  0  0  0  0  0  0  0  0
  150.5989  145.4792  159.4862 H   0  0  0  0  0  0  0  0  0  0  0  0
  150.2102  144.3606  160.7985 H   0  0  0  0  0  0  0  0  0  0  0  0
  152.8162  144.7878  159.9939 H   0  0  0  0  0  0  0  0  0  0  0  0
  152.2862  143.1908  160.5265 H   0  0  0  0  0  0  0  0  0  0  0  0
  1  2  2  0  0  0  0
  2  3  1  0  0  0  0
  2 12  1  0  0  0  0
  3 20  1  0  0  0  0
  3 21  1  0  0  0  0
  3  4  1  0  0  0  0
  4  5  1  0  0  0  0
  4 10  1  0  0  0  0
  5  6  2  0  0  0  0
  6  7  1  0  0  0  0
  6  8  1  0  0  0  0
  7 19  1  0  0  0  0
  8 22  1  0  0  0  0
  8  9  2  0  0  0  0
  9 23  1  0  0  0  0
  9 10  1  0  0  0  0
 10 11  2  0  0  0  0
 12 13  1  0  0  0  0
 12 24  1  0  0  0  0
 13 14  1  0  0  0  0
 13 25  1  0  0  0  0
 13 26  1  0  0  0  0
 14 18  1  0  0  0  0
 14 15  1  0  0  0  0
 14 27  1  0  0  0  0
 15 16  1  0  0  0  0
 15 28  1  0  0  0  0
 15 29  1  0  0  0  0
 16 17  1  0  0  0  0
 16 30  1  0  0  0  0
 16 31  1  0  0  0  0
 17 18  1  0  0  0  0
 17 32  1  0  0  0  0
 17 33  1  0  0  0  0
M  END
> <s_m_source_file>
AV-unprocessed.smi

> <i_m_source_file_index>
1510

> <i_lp_mmshare_version>
43012

> <i_f3d_flags>
0

> <s_epik_input>
TzFbQ0gyXVtDSDJdW0NIMl1bQ0BIXTFbQ0gyXVtOSF1DKD1PKVtDSDJdbjJbbkhdYyg9TylbY0hdW2NIXWMyPU8=

> <s_epik_cmdline>
J2VwaWtfcHl0aG9uJywgJy1waCcsICc3LjAnLCAnLXRuJywgJzgnLCAnLW1hJywgJzIwMCcsICctbWV0YWxfYmluZGluZycsICctaW1hZScsICc8aW5maWxlLm1hZT4nLCAnLW9tYWUnLCAnPG91dGZpbGUubWFlPic=

> <r_lp_tautomer_probability>
0.9996

> <r_epik_Ionization_Penalty>
2.13037

> <r_epik_Ionization_Penalty_Charging>
3.76e-08

> <r_epik_Ionization_Penalty_Neutral>
2.13037

> <r_epik_State_Penalty>
1.70753

> <r_epik_Charging_Adjusted_Penalty>
1.70753

> <i_epik_Tot_Q>
0

> <i_epik_Tot_abs_Q>
0

> <r_epik_Metal_State_Penalty>
1.70753

> <b_epik_Metal_Only>
0

> <s_lp_Force_Field>
OPLS_2005

> <r_lp_Energy>
28.362

> <b_lp_Chiralities_Consistent>
1

> <s_lp_Variant>
AV-unprocessed.smi:1510-4

> <Gold.Version>
5.8.1

> <Gold.Id.Protein>
6NUR|6NUR_protein|mol2

> <Gold.PLP.Fitness>
42.3974

> <Gold.PLP.PLP>
-31.9459

> <Gold.PLP.part.hbond>
-4.5287

> <Gold.PLP.part.metal>
0.0000

> <Gold.PLP.part.buried>
-4.9901

> <Gold.PLP.part.nonpolar>
-24.9927

> <Gold.PLP.part.repulsive>
3.4808

> <Gold.PLP.ligand.clash>
0.0000

> <Gold.PLP.ligand.torsion>
0.3540

> <Gold.PLP.Chemscore.Hbond>
3.7190

> <Gold.PLP.Chemscore.CHOScore>
0.0000

> <Gold.PLP.Chemscore.Metal>
0.0000

> <Gold.Chemscore.Hbonds>
donor molecule, donor type, donor heavy atom, donor atom, acceptor molecule, acceptor atom, score
      L1  H     7    19       P1 10171  1.00
      L1  H    12    24       P1  8028  0.69
      P1  H  7954  7966       L1     7  0.51
      P1  H  7989  7998       L1     1  1.00

> <Gold.PLP.Chemscore.Internal.Correction>
0.0025

> <Gold.Rescore>
     Score         DG    S(hbond)    S(metal)    S(lipo)     H(rot)  DE(clash)    DE(int)     intcor
     14.33     -17.18       3.44        0.00      60.68       2.69       1.97       0.87       ----

> <Gold.Chemscore.Fitness>
14.3318

> <Gold.Chemscore.DG>
-17.1771

> <Gold.Chemscore.ZeroCoef>
-5.4800

> <Gold.Chemscore.Hbond>
3.4412

> <Gold.Chemscore.Metal>
0.0000

> <Gold.Chemscore.Lipo>
60.6789

> <Gold.Chemscore.Internal_Hbond>
0.0000

> <Gold.Chemscore.DEClash>
1.9704

> <Gold.Chemscore.DEInternal>
0.8748

> <Gold.Chemscore.Rot>
2.6937

> <Gold.Chemscore.Internal.Correction>
   9.000000E+99

> <Gold.Chemscore.Hbonds>
donor molecule, donor type, donor heavy atom, donor atom, acceptor molecule, acceptor atom, score
      L1  H     7    19       P1 10171  0.97
      L1  H    12    24       P1  8028  0.70
      P1  H  7954  7966       L1     7  0.47
      P1  H  7989  7998       L1     1  0.85

> <Gold.Chemscore.Hbond.Weighted>
-11.4936

> <Gold.Chemscore.Metal.Weighted>
-0.0000

> <Gold.Chemscore.Lipo.Weighted>
-7.0994

> <Gold.Chemscore.Internal_Hbond.Weighted>
0.0000

> <Gold.Chemscore.DEClash.Weighted>
1.9704

> <Gold.Chemscore.DEInternal.Weighted>
0.8748

> <Gold.Chemscore.Rot.Weighted>
6.8959

> <Gold.Chemscore.Internal.Correction.Weighted>
   9.000000E+99

> <Gold.Protein.RotatedTorsions>
[ 6907 6896 6895 6894 ] final  -40.83 input  -60.11 | X-H torsion
[ 7974 7965 7964 7962 ] final  156.36 input  175.53 | X-H torsion
[ 8008 7997 7996 7995 ] final  -42.01 input   59.86 | X-H torsion
[ 10167 10162 10161 10158 ] final   26.64 input  -65.29 | X-H torsion
[ 10718 10713 10712 10709 ] final   27.20 input   66.30 | X-H torsion
[ 10763 10752 10751 10750 ] final  -89.77 input  -60.55 | X-H torsion
[ 11005 11000 10999 10996 ] final -176.44 input  -57.11 | X-H torsion

> <Gold.Protein.ActiveResidues>
 VAL166  LYS551  ARG553  GLY616  TRP617  ASP618  TYR619  PRO620  LYS621  CYS622 
 ASP623  PHE694  ASN695  SER759  ASP760  ASP761  ALA762  ILE779  LEU786  VAL792 
 PHE793  MET794  SER795  GLU796  ALA797  LYS798  CYS799  TRP800  GLU811  SER814 

> <Gold.Protein.RotatedAtoms>
  150.9738  134.9106  159.7803 H   0  0  0  0  0  0  0  0  0  0  0  0  # atno 6907 bound_to 6896
  152.5199  134.3504  159.9259 H   0  0  0  0  0  0  0  0  0  0  0  0  # atno 6908 bound_to 6896
  151.3512  133.3884  159.2715 H   0  0  0  0  0  0  0  0  0  0  0  0  # atno 6909 bound_to 6896
  144.7968  139.7193  143.6198 H   0  0  0  0  0  0  0  0  0  0  0  0  # atno 7974 bound_to 7965
  154.4001  140.1484  156.3284 H   0  0  0  0  0  0  0  0  0  0  0  0  # atno 8008 bound_to 7997
  155.8465  140.3459  155.5644 H   0  0  0  0  0  0  0  0  0  0  0  0  # atno 8009 bound_to 7997
  155.8030  140.0873  157.1937 H   0  0  0  0  0  0  0  0  0  0  0  0  # atno 8010 bound_to 7997
  140.5006  144.0321  150.6331 H   0  0  0  0  0  0  0  0  0  0  0  0  # atno 10167 bound_to 10162
  157.2170  130.6961  149.6253 H   0  0  0  0  0  0  0  0  0  0  0  0  # atno 10718 bound_to 10713
  154.6588  135.5328  153.7992 H   0  0  0  0  0  0  0  0  0  0  0  0  # atno 10763 bound_to 10752
  153.0429  135.6500  154.0904 H   0  0  0  0  0  0  0  0  0  0  0  0  # atno 10764 bound_to 10752
  154.0814  135.2946  155.3269 H   0  0  0  0  0  0  0  0  0  0  0  0  # atno 10765 bound_to 10752
  140.4521  134.6334  157.4806 H   0  0  0  0  0  0  0  0  0  0  0  0  # atno 11005 bound_to 11000
  146.2238  139.5685  142.9600 LP  0  0  0  0  0  0  0  0  0  0  0  0  # atno 17320 bound_to 7965
  145.5653  141.0400  143.2203 LP  0  0  0  0  0  0  0  0  0  0  0  0  # atno 17321 bound_to 7965
  140.3616  143.2905  152.0377 LP  0  0  0  0  0  0  0  0  0  0  0  0  # atno 17342 bound_to 10162
  139.4871  144.6298  151.7092 LP  0  0  0  0  0  0  0  0  0  0  0  0  # atno 17343 bound_to 10162
  155.9685  130.4532  150.5804 LP  0  0  0  0  0  0  0  0  0  0  0  0  # atno 17370 bound_to 10713
  157.3615  131.0750  151.1633 LP  0  0  0  0  0  0  0  0  0  0  0  0  # atno 17371 bound_to 10713
  140.0000  134.6851  155.9546 LP  0  0  0  0  0  0  0  0  0  0  0  0  # atno 17394 bound_to 11000
  141.1659  133.6537  156.4479 LP  0  0  0  0  0  0  0  0  0  0  0  0  # atno 17395 bound_to 11000

$$$$
