#       Name:                AV-unprocessed.smi:671
#       Creating user name   scv26
#       Creation time:       Fri Mar 27 00:24:06 2020


#       File generated by GOLD software.
#

@<TRIPOS>MOLECULE
AV-unprocessed.smi:671
    52    53     1
SMALL
NO_CHARGES


@<TRIPOS>ATOM
      1 ****         4.4025   1.2432   5.3826 C.3            1 S1                 0.0000
      2 ****         4.6525  -0.2372   5.3399 C.2            1 S1                 0.0000
      3 ****         5.2761  -0.8173   6.3519 N.2            1 S1                 0.0000
      4 ****         5.3426  -2.1209   6.0148 N.pl3          1 S1                 0.0000
      5 ****         5.9799  -3.0558   6.9217 C.3            1 S1                 0.0000
      6 ****         4.7651  -2.3640   4.7838 C.2            1 S1                 0.0000
      7 ****         4.7147  -3.7309   4.1802 C.3            1 S1                 0.0000
      8 ****         4.3009  -1.1642   4.3152 C.2            1 S1                 0.0000
      9 ****         3.5854  -0.8802   3.0197 C.3            1 S1                 0.0000
     10 ****         2.1177  -1.3618   3.0422 C.3            1 S1                 0.0000
     11 ****         1.2616  -0.5928   4.0609 C.3            1 S1                 0.0000
     12 ****         1.5106  -1.2250   1.7160 N.am           1 S1                 0.0000
     13 ****         1.6068  -2.0626   0.6669 C.2            1 S1                 0.0000
     14 ****         2.2504  -3.1084   0.7280 O.2            1 S1                 0.0000
     15 ****         0.9342  -1.6677  -0.4269 N.am           1 S1                 0.0000
     16 ****         0.8731  -2.3874  -1.6951 C.3            1 S1                 0.0000
     17 ****        -0.4613  -2.0922  -2.4037 C.3            1 S1                 0.0000
     18 ****        -0.1200  -1.1612  -3.5658 C.3            1 S1                 0.0000
     19 ****         1.2812  -1.5964  -3.9806 C.3            1 S1                 0.0000
     20 ****         1.9878  -1.9166  -2.6584 C.3            1 S1                 0.0000
     21 ****         3.1350  -2.9239  -2.8143 C.3            1 S1                 0.0000
     22 ****         5.1408   1.7787   4.7860 H              1 S1                 0.0000
     23 ****         4.4524   1.6311   6.4005 H              1 S1                 0.0000
     24 ****         3.4166   1.4870   4.9875 H              1 S1                 0.0000
     25 ****         6.9797  -3.2926   6.5582 H              1 S1                 0.0000
     26 ****         5.3949  -3.9737   6.9807 H              1 S1                 0.0000
     27 ****         6.0573  -2.6271   7.9218 H              1 S1                 0.0000
     28 ****         4.3324  -3.6983   3.1606 H              1 S1                 0.0000
     29 ****         4.0636  -4.3856   4.7596 H              1 S1                 0.0000
     30 ****         5.7075  -4.1800   4.1489 H              1 S1                 0.0000
     31 ****         3.6107   0.1848   2.7869 H              1 S1                 0.0000
     32 ****         4.1184  -1.3604   2.1987 H              1 S1                 0.0000
     33 ****         2.0910  -2.4140   3.3308 H              1 S1                 0.0000
     34 ****         1.6358  -0.7240   5.0764 H              1 S1                 0.0000
     35 ****         0.2292  -0.9438   4.0494 H              1 S1                 0.0000
     36 ****         1.2517   0.4763   3.8454 H              1 S1                 0.0000
     37 ****         0.9065  -0.4249   1.5941 H              1 S1                 0.0000
     38 ****         0.4292  -0.7951  -0.3777 H              1 S1                 0.0000
     39 ****         0.9374  -3.4624  -1.5160 H              1 S1                 0.0000
     40 ****        -0.8678  -3.0229  -2.8014 H              1 S1                 0.0000
     41 ****        -1.2210  -1.6696  -1.7447 H              1 S1                 0.0000
     42 ****        -0.8402  -1.2258  -4.3817 H              1 S1                 0.0000
     43 ****        -0.0980  -0.1275  -3.2181 H              1 S1                 0.0000
     44 ****         1.2131  -2.4924  -4.5993 H              1 S1                 0.0000
     45 ****         1.8022  -0.8331  -4.5591 H              1 S1                 0.0000
     46 ****         2.4076  -0.9804  -2.2854 H              1 S1                 0.0000
     47 ****         2.7754  -3.8795  -3.1961 H              1 S1                 0.0000
     48 ****         3.6230  -3.1100  -1.8575 H              1 S1                 0.0000
     49 ****         3.8915  -2.5513  -3.5054 H              1 S1                 0.0000
     50 ****         5.6222  -0.3841   7.1841 LP             1 S1                 0.0000
     51 ****         2.7211  -3.3571   1.5745 LP             1 S1                 0.0000
     52 ****         2.3032  -3.7103  -0.0688 LP             1 S1                 0.0000
@<TRIPOS>BOND
    1    1    2 1     
    2    1   22 1     
    3    1   23 1     
    4    1   24 1     
    5    2    8 1     
    6    2    3 2     
    7    3    4 1     
    8    4    5 1     
    9    4    6 1     
   10    5   25 1     
   11    5   26 1     
   12    5   27 1     
   13    6    7 1     
   14    6    8 2     
   15    7   28 1     
   16    7   29 1     
   17    7   30 1     
   18    8    9 1     
   19    9   10 1     
   20    9   31 1     
   21    9   32 1     
   22   10   11 1     
   23   10   12 1     
   24   10   33 1     
   25   11   34 1     
   26   11   35 1     
   27   11   36 1     
   28   12   13 am    
   29   12   37 1     
   30   13   14 2     
   31   13   15 am    
   32   15   16 1     
   33   15   38 1     
   34   16   20 1     
   35   16   17 1     
   36   16   39 1     
   37   17   18 1     
   38   17   40 1     
   39   17   41 1     
   40   18   19 1     
   41   18   42 1     
   42   18   43 1     
   43   19   20 1     
   44   19   44 1     
   45   19   45 1     
   46   20   21 1     
   47   20   46 1     
   48   21   47 1     
   49   21   48 1     
   50   21   49 1     
   51    3   50 1     
   52   14   51 1     
   53   14   52 1     
@<TRIPOS>SUBSTRUCTURE
      1 S1             1
@<TRIPOS>SET
LONE_PAIRS      STATIC     ATOMS    <user>   **** ""
3 50 51 52
DONOR_HYDROGENS      STATIC     ATOMS    <user>   **** ""
2 37 38
ATOM$BLUE        STATIC     ATOMS    COLORGROUP SYSTEM
3 50 51 52
ATOM$RED        STATIC     ATOMS    COLORGROUP SYSTEM
2 37 38
