#       Name:                AV-unprocessed.smi:2130
#       Creating user name   scv26
#       Creation time:       Fri Mar 27 11:43:54 2020


#       File generated by GOLD software.
#

@<TRIPOS>MOLECULE
AV-unprocessed.smi:2130
    36    37     1
SMALL
NO_CHARGES


@<TRIPOS>ATOM
      1 ****        -2.2709   1.4973   2.8715 C.3            1 S1                 0.0000
      2 ****        -2.6421   2.2253   1.5911 C.2            1 S1                 0.0000
      3 ****        -3.2058   3.4358   1.5203 C.2            1 S1                 0.0000
      4 ****        -3.4536   3.9714  -0.1238 S.3            1 S1                 0.0000
      5 ****        -2.7347   2.4404  -0.7397 C.2            1 S1                 0.0000
      6 ****        -2.6145   2.1948  -1.9390 O.2            1 S1                 0.0000
      7 ****        -2.3711   1.6425   0.3450 N.am           1 S1                 0.0000
      8 ****        -1.7684   0.3130   0.1804 C.3            1 S1                 0.0000
      9 ****        -0.2487   0.3653  -0.0232 C.2            1 S1                 0.0000
     10 ****         0.4089   1.3289   0.3724 O.2            1 S1                 0.0000
     11 ****         0.2973  -0.6985  -0.6327 N.am           1 S1                 0.0000
     12 ****         1.7166  -0.8773  -0.9227 C.3            1 S1                 0.0000
     13 ****         2.0839  -0.1325  -2.2167 C.3            1 S1                 0.0000
     14 ****         2.1062  -2.3407  -1.0134 C.3            1 S1                 0.0000
     15 ****         2.4837  -3.1255   0.2200 C.3            1 S1                 0.0000
     16 ****         3.5359  -2.7824  -0.8108 C.3            1 S1                 0.0000
     17 ****        -2.2554   2.1915   3.7120 H              1 S1                 0.0000
     18 ****        -1.2818   1.0443   2.8042 H              1 S1                 0.0000
     19 ****        -3.0012   0.7179   3.0898 H              1 S1                 0.0000
     20 ****        -3.4861   4.0615   2.3549 H              1 S1                 0.0000
     21 ****        -1.9936  -0.3339   1.0276 H              1 S1                 0.0000
     22 ****        -2.2225  -0.1774  -0.6826 H              1 S1                 0.0000
     23 ****        -0.3194  -1.4451  -0.9191 H              1 S1                 0.0000
     24 ****         2.2944  -0.4386  -0.1065 H              1 S1                 0.0000
     25 ****         3.1493  -0.2222  -2.4305 H              1 S1                 0.0000
     26 ****         1.8557   0.9312  -2.1424 H              1 S1                 0.0000
     27 ****         1.5388  -0.5309  -3.0731 H              1 S1                 0.0000
     28 ****         1.5514  -2.8906  -1.7720 H              1 S1                 0.0000
     29 ****         2.5192  -2.5941   1.1690 H              1 S1                 0.0000
     30 ****         2.1522  -4.1604   0.2768 H              1 S1                 0.0000
     31 ****         3.9060  -3.5887  -1.4406 H              1 S1                 0.0000
     32 ****         4.2694  -2.0238  -0.5450 H              1 S1                 0.0000
     33 ****        -2.9227   2.8602  -2.6190 LP             1 S1                 0.0000
     34 ****        -2.2085   1.3299  -2.2340 LP             1 S1                 0.0000
     35 ****        -0.0473   2.0904   0.8330 LP             1 S1                 0.0000
     36 ****         1.3989   1.3498   0.2329 LP             1 S1                 0.0000
@<TRIPOS>BOND
    1    1    2 1     
    2    1   17 1     
    3    1   18 1     
    4    1   19 1     
    5    2    7 1     
    6    2    3 2     
    7    3    4 1     
    8    3   20 1     
    9    4    5 1     
   10    5    6 2     
   11    5    7 am    
   12    7    8 1     
   13    8    9 1     
   14    8   21 1     
   15    8   22 1     
   16    9   10 2     
   17    9   11 am    
   18   11   12 1     
   19   11   23 1     
   20   12   13 1     
   21   12   14 1     
   22   12   24 1     
   23   13   25 1     
   24   13   26 1     
   25   13   27 1     
   26   14   16 1     
   27   14   15 1     
   28   14   28 1     
   29   15   16 1     
   30   15   29 1     
   31   15   30 1     
   32   16   31 1     
   33   16   32 1     
   34    6   33 1     
   35    6   34 1     
   36   10   35 1     
   37   10   36 1     
@<TRIPOS>SUBSTRUCTURE
      1 S1             1
@<TRIPOS>SET
LONE_PAIRS      STATIC     ATOMS    <user>   **** ""
4 33 34 35 36
DONOR_HYDROGENS      STATIC     ATOMS    <user>   **** ""
1 23
ATOM$BLUE        STATIC     ATOMS    COLORGROUP SYSTEM
4 33 34 35 36
ATOM$RED        STATIC     ATOMS    COLORGROUP SYSTEM
1 23
