AV-unprocessed.smi:1788|AV-procd|sdf|7212|dock5
  -GOLD-   22720 8453D 1   1.00000     0.00000
 Structure written by MMmdl.
 55 57  0  0  0  0  0  0  0  0  2 V2000
  148.3931  133.3485  153.1956 C   0  0  0  0  0  0  0  0  0  0  0  0
  146.8621  133.2081  153.1339 C   0  0  2  0  0  0  0  0  0  0  0  0
  146.3971  132.2767  151.9997 C   0  0  0  0  0  0  0  0  0  0  0  0
  146.5300  132.9595  150.6319 C   0  0  0  0  0  0  0  0  0  0  0  0
  145.8012  134.3114  150.6212 C   0  0  0  0  0  0  0  0  0  0  0  0
  146.2987  135.1989  151.7037 N   0  3  1  0  0  0  0  0  0  0  0  0
  145.7113  136.5622  151.6254 C   0  0  0  0  0  0  0  0  0  0  0  0
  145.7752  137.3357  152.9571 C   0  0  0  0  0  0  0  0  0  0  0  0
  147.0932  137.9247  153.1837 N   0  0  0  0  0  0  0  0  0  0  0  0
  147.4032  138.7733  154.1741 C   0  0  0  0  0  0  0  0  0  0  0  0
  146.5849  139.1778  154.9983 O   0  0  0  0  0  0  0  0  0  0  0  0
  148.7106  139.0823  154.1610 N   0  0  0  0  0  0  0  0  0  0  0  0
  149.4280  139.9060  155.0698 C   0  0  0  0  0  0  0  0  0  0  0  0
  150.8247  139.7454  155.1495 C   0  0  0  0  0  0  0  0  0  0  0  0
  151.5629  140.5607  156.0279 C   0  0  0  0  0  0  0  0  0  0  0  0
  150.8858  141.5321  156.8024 C   0  0  0  0  0  0  0  0  0  0  0  0
  151.6064  142.3667  157.6850 N   0  0  0  0  0  0  0  0  0  0  0  0
  151.5191  143.7989  157.4090 C   0  0  0  0  0  0  0  0  0  0  0  0
  152.5610  144.5711  158.2372 C   0  0  0  0  0  0  0  0  0  0  0  0
  152.4049  144.2643  159.6185 O   0  0  0  0  0  0  0  0  0  0  0  0
  152.6096  142.8798  159.8781 C   0  0  0  0  0  0  0  0  0  0  0  0
  151.5658  142.0495  159.1119 C   0  0  0  0  0  0  0  0  0  0  0  0
  149.5418  141.6897  156.7205 N   0  0  0  0  0  0  0  0  0  0  0  0
  148.8369  140.9066  155.8770 C   0  0  0  0  0  0  0  0  0  0  0  0
  146.1452  134.5733  153.0454 C   0  0  0  0  0  0  0  0  0  0  0  0
  148.7943  133.8507  152.3152 H   0  0  0  0  0  0  0  0  0  0  0  0
  148.8735  132.3723  153.2689 H   0  0  0  0  0  0  0  0  0  0  0  0
  148.6967  133.9243  154.0704 H   0  0  0  0  0  0  0  0  0  0  0  0
  146.5621  132.7443  154.0746 H   0  0  0  0  0  0  0  0  0  0  0  0
  146.9595  131.3425  152.0144 H   0  0  0  0  0  0  0  0  0  0  0  0
  145.3528  132.0062  152.1623 H   0  0  0  0  0  0  0  0  0  0  0  0
  147.5827  133.1058  150.3875 H   0  0  0  0  0  0  0  0  0  0  0  0
  146.1229  132.3127  149.8543 H   0  0  0  0  0  0  0  0  0  0  0  0
  145.9553  134.7881  149.6522 H   0  0  0  0  0  0  0  0  0  0  0  0
  144.7261  134.1629  150.7355 H   0  0  0  0  0  0  0  0  0  0  0  0
  146.2598  137.1443  150.8832 H   0  0  0  0  0  0  0  0  0  0  0  0
  144.6835  136.5049  151.2642 H   0  0  0  0  0  0  0  0  0  0  0  0
  145.0456  138.1456  152.9374 H   0  0  0  0  0  0  0  0  0  0  0  0
  145.4806  136.6958  153.7901 H   0  0  0  0  0  0  0  0  0  0  0  0
  147.8277  137.6529  152.5459 H   0  0  0  0  0  0  0  0  0  0  0  0
  149.2732  138.6155  153.4646 H   0  0  0  0  0  0  0  0  0  0  0  0
  151.3287  139.0004  154.5512 H   0  0  0  0  0  0  0  0  0  0  0  0
  152.6311  140.4234  156.1049 H   0  0  0  0  0  0  0  0  0  0  0  0
  151.6748  144.0179  156.3537 H   0  0  0  0  0  0  0  0  0  0  0  0
  150.5149  144.1437  157.6593 H   0  0  0  0  0  0  0  0  0  0  0  0
  153.5740  144.3277  157.9121 H   0  0  0  0  0  0  0  0  0  0  0  0
  152.4312  145.6441  158.0960 H   0  0  0  0  0  0  0  0  0  0  0  0
  153.6230  142.5906  159.5942 H   0  0  0  0  0  0  0  0  0  0  0  0
  152.5169  142.7024  160.9497 H   0  0  0  0  0  0  0  0  0  0  0  0
  150.5675  142.2576  159.4995 H   0  0  0  0  0  0  0  0  0  0  0  0
  151.7634  140.9882  159.2686 H   0  0  0  0  0  0  0  0  0  0  0  0
  147.7793  141.1162  155.8472 H   0  0  0  0  0  0  0  0  0  0  0  0
  145.0820  134.4412  153.2533 H   0  0  0  0  0  0  0  0  0  0  0  0
  146.5299  135.2364  153.8201 H   0  0  0  0  0  0  0  0  0  0  0  0
  147.2904  135.3075  151.5447 H   0  0  0  0  0  0  0  0  0  0  0  0
  1  2  1  0  0  0  0
  1 26  1  0  0  0  0
  1 27  1  0  0  0  0
  1 28  1  0  0  0  0
  2 25  1  0  0  0  0
  2  3  1  0  0  0  0
  2 29  1  0  0  0  0
  3  4  1  0  0  0  0
  3 30  1  0  0  0  0
  3 31  1  0  0  0  0
  4  5  1  0  0  0  0
  4 32  1  0  0  0  0
  4 33  1  0  0  0  0
  5  6  1  0  0  0  0
  5 34  1  0  0  0  0
  5 35  1  0  0  0  0
  6  7  1  0  0  0  0
  6 25  1  0  0  0  0
  6 55  1  0  0  0  0
  7  8  1  0  0  0  0
  7 36  1  0  0  0  0
  7 37  1  0  0  0  0
  8  9  1  0  0  0  0
  8 38  1  0  0  0  0
  8 39  1  0  0  0  0
  9 10  1  0  0  0  0
  9 40  1  0  0  0  0
 10 11  2  0  0  0  0
 10 12  1  0  0  0  0
 12 13  1  0  0  0  0
 12 41  1  0  0  0  0
 13 24  1  0  0  0  0
 13 14  2  0  0  0  0
 14 15  1  0  0  0  0
 14 42  1  0  0  0  0
 15 16  2  0  0  0  0
 15 43  1  0  0  0  0
 16 17  1  0  0  0  0
 16 23  1  0  0  0  0
 17 22  1  0  0  0  0
 17 18  1  0  0  0  0
 18 19  1  0  0  0  0
 18 44  1  0  0  0  0
 18 45  1  0  0  0  0
 19 20  1  0  0  0  0
 19 46  1  0  0  0  0
 19 47  1  0  0  0  0
 20 21  1  0  0  0  0
 21 22  1  0  0  0  0
 21 48  1  0  0  0  0
 21 49  1  0  0  0  0
 22 50  1  0  0  0  0
 22 51  1  0  0  0  0
 23 24  2  0  0  0  0
 24 52  1  0  0  0  0
 25 53  1  0  0  0  0
 25 54  1  0  0  0  0
M  CHG  1   6   1
M  END
> <s_m_source_file>
AV-unprocessed.smi

> <i_m_source_file_index>
1788

> <i_lp_mmshare_version>
43012

> <i_f3d_flags>
0

> <s_epik_input>
W0NIM11bQ0BASF0xW0NIMl1bQ0gyXVtDSDJdTihbQ0gyXTEpW0NIMl1bQ0gyXVtOSF1DKD1PKVtOSF1jMltjSF1bY0hdYyhuW2NIXTIpTjNbQ0gyXVtDSDJdT1tDSDJdW0NIMl0z

> <s_epik_cmdline>
J2VwaWtfcHl0aG9uJywgJy1waCcsICc3LjAnLCAnLXRuJywgJzgnLCAnLW1hJywgJzIwMCcsICctbWV0YWxfYmluZGluZycsICctaW1hZScsICc8aW5maWxlLm1hZT4nLCAnLW9tYWUnLCAnPG91dGZpbGUubWFlPic=

> <r_lp_tautomer_probability>
1

> <r_epik_Ionization_Penalty>
0.00340126

> <r_epik_Ionization_Penalty_Charging>
0.00171832

> <r_epik_Ionization_Penalty_Neutral>
0.00168294

> <r_epik_State_Penalty>
-0

> <r_epik_Charging_Adjusted_Penalty>
0.00171832

> <i_epik_Tot_Q>
1

> <i_epik_Tot_abs_Q>
1

> <r_epik_Metal_State_Penalty>
-0

> <b_epik_Metal_Only>
0

> <s_lp_Force_Field>
OPLS_2005

> <r_lp_Energy>
41.5568

> <b_lp_Chiralities_Consistent>
1

> <s_lp_Variant>
AV-unprocessed.smi:1788-3

> <Gold.Version>
5.8.1

> <Gold.Id.Protein>
6NUR|6NUR_protein|mol2

> <Gold.PLP.Fitness>
51.5957

> <Gold.PLP.PLP>
-43.7424

> <Gold.PLP.part.hbond>
-2.0492

> <Gold.PLP.part.metal>
0.0000

> <Gold.PLP.part.buried>
-3.3994

> <Gold.PLP.part.nonpolar>
-38.7082

> <Gold.PLP.part.repulsive>
0.3170

> <Gold.PLP.ligand.clash>
0.0000

> <Gold.PLP.ligand.torsion>
0.7444

> <Gold.PLP.Chemscore.Hbond>
2.9920

> <Gold.PLP.Chemscore.CHOScore>
0.0000

> <Gold.PLP.Chemscore.Metal>
0.0000

> <Gold.Chemscore.Hbonds>
donor molecule, donor type, donor heavy atom, donor atom, acceptor molecule, acceptor atom, score
      L1  H     6    55       P1  7948  2.00
      L1  H     9    40       P1  7948  0.98

> <Gold.PLP.Chemscore.Internal.Correction>
0.3662

> <Gold.Rescore>
     Score         DG    S(hbond)    S(metal)    S(lipo)     H(rot)  DE(clash)    DE(int)     intcor
     19.10     -21.15       1.85        0.00     115.97       1.60       0.19       1.86       ----

> <Gold.Chemscore.Fitness>
19.0965

> <Gold.Chemscore.DG>
-21.1483

> <Gold.Chemscore.ZeroCoef>
-5.4800

> <Gold.Chemscore.Hbond>
1.8532

> <Gold.Chemscore.Metal>
0.0000

> <Gold.Chemscore.Lipo>
115.9697

> <Gold.Chemscore.Internal_Hbond>
0.0000

> <Gold.Chemscore.DEClash>
0.1927

> <Gold.Chemscore.DEInternal>
1.8591

> <Gold.Chemscore.Rot>
1.5976

> <Gold.Chemscore.Internal.Correction>
   9.000000E+99

> <Gold.Chemscore.Hbonds>
donor molecule, donor type, donor heavy atom, donor atom, acceptor molecule, acceptor atom, score
      L1  H     6    55       P1  7948  0.90
      L1  H     9    40       P1  7948  0.93

> <Gold.Chemscore.Hbond.Weighted>
-6.1898

> <Gold.Chemscore.Metal.Weighted>
-0.0000

> <Gold.Chemscore.Lipo.Weighted>
-13.5685

> <Gold.Chemscore.Internal_Hbond.Weighted>
0.0000

> <Gold.Chemscore.DEClash.Weighted>
0.1927

> <Gold.Chemscore.DEInternal.Weighted>
1.8591

> <Gold.Chemscore.Rot.Weighted>
4.0899

> <Gold.Chemscore.Internal.Correction.Weighted>
   9.000000E+99

> <Gold.Protein.RotatedTorsions>
[ 6907 6896 6895 6894 ] final   15.66 input  -60.11 | X-H torsion
[ 7974 7965 7964 7962 ] final   90.62 input  175.53 | X-H torsion
[ 8008 7997 7996 7995 ] final  149.13 input   59.86 | X-H torsion
[ 10167 10162 10161 10158 ] final  -58.10 input  -65.29 | X-H torsion
[ 10718 10713 10712 10709 ] final -148.98 input   66.30 | X-H torsion
[ 10763 10752 10751 10750 ] final  -62.26 input  -60.55 | X-H torsion
[ 11005 11000 10999 10996 ] final -165.51 input  -57.11 | X-H torsion

> <Gold.Protein.ActiveResidues>
 VAL166  LYS551  ARG553  GLY616  TRP617  ASP618  TYR619  PRO620  LYS621  CYS622 
 ASP623  PHE694  ASN695  SER759  ASP760  ASP761  ALA762  ILE779  LEU786  VAL792 
 PHE793  MET794  SER795  GLU796  ALA797  LYS798  CYS799  TRP800  GLU811  SER814 

> <Gold.Protein.RotatedAtoms>
  151.8216  135.0650  160.0425 H   0  0  0  0  0  0  0  0  0  0  0  0  # atno 6907 bound_to 6896
  152.2947  133.5591  159.5588 H   0  0  0  0  0  0  0  0  0  0  0  0  # atno 6908 bound_to 6896
  150.7245  134.0295  159.3770 H   0  0  0  0  0  0  0  0  0  0  0  0  # atno 6909 bound_to 6896
  145.5166  139.2278  143.2695 H   0  0  0  0  0  0  0  0  0  0  0  0  # atno 7974 bound_to 7965
  156.2766  140.2110  156.5809 H   0  0  0  0  0  0  0  0  0  0  0  0  # atno 8008 bound_to 7997
  154.7059  140.0516  157.0527 H   0  0  0  0  0  0  0  0  0  0  0  0  # atno 8009 bound_to 7997
  155.0671  140.3173  155.4645 H   0  0  0  0  0  0  0  0  0  0  0  0  # atno 8010 bound_to 7997
  140.6218  143.2422  151.5462 H   0  0  0  0  0  0  0  0  0  0  0  0  # atno 10167 bound_to 10162
  156.4272  130.8058  151.2283 H   0  0  0  0  0  0  0  0  0  0  0  0  # atno 10718 bound_to 10713
  154.2972  135.6242  153.5409 H   0  0  0  0  0  0  0  0  0  0  0  0  # atno 10763 bound_to 10752
  152.9845  135.5670  154.5325 H   0  0  0  0  0  0  0  0  0  0  0  0  # atno 10764 bound_to 10752
  154.4947  135.2869  155.1444 H   0  0  0  0  0  0  0  0  0  0  0  0  # atno 10765 bound_to 10752
  140.5749  134.5200  157.5168 H   0  0  0  0  0  0  0  0  0  0  0  0  # atno 11005 bound_to 11000
  146.2133  140.5975  142.9050 LP  0  0  0  0  0  0  0  0  0  0  0  0  # atno 17320 bound_to 7965
  144.7699  140.5613  143.6677 LP  0  0  0  0  0  0  0  0  0  0  0  0  # atno 17321 bound_to 7965
  139.5445  144.2558  152.1415 LP  0  0  0  0  0  0  0  0  0  0  0  0  # atno 17342 bound_to 10162
  140.1780  144.4872  150.6543 LP  0  0  0  0  0  0  0  0  0  0  0  0  # atno 17343 bound_to 10162
  157.7508  131.0209  150.3730 LP  0  0  0  0  0  0  0  0  0  0  0  0  # atno 17370 bound_to 10713
  156.4060  130.3925  149.6926 LP  0  0  0  0  0  0  0  0  0  0  0  0  # atno 17371 bound_to 10713
  139.9344  134.7903  156.0842 LP  0  0  0  0  0  0  0  0  0  0  0  0  # atno 17394 bound_to 11000
  141.1033  133.6669  156.2804 LP  0  0  0  0  0  0  0  0  0  0  0  0  # atno 17395 bound_to 11000

$$$$
