AV-unprocessed.smi:1740|AV-procd|sdf|7008|dock3
  -GOLD-   22720 8223D 1   1.00000     0.00000
 Structure written by MMmdl.
 52 54  0  0  0  0  0  0  0  0  2 V2000
  146.2805  136.2221  151.5942 N   0  0  0  0  0  0  0  0  0  0  0  0
  145.4901  135.3673  152.2468 C   0  0  0  0  0  0  0  0  0  0  0  0
  144.2818  135.5574  152.3731 O   0  0  0  0  0  0  0  0  0  0  0  0
  146.1551  134.1125  152.8225 C   0  0  0  0  0  0  0  0  0  0  0  0
  147.4600  134.3931  153.4751 N   0  3  2  0  0  0  0  0  0  0  0  0
  148.1127  133.1739  154.0237 C   0  0  0  0  0  0  0  0  0  0  0  0
  149.5202  133.4908  154.5601 C   0  0  0  0  0  0  0  0  0  0  0  0
  149.4969  134.6172  155.6112 C   0  0  2  0  0  0  0  0  0  0  0  0
  148.8850  134.1733  156.8632 N   0  0  0  0  0  0  0  0  0  0  0  0
  148.8055  134.8986  157.9879 C   0  0  0  0  0  0  0  0  0  0  0  0
  149.2553  136.0391  158.0940 O   0  0  0  0  0  0  0  0  0  0  0  0
  148.1664  134.2197  158.9551 N   0  0  0  0  0  0  0  0  0  0  0  0
  147.8044  134.6649  160.2585 C   0  0  0  0  0  0  0  0  0  0  0  0
  147.9780  136.0116  160.6630 C   0  0  0  0  0  0  0  0  0  0  0  0
  147.6651  136.3817  161.9821 C   0  0  0  0  0  0  0  0  0  0  0  0
  147.2036  135.3872  162.8600 C   0  0  0  0  0  0  0  0  0  0  0  0
  147.0468  134.0991  162.4958 N   0  0  0  0  0  0  0  0  0  0  0  0
  147.3304  133.7290  161.2226 C   0  0  0  0  0  0  0  0  0  0  0  0
  147.1336  132.3678  160.8939 N   0  0  0  0  0  0  0  0  0  0  0  0
  145.7646  131.8603  160.8736 C   0  0  0  0  0  0  0  0  0  0  0  0
  145.8261  130.4236  161.4037 C   0  0  0  0  0  0  0  0  0  0  0  0
  147.2842  130.0242  161.1988 C   0  0  0  0  0  0  0  0  0  0  0  0
  148.0174  131.3410  161.4358 C   0  0  0  0  0  0  0  0  0  0  0  0
  148.7500  135.8391  155.0496 C   0  0  0  0  0  0  0  0  0  0  0  0
  147.3622  135.4666  154.4967 C   0  0  0  0  0  0  0  0  0  0  0  0
  145.8861  137.0605  151.1910 H   0  0  0  0  0  0  0  0  0  0  0  0
  147.2672  136.0303  151.4968 H   0  0  0  0  0  0  0  0  0  0  0  0
  145.4594  133.7016  153.5554 H   0  0  0  0  0  0  0  0  0  0  0  0
  146.2789  133.3532  152.0483 H   0  0  0  0  0  0  0  0  0  0  0  0
  147.4932  132.7520  154.8166 H   0  0  0  0  0  0  0  0  0  0  0  0
  148.1920  132.4099  153.2498 H   0  0  0  0  0  0  0  0  0  0  0  0
  149.9751  132.5900  154.9738 H   0  0  0  0  0  0  0  0  0  0  0  0
  150.1565  133.7929  153.7272 H   0  0  0  0  0  0  0  0  0  0  0  0
  150.5239  134.9209  155.8230 H   0  0  0  0  0  0  0  0  0  0  0  0
  148.4788  133.2492  156.8703 H   0  0  0  0  0  0  0  0  0  0  0  0
  147.7896  133.3211  158.6917 H   0  0  0  0  0  0  0  0  0  0  0  0
  148.3675  136.7624  159.9932 H   0  0  0  0  0  0  0  0  0  0  0  0
  147.7887  137.4012  162.3162 H   0  0  0  0  0  0  0  0  0  0  0  0
  146.9603  135.6298  163.8839 H   0  0  0  0  0  0  0  0  0  0  0  0
  145.0884  132.4756  161.4690 H   0  0  0  0  0  0  0  0  0  0  0  0
  145.4044  131.8597  159.8447 H   0  0  0  0  0  0  0  0  0  0  0  0
  145.5921  130.4158  162.4690 H   0  0  0  0  0  0  0  0  0  0  0  0
  145.1259  129.7560  160.9008 H   0  0  0  0  0  0  0  0  0  0  0  0
  147.6092  129.2292  161.8702 H   0  0  0  0  0  0  0  0  0  0  0  0
  147.4392  129.6889  160.1722 H   0  0  0  0  0  0  0  0  0  0  0  0
  148.9920  131.3566  160.9474 H   0  0  0  0  0  0  0  0  0  0  0  0
  148.1673  131.4833  162.5067 H   0  0  0  0  0  0  0  0  0  0  0  0
  148.6549  136.6099  155.8156 H   0  0  0  0  0  0  0  0  0  0  0  0
  149.3433  136.2820  154.2484 H   0  0  0  0  0  0  0  0  0  0  0  0
  146.9074  136.3540  154.0550 H   0  0  0  0  0  0  0  0  0  0  0  0
  146.7036  135.1433  155.3044 H   0  0  0  0  0  0  0  0  0  0  0  0
  148.0643  134.7476  152.7470 H   0  0  0  0  0  0  0  0  0  0  0  0
  1  2  1  0  0  0  0
  1 26  1  0  0  0  0
  1 27  1  0  0  0  0
  2  3  2  0  0  0  0
  2  4  1  0  0  0  0
  4  5  1  0  0  0  0
  4 28  1  0  0  0  0
  4 29  1  0  0  0  0
  5 25  1  0  0  0  0
  5  6  1  0  0  0  0
  5 52  1  0  0  0  0
  6  7  1  0  0  0  0
  6 30  1  0  0  0  0
  6 31  1  0  0  0  0
  7  8  1  0  0  0  0
  7 32  1  0  0  0  0
  7 33  1  0  0  0  0
  8  9  1  0  0  0  0
  8 24  1  0  0  0  0
  8 34  1  0  0  0  0
  9 10  1  0  0  0  0
  9 35  1  0  0  0  0
 10 11  2  0  0  0  0
 10 12  1  0  0  0  0
 12 13  1  0  0  0  0
 12 36  1  0  0  0  0
 13 18  1  0  0  0  0
 13 14  2  0  0  0  0
 14 15  1  0  0  0  0
 14 37  1  0  0  0  0
 15 16  2  0  0  0  0
 15 38  1  0  0  0  0
 16 17  1  0  0  0  0
 16 39  1  0  0  0  0
 17 18  2  0  0  0  0
 18 19  1  0  0  0  0
 19 23  1  0  0  0  0
 19 20  1  0  0  0  0
 20 21  1  0  0  0  0
 20 40  1  0  0  0  0
 20 41  1  0  0  0  0
 21 22  1  0  0  0  0
 21 42  1  0  0  0  0
 21 43  1  0  0  0  0
 22 23  1  0  0  0  0
 22 44  1  0  0  0  0
 22 45  1  0  0  0  0
 23 46  1  0  0  0  0
 23 47  1  0  0  0  0
 24 25  1  0  0  0  0
 24 48  1  0  0  0  0
 24 49  1  0  0  0  0
 25 50  1  0  0  0  0
 25 51  1  0  0  0  0
M  CHG  1   5   1
M  END
> <s_m_source_file>
AV-unprocessed.smi

> <i_m_source_file_index>
1740

> <i_lp_mmshare_version>
43012

> <i_f3d_flags>
0

> <s_epik_input>
W05IMl1DKD1PKVtDSDJdTjFbQ0gyXVtDSDJdW0NIXShbQ0gyXVtDSDJdMSlbTkhdQyg9TylbTkhdYzJbY0hdW2NIXVtjSF1uYzJOM1tDSDJdW0NIMl1bQ0gyXVtDSDJdMw==

> <s_epik_cmdline>
J2VwaWtfcHl0aG9uJywgJy1waCcsICc3LjAnLCAnLXRuJywgJzgnLCAnLW1hJywgJzIwMCcsICctbWV0YWxfYmluZGluZycsICctaW1hZScsICc8aW5maWxlLm1hZT4nLCAnLW9tYWUnLCAnPG91dGZpbGUubWFlPic=

> <r_lp_tautomer_probability>
1

> <r_epik_Ionization_Penalty>
0.91661

> <r_epik_Ionization_Penalty_Charging>
0.838844

> <r_epik_Ionization_Penalty_Neutral>
0.0777664

> <r_epik_State_Penalty>
0.927046

> <r_epik_Charging_Adjusted_Penalty>
1.76589

> <i_epik_Tot_Q>
1

> <i_epik_Tot_abs_Q>
1

> <r_epik_Metal_State_Penalty>
0.950555

> <b_epik_Metal_Only>
0

> <s_lp_Force_Field>
OPLS_2005

> <r_lp_Energy>
41.6121

> <b_lp_Chiralities_Consistent>
1

> <s_lp_Variant>
AV-unprocessed.smi:1740-3

> <Gold.Version>
5.8.1

> <Gold.Id.Protein>
6NUR|6NUR_protein|mol2

> <Gold.PLP.Fitness>
42.5474

> <Gold.PLP.PLP>
-34.0605

> <Gold.PLP.part.hbond>
-2.0000

> <Gold.PLP.part.metal>
0.0000

> <Gold.PLP.part.buried>
-4.6361

> <Gold.PLP.part.nonpolar>
-27.1023

> <Gold.PLP.part.repulsive>
0.3244

> <Gold.PLP.ligand.clash>
0.0000

> <Gold.PLP.ligand.torsion>
0.4373

> <Gold.PLP.Chemscore.Hbond>
3.0000

> <Gold.PLP.Chemscore.CHOScore>
0.0000

> <Gold.PLP.Chemscore.Metal>
0.0000

> <Gold.Chemscore.Hbonds>
donor molecule, donor type, donor heavy atom, donor atom, acceptor molecule, acceptor atom, score
      L1  H     1    27       P1  7948  1.00
      L1  H     5    52       P1  7948  2.00

> <Gold.PLP.Chemscore.Internal.Correction>
0.3615

> <Gold.Rescore>
     Score         DG    S(hbond)    S(metal)    S(lipo)     H(rot)  DE(clash)    DE(int)     intcor
     13.44     -15.01       1.96        0.00      73.48       2.19       0.01       1.56       ----

> <Gold.Chemscore.Fitness>
13.4392

> <Gold.Chemscore.DG>
-15.0143

> <Gold.Chemscore.ZeroCoef>
-5.4800

> <Gold.Chemscore.Hbond>
1.9622

> <Gold.Chemscore.Metal>
0.0000

> <Gold.Chemscore.Lipo>
73.4788

> <Gold.Chemscore.Internal_Hbond>
0.0000

> <Gold.Chemscore.DEClash>
0.0149

> <Gold.Chemscore.DEInternal>
1.5602

> <Gold.Chemscore.Rot>
2.1939

> <Gold.Chemscore.Internal.Correction>
   9.000000E+99

> <Gold.Chemscore.Hbonds>
donor molecule, donor type, donor heavy atom, donor atom, acceptor molecule, acceptor atom, score
      L1  H     1    27       P1  7948  0.99
      L1  H     5    52       P1  7948  0.71

> <Gold.Chemscore.Hbond.Weighted>
-6.5536

> <Gold.Chemscore.Metal.Weighted>
-0.0000

> <Gold.Chemscore.Lipo.Weighted>
-8.5970

> <Gold.Chemscore.Internal_Hbond.Weighted>
0.0000

> <Gold.Chemscore.DEClash.Weighted>
0.0149

> <Gold.Chemscore.DEInternal.Weighted>
1.5602

> <Gold.Chemscore.Rot.Weighted>
5.6163

> <Gold.Chemscore.Internal.Correction.Weighted>
   9.000000E+99

> <Gold.Protein.RotatedTorsions>
[ 6907 6896 6895 6894 ] final  -86.83 input  -60.11 | X-H torsion
[ 7974 7965 7964 7962 ] final  -64.14 input  175.53 | X-H torsion
[ 8008 7997 7996 7995 ] final  -24.21 input   59.86 | X-H torsion
[ 10167 10162 10161 10158 ] final  -76.96 input  -65.29 | X-H torsion
[ 10718 10713 10712 10709 ] final -154.85 input   66.30 | X-H torsion
[ 10763 10752 10751 10750 ] final  148.56 input  -60.55 | X-H torsion
[ 11005 11000 10999 10996 ] final  119.21 input  -57.11 | X-H torsion

> <Gold.Protein.ActiveResidues>
 VAL166  LYS551  ARG553  GLY616  TRP617  ASP618  TYR619  PRO620  LYS621  CYS622 
 ASP623  PHE694  ASN695  SER759  ASP760  ASP761  ALA762  ILE779  LEU786  VAL792 
 PHE793  MET794  SER795  GLU796  ALA797  LYS798  CYS799  TRP800  GLU811  SER814 

> <Gold.Protein.RotatedAtoms>
  150.6866  134.2991  159.4698 H   0  0  0  0  0  0  0  0  0  0  0  0  # atno 6907 bound_to 6896
  152.0888  134.9418  160.0581 H   0  0  0  0  0  0  0  0  0  0  0  0  # atno 6908 bound_to 6896
  152.0742  133.4087  159.4510 H   0  0  0  0  0  0  0  0  0  0  0  0  # atno 6909 bound_to 6896
  145.7704  140.8815  143.0383 H   0  0  0  0  0  0  0  0  0  0  0  0  # atno 7974 bound_to 7965
  154.4542  140.1960  156.0429 H   0  0  0  0  0  0  0  0  0  0  0  0  # atno 8008 bound_to 7997
  156.0711  140.3284  155.7549 H   0  0  0  0  0  0  0  0  0  0  0  0  # atno 8009 bound_to 7997
  155.5262  140.0574  157.2888 H   0  0  0  0  0  0  0  0  0  0  0  0  # atno 8010 bound_to 7997
  140.4811  143.2402  151.8056 H   0  0  0  0  0  0  0  0  0  0  0  0  # atno 10167 bound_to 10162
  156.5049  130.8408  151.2624 H   0  0  0  0  0  0  0  0  0  0  0  0  # atno 10718 bound_to 10713
  154.0567  135.2877  155.3331 H   0  0  0  0  0  0  0  0  0  0  0  0  # atno 10763 bound_to 10752
  154.6834  135.5254  153.8297 H   0  0  0  0  0  0  0  0  0  0  0  0  # atno 10764 bound_to 10752
  153.0539  135.6587  154.0759 H   0  0  0  0  0  0  0  0  0  0  0  0  # atno 10765 bound_to 10752
  139.9138  134.9626  156.7620 H   0  0  0  0  0  0  0  0  0  0  0  0  # atno 11005 bound_to 11000
  144.6814  139.9847  143.7484 LP  0  0  0  0  0  0  0  0  0  0  0  0  # atno 17320 bound_to 7965
  146.0175  139.3223  143.0833 LP  0  0  0  0  0  0  0  0  0  0  0  0  # atno 17321 bound_to 7965
  139.4834  144.4771  151.9353 LP  0  0  0  0  0  0  0  0  0  0  0  0  # atno 17342 bound_to 10162
  140.3856  144.2681  150.5904 LP  0  0  0  0  0  0  0  0  0  0  0  0  # atno 17343 bound_to 10162
  157.7458  130.9969  150.2797 LP  0  0  0  0  0  0  0  0  0  0  0  0  # atno 17370 bound_to 10713
  156.3297  130.3798  149.7502 LP  0  0  0  0  0  0  0  0  0  0  0  0  # atno 17371 bound_to 10713
  140.6689  133.9577  155.7846 LP  0  0  0  0  0  0  0  0  0  0  0  0  # atno 17394 bound_to 11000
  141.0591  134.0372  157.3682 LP  0  0  0  0  0  0  0  0  0  0  0  0  # atno 17395 bound_to 11000

$$$$
