AV-unprocessed.smi:2079|AV-procd|sdf|8477|dock10
  -GOLD-   2272011183D 1   1.00000     0.00000
 Structure written by MMmdl.
 42 43  0  0  0  0  0  0  0  0  2 V2000
  153.6680  137.7504  157.1434 C   0  0  0  0  0  0  0  0  0  0  0  0
  152.6317  138.2037  156.1730 C   0  0  0  0  0  0  0  0  0  0  0  0
  151.6717  137.5418  155.4602 C   0  0  0  0  0  0  0  0  0  0  0  0
  151.0419  138.5834  154.7284 C   0  0  0  0  0  0  0  0  0  0  0  0
  149.9694  138.3059  153.8428 N   0  0  0  0  0  0  0  0  0  0  0  0
  148.8700  139.0496  153.6317 C   0  0  0  0  0  0  0  0  0  0  0  0
  148.6151  140.1166  154.1911 O   0  0  0  0  0  0  0  0  0  0  0  0
  148.0615  138.4834  152.7238 N   0  0  0  0  0  0  0  0  0  0  0  0
  146.7965  139.0499  152.2706 C   0  0  0  0  0  0  0  0  0  0  0  0
  146.0855  138.1160  151.2710 C   0  0  0  0  0  0  0  0  0  0  0  0
  146.0041  136.7047  151.7350 N   0  3  2  0  0  0  0  0  0  0  0  0
  145.6248  135.7784  150.6335 C   0  0  0  0  0  0  0  0  0  0  0  0
  145.7613  134.3091  151.0627 C   0  0  0  0  0  0  0  0  0  0  0  0
  144.9387  134.0240  152.3239 C   0  0  0  0  0  0  0  0  0  0  0  0
  145.3356  135.0031  153.4369 C   0  0  0  0  0  0  0  0  0  0  0  0
  145.2179  136.4759  152.9889 C   0  0  2  0  0  0  0  0  0  0  0  0
  143.7485  136.9401  152.8925 C   0  0  0  0  0  0  0  0  0  0  0  0
  151.5662  139.7741  154.9759 N   0  0  0  0  0  0  0  0  0  0  0  0
  152.5887  139.5366  155.9021 O   0  0  0  0  0  0  0  0  0  0  0  0
  153.4768  136.7272  157.4674 H   0  0  0  0  0  0  0  0  0  0  0  0
  153.6775  138.3889  158.0271 H   0  0  0  0  0  0  0  0  0  0  0  0
  154.6593  137.7824  156.6914 H   0  0  0  0  0  0  0  0  0  0  0  0
  151.4593  136.4828  155.4624 H   0  0  0  0  0  0  0  0  0  0  0  0
  150.0515  137.4523  153.3105 H   0  0  0  0  0  0  0  0  0  0  0  0
  148.3447  137.6061  152.3114 H   0  0  0  0  0  0  0  0  0  0  0  0
  146.1530  139.2604  153.1267 H   0  0  0  0  0  0  0  0  0  0  0  0
  147.0292  140.0085  151.8084 H   0  0  0  0  0  0  0  0  0  0  0  0
  145.0924  138.4952  151.0289 H   0  0  0  0  0  0  0  0  0  0  0  0
  146.6446  138.1269  150.3345 H   0  0  0  0  0  0  0  0  0  0  0  0
  144.6065  135.9859  150.3031 H   0  0  0  0  0  0  0  0  0  0  0  0
  146.2700  135.9514  149.7713 H   0  0  0  0  0  0  0  0  0  0  0  0
  145.4418  133.6530  150.2524 H   0  0  0  0  0  0  0  0  0  0  0  0
  146.8110  134.0796  151.2505 H   0  0  0  0  0  0  0  0  0  0  0  0
  143.8746  134.1149  152.1038 H   0  0  0  0  0  0  0  0  0  0  0  0
  145.1000  132.9972  152.6532 H   0  0  0  0  0  0  0  0  0  0  0  0
  144.7274  134.8260  154.3246 H   0  0  0  0  0  0  0  0  0  0  0  0
  146.3660  134.8016  153.7338 H   0  0  0  0  0  0  0  0  0  0  0  0
  145.6825  137.0594  153.7827 H   0  0  0  0  0  0  0  0  0  0  0  0
  143.2189  136.7318  153.8225 H   0  0  0  0  0  0  0  0  0  0  0  0
  143.2052  136.4377  152.0928 H   0  0  0  0  0  0  0  0  0  0  0  0
  143.6726  138.0140  152.7244 H   0  0  0  0  0  0  0  0  0  0  0  0
  146.9537  136.4523  151.9694 H   0  0  0  0  0  0  0  0  0  0  0  0
  1  2  1  0  0  0  0
  1 20  1  0  0  0  0
  1 21  1  0  0  0  0
  1 22  1  0  0  0  0
  2 19  1  0  0  0  0
  2  3  2  0  0  0  0
  3  4  1  0  0  0  0
  3 23  1  0  0  0  0
  4  5  1  0  0  0  0
  4 18  2  0  0  0  0
  5  6  1  0  0  0  0
  5 24  1  0  0  0  0
  6  7  2  0  0  0  0
  6  8  1  0  0  0  0
  8  9  1  0  0  0  0
  8 25  1  0  0  0  0
  9 10  1  0  0  0  0
  9 26  1  0  0  0  0
  9 27  1  0  0  0  0
 10 11  1  0  0  0  0
 10 28  1  0  0  0  0
 10 29  1  0  0  0  0
 11 16  1  0  0  0  0
 11 12  1  0  0  0  0
 11 42  1  0  0  0  0
 12 13  1  0  0  0  0
 12 30  1  0  0  0  0
 12 31  1  0  0  0  0
 13 14  1  0  0  0  0
 13 32  1  0  0  0  0
 13 33  1  0  0  0  0
 14 15  1  0  0  0  0
 14 34  1  0  0  0  0
 14 35  1  0  0  0  0
 15 16  1  0  0  0  0
 15 36  1  0  0  0  0
 15 37  1  0  0  0  0
 16 17  1  0  0  0  0
 16 38  1  0  0  0  0
 17 39  1  0  0  0  0
 17 40  1  0  0  0  0
 17 41  1  0  0  0  0
 18 19  1  0  0  0  0
M  CHG  1  11   1
M  END
> <s_m_source_file>
AV-unprocessed.smi

> <i_m_source_file_index>
2079

> <i_lp_mmshare_version>
43012

> <i_f3d_flags>
0

> <s_epik_input>
W0NIM11jMVtjSF1jKG5vMSlbTkhdQyg9TylbTkhdW0NIMl1bQ0gyXU4yW0NIMl1bQ0gyXVtDSDJdW0NIMl1bQ0BIXTJbQ0gzXQ==

> <s_epik_cmdline>
J2VwaWtfcHl0aG9uJywgJy1waCcsICc3LjAnLCAnLXRuJywgJzgnLCAnLW1hJywgJzIwMCcsICctbWV0YWxfYmluZGluZycsICctaW1hZScsICc8aW5maWxlLm1hZT4nLCAnLW9tYWUnLCAnPG91dGZpbGUubWFlPic=

> <r_epik_Ionization_Penalty>
0.00265971

> <r_epik_Ionization_Penalty_Charging>
0.00262393

> <r_epik_Ionization_Penalty_Neutral>
3.57846e-05

> <r_epik_State_Penalty>
0.00182566

> <r_epik_Charging_Adjusted_Penalty>
0.00444959

> <i_epik_Tot_Q>
1

> <i_epik_Tot_abs_Q>
1

> <r_epik_Metal_State_Penalty>
0.0216344

> <b_epik_Metal_Only>
0

> <s_lp_Force_Field>
OPLS_2005

> <r_lp_Energy>
16.7127

> <b_lp_Chiralities_Consistent>
1

> <s_lp_Variant>
AV-unprocessed.smi:2079-3

> <Gold.Version>
5.8.1

> <Gold.Id.Protein>
6NUR|6NUR_protein|mol2

> <Gold.PLP.Fitness>
45.7440

> <Gold.PLP.PLP>
-29.5709

> <Gold.PLP.part.hbond>
-6.4989

> <Gold.PLP.part.metal>
0.0000

> <Gold.PLP.part.buried>
0.9851

> <Gold.PLP.part.nonpolar>
-25.4326

> <Gold.PLP.part.repulsive>
0.3506

> <Gold.PLP.ligand.clash>
0.0000

> <Gold.PLP.ligand.torsion>
0.3684

> <Gold.PLP.Chemscore.Hbond>
5.6201

> <Gold.PLP.Chemscore.CHOScore>
0.0000

> <Gold.PLP.Chemscore.Metal>
0.0000

> <Gold.Chemscore.Hbonds>
donor molecule, donor type, donor heavy atom, donor atom, acceptor molecule, acceptor atom, score
      L1  H     5    24       P1  7948  0.61
      L1  H     8    25       P1  7948  1.00
      L1  H    11    42       P1  7948  2.00
      P1  H  7989  7998       L1    18  1.00
      P1  H  7997  8009       L1    19  1.00

> <Gold.PLP.Chemscore.Internal.Correction>
0.0496

> <Gold.Rescore>
     Score         DG    S(hbond)    S(metal)    S(lipo)     H(rot)  DE(clash)    DE(int)     intcor
     19.38     -22.50       4.14        0.00      61.70       1.57       2.67       0.45       ----

> <Gold.Chemscore.Fitness>
19.3758

> <Gold.Chemscore.DG>
-22.4963

> <Gold.Chemscore.ZeroCoef>
-5.4800

> <Gold.Chemscore.Hbond>
4.1366

> <Gold.Chemscore.Metal>
0.0000

> <Gold.Chemscore.Lipo>
61.6961

> <Gold.Chemscore.Internal_Hbond>
0.0000

> <Gold.Chemscore.DEClash>
2.6720

> <Gold.Chemscore.DEInternal>
0.4485

> <Gold.Chemscore.Rot>
1.5697

> <Gold.Chemscore.Internal.Correction>
   9.000000E+99

> <Gold.Chemscore.Hbonds>
donor molecule, donor type, donor heavy atom, donor atom, acceptor molecule, acceptor atom, score
      L1  H     5    24       P1  7948  0.18
      L1  H     8    25       P1  7948  0.94
      L1  H    11    42       P1  7948  0.96
      P1  H  7989  7998       L1    18  0.87
      P1  H  7997  8009       L1    19  0.60

> <Gold.Chemscore.Hbond.Weighted>
-13.8164

> <Gold.Chemscore.Metal.Weighted>
-0.0000

> <Gold.Chemscore.Lipo.Weighted>
-7.2184

> <Gold.Chemscore.Internal_Hbond.Weighted>
0.0000

> <Gold.Chemscore.DEClash.Weighted>
2.6720

> <Gold.Chemscore.DEInternal.Weighted>
0.4485

> <Gold.Chemscore.Rot.Weighted>
4.0185

> <Gold.Chemscore.Internal.Correction.Weighted>
   9.000000E+99

> <Gold.Protein.RotatedTorsions>
[ 6907 6896 6895 6894 ] final  -81.54 input  -60.11 | X-H torsion
[ 7974 7965 7964 7962 ] final  -53.26 input  175.53 | X-H torsion
[ 8008 7997 7996 7995 ] final -141.32 input   59.86 | X-H torsion
[ 10167 10162 10161 10158 ] final  100.67 input  -65.29 | X-H torsion
[ 10718 10713 10712 10709 ] final  109.56 input   66.30 | X-H torsion
[ 10763 10752 10751 10750 ] final  113.57 input  -60.55 | X-H torsion
[ 11005 11000 10999 10996 ] final  -78.30 input  -57.11 | X-H torsion

> <Gold.Protein.ActiveResidues>
 VAL166  LYS551  ARG553  GLY616  TRP617  ASP618  TYR619  PRO620  LYS621  CYS622 
 ASP623  PHE694  ASN695  SER759  ASP760  ASP761  ALA762  ILE779  LEU786  VAL792 
 PHE793  MET794  SER795  GLU796  ALA797  LYS798  CYS799  TRP800  GLU811  SER814 

> <Gold.Protein.RotatedAtoms>
  150.6910  134.3801  159.5030 H   0  0  0  0  0  0  0  0  0  0  0  0  # atno 6907 bound_to 6896
  152.1604  134.8913  160.0551 H   0  0  0  0  0  0  0  0  0  0  0  0  # atno 6908 bound_to 6896
  151.9977  133.3779  159.4206 H   0  0  0  0  0  0  0  0  0  0  0  0  # atno 6909 bound_to 6896
  145.8988  140.8011  142.9754 H   0  0  0  0  0  0  0  0  0  0  0  0  # atno 7974 bound_to 7965
  155.4759  140.0556  157.2973 H   0  0  0  0  0  0  0  0  0  0  0  0  # atno 8008 bound_to 7997
  154.4680  140.2027  156.0022 H   0  0  0  0  0  0  0  0  0  0  0  0  # atno 8009 bound_to 7997
  156.1007  140.3219  155.7942 H   0  0  0  0  0  0  0  0  0  0  0  0  # atno 8010 bound_to 7997
  139.7506  144.6985  151.0438 H   0  0  0  0  0  0  0  0  0  0  0  0  # atno 10167 bound_to 10162
  157.6536  131.0916  150.6472 H   0  0  0  0  0  0  0  0  0  0  0  0  # atno 10718 bound_to 10713
  153.4944  135.3651  155.2508 H   0  0  0  0  0  0  0  0  0  0  0  0  # atno 10763 bound_to 10752
  154.8750  135.3985  154.3551 H   0  0  0  0  0  0  0  0  0  0  0  0  # atno 10764 bound_to 10752
  153.4176  135.7079  153.6382 H   0  0  0  0  0  0  0  0  0  0  0  0  # atno 10765 bound_to 10752
  141.1664  133.7057  156.7950 H   0  0  0  0  0  0  0  0  0  0  0  0  # atno 11005 bound_to 11000
  144.6734  140.1644  143.7419 LP  0  0  0  0  0  0  0  0  0  0  0  0  # atno 17320 bound_to 7965
  145.8817  139.2326  143.1601 LP  0  0  0  0  0  0  0  0  0  0  0  0  # atno 17321 bound_to 7965
  140.7797  143.4814  151.0013 LP  0  0  0  0  0  0  0  0  0  0  0  0  # atno 17342 bound_to 10162
  139.8501  143.7449  152.3178 LP  0  0  0  0  0  0  0  0  0  0  0  0  # atno 17343 bound_to 10162
  156.6780  130.4559  149.5636 LP  0  0  0  0  0  0  0  0  0  0  0  0  # atno 17370 bound_to 10713
  156.1949  130.6583  151.1103 LP  0  0  0  0  0  0  0  0  0  0  0  0  # atno 17371 bound_to 10713
  140.2297  134.8695  157.3464 LP  0  0  0  0  0  0  0  0  0  0  0  0  # atno 17394 bound_to 11000
  140.1903  134.4380  155.7719 LP  0  0  0  0  0  0  0  0  0  0  0  0  # atno 17395 bound_to 11000

$$$$
