AV-unprocessed.smi:2931|AV-procd|sdf|11248|dock4
  -GOLD-   2272016143D 1   1.00000     0.00000
 Structure written by MMmdl.
 43 44  0  0  0  0  0  0  0  0  3 V2000
  146.5998  133.2770  150.6966 C   0  0  0  0  0  0  0  0  0  0  0  0
  146.5366  134.4559  151.5867 N   0  3  1  0  0  0  0  0  0  0  0  0
  145.5601  135.4692  151.1142 C   0  0  0  0  0  0  0  0  0  0  0  0
  145.6173  136.7371  151.9829 C   0  0  0  0  0  0  0  0  0  0  0  0
  145.4100  136.4035  153.4698 C   0  0  0  0  0  0  0  0  0  0  0  0
  146.3918  135.3127  153.9350 C   0  0  2  0  0  0  0  0  0  0  0  0
  147.7498  135.8544  153.9920 N   0  0  0  0  0  0  0  0  0  0  0  0
  148.5087  135.9166  155.0950 C   0  0  0  0  0  0  0  0  0  0  0  0
  148.1665  135.4756  156.1914 O   0  0  0  0  0  0  0  0  0  0  0  0
  149.6838  136.5163  154.8597 N   0  0  0  0  0  0  0  0  0  0  0  0
  150.7052  136.7836  155.8692 C   0  0  0  0  0  0  0  0  0  0  0  0
  151.6419  137.9517  155.4994 C   0  0  0  0  0  0  0  0  0  0  0  0
  150.9648  139.3113  155.5277 C   0  0  0  0  0  0  0  0  0  0  0  0
  151.3868  140.3060  156.4382 C   0  0  0  0  0  0  0  0  0  0  0  0
  150.7348  141.5560  156.4418 C   0  0  0  0  0  0  0  0  0  0  0  0
  149.7220  141.7893  155.5785 N   0  3  0  0  0  0  0  0  0  0  0  0
  149.2890  140.8667  154.6916 C   0  0  0  0  0  0  0  0  0  0  0  0
  149.9013  139.5978  154.6436 C   0  0  0  0  0  0  0  0  0  0  0  0
  146.3007  134.0827  153.0043 C   0  0  0  0  0  0  0  0  0  0  0  0
  145.6465  132.7472  150.6807 H   0  0  0  0  0  0  0  0  0  0  0  0
  147.3721  132.5833  151.0306 H   0  0  0  0  0  0  0  0  0  0  0  0
  146.8417  133.5775  149.6768 H   0  0  0  0  0  0  0  0  0  0  0  0
  145.7731  135.7293  150.0765 H   0  0  0  0  0  0  0  0  0  0  0  0
  144.5549  135.0448  151.1342 H   0  0  0  0  0  0  0  0  0  0  0  0
  146.5794  137.2317  151.8443 H   0  0  0  0  0  0  0  0  0  0  0  0
  144.8583  137.4474  151.6534 H   0  0  0  0  0  0  0  0  0  0  0  0
  145.5169  137.3023  154.0787 H   0  0  0  0  0  0  0  0  0  0  0  0
  144.3874  136.0542  153.6190 H   0  0  0  0  0  0  0  0  0  0  0  0
  146.1075  135.0110  154.9448 H   0  0  0  0  0  0  0  0  0  0  0  0
  148.1170  136.2533  153.1403 H   0  0  0  0  0  0  0  0  0  0  0  0
  149.8713  136.8494  153.9251 H   0  0  0  0  0  0  0  0  0  0  0  0
  150.1869  137.0153  156.8000 H   0  0  0  0  0  0  0  0  0  0  0  0
  151.2859  135.8800  156.0606 H   0  0  0  0  0  0  0  0  0  0  0  0
  152.4892  137.9704  156.1858 H   0  0  0  0  0  0  0  0  0  0  0  0
  152.0669  137.7842  154.5091 H   0  0  0  0  0  0  0  0  0  0  0  0
  152.1969  140.1139  157.1269 H   0  0  0  0  0  0  0  0  0  0  0  0
  150.9890  142.3693  157.1059 H   0  0  0  0  0  0  0  0  0  0  0  0
  148.4710  141.1679  154.0534 H   0  0  0  0  0  0  0  0  0  0  0  0
  149.5579  138.8550  153.9381 H   0  0  0  0  0  0  0  0  0  0  0  0
  145.3158  133.6216  153.0945 H   0  0  0  0  0  0  0  0  0  0  0  0
  147.0236  133.3252  153.3098 H   0  0  0  0  0  0  0  0  0  0  0  0
  147.4466  134.8921  151.5519 H   0  0  0  0  0  0  0  0  0  0  0  0
  149.2614  142.6997  155.5990 H   0  0  0  0  0  0  0  0  0  0  0  0
  1  2  1  0  0  0  0
  1 20  1  0  0  0  0
  1 21  1  0  0  0  0
  1 22  1  0  0  0  0
  2 19  1  0  0  0  0
  2  3  1  0  0  0  0
  2 42  1  0  0  0  0
  3  4  1  0  0  0  0
  3 23  1  0  0  0  0
  3 24  1  0  0  0  0
  4  5  1  0  0  0  0
  4 25  1  0  0  0  0
  4 26  1  0  0  0  0
  5  6  1  0  0  0  0
  5 27  1  0  0  0  0
  5 28  1  0  0  0  0
  6  7  1  0  0  0  0
  6 19  1  0  0  0  0
  6 29  1  0  0  0  0
  7  8  1  0  0  0  0
  7 30  1  0  0  0  0
  8  9  2  0  0  0  0
  8 10  1  0  0  0  0
 10 11  1  0  0  0  0
 10 31  1  0  0  0  0
 11 12  1  0  0  0  0
 11 32  1  0  0  0  0
 11 33  1  0  0  0  0
 12 13  1  0  0  0  0
 12 34  1  0  0  0  0
 12 35  1  0  0  0  0
 13 18  1  0  0  0  0
 13 14  2  0  0  0  0
 14 15  1  0  0  0  0
 14 36  1  0  0  0  0
 15 16  2  0  0  0  0
 15 37  1  0  0  0  0
 16 17  1  0  0  0  0
 16 43  1  0  0  0  0
 17 18  2  0  0  0  0
 17 38  1  0  0  0  0
 18 39  1  0  0  0  0
 19 40  1  0  0  0  0
 19 41  1  0  0  0  0
M  CHG  1   2   1
M  CHG  1  16   1
M  END
> <s_m_source_file>
AV-unprocessed.smi

> <i_m_source_file_index>
2931

> <i_lp_mmshare_version>
43012

> <i_f3d_flags>
0

> <s_epik_input>
W0NIM11OMVtDSDJdW0NIMl1bQ0gyXVtDQEhdKFtDSDJdMSlbTkhdQyg9TylbTkhdW0NIMl1bQ0gyXWMyW2NIXVtjSF1uW2NIXVtjSF0y

> <s_epik_cmdline>
J2VwaWtfcHl0aG9uJywgJy1waCcsICc3LjAnLCAnLXRuJywgJzgnLCAnLW1hJywgJzIwMCcsICctbWV0YWxfYmluZGluZycsICctaW1hZScsICc8aW5maWxlLm1hZT4nLCAnLW9tYWUnLCAnPG91dGZpbGUubWFlPic=

> <r_epik_Ionization_Penalty>
1.43754

> <r_epik_Ionization_Penalty_Charging>
1.4375

> <r_epik_Ionization_Penalty_Neutral>
3.7629e-05

> <r_epik_State_Penalty>
1.52008

> <r_epik_Charging_Adjusted_Penalty>
2.95758

> <i_epik_Tot_Q>
2

> <i_epik_Tot_abs_Q>
2

> <r_epik_Metal_State_Penalty>
1.57105

> <b_epik_Metal_Only>
0

> <s_lp_Force_Field>
OPLS_2005

> <r_lp_Energy>
32.3729

> <b_lp_Chiralities_Consistent>
1

> <s_lp_Variant>
AV-unprocessed.smi:2931-7

> <Gold.Version>
5.8.1

> <Gold.Id.Protein>
6NUR|6NUR_protein|mol2

> <Gold.PLP.Fitness>
47.9762

> <Gold.PLP.PLP>
-32.7567

> <Gold.PLP.part.hbond>
-3.5628

> <Gold.PLP.part.metal>
0.0000

> <Gold.PLP.part.buried>
-3.1564

> <Gold.PLP.part.nonpolar>
-26.2482

> <Gold.PLP.part.repulsive>
0.3027

> <Gold.PLP.ligand.clash>
0.0000

> <Gold.PLP.ligand.torsion>
0.2062

> <Gold.PLP.Chemscore.Hbond>
5.2054

> <Gold.PLP.Chemscore.CHOScore>
0.0000

> <Gold.PLP.Chemscore.Metal>
0.0000

> <Gold.Chemscore.Hbonds>
donor molecule, donor type, donor heavy atom, donor atom, acceptor molecule, acceptor atom, score
      L1  H     2    42       P1  7948  2.00
      L1  H     7    30       P1  7948  0.99
      L1  H    10    31       P1  7948  0.20
      L1  H    16    43       P1  8028  1.89

> <Gold.PLP.Chemscore.Internal.Correction>
0.0159

> <Gold.Rescore>
     Score         DG    S(hbond)    S(metal)    S(lipo)     H(rot)  DE(clash)    DE(int)     intcor
     19.23     -19.60       2.91        0.00      73.51       1.65       0.14       0.24       ----

> <Gold.Chemscore.Fitness>
19.2257

> <Gold.Chemscore.DG>
-19.5993

> <Gold.Chemscore.ZeroCoef>
-5.4800

> <Gold.Chemscore.Hbond>
2.9143

> <Gold.Chemscore.Metal>
0.0000

> <Gold.Chemscore.Lipo>
73.5075

> <Gold.Chemscore.Internal_Hbond>
0.0000

> <Gold.Chemscore.DEClash>
0.1378

> <Gold.Chemscore.DEInternal>
0.2359

> <Gold.Chemscore.Rot>
1.6464

> <Gold.Chemscore.Internal.Correction>
   9.000000E+99

> <Gold.Chemscore.Hbonds>
donor molecule, donor type, donor heavy atom, donor atom, acceptor molecule, acceptor atom, score
      L1  H     2    42       P1  7948  0.59
      L1  H     7    30       P1  7948  0.90
      L1  H    10    31       P1  7948  0.11
      L1  H    16    43       P1  8028  0.90

> <Gold.Chemscore.Hbond.Weighted>
-9.7337

> <Gold.Chemscore.Metal.Weighted>
-0.0000

> <Gold.Chemscore.Lipo.Weighted>
-8.6004

> <Gold.Chemscore.Internal_Hbond.Weighted>
0.0000

> <Gold.Chemscore.DEClash.Weighted>
0.1378

> <Gold.Chemscore.DEInternal.Weighted>
0.2359

> <Gold.Chemscore.Rot.Weighted>
4.2148

> <Gold.Chemscore.Internal.Correction.Weighted>
   9.000000E+99

> <Gold.Protein.RotatedTorsions>
[ 6907 6896 6895 6894 ] final   23.76 input  -60.11 | X-H torsion
[ 7974 7965 7964 7962 ] final   36.91 input  175.53 | X-H torsion
[ 8008 7997 7996 7995 ] final  178.80 input   59.86 | X-H torsion
[ 10167 10162 10161 10158 ] final  -98.02 input  -65.29 | X-H torsion
[ 10718 10713 10712 10709 ] final -125.04 input   66.30 | X-H torsion
[ 10763 10752 10751 10750 ] final  133.35 input  -60.55 | X-H torsion
[ 11005 11000 10999 10996 ] final   94.06 input  -57.11 | X-H torsion

> <Gold.Protein.ActiveResidues>
 VAL166  LYS551  ARG553  GLY616  TRP617  ASP618  TYR619  PRO620  LYS621  CYS622 
 ASP623  PHE694  ASN695  SER759  ASP760  ASP761  ALA762  ILE779  LEU786  VAL792 
 PHE793  MET794  SER795  GLU796  ALA797  LYS798  CYS799  TRP800  GLU811  SER814 

> <Gold.Protein.RotatedAtoms>
  151.9473  135.0185  160.0539 H   0  0  0  0  0  0  0  0  0  0  0  0  # atno 6907 bound_to 6896
  152.1984  133.4818  159.5053 H   0  0  0  0  0  0  0  0  0  0  0  0  # atno 6908 bound_to 6896
  150.6949  134.1539  159.4194 H   0  0  0  0  0  0  0  0  0  0  0  0  # atno 6909 bound_to 6896
  146.1176  139.5959  142.9311 H   0  0  0  0  0  0  0  0  0  0  0  0  # atno 7974 bound_to 7965
  156.0506  140.1324  157.0054 H   0  0  0  0  0  0  0  0  0  0  0  0  # atno 8008 bound_to 7997
  154.4433  140.1011  156.6441 H   0  0  0  0  0  0  0  0  0  0  0  0  # atno 8009 bound_to 7997
  155.5529  140.3463  155.4475 H   0  0  0  0  0  0  0  0  0  0  0  0  # atno 8010 bound_to 7997
  140.2774  143.3304  152.0475 H   0  0  0  0  0  0  0  0  0  0  0  0  # atno 10167 bound_to 10162
  156.1640  130.6621  151.0089 H   0  0  0  0  0  0  0  0  0  0  0  0  # atno 10718 bound_to 10713
  153.8056  135.3136  155.3395 H   0  0  0  0  0  0  0  0  0  0  0  0  # atno 10763 bound_to 10752
  154.8072  135.4690  154.0425 H   0  0  0  0  0  0  0  0  0  0  0  0  # atno 10764 bound_to 10752
  153.1786  135.6890  153.8596 H   0  0  0  0  0  0  0  0  0  0  0  0  # atno 10765 bound_to 10752
  139.8803  134.8824  156.3808 H   0  0  0  0  0  0  0  0  0  0  0  0  # atno 11005 bound_to 11000
  145.5533  141.0411  143.2266 LP  0  0  0  0  0  0  0  0  0  0  0  0  # atno 17320 bound_to 7965
  144.7568  139.7056  143.7251 LP  0  0  0  0  0  0  0  0  0  0  0  0  # atno 17321 bound_to 7965
  139.4972  144.6615  151.6453 LP  0  0  0  0  0  0  0  0  0  0  0  0  # atno 17342 bound_to 10162
  140.5840  143.9896  150.6285 LP  0  0  0  0  0  0  0  0  0  0  0  0  # atno 17343 bound_to 10162
  157.6754  131.0851  150.7508 LP  0  0  0  0  0  0  0  0  0  0  0  0  # atno 17370 bound_to 10713
  156.7570  130.4786  149.5445 LP  0  0  0  0  0  0  0  0  0  0  0  0  # atno 17371 bound_to 10713
  140.9400  133.7521  156.0134 LP  0  0  0  0  0  0  0  0  0  0  0  0  # atno 17394 bound_to 11000
  140.8231  134.3266  157.5375 LP  0  0  0  0  0  0  0  0  0  0  0  0  # atno 17395 bound_to 11000

$$$$
