AV-unprocessed.smi:2172|AV-procd|sdf|8834|dock6
  -GOLD-   2272012 23D 1   1.00000     0.00000
 Structure written by MMmdl.
 36 38  0  0  0  0  0  0  0  0  1 V2000
  150.8533  137.4087  156.4432 O   0  0  0  0  0  0  0  0  0  0  0  0
  151.4917  138.5667  155.9505 C   0  0  0  0  0  0  0  0  0  0  0  0
  151.7035  139.6124  157.0033 C   0  0  0  0  0  0  0  0  0  0  0  0
  152.3912  139.3530  158.1163 N   0  0  0  0  0  0  0  0  0  0  0  0
  152.3642  140.5627  158.7809 C   0  0  0  0  0  0  0  0  0  0  0  0
  152.9213  140.9399  160.0239 C   0  0  0  0  0  0  0  0  0  0  0  0
  152.7691  142.2571  160.5042 C   0  0  0  0  0  0  0  0  0  0  0  0
  152.0612  143.2145  159.7492 C   0  0  0  0  0  0  0  0  0  0  0  0
  151.4973  142.8590  158.5088 C   0  0  0  0  0  0  0  0  0  0  0  0
  151.6479  141.5413  158.0358 C   0  0  0  0  0  0  0  0  0  0  0  0
  151.2217  140.8776  156.8891 N   0  0  0  0  0  0  0  0  0  0  0  0
  150.4371  141.4617  155.8070 C   0  0  0  0  0  0  0  0  0  0  0  0
  149.2859  140.5477  155.3389 C   0  0  2  0  0  0  0  0  0  0  0  0
  149.5868  139.9927  154.0735 O   0  0  0  0  0  0  0  0  0  0  0  0
  147.9581  141.2893  155.3449 C   0  0  0  0  0  0  0  0  0  0  0  0
  147.2720  141.5126  154.1319 C   0  0  0  0  0  0  0  0  0  0  0  0
  146.0380  142.1917  154.1281 C   0  0  0  0  0  0  0  0  0  0  0  0
  145.4814  142.6495  155.3381 C   0  0  0  0  0  0  0  0  0  0  0  0
  143.9702  143.4821  155.3328 Cl  0  0  0  0  0  0  0  0  0  0  0  0
  146.1587  142.4250  156.5522 C   0  0  0  0  0  0  0  0  0  0  0  0
  147.3923  141.7453  156.5562 C   0  0  0  0  0  0  0  0  0  0  0  0
  150.4605  137.6151  157.2772 H   0  0  0  0  0  0  0  0  0  0  0  0
  152.4564  138.2758  155.5334 H   0  0  0  0  0  0  0  0  0  0  0  0
  150.9133  138.9844  155.1268 H   0  0  0  0  0  0  0  0  0  0  0  0
  153.4679  140.2144  160.6080 H   0  0  0  0  0  0  0  0  0  0  0  0
  153.1993  142.5343  161.4554 H   0  0  0  0  0  0  0  0  0  0  0  0
  151.9511  144.2220  160.1230 H   0  0  0  0  0  0  0  0  0  0  0  0
  150.9557  143.5910  157.9285 H   0  0  0  0  0  0  0  0  0  0  0  0
  150.0343  142.4108  156.1629 H   0  0  0  0  0  0  0  0  0  0  0  0
  151.0856  141.7051  154.9667 H   0  0  0  0  0  0  0  0  0  0  0  0
  149.2003  139.7050  156.0255 H   0  0  0  0  0  0  0  0  0  0  0  0
  148.8493  139.4746  153.7899 H   0  0  0  0  0  0  0  0  0  0  0  0
  147.6893  141.1628  153.1991 H   0  0  0  0  0  0  0  0  0  0  0  0
  145.5190  142.3603  153.1959 H   0  0  0  0  0  0  0  0  0  0  0  0
  145.7332  142.7729  157.4820 H   0  0  0  0  0  0  0  0  0  0  0  0
  147.9014  141.5740  157.4934 H   0  0  0  0  0  0  0  0  0  0  0  0
  1  2  1  0  0  0  0
  1 22  1  0  0  0  0
  2  3  1  0  0  0  0
  2 23  1  0  0  0  0
  2 24  1  0  0  0  0
  3 11  1  0  0  0  0
  3  4  2  0  0  0  0
  4  5  1  0  0  0  0
  5 10  2  0  0  0  0
  5  6  1  0  0  0  0
  6  7  2  0  0  0  0
  6 25  1  0  0  0  0
  7  8  1  0  0  0  0
  7 26  1  0  0  0  0
  8  9  2  0  0  0  0
  8 27  1  0  0  0  0
  9 10  1  0  0  0  0
  9 28  1  0  0  0  0
 10 11  1  0  0  0  0
 11 12  1  0  0  0  0
 12 13  1  0  0  0  0
 12 29  1  0  0  0  0
 12 30  1  0  0  0  0
 13 14  1  0  0  0  0
 13 15  1  0  0  0  0
 13 31  1  0  0  0  0
 14 32  1  0  0  0  0
 15 21  1  0  0  0  0
 15 16  2  0  0  0  0
 16 17  1  0  0  0  0
 16 33  1  0  0  0  0
 17 18  2  0  0  0  0
 17 34  1  0  0  0  0
 18 19  1  0  0  0  0
 18 20  1  0  0  0  0
 20 21  2  0  0  0  0
 20 35  1  0  0  0  0
 21 36  1  0  0  0  0
M  END
> <s_m_source_file>
AV-unprocessed.smi

> <i_m_source_file_index>
2172

> <i_lp_mmshare_version>
43012

> <i_f3d_flags>
0

> <s_epik_input>
W2NIXTFbY0hdW2NIXVtjSF1jKGMxMiluKGMobjIpW0NIMl1bT0hdKVtDSDJdW0NASF0oW09IXSljM1tjSF1bY0hdYyhDbClbY0hdW2NIXTM=

> <s_epik_cmdline>
J2VwaWtfcHl0aG9uJywgJy1waCcsICc3LjAnLCAnLXRuJywgJzgnLCAnLW1hJywgJzIwMCcsICctbWV0YWxfYmluZGluZycsICctaW1hZScsICc8aW5maWxlLm1hZT4nLCAnLW9tYWUnLCAnPG91dGZpbGUubWFlPic=

> <r_epik_Ionization_Penalty>
0.0634726

> <r_epik_Ionization_Penalty_Charging>
0

> <r_epik_Ionization_Penalty_Neutral>
0.0634726

> <r_epik_State_Penalty>
0.0551572

> <r_epik_Charging_Adjusted_Penalty>
0.0551572

> <i_epik_Tot_Q>
0

> <i_epik_Tot_abs_Q>
0

> <r_epik_Metal_State_Penalty>
5.78034e-05

> <b_epik_Metal_Only>
0

> <s_lp_Force_Field>
OPLS_2005

> <r_lp_Energy>
12.889

> <b_lp_Chiralities_Consistent>
1

> <s_lp_Variant>
AV-unprocessed.smi:2172-1

> <Gold.Version>
5.8.1

> <Gold.Id.Protein>
6NUR|6NUR_protein|mol2

> <Gold.PLP.Fitness>
50.2053

> <Gold.PLP.PLP>
-44.7461

> <Gold.PLP.part.hbond>
-3.8643

> <Gold.PLP.part.metal>
0.0000

> <Gold.PLP.part.buried>
-2.8581

> <Gold.PLP.part.nonpolar>
-35.9710

> <Gold.PLP.part.repulsive>
0.0000

> <Gold.PLP.ligand.clash>
0.0000

> <Gold.PLP.ligand.torsion>
0.9917

> <Gold.PLP.Chemscore.Hbond>
2.4668

> <Gold.PLP.Chemscore.CHOScore>
0.0000

> <Gold.PLP.Chemscore.Metal>
0.0000

> <Gold.Chemscore.Hbonds>
donor molecule, donor type, donor heavy atom, donor atom, acceptor molecule, acceptor atom, score
      P1  H  7989  7998       L1    14  0.31

> <Gold.PLP.Chemscore.Internal.Correction>
0.0423

> <Gold.Rescore>
     Score         DG    S(hbond)    S(metal)    S(lipo)     H(rot)  DE(clash)    DE(int)     intcor
     13.93     -15.17       0.96        0.00     112.93       2.62       0.25       0.99       ----

> <Gold.Chemscore.Fitness>
13.9273

> <Gold.Chemscore.DG>
-15.1691

> <Gold.Chemscore.ZeroCoef>
-5.4800

> <Gold.Chemscore.Hbond>
0.9556

> <Gold.Chemscore.Metal>
0.0000

> <Gold.Chemscore.Lipo>
112.9309

> <Gold.Chemscore.Internal_Hbond>
0.0000

> <Gold.Chemscore.DEClash>
0.2523

> <Gold.Chemscore.DEInternal>
0.9895

> <Gold.Chemscore.Rot>
2.6232

> <Gold.Chemscore.Internal.Correction>
   9.000000E+99

> <Gold.Chemscore.Hbonds>
donor molecule, donor type, donor heavy atom, donor atom, acceptor molecule, acceptor atom, score
      P1  H  7989  7998       L1    14  0.17

> <Gold.Chemscore.Hbond.Weighted>
-3.1916

> <Gold.Chemscore.Metal.Weighted>
-0.0000

> <Gold.Chemscore.Lipo.Weighted>
-13.2129

> <Gold.Chemscore.Internal_Hbond.Weighted>
0.0000

> <Gold.Chemscore.DEClash.Weighted>
0.2523

> <Gold.Chemscore.DEInternal.Weighted>
0.9895

> <Gold.Chemscore.Rot.Weighted>
6.7154

> <Gold.Chemscore.Internal.Correction.Weighted>
   9.000000E+99

> <Gold.Protein.RotatedTorsions>
[ 6907 6896 6895 6894 ] final  105.35 input  -60.11 | X-H torsion
[ 7974 7965 7964 7962 ] final  -56.40 input  175.53 | X-H torsion
[ 8008 7997 7996 7995 ] final  161.44 input   59.86 | X-H torsion
[ 10167 10162 10161 10158 ] final    4.54 input  -65.29 | X-H torsion
[ 10718 10713 10712 10709 ] final   90.34 input   66.30 | X-H torsion
[ 10763 10752 10751 10750 ] final   51.52 input  -60.55 | X-H torsion
[ 11005 11000 10999 10996 ] final  -33.44 input  -57.11 | X-H torsion

> <Gold.Protein.ActiveResidues>
 VAL166  LYS551  ARG553  GLY616  TRP617  ASP618  TYR619  PRO620  LYS621  CYS622 
 ASP623  PHE694  ASN695  SER759  ASP760  ASP761  ALA762  ILE779  LEU786  VAL792 
 PHE793  MET794  SER795  GLU796  ALA797  LYS798  CYS799  TRP800  GLU811  SER814 

> <Gold.Protein.RotatedAtoms>
  152.5233  133.9541  159.7685 H   0  0  0  0  0  0  0  0  0  0  0  0  # atno 6907 bound_to 6896
  150.9845  133.6203  159.2724 H   0  0  0  0  0  0  0  0  0  0  0  0  # atno 6908 bound_to 6896
  151.3369  135.0860  159.9411 H   0  0  0  0  0  0  0  0  0  0  0  0  # atno 6909 bound_to 6896
  145.8631  140.8271  142.9927 H   0  0  0  0  0  0  0  0  0  0  0  0  # atno 7974 bound_to 7965
  156.2103  140.1777  156.7710 H   0  0  0  0  0  0  0  0  0  0  0  0  # atno 8008 bound_to 7997
  154.5712  140.0682  156.8997 H   0  0  0  0  0  0  0  0  0  0  0  0  # atno 8009 bound_to 7997
  155.2669  140.3340  155.4271 H   0  0  0  0  0  0  0  0  0  0  0  0  # atno 8010 bound_to 7997
  140.6529  143.7499  150.7605 H   0  0  0  0  0  0  0  0  0  0  0  0  # atno 10167 bound_to 10162
  157.6958  131.0367  150.3563 H   0  0  0  0  0  0  0  0  0  0  0  0  # atno 10718 bound_to 10713
  152.9785  135.5843  154.4428 H   0  0  0  0  0  0  0  0  0  0  0  0  # atno 10763 bound_to 10752
  154.4027  135.2769  155.2088 H   0  0  0  0  0  0  0  0  0  0  0  0  # atno 10764 bound_to 10752
  154.3912  135.6125  153.5898 H   0  0  0  0  0  0  0  0  0  0  0  0  # atno 10765 bound_to 10752
  140.9635  133.7150  156.1407 H   0  0  0  0  0  0  0  0  0  0  0  0  # atno 11005 bound_to 11000
  144.6726  140.1125  143.7454 LP  0  0  0  0  0  0  0  0  0  0  0  0  # atno 17320 bound_to 7965
  145.9225  139.2554  143.1373 LP  0  0  0  0  0  0  0  0  0  0  0  0  # atno 17321 bound_to 7965
  140.1154  143.4661  152.2345 LP  0  0  0  0  0  0  0  0  0  0  0  0  # atno 17342 bound_to 10162
  139.5747  144.7481  151.3797 LP  0  0  0  0  0  0  0  0  0  0  0  0  # atno 17343 bound_to 10162
  156.4005  130.3915  149.6963 LP  0  0  0  0  0  0  0  0  0  0  0  0  # atno 17370 bound_to 10713
  156.4282  130.7802  151.2821 LP  0  0  0  0  0  0  0  0  0  0  0  0  # atno 17371 bound_to 10713
  140.7433  134.4126  157.5552 LP  0  0  0  0  0  0  0  0  0  0  0  0  # atno 17394 bound_to 11000
  139.8886  134.8851  156.2464 LP  0  0  0  0  0  0  0  0  0  0  0  0  # atno 17395 bound_to 11000

$$$$
