#       Name:                AV-unprocessed.smi:1721
#       Creating user name   scv26
#       Creation time:       Fri Mar 27 08:14:53 2020


#       File generated by GOLD software.
#

@<TRIPOS>MOLECULE
AV-unprocessed.smi:1721
    49    51     1
SMALL
NO_CHARGES


@<TRIPOS>ATOM
      1 ****        -2.0030   5.6665   0.2582 C.3            1 S1                 0.0000
      2 ****        -1.2483   4.4632   0.3537 O.3            1 S1                 0.0000
      3 ****         0.1230   4.5291   0.1937 C.ar           1 S1                 0.0000
      4 ****         0.6856   5.7415  -0.0395 N.ar           1 S1                 0.0000
      5 ****         2.0227   5.8099  -0.1978 C.ar           1 S1                 0.0000
      6 ****         2.8632   4.6842  -0.1333 C.ar           1 S1                 0.0000
      7 ****         2.2827   3.4255   0.1091 C.ar           1 S1                 0.0000
      8 ****         0.8784   3.3353   0.2790 C.ar           1 S1                 0.0000
      9 ****         0.1695   2.1241   0.5255 N.am           1 S1                 0.0000
     10 ****         0.6302   0.8711   0.6817 C.2            1 S1                 0.0000
     11 ****         1.8101   0.5263   0.6372 O.2            1 S1                 0.0000
     12 ****        -0.3768   0.0127   0.8968 N.am           1 S1                 0.0000
     13 ****        -0.2253  -1.4239   1.1102 C.3            1 S1                 0.0000
     14 ****        -1.3583  -2.0268   1.9588 C.3            1 S1                 0.0000
     15 ****        -1.6244  -3.4199   1.3547 C.3            1 S1                 0.0000
     16 ****        -0.6211  -3.5810   0.2850 N.4            1 S1                 1.0000
     17 ****        -0.9484  -4.5181  -0.8115 C.3            1 S1                 0.0000
     18 ****         0.2525  -4.6131  -1.7739 C.3            1 S1                 0.0000
     19 ****         0.7032  -3.2225  -2.2652 C.3            1 S1                 0.0000
     20 ****         0.9392  -2.2638  -1.0820 C.3            1 S1                 0.0000
     21 ****        -0.3150  -2.2237  -0.1922 C.3            1 S1                 0.0000
     22 ****        -3.0587   5.4419   0.4086 H              1 S1                 0.0000
     23 ****        -1.8997   6.1254  -0.7262 H              1 S1                 0.0000
     24 ****        -1.7066   6.3864   1.0223 H              1 S1                 0.0000
     25 ****         2.4345   6.7909  -0.3831 H              1 S1                 0.0000
     26 ****         3.9302   4.7833  -0.2678 H              1 S1                 0.0000
     27 ****         2.9330   2.5677   0.1548 H              1 S1                 0.0000
     28 ****        -0.8317   2.2332   0.5995 H              1 S1                 0.0000
     29 ****        -1.3167   0.3810   0.9186 H              1 S1                 0.0000
     30 ****         0.7242  -1.6403   1.6049 H              1 S1                 0.0000
     31 ****        -1.0733  -2.0870   3.0097 H              1 S1                 0.0000
     32 ****        -2.2646  -1.4220   1.8998 H              1 S1                 0.0000
     33 ****        -1.5306  -4.2169   2.0927 H              1 S1                 0.0000
     34 ****        -2.6316  -3.4610   0.9369 H              1 S1                 0.0000
     35 ****        -1.1779  -5.5005  -0.3976 H              1 S1                 0.0000
     36 ****        -1.8378  -4.1743  -1.3421 H              1 S1                 0.0000
     37 ****         1.0849  -5.0997  -1.2637 H              1 S1                 0.0000
     38 ****         0.0011  -5.2471  -2.6247 H              1 S1                 0.0000
     39 ****         1.6105  -3.3107  -2.8635 H              1 S1                 0.0000
     40 ****        -0.0610  -2.8055  -2.9224 H              1 S1                 0.0000
     41 ****         1.8022  -2.5936  -0.5019 H              1 S1                 0.0000
     42 ****         1.1736  -1.2669  -1.4554 H              1 S1                 0.0000
     43 ****        -1.1633  -1.8612  -0.7777 H              1 S1                 0.0000
     44 ****         0.2192  -3.9215   0.7304 H              1 S1                 0.0000
     45 ****        -1.5973   3.8398  -0.3460 LP             1 S1                 0.0000
     46 ****        -1.4213   4.0776   1.2600 LP             1 S1                 0.0000
     47 ****         0.1214   6.5655  -0.0927 LP             1 S1                 0.0000
     48 ****         2.5240   1.2069   0.4723 LP             1 S1                 0.0000
     49 ****         2.0554  -0.4345   0.7659 LP             1 S1                 0.0000
@<TRIPOS>BOND
    1    1    2 1     
    2    1   22 1     
    3    1   23 1     
    4    1   24 1     
    5    2    3 1     
    6    3    8 ar    
    7    3    4 ar    
    8    4    5 ar    
    9    5    6 ar    
   10    5   25 1     
   11    6    7 ar    
   12    6   26 1     
   13    7    8 ar    
   14    7   27 1     
   15    8    9 1     
   16    9   10 am    
   17    9   28 1     
   18   10   11 2     
   19   10   12 am    
   20   12   13 1     
   21   12   29 1     
   22   13   21 1     
   23   13   14 1     
   24   13   30 1     
   25   14   15 1     
   26   14   31 1     
   27   14   32 1     
   28   15   16 1     
   29   15   33 1     
   30   15   34 1     
   31   16   21 1     
   32   16   17 1     
   33   16   44 1     
   34   17   18 1     
   35   17   35 1     
   36   17   36 1     
   37   18   19 1     
   38   18   37 1     
   39   18   38 1     
   40   19   20 1     
   41   19   39 1     
   42   19   40 1     
   43   20   21 1     
   44   20   41 1     
   45   20   42 1     
   46   21   43 1     
   47    2   45 1     
   48    2   46 1     
   49    4   47 1     
   50   11   48 1     
   51   11   49 1     
@<TRIPOS>SUBSTRUCTURE
      1 S1             1
@<TRIPOS>SET
LONE_PAIRS      STATIC     ATOMS    <user>   **** ""
5 45 46 47 48 49
DONOR_HYDROGENS      STATIC     ATOMS    <user>   **** ""
3 28 29 44
ATOM$BLUE        STATIC     ATOMS    COLORGROUP SYSTEM
5 45 46 47 48 49
ATOM$RED        STATIC     ATOMS    COLORGROUP SYSTEM
3 28 29 44
