AV-unprocessed.smi:1284|AV-procd|sdf|5363|dock1
  -GOLD-   22720 4503D 1   1.00000     0.00000
 Structure written by MMmdl.
 39 41  0  0  0  0  0  0  0  0  1 V2000
  154.2489  137.8811  159.1793 N   0  0  0  0  0  0  0  0  0  0  0  0
  152.9343  137.6457  159.2181 C   0  0  0  0  0  0  0  0  0  0  0  0
  152.4249  136.9094  160.0601 O   0  0  0  0  0  0  0  0  0  0  0  0
  152.0640  138.3478  158.1712 C   0  0  0  0  0  0  0  0  0  0  0  0
  152.0737  139.8263  158.4447 C   0  0  0  0  0  0  0  0  0  0  0  0
  153.0397  140.3973  159.1679 N   0  0  0  0  0  0  0  0  0  0  0  0
  152.6657  141.7265  159.1834 C   0  0  0  0  0  0  0  0  0  0  0  0
  153.2813  142.8467  159.7862 C   0  0  0  0  0  0  0  0  0  0  0  0
  152.7033  144.1278  159.6690 C   0  0  0  0  0  0  0  0  0  0  0  0
  151.5043  144.3068  158.9489 C   0  0  0  0  0  0  0  0  0  0  0  0
  150.8760  143.2040  158.3389 C   0  0  0  0  0  0  0  0  0  0  0  0
  151.4576  141.9276  158.4587 C   0  0  0  0  0  0  0  0  0  0  0  0
  151.1041  140.6651  157.9941 N   0  0  0  0  0  0  0  0  0  0  0  0
  149.9273  140.3543  157.1929 C   0  0  0  0  0  0  0  0  0  0  0  0
  150.2856  139.8248  155.7900 C   0  0  2  0  0  0  0  0  0  0  0  0
  151.5111  140.3823  155.3561 O   0  0  0  0  0  0  0  0  0  0  0  0
  149.1593  140.0804  154.8013 C   0  0  0  0  0  0  0  0  0  0  0  0
  148.7786  141.4034  154.4892 C   0  0  0  0  0  0  0  0  0  0  0  0
  147.7404  141.6447  153.5683 C   0  0  0  0  0  0  0  0  0  0  0  0
  147.0784  140.5649  152.9531 C   0  0  0  0  0  0  0  0  0  0  0  0
  147.4570  139.2432  153.2568 C   0  0  0  0  0  0  0  0  0  0  0  0
  148.4951  139.0014  154.1773 C   0  0  0  0  0  0  0  0  0  0  0  0
  154.8591  137.4307  159.8457 H   0  0  0  0  0  0  0  0  0  0  0  0
  154.6288  138.5010  158.4783 H   0  0  0  0  0  0  0  0  0  0  0  0
  152.4237  138.1358  157.1645 H   0  0  0  0  0  0  0  0  0  0  0  0
  151.0411  137.9724  158.2252 H   0  0  0  0  0  0  0  0  0  0  0  0
  154.1993  142.7197  160.3407 H   0  0  0  0  0  0  0  0  0  0  0  0
  153.1816  144.9767  160.1349 H   0  0  0  0  0  0  0  0  0  0  0  0
  151.0673  145.2911  158.8652 H   0  0  0  0  0  0  0  0  0  0  0  0
  149.9576  143.3370  157.7867 H   0  0  0  0  0  0  0  0  0  0  0  0
  149.3448  139.6054  157.7307 H   0  0  0  0  0  0  0  0  0  0  0  0
  149.2872  141.2324  157.1216 H   0  0  0  0  0  0  0  0  0  0  0  0
  150.4445  138.7476  155.8545 H   0  0  0  0  0  0  0  0  0  0  0  0
  152.0605  140.5207  156.1123 H   0  0  0  0  0  0  0  0  0  0  0  0
  149.2819  142.2387  154.9533 H   0  0  0  0  0  0  0  0  0  0  0  0
  147.4525  142.6588  153.3330 H   0  0  0  0  0  0  0  0  0  0  0  0
  146.2823  140.7505  152.2470 H   0  0  0  0  0  0  0  0  0  0  0  0
  146.9523  138.4141  152.7833 H   0  0  0  0  0  0  0  0  0  0  0  0
  148.7827  137.9843  154.4013 H   0  0  0  0  0  0  0  0  0  0  0  0
  1  2  1  0  0  0  0
  1 23  1  0  0  0  0
  1 24  1  0  0  0  0
  2  3  2  0  0  0  0
  2  4  1  0  0  0  0
  4  5  1  0  0  0  0
  4 25  1  0  0  0  0
  4 26  1  0  0  0  0
  5 13  1  0  0  0  0
  5  6  2  0  0  0  0
  6  7  1  0  0  0  0
  7 12  2  0  0  0  0
  7  8  1  0  0  0  0
  8  9  2  0  0  0  0
  8 27  1  0  0  0  0
  9 10  1  0  0  0  0
  9 28  1  0  0  0  0
 10 11  2  0  0  0  0
 10 29  1  0  0  0  0
 11 12  1  0  0  0  0
 11 30  1  0  0  0  0
 12 13  1  0  0  0  0
 13 14  1  0  0  0  0
 14 15  1  0  0  0  0
 14 31  1  0  0  0  0
 14 32  1  0  0  0  0
 15 16  1  0  0  0  0
 15 17  1  0  0  0  0
 15 33  1  0  0  0  0
 16 34  1  0  0  0  0
 17 22  1  0  0  0  0
 17 18  2  0  0  0  0
 18 19  1  0  0  0  0
 18 35  1  0  0  0  0
 19 20  2  0  0  0  0
 19 36  1  0  0  0  0
 20 21  1  0  0  0  0
 20 37  1  0  0  0  0
 21 22  2  0  0  0  0
 21 38  1  0  0  0  0
 22 39  1  0  0  0  0
M  END
> <s_m_source_file>
AV-unprocessed.smi

> <i_m_source_file_index>
1284

> <i_lp_mmshare_version>
43012

> <i_f3d_flags>
0

> <s_epik_input>
W2NIXTFbY0hdW2NIXVtjSF1jKGMxMiluKGMobjIpW0NIMl1DKD1PKVtOSDJdKVtDSDJdW0NASF0oW09IXSljM1tjSF1bY0hdW2NIXVtjSF1bY0hdMw==

> <s_epik_cmdline>
J2VwaWtfcHl0aG9uJywgJy1waCcsICc3LjAnLCAnLXRuJywgJzgnLCAnLW1hJywgJzIwMCcsICctbWV0YWxfYmluZGluZycsICctaW1hZScsICc8aW5maWxlLm1hZT4nLCAnLW9tYWUnLCAnPG91dGZpbGUubWFlPic=

> <r_epik_Ionization_Penalty>
0.0366899

> <r_epik_Ionization_Penalty_Charging>
0

> <r_epik_Ionization_Penalty_Neutral>
0.0366899

> <r_epik_State_Penalty>
0.0306642

> <r_epik_Charging_Adjusted_Penalty>
0.0306642

> <i_epik_Tot_Q>
0

> <i_epik_Tot_abs_Q>
0

> <r_epik_Metal_State_Penalty>
0.028853

> <b_epik_Metal_Only>
0

> <s_lp_Force_Field>
OPLS_2005

> <r_lp_Energy>
12.351

> <b_lp_Chiralities_Consistent>
1

> <s_lp_Variant>
AV-unprocessed.smi:1284-1

> <Gold.Version>
5.8.1

> <Gold.Id.Protein>
6NUR|6NUR_protein|mol2

> <Gold.PLP.Fitness>
46.7251

> <Gold.PLP.PLP>
-42.5362

> <Gold.PLP.part.hbond>
-2.0000

> <Gold.PLP.part.metal>
0.0000

> <Gold.PLP.part.buried>
-3.8262

> <Gold.PLP.part.nonpolar>
-35.6904

> <Gold.PLP.part.repulsive>
0.0731

> <Gold.PLP.ligand.clash>
0.0000

> <Gold.PLP.ligand.torsion>
0.7037

> <Gold.PLP.Chemscore.Hbond>
1.8320

> <Gold.PLP.Chemscore.CHOScore>
0.0000

> <Gold.PLP.Chemscore.Metal>
0.0000

> <Gold.Chemscore.Hbonds>
donor molecule, donor type, donor heavy atom, donor atom, acceptor molecule, acceptor atom, score
      P1  H  6896  6909       L1     3  1.00
      P1  H  7989  7998       L1    16  0.88

> <Gold.PLP.Chemscore.Internal.Correction>
0.1002

> <Gold.Rescore>
     Score         DG    S(hbond)    S(metal)    S(lipo)     H(rot)  DE(clash)    DE(int)     intcor
     16.53     -18.70       1.89        0.00     121.69       2.86       0.08       2.10       ----

> <Gold.Chemscore.Fitness>
16.5253

> <Gold.Chemscore.DG>
-18.7008

> <Gold.Chemscore.ZeroCoef>
-5.4800

> <Gold.Chemscore.Hbond>
1.8879

> <Gold.Chemscore.Metal>
0.0000

> <Gold.Chemscore.Lipo>
121.6946

> <Gold.Chemscore.Internal_Hbond>
0.0000

> <Gold.Chemscore.DEClash>
0.0791

> <Gold.Chemscore.DEInternal>
2.0963

> <Gold.Chemscore.Rot>
2.8606

> <Gold.Chemscore.Internal.Correction>
   9.000000E+99

> <Gold.Chemscore.Hbonds>
donor molecule, donor type, donor heavy atom, donor atom, acceptor molecule, acceptor atom, score
      P1  H  6896  6909       L1     3  1.00
      P1  H  7989  7998       L1    16  0.83

> <Gold.Chemscore.Hbond.Weighted>
-6.3056

> <Gold.Chemscore.Metal.Weighted>
-0.0000

> <Gold.Chemscore.Lipo.Weighted>
-14.2383

> <Gold.Chemscore.Internal_Hbond.Weighted>
0.0000

> <Gold.Chemscore.DEClash.Weighted>
0.0791

> <Gold.Chemscore.DEInternal.Weighted>
2.0963

> <Gold.Chemscore.Rot.Weighted>
7.3231

> <Gold.Chemscore.Internal.Correction.Weighted>
   9.000000E+99

> <Gold.Protein.RotatedTorsions>
[ 6907 6896 6895 6894 ] final  132.35 input  -60.11 | X-H torsion
[ 7974 7965 7964 7962 ] final -168.62 input  175.53 | X-H torsion
[ 8008 7997 7996 7995 ] final -158.84 input   59.86 | X-H torsion
[ 10167 10162 10161 10158 ] final  -25.59 input  -65.29 | X-H torsion
[ 10718 10713 10712 10709 ] final -178.30 input   66.30 | X-H torsion
[ 10763 10752 10751 10750 ] final  172.69 input  -60.55 | X-H torsion
[ 11005 11000 10999 10996 ] final  108.65 input  -57.11 | X-H torsion

> <Gold.Protein.ActiveResidues>
 VAL166  LYS551  ARG553  GLY616  TRP617  ASP618  TYR619  PRO620  LYS621  CYS622 
 ASP623  PHE694  ASN695  SER759  ASP760  ASP761  ALA762  ILE779  LEU786  VAL792 
 PHE793  MET794  SER795  GLU796  ALA797  LYS798  CYS799  TRP800  GLU811  SER814 

> <Gold.Protein.RotatedAtoms>
  152.3332  133.5982  159.5824 H   0  0  0  0  0  0  0  0  0  0  0  0  # atno 6907 bound_to 6896
  150.7435  133.9835  159.3593 H   0  0  0  0  0  0  0  0  0  0  0  0  # atno 6908 bound_to 6896
  151.7708  135.0787  160.0410 H   0  0  0  0  0  0  0  0  0  0  0  0  # atno 6909 bound_to 6896
  144.7200  140.2343  143.6300 H   0  0  0  0  0  0  0  0  0  0  0  0  # atno 7974 bound_to 7965
  155.7536  140.0830  157.2189 H   0  0  0  0  0  0  0  0  0  0  0  0  # atno 8008 bound_to 7997
  154.4010  140.1556  156.2808 H   0  0  0  0  0  0  0  0  0  0  0  0  # atno 8009 bound_to 7997
  155.8907  140.3415  155.5957 H   0  0  0  0  0  0  0  0  0  0  0  0  # atno 8010 bound_to 7997
  140.7286  143.4252  151.0888 H   0  0  0  0  0  0  0  0  0  0  0  0  # atno 10167 bound_to 10162
  156.8422  130.9690  151.3099 H   0  0  0  0  0  0  0  0  0  0  0  0  # atno 10718 bound_to 10713
  154.4295  135.2759  155.1922 H   0  0  0  0  0  0  0  0  0  0  0  0  # atno 10763 bound_to 10752
  154.3833  135.6082  153.5806 H   0  0  0  0  0  0  0  0  0  0  0  0  # atno 10764 bound_to 10752
  152.9835  135.5885  154.4604 H   0  0  0  0  0  0  0  0  0  0  0  0  # atno 10765 bound_to 10752
  139.8848  134.9436  156.6004 H   0  0  0  0  0  0  0  0  0  0  0  0  # atno 11005 bound_to 11000
  145.8381  139.2117  143.1843 LP  0  0  0  0  0  0  0  0  0  0  0  0  # atno 17320 bound_to 7965
  146.0371  140.8201  142.9847 LP  0  0  0  0  0  0  0  0  0  0  0  0  # atno 17321 bound_to 7965
  139.7902  143.8229  152.3150 LP  0  0  0  0  0  0  0  0  0  0  0  0  # atno 17342 bound_to 10162
  139.8210  144.7295  150.9572 LP  0  0  0  0  0  0  0  0  0  0  0  0  # atno 17343 bound_to 10162
  157.6349  130.8759  149.9341 LP  0  0  0  0  0  0  0  0  0  0  0  0  # atno 17370 bound_to 10713
  156.0874  130.3666  150.0460 LP  0  0  0  0  0  0  0  0  0  0  0  0  # atno 17371 bound_to 10713
  140.7888  133.8599  155.8628 LP  0  0  0  0  0  0  0  0  0  0  0  0  # atno 17394 bound_to 11000
  140.9696  134.1549  157.4587 LP  0  0  0  0  0  0  0  0  0  0  0  0  # atno 17395 bound_to 11000

$$$$
