AV-unprocessed.smi:325|AV-procd|sdf|2341|dock2
  -GOLD-   2262022253D 1   1.00000     0.00000
 Structure written by MMmdl.
 46 47  0  0  0  0  0  0  0  0  1 V2000
  152.9421  138.0607  155.8458 C   0  0  0  0  0  0  0  0  0  0  0  0
  152.1312  139.3090  156.1459 C   0  0  0  0  0  0  0  0  0  0  0  0
  152.5508  140.0520  157.2563 N   0  0  0  0  0  0  0  0  0  0  0  0
  151.9165  141.1288  157.6001 C   0  0  0  0  0  0  0  0  0  0  0  0
  152.2336  141.9563  158.6799 N   0  0  0  0  0  0  0  0  0  0  0  0
  151.6569  143.2966  158.8129 C   0  0  0  0  0  0  0  0  0  0  0  0
  152.5187  144.1907  159.7203 C   0  0  0  0  0  0  0  0  0  0  0  0
  152.6983  143.5626  160.9821 O   0  0  0  0  0  0  0  0  0  0  0  0
  153.3776  142.3216  160.8498 C   0  0  0  0  0  0  0  0  0  0  0  0
  152.5443  141.3643  159.9812 C   0  0  0  0  0  0  0  0  0  0  0  0
  150.8151  141.5630  156.8541 N   0  0  0  0  0  0  0  0  0  0  0  0
  150.3309  140.9168  155.7708 C   0  0  0  0  0  0  0  0  0  0  0  0
  149.3497  141.3540  155.1713 O   0  0  0  0  0  0  0  0  0  0  0  0
  151.0571  139.6913  155.4004 C   0  0  0  0  0  0  0  0  0  0  0  0
  150.5697  138.9182  154.1779 C   0  0  0  0  0  0  0  0  0  0  0  0
  149.2282  138.2084  154.4418 C   0  0  0  0  0  0  0  0  0  0  0  0
  149.3741  136.9210  155.2586 C   0  0  0  0  0  0  0  0  0  0  0  0
  149.5673  136.9661  156.4739 O   0  0  0  0  0  0  0  0  0  0  0  0
  149.2853  135.7728  154.5690 N   0  0  0  0  0  0  0  0  0  0  0  0
  149.4143  134.4323  155.1329 C   0  0  0  0  0  0  0  0  0  0  0  0
  150.7451  134.3253  155.8894 C   0  0  0  0  0  0  0  0  0  0  0  0
  149.3023  133.3686  154.0293 C   0  0  0  0  0  0  0  0  0  0  0  0
  150.3458  142.4105  157.1378 H   0  0  0  0  0  0  0  0  0  0  0  0
  152.2914  137.1909  155.7528 H   0  0  0  0  0  0  0  0  0  0  0  0
  153.6615  137.8549  156.6394 H   0  0  0  0  0  0  0  0  0  0  0  0
  153.4952  138.1821  154.9142 H   0  0  0  0  0  0  0  0  0  0  0  0
  151.5459  143.7870  157.8458 H   0  0  0  0  0  0  0  0  0  0  0  0
  150.6542  143.2034  159.2317 H   0  0  0  0  0  0  0  0  0  0  0  0
  153.4863  144.3941  159.2590 H   0  0  0  0  0  0  0  0  0  0  0  0
  152.0300  145.1534  159.8708 H   0  0  0  0  0  0  0  0  0  0  0  0
  154.3667  142.4780  160.4163 H   0  0  0  0  0  0  0  0  0  0  0  0
  153.5292  141.8931  161.8406 H   0  0  0  0  0  0  0  0  0  0  0  0
  151.6111  141.1163  160.4888 H   0  0  0  0  0  0  0  0  0  0  0  0
  153.0953  140.4312  159.8548 H   0  0  0  0  0  0  0  0  0  0  0  0
  150.4787  139.6043  153.3342 H   0  0  0  0  0  0  0  0  0  0  0  0
  151.3190  138.1886  153.8710 H   0  0  0  0  0  0  0  0  0  0  0  0
  148.5544  138.8888  154.9649 H   0  0  0  0  0  0  0  0  0  0  0  0
  148.7455  137.9574  153.4966 H   0  0  0  0  0  0  0  0  0  0  0  0
  149.1251  135.8325  153.5739 H   0  0  0  0  0  0  0  0  0  0  0  0
  148.6100  134.2724  155.8531 H   0  0  0  0  0  0  0  0  0  0  0  0
  150.8537  133.3444  156.3528 H   0  0  0  0  0  0  0  0  0  0  0  0
  150.8076  135.0717  156.6823 H   0  0  0  0  0  0  0  0  0  0  0  0
  151.5954  134.4747  155.2229 H   0  0  0  0  0  0  0  0  0  0  0  0
  149.3893  132.3643  154.4448 H   0  0  0  0  0  0  0  0  0  0  0  0
  150.0867  133.4883  153.2812 H   0  0  0  0  0  0  0  0  0  0  0  0
  148.3413  133.4277  153.5172 H   0  0  0  0  0  0  0  0  0  0  0  0
  1  2  1  0  0  0  0
  1 24  1  0  0  0  0
  1 25  1  0  0  0  0
  1 26  1  0  0  0  0
  2 14  2  0  0  0  0
  2  3  1  0  0  0  0
  3  4  2  0  0  0  0
  4  5  1  0  0  0  0
  4 11  1  0  0  0  0
  5 10  1  0  0  0  0
  5  6  1  0  0  0  0
  6  7  1  0  0  0  0
  6 27  1  0  0  0  0
  6 28  1  0  0  0  0
  7  8  1  0  0  0  0
  7 29  1  0  0  0  0
  7 30  1  0  0  0  0
  8  9  1  0  0  0  0
  9 10  1  0  0  0  0
  9 31  1  0  0  0  0
  9 32  1  0  0  0  0
 10 33  1  0  0  0  0
 10 34  1  0  0  0  0
 11 23  1  0  0  0  0
 11 12  1  0  0  0  0
 12 13  2  0  0  0  0
 12 14  1  0  0  0  0
 14 15  1  0  0  0  0
 15 16  1  0  0  0  0
 15 35  1  0  0  0  0
 15 36  1  0  0  0  0
 16 17  1  0  0  0  0
 16 37  1  0  0  0  0
 16 38  1  0  0  0  0
 17 18  2  0  0  0  0
 17 19  1  0  0  0  0
 19 20  1  0  0  0  0
 19 39  1  0  0  0  0
 20 21  1  0  0  0  0
 20 22  1  0  0  0  0
 20 40  1  0  0  0  0
 21 41  1  0  0  0  0
 21 42  1  0  0  0  0
 21 43  1  0  0  0  0
 22 44  1  0  0  0  0
 22 45  1  0  0  0  0
 22 46  1  0  0  0  0
M  END
> <s_m_source_file>
AV-unprocessed.smi

> <i_m_source_file_index>
325

> <i_lp_mmshare_version>
43012

> <i_f3d_flags>
0

> <s_epik_input>
W0NIMl0xW0NIMl1PW0NIMl1bQ0gyXU4xYyhuYzJbQ0gzXSlbbkhdYyg9TyljMltDSDJdW0NIMl1DKD1PKVtOSF1bQ0hdKFtDSDNdKVtDSDNd

> <s_epik_cmdline>
J2VwaWtfcHl0aG9uJywgJy1waCcsICc3LjAnLCAnLXRuJywgJzgnLCAnLW1hJywgJzIwMCcsICctbWV0YWxfYmluZGluZycsICctaW1hZScsICc8aW5maWxlLm1hZT4nLCAnLW9tYWUnLCAnPG91dGZpbGUubWFlPic=

> <r_lp_tautomer_probability>
0.878553

> <r_epik_Ionization_Penalty>
0.00121339

> <r_epik_Ionization_Penalty_Charging>
0.00118763

> <r_epik_Ionization_Penalty_Neutral>
2.57562e-05

> <r_epik_State_Penalty>
0.0423074

> <r_epik_Charging_Adjusted_Penalty>
0.043495

> <i_epik_Tot_Q>
0

> <i_epik_Tot_abs_Q>
0

> <r_epik_Metal_State_Penalty>
1.02455

> <b_epik_Metal_Only>
0

> <s_lp_Force_Field>
OPLS_2005

> <r_lp_Energy>
22.2751

> <b_lp_Chiralities_Consistent>
1

> <s_lp_Variant>
AV-unprocessed.smi:325-1

> <Gold.Version>
5.8.1

> <Gold.Id.Protein>
6NUR|6NUR_protein|mol2

> <Gold.PLP.Fitness>
45.8038

> <Gold.PLP.PLP>
-41.3557

> <Gold.PLP.part.hbond>
-2.0000

> <Gold.PLP.part.metal>
0.0000

> <Gold.PLP.part.buried>
-2.5617

> <Gold.PLP.part.nonpolar>
-35.2985

> <Gold.PLP.part.repulsive>
0.2812

> <Gold.PLP.ligand.clash>
0.0795

> <Gold.PLP.ligand.torsion>
0.8345

> <Gold.PLP.Chemscore.Hbond>
1.9760

> <Gold.PLP.Chemscore.CHOScore>
0.0000

> <Gold.PLP.Chemscore.Metal>
0.0000

> <Gold.Chemscore.Hbonds>
donor molecule, donor type, donor heavy atom, donor atom, acceptor molecule, acceptor atom, score
      L1  H    19    39       P1  7948  1.00
      P1  H  7997  8009       L1     3  0.85

> <Gold.PLP.Chemscore.Internal.Correction>
0.2686

> <Gold.Rescore>
     Score         DG    S(hbond)    S(metal)    S(lipo)     H(rot)  DE(clash)    DE(int)     intcor
     16.60     -17.30       1.59        0.00      93.09       1.71       0.03       0.67       ----

> <Gold.Chemscore.Fitness>
16.5970

> <Gold.Chemscore.DG>
-17.3031

> <Gold.Chemscore.ZeroCoef>
-5.4800

> <Gold.Chemscore.Hbond>
1.5879

> <Gold.Chemscore.Metal>
0.0000

> <Gold.Chemscore.Lipo>
93.0939

> <Gold.Chemscore.Internal_Hbond>
0.0000

> <Gold.Chemscore.DEClash>
0.0331

> <Gold.Chemscore.DEInternal>
0.6730

> <Gold.Chemscore.Rot>
1.7080

> <Gold.Chemscore.Internal.Correction>
   9.000000E+99

> <Gold.Chemscore.Hbonds>
donor molecule, donor type, donor heavy atom, donor atom, acceptor molecule, acceptor atom, score
      L1  H    19    39       P1  7948  0.82
      P1  H  7997  8009       L1     3  0.14

> <Gold.Chemscore.Hbond.Weighted>
-5.3035

> <Gold.Chemscore.Metal.Weighted>
-0.0000

> <Gold.Chemscore.Lipo.Weighted>
-10.8920

> <Gold.Chemscore.Internal_Hbond.Weighted>
0.0000

> <Gold.Chemscore.DEClash.Weighted>
0.0331

> <Gold.Chemscore.DEInternal.Weighted>
0.6730

> <Gold.Chemscore.Rot.Weighted>
4.3724

> <Gold.Chemscore.Internal.Correction.Weighted>
   9.000000E+99

> <Gold.Protein.RotatedTorsions>
[ 6907 6896 6895 6894 ] final  -76.82 input  -60.11 | X-H torsion
[ 7974 7965 7964 7962 ] final   11.91 input  175.53 | X-H torsion
[ 8008 7997 7996 7995 ] final  168.01 input   59.86 | X-H torsion
[ 10167 10162 10161 10158 ] final  -36.51 input  -65.29 | X-H torsion
[ 10718 10713 10712 10709 ] final -108.73 input   66.30 | X-H torsion
[ 10763 10752 10751 10750 ] final   42.59 input  -60.55 | X-H torsion
[ 11005 11000 10999 10996 ] final   82.46 input  -57.11 | X-H torsion

> <Gold.Protein.ActiveResidues>
 VAL166  LYS551  ARG553  GLY616  TRP617  ASP618  TYR619  PRO620  LYS621  CYS622 
 ASP623  PHE694  ASN695  SER759  ASP760  ASP761  ALA762  ILE779  LEU786  VAL792 
 PHE793  MET794  SER795  GLU796  ALA797  LYS798  CYS799  TRP800  GLU811  SER814 

> <Gold.Protein.RotatedAtoms>
  150.7016  134.4515  159.5338 H   0  0  0  0  0  0  0  0  0  0  0  0  # atno 6907 bound_to 6896
  152.2206  134.8413  160.0495 H   0  0  0  0  0  0  0  0  0  0  0  0  # atno 6908 bound_to 6896
  151.9265  133.3564  159.3952 H   0  0  0  0  0  0  0  0  0  0  0  0  # atno 6909 bound_to 6896
  146.2362  139.9414  142.8482 H   0  0  0  0  0  0  0  0  0  0  0  0  # atno 7974 bound_to 7965
  156.1584  140.1602  156.8653 H   0  0  0  0  0  0  0  0  0  0  0  0  # atno 8008 bound_to 7997
  154.5137  140.0795  156.8075 H   0  0  0  0  0  0  0  0  0  0  0  0  # atno 8009 bound_to 7997
  155.3756  140.3402  155.4247 H   0  0  0  0  0  0  0  0  0  0  0  0  # atno 8010 bound_to 7997
  140.7141  143.3404  151.2371 H   0  0  0  0  0  0  0  0  0  0  0  0  # atno 10167 bound_to 10162
  156.0500  130.5728  150.8001 H   0  0  0  0  0  0  0  0  0  0  0  0  # atno 10718 bound_to 10713
  152.9879  135.6127  154.2973 H   0  0  0  0  0  0  0  0  0  0  0  0  # atno 10763 bound_to 10752
  154.2695  135.2780  155.2746 H   0  0  0  0  0  0  0  0  0  0  0  0  # atno 10764 bound_to 10752
  154.5134  135.5834  153.6680 H   0  0  0  0  0  0  0  0  0  0  0  0  # atno 10765 bound_to 10752
  139.9063  134.8073  156.2177 H   0  0  0  0  0  0  0  0  0  0  0  0  # atno 11005 bound_to 11000
  145.1948  140.9828  143.4190 LP  0  0  0  0  0  0  0  0  0  0  0  0  # atno 17320 bound_to 7965
  144.9825  139.3769  143.6255 LP  0  0  0  0  0  0  0  0  0  0  0  0  # atno 17321 bound_to 7965
  139.6909  143.9693  152.2859 LP  0  0  0  0  0  0  0  0  0  0  0  0  # atno 17342 bound_to 10162
  139.9354  144.6715  150.8320 LP  0  0  0  0  0  0  0  0  0  0  0  0  # atno 17343 bound_to 10162
  157.5417  131.0941  150.9818 LP  0  0  0  0  0  0  0  0  0  0  0  0  # atno 17370 bound_to 10713
  157.0100  130.5633  149.5320 LP  0  0  0  0  0  0  0  0  0  0  0  0  # atno 17371 bound_to 10713
  141.0425  133.6930  156.1624 LP  0  0  0  0  0  0  0  0  0  0  0  0  # atno 17394 bound_to 11000
  140.6933  134.4642  157.5588 LP  0  0  0  0  0  0  0  0  0  0  0  0  # atno 17395 bound_to 11000

$$$$
