#       Name:                AV-unprocessed.smi:767
#       Creating user name   scv26
#       Creation time:       Fri Mar 27 01:08:08 2020


#       File generated by GOLD software.
#

@<TRIPOS>MOLECULE
AV-unprocessed.smi:767
    52    54     1
SMALL
NO_CHARGES


@<TRIPOS>ATOM
      1 ****        -0.7890   2.9050   4.0045 C.3            1 S1                 0.0000
      2 ****        -1.5270   2.3368   2.8109 C.ar           1 S1                 0.0000
      3 ****        -1.2444   2.7460   1.4905 C.ar           1 S1                 0.0000
      4 ****        -1.9669   2.1739   0.4234 C.ar           1 S1                 0.0000
      5 ****        -2.9547   1.2021   0.6959 C.ar           1 S1                 0.0000
      6 ****        -3.7267   0.5472  -0.4378 C.3            1 S1                 0.0000
      7 ****        -3.4110  -0.9523  -0.6224 C.3            1 S1                 0.0000
      8 ****        -1.9822  -1.2516  -0.5877 N.am           1 S1                 0.0000
      9 ****        -1.0941  -0.9094  -1.5308 C.2            1 S1                 0.0000
     10 ****        -1.3799  -0.3052  -2.5641 O.2            1 S1                 0.0000
     11 ****         0.1467  -1.2822  -1.1944 N.am           1 S1                 0.0000
     12 ****         1.3486  -1.0335  -1.9925 C.3            1 S1                 0.0000
     13 ****         2.1593   0.1995  -1.5233 C.3            1 S1                 0.0000
     14 ****         1.6221   1.2203  -0.5510 C.3            1 S1                 0.0000
     15 ****         2.1602   0.7292   0.7961 C.3            1 S1                 0.0000
     16 ****         2.4943  -0.6410   0.5817 O.3            1 S1                 0.0000
     17 ****         3.0346  -0.7592  -0.7333 C.3            1 S1                 0.0000
     18 ****         2.5335  -1.9472  -1.5812 C.3            1 S1                 0.0000
     19 ****         2.2367  -3.2490  -0.8243 C.3            1 S1                 0.0000
     20 ****         3.4651  -2.3263  -2.7367 C.3            1 S1                 0.0000
     21 ****        -3.2002   0.8384   2.0374 C.ar           1 S1                 0.0000
     22 ****        -2.4867   1.4102   3.0322 N.pl3          1 S1                 1.0000
     23 ****         0.1927   3.2778   3.7105 H              1 S1                 0.0000
     24 ****        -0.6448   2.1434   4.7717 H              1 S1                 0.0000
     25 ****        -1.3531   3.7304   4.4396 H              1 S1                 0.0000
     26 ****        -0.4812   3.4850   1.2938 H              1 S1                 0.0000
     27 ****        -1.7530   2.4704  -0.5934 H              1 S1                 0.0000
     28 ****        -4.7943   0.6786  -0.2592 H              1 S1                 0.0000
     29 ****        -3.5124   1.0791  -1.3657 H              1 S1                 0.0000
     30 ****        -3.8711  -1.5186   0.1875 H              1 S1                 0.0000
     31 ****        -3.8535  -1.3254  -1.5471 H              1 S1                 0.0000
     32 ****        -1.6428  -1.7516   0.2210 H              1 S1                 0.0000
     33 ****         0.2796  -1.7670  -0.3188 H              1 S1                 0.0000
     34 ****         1.1679  -1.0376  -3.0692 H              1 S1                 0.0000
     35 ****         2.7110   0.6379  -2.3563 H              1 S1                 0.0000
     36 ****         1.9796   2.2264  -0.7718 H              1 S1                 0.0000
     37 ****         0.5350   1.2564  -0.5561 H              1 S1                 0.0000
     38 ****         3.0643   1.2756   1.0683 H              1 S1                 0.0000
     39 ****         1.4362   0.8426   1.6033 H              1 S1                 0.0000
     40 ****         4.1020  -0.5409  -0.7899 H              1 S1                 0.0000
     41 ****         3.1549  -3.7512  -0.5185 H              1 S1                 0.0000
     42 ****         1.6699  -3.9475  -1.4406 H              1 S1                 0.0000
     43 ****         1.6589  -3.0767   0.0837 H              1 S1                 0.0000
     44 ****         4.3992  -2.7562  -2.3735 H              1 S1                 0.0000
     45 ****         3.7275  -1.4602  -3.3452 H              1 S1                 0.0000
     46 ****         3.0019  -3.0563  -3.4011 H              1 S1                 0.0000
     47 ****        -3.9333   0.1056   2.3419 H              1 S1                 0.0000
     48 ****        -2.6781   1.1272   3.9936 H              1 S1                 0.0000
     49 ****        -2.3271  -0.0380  -2.7414 LP             1 S1                 0.0000
     50 ****        -0.6650  -0.0814  -3.2265 LP             1 S1                 0.0000
     51 ****         1.6745  -1.2077   0.6645 LP             1 S1                 0.0000
     52 ****         3.1723  -0.9350   1.2554 LP             1 S1                 0.0000
@<TRIPOS>BOND
    1    1    2 1     
    2    1   23 1     
    3    1   24 1     
    4    1   25 1     
    5    2   22 ar    
    6    2    3 ar    
    7    3    4 ar    
    8    3   26 1     
    9    4    5 ar    
   10    4   27 1     
   11    5    6 1     
   12    5   21 ar    
   13    6    7 1     
   14    6   28 1     
   15    6   29 1     
   16    7    8 1     
   17    7   30 1     
   18    7   31 1     
   19    8    9 am    
   20    8   32 1     
   21    9   10 2     
   22    9   11 am    
   23   11   12 1     
   24   11   33 1     
   25   12   18 1     
   26   12   13 1     
   27   12   34 1     
   28   13   17 1     
   29   13   14 1     
   30   13   35 1     
   31   14   15 1     
   32   14   36 1     
   33   14   37 1     
   34   15   16 1     
   35   15   38 1     
   36   15   39 1     
   37   16   17 1     
   38   17   18 1     
   39   17   40 1     
   40   18   19 1     
   41   18   20 1     
   42   19   41 1     
   43   19   42 1     
   44   19   43 1     
   45   20   44 1     
   46   20   45 1     
   47   20   46 1     
   48   21   22 ar    
   49   21   47 1     
   50   22   48 1     
   51   10   49 1     
   52   10   50 1     
   53   16   51 1     
   54   16   52 1     
@<TRIPOS>SUBSTRUCTURE
      1 S1             1
@<TRIPOS>SET
LONE_PAIRS      STATIC     ATOMS    <user>   **** ""
4 49 50 51 52
DONOR_HYDROGENS      STATIC     ATOMS    <user>   **** ""
3 32 33 48
ATOM$BLUE        STATIC     ATOMS    COLORGROUP SYSTEM
4 49 50 51 52
ATOM$RED        STATIC     ATOMS    COLORGROUP SYSTEM
3 32 33 48
