AV-unprocessed.smi:3308|AV-procd|sdf|12714|dock5
  -GOLD-   2272019 53D 1   1.00000     0.00000
 Structure written by MMmdl.
 40 41  0  0  0  0  0  0  0  0  1 V2000
  147.7083  141.4768  156.8721 C   0  0  0  0  0  0  0  0  0  0  0  0
  149.0899  140.9582  156.4164 C   0  0  2  0  0  0  0  0  0  0  0  0
  150.0068  142.0893  156.3056 N   0  0  0  0  0  0  0  0  0  0  0  0
  150.4600  142.5959  157.6074 C   0  0  0  0  0  0  0  0  0  0  0  0
  151.6722  141.8107  158.1192 C   0  0  0  0  0  0  0  0  0  0  0  0
  152.0658  140.8415  157.4700 O   0  0  0  0  0  0  0  0  0  0  0  0
  152.2721  142.2050  159.2628 N   0  0  0  0  0  0  0  0  0  0  0  0
  151.8268  143.3541  160.0491 C   0  0  0  0  0  0  0  0  0  0  0  0
  152.9128  143.5841  161.1002 C   0  0  0  0  0  0  0  0  0  0  0  0
  153.5616  142.2174  161.2691 C   0  0  0  0  0  0  0  0  0  0  0  0
  153.4302  141.5683  159.8910 C   0  0  0  0  0  0  0  0  0  0  0  0
  149.0481  140.2351  155.0431 C   0  0  1  0  0  0  0  0  0  0  0  0
  148.8570  141.2094  153.8650 C   0  0  0  0  0  0  0  0  0  0  0  0
  150.2399  139.4258  154.8189 N   0  0  0  0  0  0  0  0  0  0  0  0
  150.3259  138.1220  154.3718 C   0  0  0  0  0  0  0  0  0  0  0  0
  151.6504  137.7959  154.3146 C   0  0  0  0  0  0  0  0  0  0  0  0
  152.3085  138.9793  154.7513 C   0  0  0  0  0  0  0  0  0  0  0  0
  151.4632  139.9516  155.0517 N   0  0  0  0  0  0  0  0  0  0  0  0
  146.9983  140.6615  157.0098 H   0  0  0  0  0  0  0  0  0  0  0  0
  147.2828  142.1627  156.1386 H   0  0  0  0  0  0  0  0  0  0  0  0
  147.7600  142.0024  157.8248 H   0  0  0  0  0  0  0  0  0  0  0  0
  149.4647  140.2521  157.1597 H   0  0  0  0  0  0  0  0  0  0  0  0
  149.5808  142.8132  155.7449 H   0  0  0  0  0  0  0  0  0  0  0  0
  150.6992  143.6571  157.5519 H   0  0  0  0  0  0  0  0  0  0  0  0
  149.6534  142.4973  158.3358 H   0  0  0  0  0  0  0  0  0  0  0  0
  151.6779  144.2421  159.4327 H   0  0  0  0  0  0  0  0  0  0  0  0
  150.8767  143.1098  160.5268 H   0  0  0  0  0  0  0  0  0  0  0  0
  153.6488  144.2920  160.7165 H   0  0  0  0  0  0  0  0  0  0  0  0
  152.5190  143.9850  162.0345 H   0  0  0  0  0  0  0  0  0  0  0  0
  154.5950  142.2780  161.6117 H   0  0  0  0  0  0  0  0  0  0  0  0
  153.0005  141.6359  162.0020 H   0  0  0  0  0  0  0  0  0  0  0  0
  153.3179  140.4871  159.9785 H   0  0  0  0  0  0  0  0  0  0  0  0
  154.3178  141.7716  159.2899 H   0  0  0  0  0  0  0  0  0  0  0  0
  148.1933  139.5550  155.0460 H   0  0  0  0  0  0  0  0  0  0  0  0
  147.9178  141.7568  153.9458 H   0  0  0  0  0  0  0  0  0  0  0  0
  148.8378  140.6744  152.9149 H   0  0  0  0  0  0  0  0  0  0  0  0
  149.6629  141.9426  153.8177 H   0  0  0  0  0  0  0  0  0  0  0  0
  149.4464  137.5423  154.1331 H   0  0  0  0  0  0  0  0  0  0  0  0
  152.0836  136.8553  154.0079 H   0  0  0  0  0  0  0  0  0  0  0  0
  153.3680  139.1599  154.8582 H   0  0  0  0  0  0  0  0  0  0  0  0
  1  2  1  0  0  0  0
  1 19  1  0  0  0  0
  1 20  1  0  0  0  0
  1 21  1  0  0  0  0
  2  3  1  0  0  0  0
  2 12  1  0  0  0  0
  2 22  1  0  0  0  0
  3  4  1  0  0  0  0
  3 23  1  0  0  0  0
  4  5  1  0  0  0  0
  4 24  1  0  0  0  0
  4 25  1  0  0  0  0
  5  6  2  0  0  0  0
  5  7  1  0  0  0  0
  7 11  1  0  0  0  0
  7  8  1  0  0  0  0
  8  9  1  0  0  0  0
  8 26  1  0  0  0  0
  8 27  1  0  0  0  0
  9 10  1  0  0  0  0
  9 28  1  0  0  0  0
  9 29  1  0  0  0  0
 10 11  1  0  0  0  0
 10 30  1  0  0  0  0
 10 31  1  0  0  0  0
 11 32  1  0  0  0  0
 11 33  1  0  0  0  0
 12 13  1  0  0  0  0
 12 14  1  0  0  0  0
 12 34  1  0  0  0  0
 13 35  1  0  0  0  0
 13 36  1  0  0  0  0
 13 37  1  0  0  0  0
 14 18  1  0  0  0  0
 14 15  1  0  0  0  0
 15 16  2  0  0  0  0
 15 38  1  0  0  0  0
 16 17  1  0  0  0  0
 16 39  1  0  0  0  0
 17 18  2  0  0  0  0
 17 40  1  0  0  0  0
M  END
> <s_m_source_file>
AV-unprocessed.smi

> <i_m_source_file_index>
3308

> <i_lp_mmshare_version>
43012

> <i_f3d_flags>
0

> <s_epik_input>
bjFbY0hdW2NIXVtjSF1uMVtDQEBIXShbQ0gzXSlbQ0BIXShbQ0gzXSlbTkhdW0NIMl1DKD1PKU4yW0NIMl1bQ0gyXVtDSDJdW0NIMl0y

> <s_epik_cmdline>
J2VwaWtfcHl0aG9uJywgJy1waCcsICc3LjAnLCAnLXRuJywgJzgnLCAnLW1hJywgJzIwMCcsICctbWV0YWxfYmluZGluZycsICctaW1hZScsICc8aW5maWxlLm1hZT4nLCAnLW9tYWUnLCAnPG91dGZpbGUubWFlPic=

> <r_lp_tautomer_probability>
1

> <r_epik_Ionization_Penalty>
0.918676

> <r_epik_Ionization_Penalty_Charging>
0

> <r_epik_Ionization_Penalty_Neutral>
0.918676

> <r_epik_State_Penalty>
0.958258

> <r_epik_Charging_Adjusted_Penalty>
0.958258

> <i_epik_Tot_Q>
0

> <i_epik_Tot_abs_Q>
0

> <r_epik_Metal_State_Penalty>
0.956879

> <b_epik_Metal_Only>
0

> <s_lp_Force_Field>
OPLS_2005

> <r_lp_Energy>
36.0541

> <b_lp_Chiralities_Consistent>
1

> <s_lp_Variant>
AV-unprocessed.smi:3308-7

> <Gold.Version>
5.8.1

> <Gold.Id.Protein>
6NUR|6NUR_protein|mol2

> <Gold.PLP.Fitness>
44.4409

> <Gold.PLP.PLP>
-38.5353

> <Gold.PLP.part.hbond>
-2.0000

> <Gold.PLP.part.metal>
0.0000

> <Gold.PLP.part.buried>
-1.6079

> <Gold.PLP.part.nonpolar>
-34.8159

> <Gold.PLP.part.repulsive>
0.0421

> <Gold.PLP.ligand.clash>
0.0000

> <Gold.PLP.ligand.torsion>
0.8912

> <Gold.PLP.Chemscore.Hbond>
1.7045

> <Gold.PLP.Chemscore.CHOScore>
0.8357

> <Gold.PLP.Chemscore.Metal>
0.0000

> <Gold.Chemscore.Hbonds>
donor molecule, donor type, donor heavy atom, donor atom, acceptor molecule, acceptor atom, score
      L1  H     3    23       P1  8028  0.94
      P1  H  7989  7998       L1    18  0.72
      L1  C    15    38       P1  7948  0.66

> <Gold.PLP.Chemscore.Internal.Correction>
0.0673

> <Gold.Rescore>
     Score         DG    S(hbond)    S(metal)    S(lipo)     H(rot)  DE(clash)    DE(int)     intcor
     11.70     -15.33       0.99        0.00      93.69       1.72       0.04       3.59       ----

> <Gold.Chemscore.Fitness>
11.6977

> <Gold.Chemscore.DG>
-15.3307

> <Gold.Chemscore.ZeroCoef>
-5.4800

> <Gold.Chemscore.Hbond>
0.9858

> <Gold.Chemscore.Metal>
0.0000

> <Gold.Chemscore.Lipo>
93.6864

> <Gold.Chemscore.Internal_Hbond>
0.0000

> <Gold.Chemscore.DEClash>
0.0426

> <Gold.Chemscore.DEInternal>
3.5903

> <Gold.Chemscore.Rot>
1.7200

> <Gold.Chemscore.Internal.Correction>
   9.000000E+99

> <Gold.Chemscore.Hbonds>
donor molecule, donor type, donor heavy atom, donor atom, acceptor molecule, acceptor atom, score
      L1  H     3    23       P1  8028  0.86
      P1  H  7989  7998       L1    18  0.02

> <Gold.Chemscore.Hbond.Weighted>
-3.2925

> <Gold.Chemscore.Metal.Weighted>
-0.0000

> <Gold.Chemscore.Lipo.Weighted>
-10.9613

> <Gold.Chemscore.Internal_Hbond.Weighted>
0.0000

> <Gold.Chemscore.DEClash.Weighted>
0.0426

> <Gold.Chemscore.DEInternal.Weighted>
3.5903

> <Gold.Chemscore.Rot.Weighted>
4.4031

> <Gold.Chemscore.Internal.Correction.Weighted>
   9.000000E+99

> <Gold.Protein.RotatedTorsions>
[ 6907 6896 6895 6894 ] final  -27.69 input  -60.11 | X-H torsion
[ 7974 7965 7964 7962 ] final -161.45 input  175.53 | X-H torsion
[ 8008 7997 7996 7995 ] final  -53.44 input   59.86 | X-H torsion
[ 10167 10162 10161 10158 ] final  159.45 input  -65.29 | X-H torsion
[ 10718 10713 10712 10709 ] final  104.31 input   66.30 | X-H torsion
[ 10763 10752 10751 10750 ] final  -26.18 input  -60.55 | X-H torsion
[ 11005 11000 10999 10996 ] final -148.54 input  -57.11 | X-H torsion

> <Gold.Protein.ActiveResidues>
 VAL166  LYS551  ARG553  GLY616  TRP617  ASP618  TYR619  PRO620  LYS621  CYS622 
 ASP623  PHE694  ASN695  SER759  ASP760  ASP761  ALA762  ILE779  LEU786  VAL792 
 PHE793  MET794  SER795  GLU796  ALA797  LYS798  CYS799  TRP800  GLU811  SER814 

> <Gold.Protein.RotatedAtoms>
  151.1433  135.0191  159.8635 H   0  0  0  0  0  0  0  0  0  0  0  0  # atno 6907 bound_to 6896
  152.5452  134.1473  159.8514 H   0  0  0  0  0  0  0  0  0  0  0  0  # atno 6908 bound_to 6896
  151.1551  133.4836  159.2627 H   0  0  0  0  0  0  0  0  0  0  0  0  # atno 6909 bound_to 6896
  144.7391  140.3396  143.6137 H   0  0  0  0  0  0  0  0  0  0  0  0  # atno 7974 bound_to 7965
  154.4133  140.1200  156.5154 H   0  0  0  0  0  0  0  0  0  0  0  0  # atno 8008 bound_to 7997
  155.6757  140.3496  155.4816 H   0  0  0  0  0  0  0  0  0  0  0  0  # atno 8009 bound_to 7997
  155.9595  140.1120  157.0898 H   0  0  0  0  0  0  0  0  0  0  0  0  # atno 8010 bound_to 7997
  139.4832  144.4729  151.8552 H   0  0  0  0  0  0  0  0  0  0  0  0  # atno 10167 bound_to 10162
  157.6744  131.0800  150.5686 H   0  0  0  0  0  0  0  0  0  0  0  0  # atno 10718 bound_to 10713
  153.7118  135.6950  153.5035 H   0  0  0  0  0  0  0  0  0  0  0  0  # atno 10763 bound_to 10752
  153.2267  135.4351  155.0549 H   0  0  0  0  0  0  0  0  0  0  0  0  # atno 10764 bound_to 10752
  154.8312  135.3474  154.6655 H   0  0  0  0  0  0  0  0  0  0  0  0  # atno 10765 bound_to 10752
  140.7602  134.3307  157.5103 H   0  0  0  0  0  0  0  0  0  0  0  0  # atno 11005 bound_to 11000
  145.7388  139.1758  143.2388 LP  0  0  0  0  0  0  0  0  0  0  0  0  # atno 17320 bound_to 7965
  146.1150  140.7381  142.9485 LP  0  0  0  0  0  0  0  0  0  0  0  0  # atno 17321 bound_to 7965
  140.4199  144.2257  150.5887 LP  0  0  0  0  0  0  0  0  0  0  0  0  # atno 17342 bound_to 10162
  140.4884  143.2355  151.8854 LP  0  0  0  0  0  0  0  0  0  0  0  0  # atno 17343 bound_to 10162
  156.5988  130.4349  149.5906 LP  0  0  0  0  0  0  0  0  0  0  0  0  # atno 17370 bound_to 10713
  156.2523  130.6914  151.1656 LP  0  0  0  0  0  0  0  0  0  0  0  0  # atno 17371 bound_to 10713
  139.8772  134.9197  156.3233 LP  0  0  0  0  0  0  0  0  0  0  0  0  # atno 17394 bound_to 11000
  140.9670  133.7351  156.0481 LP  0  0  0  0  0  0  0  0  0  0  0  0  # atno 17395 bound_to 11000

$$$$
