#       Name:                AV-unprocessed.smi:1236
#       Creating user name   scv26
#       Creation time:       Fri Mar 27 04:25:58 2020


#       File generated by GOLD software.
#

@<TRIPOS>MOLECULE
AV-unprocessed.smi:1236
    45    46     1
SMALL
NO_CHARGES


@<TRIPOS>ATOM
      1 ****        -0.5109   3.6833   0.8331 C.3            1 S1                 0.0000
      2 ****        -0.0533   2.2192   0.8731 C.3            1 S1                 0.0000
      3 ****         1.4732   2.1050   0.6715 C.3            1 S1                 0.0000
      4 ****         2.0146   0.7450   0.6833 N.3            1 S1                 0.0000
      5 ****         1.9223   0.1103   1.9963 C.3            1 S1                 0.0000
      6 ****         2.5051  -1.3132   1.9839 C.3            1 S1                 0.0000
      7 ****         3.8554  -1.2735   1.5333 O.3            1 S1                 0.0000
      8 ****         3.9852  -0.6979   0.2375 C.3            1 S1                 0.0000
      9 ****         3.4060   0.7272   0.2463 C.3            1 S1                 0.0000
     10 ****        -0.7577   1.4699  -0.1667 N.am           1 S1                 0.0000
     11 ****        -1.4159   0.3138   0.0071 C.2            1 S1                 0.0000
     12 ****        -1.5326  -0.2486   1.0964 O.2            1 S1                 0.0000
     13 ****        -1.9151  -0.1382  -1.1567 N.am           1 S1                 0.0000
     14 ****        -2.6590  -1.3253  -1.3913 C.ar           1 S1                 0.0000
     15 ****        -3.0265  -1.5448  -2.7382 C.ar           1 S1                 0.0000
     16 ****        -3.7659  -2.6948  -3.0762 C.ar           1 S1                 0.0000
     17 ****        -4.1204  -3.5965  -2.0570 C.ar           1 S1                 0.0000
     18 ****        -3.7157  -3.3028  -0.7418 C.ar           1 S1                 0.0000
     19 ****        -3.0067  -2.2017  -0.4159 N.ar           1 S1                 0.0000
     20 ****        -0.0172   4.2687   1.6092 H              1 S1                 0.0000
     21 ****        -1.5863   3.7631   0.9959 H              1 S1                 0.0000
     22 ****        -0.2836   4.1462  -0.1277 H              1 S1                 0.0000
     23 ****        -0.3164   1.8379   1.8603 H              1 S1                 0.0000
     24 ****         1.7157   2.5696  -0.2853 H              1 S1                 0.0000
     25 ****         1.9828   2.7038   1.4278 H              1 S1                 0.0000
     26 ****         2.4517   0.7114   2.7368 H              1 S1                 0.0000
     27 ****         0.8849   0.0562   2.3224 H              1 S1                 0.0000
     28 ****         2.4749  -1.7447   2.9844 H              1 S1                 0.0000
     29 ****         1.9162  -1.9642   1.3361 H              1 S1                 0.0000
     30 ****         5.0390  -0.6782  -0.0405 H              1 S1                 0.0000
     31 ****         3.4706  -1.3189  -0.4972 H              1 S1                 0.0000
     32 ****         3.4856   1.1529  -0.7546 H              1 S1                 0.0000
     33 ****         4.0086   1.3573   0.9023 H              1 S1                 0.0000
     34 ****        -0.7162   1.8517  -1.0999 H              1 S1                 0.0000
     35 ****        -1.7352   0.4289  -1.9718 H              1 S1                 0.0000
     36 ****        -2.7459  -0.8415  -3.5086 H              1 S1                 0.0000
     37 ****        -4.0557  -2.8808  -4.0997 H              1 S1                 0.0000
     38 ****        -4.6875  -4.4890  -2.2766 H              1 S1                 0.0000
     39 ****        -3.9681  -3.9687   0.0701 H              1 S1                 0.0000
     40 ****         1.4506   0.2227   0.0436 LP             1 S1                 0.0000
     41 ****         4.2111  -2.2077   1.5055 LP             1 S1                 0.0000
     42 ****         4.3926  -0.7314   2.1795 LP             1 S1                 0.0000
     43 ****        -1.1241   0.1563   1.9144 LP             1 S1                 0.0000
     44 ****        -2.0359  -1.1101   1.1629 LP             1 S1                 0.0000
     45 ****        -2.7408  -2.0338   0.5333 LP             1 S1                 0.0000
@<TRIPOS>BOND
    1    1    2 1     
    2    1   20 1     
    3    1   21 1     
    4    1   22 1     
    5    2    3 1     
    6    2   10 1     
    7    2   23 1     
    8    3    4 1     
    9    3   24 1     
   10    3   25 1     
   11    4    9 1     
   12    4    5 1     
   13    5    6 1     
   14    5   26 1     
   15    5   27 1     
   16    6    7 1     
   17    6   28 1     
   18    6   29 1     
   19    7    8 1     
   20    8    9 1     
   21    8   30 1     
   22    8   31 1     
   23    9   32 1     
   24    9   33 1     
   25   10   11 am    
   26   10   34 1     
   27   11   12 2     
   28   11   13 am    
   29   13   14 1     
   30   13   35 1     
   31   14   19 ar    
   32   14   15 ar    
   33   15   16 ar    
   34   15   36 1     
   35   16   17 ar    
   36   16   37 1     
   37   17   18 ar    
   38   17   38 1     
   39   18   19 ar    
   40   18   39 1     
   41    4   40 1     
   42    7   41 1     
   43    7   42 1     
   44   12   43 1     
   45   12   44 1     
   46   19   45 1     
@<TRIPOS>SUBSTRUCTURE
      1 S1             1
@<TRIPOS>SET
LONE_PAIRS      STATIC     ATOMS    <user>   **** ""
6 40 41 42 43 44 45
DONOR_HYDROGENS      STATIC     ATOMS    <user>   **** ""
2 34 35
ATOM$BLUE        STATIC     ATOMS    COLORGROUP SYSTEM
6 40 41 42 43 44 45
ATOM$RED        STATIC     ATOMS    COLORGROUP SYSTEM
2 34 35
