AV-unprocessed.smi:1180|AV-procd|sdf|4963|dock5
  -GOLD-   22720 3553D 1   1.00000     0.00000
 Structure written by MMmdl.
 38 39  0  0  0  0  0  0  0  0  1 V2000
  147.7201  135.7232  160.7431 C   0  0  0  0  0  0  0  0  0  0  0  0
  148.4700  136.5203  159.6976 C   0  0  0  0  0  0  0  0  0  0  0  0
  147.6805  137.4409  159.0290 N   0  0  0  0  0  0  0  0  0  0  0  0
  148.2794  138.2274  158.0607 C   0  0  0  0  0  0  0  0  0  0  0  0
  147.3425  139.2165  157.3895 C   0  0  0  0  0  0  0  0  0  0  0  0
  149.5992  138.0982  157.7691 C   0  0  0  0  0  0  0  0  0  0  0  0
  150.3086  138.9432  156.7132 C   0  0  0  0  0  0  0  0  0  0  0  0
  151.4931  139.7644  157.2229 C   0  0  0  0  0  0  0  0  0  0  0  0
  152.5691  139.7318  156.6270 O   0  0  0  0  0  0  0  0  0  0  0  0
  151.2791  140.4937  158.3288 N   0  0  0  0  0  0  0  0  0  0  0  0
  152.2658  141.3378  158.9945 C   0  0  0  0  0  0  0  0  0  0  0  0
  151.7319  142.7611  159.2427 C   0  0  1  0  0  0  0  0  0  0  0  0
  152.5851  143.5768  160.1923 C   0  0  0  0  0  0  0  0  0  0  0  0
  152.1177  144.9989  159.8970 C   0  0  0  0  0  0  0  0  0  0  0  0
  151.7314  145.0060  158.5256 O   0  0  0  0  0  0  0  0  0  0  0  0
  151.7138  143.6759  158.0165 C   0  0  0  0  0  0  0  0  0  0  0  0
  150.3890  137.0848  158.5082 C   0  0  0  0  0  0  0  0  0  0  0  0
  151.5838  136.9060  158.2742 O   0  0  0  0  0  0  0  0  0  0  0  0
  149.7356  136.3201  159.4881 N   0  0  0  0  0  0  0  0  0  0  0  0
  146.6973  137.5726  159.2182 H   0  0  0  0  0  0  0  0  0  0  0  0
  148.3827  135.0172  161.2454 H   0  0  0  0  0  0  0  0  0  0  0  0
  146.9087  135.1595  160.2818 H   0  0  0  0  0  0  0  0  0  0  0  0
  147.2962  136.3881  161.4965 H   0  0  0  0  0  0  0  0  0  0  0  0
  147.3002  139.0359  156.3157 H   0  0  0  0  0  0  0  0  0  0  0  0
  147.6826  140.2387  157.5559 H   0  0  0  0  0  0  0  0  0  0  0  0
  146.3274  139.1362  157.7804 H   0  0  0  0  0  0  0  0  0  0  0  0
  149.5940  139.6014  156.2165 H   0  0  0  0  0  0  0  0  0  0  0  0
  150.6739  138.2936  155.9180 H   0  0  0  0  0  0  0  0  0  0  0  0
  150.3606  140.4549  158.7467 H   0  0  0  0  0  0  0  0  0  0  0  0
  152.5055  140.8695  159.9493 H   0  0  0  0  0  0  0  0  0  0  0  0
  153.1985  141.3673  158.4281 H   0  0  0  0  0  0  0  0  0  0  0  0
  150.7216  142.7029  159.6516 H   0  0  0  0  0  0  0  0  0  0  0  0
  152.4533  143.2962  161.2376 H   0  0  0  0  0  0  0  0  0  0  0  0
  153.6418  143.4722  159.9416 H   0  0  0  0  0  0  0  0  0  0  0  0
  151.2451  145.2462  160.5028 H   0  0  0  0  0  0  0  0  0  0  0  0
  152.8908  145.7409  160.0978 H   0  0  0  0  0  0  0  0  0  0  0  0
  152.6099  143.5291  157.4119 H   0  0  0  0  0  0  0  0  0  0  0  0
  150.8451  143.5065  157.3799 H   0  0  0  0  0  0  0  0  0  0  0  0
  1 21  1  0  0  0  0
  1 22  1  0  0  0  0
  1 23  1  0  0  0  0
  1  2  1  0  0  0  0
  2  3  1  0  0  0  0
  2 19  2  0  0  0  0
  3  4  1  0  0  0  0
  3 20  1  0  0  0  0
  4  6  2  0  0  0  0
  4  5  1  0  0  0  0
  5 24  1  0  0  0  0
  5 25  1  0  0  0  0
  5 26  1  0  0  0  0
  6 17  1  0  0  0  0
  6  7  1  0  0  0  0
  7  8  1  0  0  0  0
  7 27  1  0  0  0  0
  7 28  1  0  0  0  0
  8  9  2  0  0  0  0
  8 10  1  0  0  0  0
 10 11  1  0  0  0  0
 10 29  1  0  0  0  0
 11 12  1  0  0  0  0
 11 30  1  0  0  0  0
 11 31  1  0  0  0  0
 12 16  1  0  0  0  0
 12 13  1  0  0  0  0
 12 32  1  0  0  0  0
 13 14  1  0  0  0  0
 13 33  1  0  0  0  0
 13 34  1  0  0  0  0
 14 15  1  0  0  0  0
 14 35  1  0  0  0  0
 14 36  1  0  0  0  0
 15 16  1  0  0  0  0
 16 37  1  0  0  0  0
 16 38  1  0  0  0  0
 17 18  2  0  0  0  0
 17 19  1  0  0  0  0
M  END
> <s_m_source_file>
AV-unprocessed.smi

> <i_m_source_file_index>
1180

> <i_lp_mmshare_version>
43012

> <i_f3d_flags>
0

> <s_epik_input>
W0NIM11jMW5jKFtDSDNdKWMoYyg9TylbbkhdMSlbQ0gyXUMoPU8pW05IXVtDSDJdW0NAQEhdMltDSDJdW0NIMl1PW0NIMl0y

> <s_epik_cmdline>
J2VwaWtfcHl0aG9uJywgJy1waCcsICc3LjAnLCAnLXRuJywgJzgnLCAnLW1hJywgJzIwMCcsICctbWV0YWxfYmluZGluZycsICctaW1hZScsICc8aW5maWxlLm1hZT4nLCAnLW9tYWUnLCAnPG91dGZpbGUubWFlPic=

> <r_lp_tautomer_probability>
0.156392

> <r_epik_Ionization_Penalty>
0.014237

> <r_epik_Ionization_Penalty_Charging>
0.0141173

> <r_epik_Ionization_Penalty_Neutral>
0.000119724

> <r_epik_State_Penalty>
1.52876

> <r_epik_Charging_Adjusted_Penalty>
1.54288

> <i_epik_Tot_Q>
0

> <i_epik_Tot_abs_Q>
0

> <r_epik_Metal_State_Penalty>
1.70686

> <b_epik_Metal_Only>
0

> <s_lp_Force_Field>
OPLS_2005

> <r_lp_Energy>
23.3722

> <b_lp_Chiralities_Consistent>
1

> <s_lp_Variant>
AV-unprocessed.smi:1180-4

> <Gold.Version>
5.8.1

> <Gold.Id.Protein>
6NUR|6NUR_protein|mol2

> <Gold.PLP.Fitness>
34.9116

> <Gold.PLP.PLP>
-29.4255

> <Gold.PLP.part.hbond>
-2.4135

> <Gold.PLP.part.metal>
0.0000

> <Gold.PLP.part.buried>
-5.5687

> <Gold.PLP.part.nonpolar>
-21.5776

> <Gold.PLP.part.repulsive>
0.3725

> <Gold.PLP.ligand.clash>
0.0000

> <Gold.PLP.ligand.torsion>
0.2626

> <Gold.PLP.Chemscore.Hbond>
2.0000

> <Gold.PLP.Chemscore.CHOScore>
0.0000

> <Gold.PLP.Chemscore.Metal>
0.0000

> <Gold.Chemscore.Hbonds>
donor molecule, donor type, donor heavy atom, donor atom, acceptor molecule, acceptor atom, score
      P1  H  6896  6907       L1    19  1.00
      P1  H  7997  8009       L1     9  1.00

> <Gold.PLP.Chemscore.Internal.Correction>
0.0114

> <Gold.Rescore>
     Score         DG    S(hbond)    S(metal)    S(lipo)     H(rot)  DE(clash)    DE(int)     intcor
     15.31     -15.46       1.95        0.00      69.07       1.81       0.00       0.15       ----

> <Gold.Chemscore.Fitness>
15.3057

> <Gold.Chemscore.DG>
-15.4590

> <Gold.Chemscore.ZeroCoef>
-5.4800

> <Gold.Chemscore.Hbond>
1.9527

> <Gold.Chemscore.Metal>
0.0000

> <Gold.Chemscore.Lipo>
69.0731

> <Gold.Chemscore.Internal_Hbond>
0.0000

> <Gold.Chemscore.DEClash>
0.0038

> <Gold.Chemscore.DEInternal>
0.1495

> <Gold.Chemscore.Rot>
1.8065

> <Gold.Chemscore.Internal.Correction>
   9.000000E+99

> <Gold.Chemscore.Hbonds>
donor molecule, donor type, donor heavy atom, donor atom, acceptor molecule, acceptor atom, score
      P1  H  6896  6907       L1    19  0.49
      P1  H  7997  8009       L1     9  1.00

> <Gold.Chemscore.Hbond.Weighted>
-6.5220

> <Gold.Chemscore.Metal.Weighted>
-0.0000

> <Gold.Chemscore.Lipo.Weighted>
-8.0815

> <Gold.Chemscore.Internal_Hbond.Weighted>
0.0000

> <Gold.Chemscore.DEClash.Weighted>
0.0038

> <Gold.Chemscore.DEInternal.Weighted>
0.1495

> <Gold.Chemscore.Rot.Weighted>
4.6246

> <Gold.Chemscore.Internal.Correction.Weighted>
   9.000000E+99

> <Gold.Protein.RotatedTorsions>
[ 6907 6896 6895 6894 ] final  -61.09 input  -60.11 | X-H torsion
[ 7974 7965 7964 7962 ] final -115.07 input  175.53 | X-H torsion
[ 8008 7997 7996 7995 ] final -172.90 input   59.86 | X-H torsion
[ 10167 10162 10161 10158 ] final   56.48 input  -65.29 | X-H torsion
[ 10718 10713 10712 10709 ] final    3.44 input   66.30 | X-H torsion
[ 10763 10752 10751 10750 ] final   56.98 input  -60.55 | X-H torsion
[ 11005 11000 10999 10996 ] final   -1.83 input  -57.11 | X-H torsion

> <Gold.Protein.ActiveResidues>
 VAL166  LYS551  ARG553  GLY616  TRP617  ASP618  TYR619  PRO620  LYS621  CYS622 
 ASP623  PHE694  ASN695  SER759  ASP760  ASP761  ALA762  ILE779  LEU786  VAL792 
 PHE793  MET794  SER795  GLU796  ALA797  LYS798  CYS799  TRP800  GLU811  SER814 

> <Gold.Protein.RotatedAtoms>
  150.7810  134.6751  159.6412 H   0  0  0  0  0  0  0  0  0  0  0  0  # atno 6907 bound_to 6896
  152.3894  134.6463  160.0122 H   0  0  0  0  0  0  0  0  0  0  0  0  # atno 6908 bound_to 6896
  151.6768  133.3276  159.3246 H   0  0  0  0  0  0  0  0  0  0  0  0  # atno 6909 bound_to 6896
  145.1127  140.8621  143.3860 H   0  0  0  0  0  0  0  0  0  0  0  0  # atno 7974 bound_to 7965
  155.9505  140.1125  157.0981 H   0  0  0  0  0  0  0  0  0  0  0  0  # atno 8008 bound_to 7997
  154.4108  140.1201  156.5112 H   0  0  0  0  0  0  0  0  0  0  0  0  # atno 8009 bound_to 7997
  155.6848  140.3473  155.4872 H   0  0  0  0  0  0  0  0  0  0  0  0  # atno 8010 bound_to 7997
  140.2083  144.3916  150.6499 H   0  0  0  0  0  0  0  0  0  0  0  0  # atno 10167 bound_to 10162
  156.8778  130.5643  149.5654 H   0  0  0  0  0  0  0  0  0  0  0  0  # atno 10718 bound_to 10713
  152.9841  135.5657  154.5316 H   0  0  0  0  0  0  0  0  0  0  0  0  # atno 10763 bound_to 10752
  154.4787  135.2787  155.1589 H   0  0  0  0  0  0  0  0  0  0  0  0  # atno 10764 bound_to 10752
  154.3107  135.6289  153.5517 H   0  0  0  0  0  0  0  0  0  0  0  0  # atno 10765 bound_to 10752
  140.6516  133.9399  155.8383 H   0  0  0  0  0  0  0  0  0  0  0  0  # atno 11005 bound_to 11000
  145.0829  139.2946  143.5774 LP  0  0  0  0  0  0  0  0  0  0  0  0  # atno 17320 bound_to 7965
  146.3525  140.0341  142.8648 LP  0  0  0  0  0  0  0  0  0  0  0  0  # atno 17321 bound_to 7965
  140.6342  143.2192  151.6431 LP  0  0  0  0  0  0  0  0  0  0  0  0  # atno 17342 bound_to 10162
  139.5190  144.3267  152.0862 LP  0  0  0  0  0  0  0  0  0  0  0  0  # atno 17343 bound_to 10162
  156.0693  130.5729  150.9351 LP  0  0  0  0  0  0  0  0  0  0  0  0  # atno 17370 bound_to 10713
  157.6158  131.0933  150.8713 LP  0  0  0  0  0  0  0  0  0  0  0  0  # atno 17371 bound_to 10713
  141.0532  134.0454  157.3756 LP  0  0  0  0  0  0  0  0  0  0  0  0  # atno 17394 bound_to 11000
  139.9044  135.0175  156.7417 LP  0  0  0  0  0  0  0  0  0  0  0  0  # atno 17395 bound_to 11000

$$$$
