AV-unprocessed.smi:54|AV-procd|sdf|550|dock3
  -GOLD-   2262016443D 1   1.00000     0.00000
 Structure written by MMmdl.
 43 45  0  0  0  0  0  0  0  0  2 V2000
  152.7735  144.3002  159.3319 C   0  0  0  0  0  0  0  0  0  0  0  0
  152.1576  143.0196  159.9198 C   0  0  0  0  0  0  0  0  0  0  0  0
  153.1704  142.2661  160.7976 C   0  0  0  0  0  0  0  0  0  0  0  0
  151.6231  142.1115  158.8032 C   0  0  0  0  0  0  0  0  0  0  0  0
  150.6382  142.4734  158.1547 O   0  0  0  0  0  0  0  0  0  0  0  0
  152.2986  140.9538  158.6251 N   0  0  0  0  0  0  0  0  0  0  0  0
  152.0581  139.9238  157.7081 C   0  0  0  0  0  0  0  0  0  0  0  0
  151.1464  140.0672  156.7719 N   0  0  0  0  0  0  0  0  0  0  0  0
  151.0442  138.9536  155.9622 C   0  0  0  0  0  0  0  0  0  0  0  0
  151.7601  137.7915  156.0386 C   0  0  0  0  0  0  0  0  0  0  0  0
  151.3723  136.8920  155.0528 N   0  0  0  0  0  0  0  0  0  0  0  0
  150.4183  137.5702  154.4153 C   0  0  0  0  0  0  0  0  0  0  0  0
  150.1608  138.8031  154.9006 N   0  0  0  0  0  0  0  0  0  0  0  0
  149.1648  139.8144  154.4141 C   0  0  1  0  0  0  0  0  0  0  0  0
  148.6621  139.3913  153.1815 O   0  0  0  0  0  0  0  0  0  0  0  0
  147.3718  138.8188  153.3613 C   0  0  2  0  0  0  0  0  0  0  0  0
  146.5910  138.7679  152.0365 C   0  0  0  0  0  0  0  0  0  0  0  0
  147.1061  137.7469  151.2087 O   0  0  0  0  0  0  0  0  0  0  0  0
  146.7704  139.7163  154.4498 C   0  0  2  0  0  0  0  0  0  0  0  0
  146.3018  140.9325  153.8964 O   0  0  0  0  0  0  0  0  0  0  0  0
  147.9571  139.9735  155.3711 C   0  0  1  0  0  0  0  0  0  0  0  0
  147.9383  139.0474  156.4440 O   0  0  0  0  0  0  0  0  0  0  0  0
  152.7755  137.7029  157.1149 C   0  0  0  0  0  0  0  0  0  0  0  0
  153.4465  136.6782  157.2227 O   0  0  0  0  0  0  0  0  0  0  0  0
  152.8790  138.8048  157.9186 N   0  5  0  0  0  0  0  0  0  0  0  0
  149.7468  140.7282  154.2888 H   0  0  0  0  0  0  0  0  0  0  0  0
  147.4796  137.8126  153.7706 H   0  0  0  0  0  0  0  0  0  0  0  0
  145.9356  139.2337  154.9602 H   0  0  0  0  0  0  0  0  0  0  0  0
  147.9483  140.9819  155.7873 H   0  0  0  0  0  0  0  0  0  0  0  0
  152.0622  144.8255  158.6933 H   0  0  0  0  0  0  0  0  0  0  0  0
  153.6598  144.0823  158.7346 H   0  0  0  0  0  0  0  0  0  0  0  0
  153.0707  144.9878  160.1240 H   0  0  0  0  0  0  0  0  0  0  0  0
  151.3201  143.3137  160.5548 H   0  0  0  0  0  0  0  0  0  0  0  0
  152.7366  141.3543  161.2101 H   0  0  0  0  0  0  0  0  0  0  0  0
  153.4912  142.8831  161.6373 H   0  0  0  0  0  0  0  0  0  0  0  0
  154.0618  141.9867  160.2344 H   0  0  0  0  0  0  0  0  0  0  0  0
  153.0731  140.8100  159.2560 H   0  0  0  0  0  0  0  0  0  0  0  0
  149.8940  137.1529  153.5685 H   0  0  0  0  0  0  0  0  0  0  0  0
  145.5429  138.5353  152.2277 H   0  0  0  0  0  0  0  0  0  0  0  0
  146.6231  139.7261  151.5171 H   0  0  0  0  0  0  0  0  0  0  0  0
  147.2563  136.9785  151.7377 H   0  0  0  0  0  0  0  0  0  0  0  0
  145.5831  140.7347  153.3152 H   0  0  0  0  0  0  0  0  0  0  0  0
  147.2693  139.3149  157.0569 H   0  0  0  0  0  0  0  0  0  0  0  0
  1  2  1  0  0  0  0
  1 30  1  0  0  0  0
  1 31  1  0  0  0  0
  1 32  1  0  0  0  0
  2  3  1  0  0  0  0
  2  4  1  0  0  0  0
  2 33  1  0  0  0  0
  3 34  1  0  0  0  0
  3 35  1  0  0  0  0
  3 36  1  0  0  0  0
  4  5  2  0  0  0  0
  4  6  1  0  0  0  0
  6 37  1  0  0  0  0
  6  7  1  0  0  0  0
  7 25  1  0  0  0  0
  7  8  2  0  0  0  0
  8  9  1  0  0  0  0
  9 13  1  0  0  0  0
  9 10  2  0  0  0  0
 10 11  1  0  0  0  0
 10 23  1  0  0  0  0
 11 12  2  0  0  0  0
 12 13  1  0  0  0  0
 12 38  1  0  0  0  0
 13 14  1  0  0  0  0
 14 26  1  0  0  0  0
 14 21  1  0  0  0  0
 14 15  1  0  0  0  0
 15 16  1  0  0  0  0
 16 27  1  0  0  0  0
 16 17  1  0  0  0  0
 16 19  1  0  0  0  0
 17 18  1  0  0  0  0
 17 39  1  0  0  0  0
 17 40  1  0  0  0  0
 18 41  1  0  0  0  0
 19 28  1  0  0  0  0
 19 20  1  0  0  0  0
 19 21  1  0  0  0  0
 20 42  1  0  0  0  0
 21 29  1  0  0  0  0
 21 22  1  0  0  0  0
 22 43  1  0  0  0  0
 23 24  2  0  0  0  0
 23 25  1  0  0  0  0
M  CHG  1  25  -1
M  END
> <s_m_source_file>
AV-unprocessed.smi

> <i_m_source_file_index>
54

> <i_lp_mmshare_version>
43012

> <i_f3d_flags>
0

> <s_epik_input>
W0NIM11bQ0hdKFtDSDNdKUMoPU8pW05IXWMobjEpW25IXWMoPU8pYyhjMTIpbltjSF1uMltDQEBIXTNPW0NASF0oW0NIMl1bT0hdKVtDQEBIXShbT0hdKVtDQEhdM1tPSF0=

> <s_epik_cmdline>
J2VwaWtfcHl0aG9uJywgJy1waCcsICc3LjAnLCAnLXRuJywgJzgnLCAnLW1hJywgJzIwMCcsICctbWV0YWxfYmluZGluZycsICctaW1hZScsICc8aW5maWxlLm1hZT4nLCAnLW9tYWUnLCAnPG91dGZpbGUubWFlPic=

> <r_lp_tautomer_probability>
0.85571

> <r_epik_Ionization_Penalty>
1.75936

> <r_epik_Ionization_Penalty_Charging>
4.55893e-11

> <r_epik_Ionization_Penalty_Neutral>
1.75936

> <r_epik_State_Penalty>
1.72072

> <r_epik_Charging_Adjusted_Penalty>
1.72072

> <i_epik_Tot_Q>
-1

> <i_epik_Tot_abs_Q>
1

> <r_epik_Metal_State_Penalty>
0.400338

> <b_epik_Metal_Only>
1

> <s_epik_Chemistry_Notes>
This compound contains an acetal/aminal-like group ( X-CH(R)-Y where X, Y are N, S, or O) that may be acid/base labile, releasing an aldehyde.

> <s_lp_Force_Field>
OPLS_2005

> <r_lp_Energy>
59.3573

> <b_lp_Chiralities_Consistent>
1

> <s_lp_Variant>
AV-unprocessed.smi:54-22

> <Gold.Version>
5.8.1

> <Gold.Id.Protein>
6NUR|6NUR_protein|mol2

> <Gold.PLP.Fitness>
54.8208

> <Gold.PLP.PLP>
-37.1784

> <Gold.PLP.part.hbond>
-6.2154

> <Gold.PLP.part.metal>
0.0000

> <Gold.PLP.part.buried>
-6.0156

> <Gold.PLP.part.nonpolar>
-32.2139

> <Gold.PLP.part.repulsive>
5.7925

> <Gold.PLP.ligand.clash>
2.3834

> <Gold.PLP.ligand.torsion>
0.5414

> <Gold.PLP.Chemscore.Hbond>
5.9988

> <Gold.PLP.Chemscore.CHOScore>
0.9765

> <Gold.PLP.Chemscore.Metal>
0.0000

> <Gold.Chemscore.Hbonds>
donor molecule, donor type, donor heavy atom, donor atom, acceptor molecule, acceptor atom, score
      L1  H    18    41       P1  7948  0.38
      L1  H    20    42       P1 10175  0.86
      P1  H  7954  7966       L1    18  1.00
      P1  H  7997  8008       L1    25  0.28
      P1  H 10752 10763       L1    24  0.05
      P1  H 10752 10765       L1    11  0.61
      L1  C    12    38       P1  7948  1.00

> <Gold.PLP.Chemscore.Internal.Correction>
0.1827

> <Gold.Rescore>
     Score         DG    S(hbond)    S(metal)    S(lipo)     H(rot)  DE(clash)    DE(int)     intcor
     10.89     -14.71       3.67        0.00      62.08       4.02       1.92       1.90       ----

> <Gold.Chemscore.Fitness>
10.8865

> <Gold.Chemscore.DG>
-14.7065

> <Gold.Chemscore.ZeroCoef>
-5.4800

> <Gold.Chemscore.Hbond>
3.6683

> <Gold.Chemscore.Metal>
0.0000

> <Gold.Chemscore.Lipo>
62.0826

> <Gold.Chemscore.Internal_Hbond>
0.0000

> <Gold.Chemscore.DEClash>
1.9222

> <Gold.Chemscore.DEInternal>
1.8978

> <Gold.Chemscore.Rot>
4.0192

> <Gold.Chemscore.Internal.Correction>
   9.000000E+99

> <Gold.Chemscore.Hbonds>
donor molecule, donor type, donor heavy atom, donor atom, acceptor molecule, acceptor atom, score
      L1  H    18    41       P1  7948  0.40
      L1  H    20    42       P1 10175  0.69
      P1  H  7954  7966       L1    18  0.85
      P1  H 10752 10763       L1    24  0.07
      P1  H 10752 10765       L1    11  0.54

> <Gold.Chemscore.Hbond.Weighted>
-12.2521

> <Gold.Chemscore.Metal.Weighted>
-0.0000

> <Gold.Chemscore.Lipo.Weighted>
-7.2637

> <Gold.Chemscore.Internal_Hbond.Weighted>
0.0000

> <Gold.Chemscore.DEClash.Weighted>
1.9222

> <Gold.Chemscore.DEInternal.Weighted>
1.8978

> <Gold.Chemscore.Rot.Weighted>
10.2893

> <Gold.Chemscore.Internal.Correction.Weighted>
   9.000000E+99

> <Gold.Protein.RotatedTorsions>
[ 6907 6896 6895 6894 ] final  114.83 input  -60.11 | X-H torsion
[ 7974 7965 7964 7962 ] final   51.15 input  175.53 | X-H torsion
[ 8008 7997 7996 7995 ] final  -91.01 input   59.86 | X-H torsion
[ 10167 10162 10161 10158 ] final   -5.09 input  -65.29 | X-H torsion
[ 10718 10713 10712 10709 ] final   14.27 input   66.30 | X-H torsion
[ 10763 10752 10751 10750 ] final  155.40 input  -60.55 | X-H torsion
[ 11005 11000 10999 10996 ] final   59.78 input  -57.11 | X-H torsion

> <Gold.Protein.ActiveResidues>
 VAL166  LYS551  ARG553  GLY616  TRP617  ASP618  TYR619  PRO620  LYS621  CYS622 
 ASP623  PHE694  ASN695  SER759  ASP760  ASP761  ALA762  ILE779  LEU786  VAL792 
 PHE793  MET794  SER795  GLU796  ALA797  LYS798  CYS799  TRP800  GLU811  SER814 

> <Gold.Protein.RotatedAtoms>
  152.4779  133.8182  159.7039 H   0  0  0  0  0  0  0  0  0  0  0  0  # atno 6907 bound_to 6896
  150.8808  133.7366  159.2939 H   0  0  0  0  0  0  0  0  0  0  0  0  # atno 6908 bound_to 6896
  151.4871  135.1059  159.9845 H   0  0  0  0  0  0  0  0  0  0  0  0  # atno 6909 bound_to 6896
  145.9942  139.4371  143.0055 H   0  0  0  0  0  0  0  0  0  0  0  0  # atno 7974 bound_to 7965
  154.7056  140.0524  157.0500 H   0  0  0  0  0  0  0  0  0  0  0  0  # atno 8008 bound_to 7997
  155.0625  140.3191  155.4637 H   0  0  0  0  0  0  0  0  0  0  0  0  # atno 8009 bound_to 7997
  156.2773  140.2096  156.5752 H   0  0  0  0  0  0  0  0  0  0  0  0  # atno 8010 bound_to 7997
  140.6951  143.6348  150.8489 H   0  0  0  0  0  0  0  0  0  0  0  0  # atno 10167 bound_to 10162
  157.0366  130.6214  149.5744 H   0  0  0  0  0  0  0  0  0  0  0  0  # atno 10718 bound_to 10713
  154.1678  135.2806  155.3090 H   0  0  0  0  0  0  0  0  0  0  0  0  # atno 10763 bound_to 10752
  154.6098  135.5502  153.7465 H   0  0  0  0  0  0  0  0  0  0  0  0  # atno 10764 bound_to 10752
  153.0173  135.6412  154.1818 H   0  0  0  0  0  0  0  0  0  0  0  0  # atno 10765 bound_to 10752
  140.0279  134.6056  155.9548 H   0  0  0  0  0  0  0  0  0  0  0  0  # atno 11005 bound_to 11000
  145.7584  140.9945  143.1213 LP  0  0  0  0  0  0  0  0  0  0  0  0  # atno 17320 bound_to 7965
  144.6898  139.9300  143.7471 LP  0  0  0  0  0  0  0  0  0  0  0  0  # atno 17321 bound_to 7965
  140.0065  143.5688  152.2855 LP  0  0  0  0  0  0  0  0  0  0  0  0  # atno 17342 bound_to 10162
  139.6396  144.7653  151.2366 LP  0  0  0  0  0  0  0  0  0  0  0  0  # atno 17343 bound_to 10162
  156.0052  130.5137  150.7803 LP  0  0  0  0  0  0  0  0  0  0  0  0  # atno 17370 bound_to 10713
  157.5137  131.0927  151.0167 LP  0  0  0  0  0  0  0  0  0  0  0  0  # atno 17371 bound_to 10713
  141.1813  133.6547  156.5034 LP  0  0  0  0  0  0  0  0  0  0  0  0  # atno 17394 bound_to 11000
  140.4276  134.7131  157.4924 LP  0  0  0  0  0  0  0  0  0  0  0  0  # atno 17395 bound_to 11000

$$$$
