AV-unprocessed.smi:2886|AV-procd|sdf|11094|dock5
  -GOLD-   2272015563D 1   1.00000     0.00000
 Structure written by MMmdl.
 28 30  0  0  0  0  0  0  0  0  3 V2000
  152.9366  136.7647  160.0087 O   0  0  0  0  0  0  0  0  0  0  0  0
  153.1794  137.9420  160.2667 C   0  0  0  0  0  0  0  0  0  0  0  0
  153.9648  138.3322  161.3146 N   0  5  0  0  0  0  0  0  0  0  0  0
  154.2076  139.5991  161.5673 N   0  3  0  0  0  0  0  0  0  0  0  0
  153.7214  140.6009  160.8412 C   0  0  0  0  0  0  0  0  0  0  0  0
  152.8829  140.3317  159.7237 C   0  0  0  0  0  0  0  0  0  0  0  0
  152.3541  141.3453  158.9342 N   0  0  0  0  0  0  0  0  0  0  0  0
  152.5275  142.7854  159.0659 C   0  0  1  0  0  0  0  0  0  0  0  0
  151.7659  143.5714  157.9956 C   0  0  0  0  0  0  0  0  0  0  0  0
  150.9008  144.5057  158.8511 C   0  0  2  0  0  0  0  0  0  0  0  0
  151.7361  145.5651  159.5842 C   0  0  0  0  0  0  0  0  0  0  0  0
  152.4063  144.7336  160.6782 C   0  0  0  0  0  0  0  0  0  0  0  0
  151.8943  143.3225  160.3600 C   0  0  1  0  0  0  0  0  0  0  0  0
  150.5816  143.6347  159.9218 O   0  0  0  0  0  0  0  0  0  0  0  0
  152.6197  139.0243  159.4361 C   0  0  0  0  0  0  0  0  0  0  0  0
  151.6140  138.5962  158.0915 Cl  0  0  0  0  0  0  0  0  0  0  0  0
  154.8090  139.8700  162.3612 H   0  0  0  0  0  0  0  0  0  0  0  0
  153.9978  141.6040  161.1399 H   0  0  0  0  0  0  0  0  0  0  0  0
  151.6432  141.0716  158.2699 H   0  0  0  0  0  0  0  0  0  0  0  0
  153.5887  143.0336  159.0578 H   0  0  0  0  0  0  0  0  0  0  0  0
  152.4285  144.1158  157.3221 H   0  0  0  0  0  0  0  0  0  0  0  0
  151.1333  142.9178  157.3930 H   0  0  0  0  0  0  0  0  0  0  0  0
  150.0343  144.9090  158.3263 H   0  0  0  0  0  0  0  0  0  0  0  0
  152.4534  146.0547  158.9247 H   0  0  0  0  0  0  0  0  0  0  0  0
  151.0965  146.3313  160.0241 H   0  0  0  0  0  0  0  0  0  0  0  0
  153.4945  144.7997  160.6567 H   0  0  0  0  0  0  0  0  0  0  0  0
  152.0647  145.0533  161.6633 H   0  0  0  0  0  0  0  0  0  0  0  0
  151.9426  142.6376  161.2075 H   0  0  0  0  0  0  0  0  0  0  0  0
  1  2  2  0  0  0  0
  2  3  1  0  0  0  0
  2 15  1  0  0  0  0
  3  4  1  0  0  0  0
  4  5  2  0  0  0  0
  4 17  1  0  0  0  0
  5  6  1  0  0  0  0
  5 18  1  0  0  0  0
  6 15  2  0  0  0  0
  6  7  1  0  0  0  0
  7  8  1  0  0  0  0
  7 19  1  0  0  0  0
  8 13  1  0  0  0  0
  8  9  1  0  0  0  0
  8 20  1  0  0  0  0
  9 10  1  0  0  0  0
  9 21  1  0  0  0  0
  9 22  1  0  0  0  0
 10 14  1  0  0  0  0
 10 11  1  0  0  0  0
 10 23  1  0  0  0  0
 11 12  1  0  0  0  0
 11 24  1  0  0  0  0
 11 25  1  0  0  0  0
 12 13  1  0  0  0  0
 12 26  1  0  0  0  0
 12 27  1  0  0  0  0
 13 14  1  0  0  0  0
 13 28  1  0  0  0  0
 15 16  1  0  0  0  0
M  CHG  1   3  -1
M  CHG  1   4   1
M  END
> <s_m_source_file>
AV-unprocessed.smi

> <i_m_source_file_index>
2886

> <i_lp_mmshare_version>
43012

> <i_f3d_flags>
0

> <s_epik_input>
Tz1jMVtuSF1uW2NIXWMoYzFDbClbTkhdW0NASF0oW0NIMl1bQ0BASF0yMylbQ0BASF0oTzMpW0NIMl1bQ0gyXTI=

> <s_epik_cmdline>
J2VwaWtfcHl0aG9uJywgJy1waCcsICc3LjAnLCAnLXRuJywgJzgnLCAnLW1hJywgJzIwMCcsICctbWV0YWxfYmluZGluZycsICctaW1hZScsICc8aW5maWxlLm1hZT4nLCAnLW9tYWUnLCAnPG91dGZpbGUubWFlPic=

> <r_lp_tautomer_probability>
0.0138196

> <r_epik_Ionization_Penalty>
2.43027

> <r_epik_Ionization_Penalty_Charging>
2.43027

> <r_epik_Ionization_Penalty_Neutral>
1.33267e-06

> <r_epik_State_Penalty>
2.7044

> <r_epik_Charging_Adjusted_Penalty>
5.13467

> <i_epik_Tot_Q>
0

> <i_epik_Tot_abs_Q>
2

> <r_epik_Metal_State_Penalty>
2.98589

> <b_epik_Metal_Only>
0

> <s_lp_Force_Field>
OPLS_2005

> <r_lp_Energy>
57.4962

> <b_lp_Chiralities_Consistent>
1

> <s_lp_Variant>
AV-unprocessed.smi:2886-8

> <Gold.Version>
5.8.1

> <Gold.Id.Protein>
6NUR|6NUR_protein|mol2

> <Gold.PLP.Fitness>
34.4490

> <Gold.PLP.PLP>
-31.4610

> <Gold.PLP.part.hbond>
-1.9210

> <Gold.PLP.part.metal>
0.0000

> <Gold.PLP.part.buried>
-5.5669

> <Gold.PLP.part.nonpolar>
-24.9149

> <Gold.PLP.part.repulsive>
0.2000

> <Gold.PLP.ligand.clash>
0.0000

> <Gold.PLP.ligand.torsion>
0.0154

> <Gold.PLP.Chemscore.Hbond>
1.0000

> <Gold.PLP.Chemscore.CHOScore>
0.0000

> <Gold.PLP.Chemscore.Metal>
0.0000

> <Gold.Chemscore.Hbonds>
donor molecule, donor type, donor heavy atom, donor atom, acceptor molecule, acceptor atom, score
      P1  H  6896  6908       L1     1  1.00

> <Gold.PLP.Chemscore.Internal.Correction>
0.0188

> <Gold.Rescore>
     Score         DG    S(hbond)    S(metal)    S(lipo)     H(rot)  DE(clash)    DE(int)     intcor
     17.10     -17.25       1.00        0.00      93.93       1.00       0.12       0.02       ----

> <Gold.Chemscore.Fitness>
17.1042

> <Gold.Chemscore.DG>
-17.2467

> <Gold.Chemscore.ZeroCoef>
-5.4800

> <Gold.Chemscore.Hbond>
0.9991

> <Gold.Chemscore.Metal>
0.0000

> <Gold.Chemscore.Lipo>
93.9296

> <Gold.Chemscore.Internal_Hbond>
0.0000

> <Gold.Chemscore.DEClash>
0.1201

> <Gold.Chemscore.DEInternal>
0.0225

> <Gold.Chemscore.Rot>
1.0000

> <Gold.Chemscore.Internal.Correction>
   9.000000E+99

> <Gold.Chemscore.Hbonds>
donor molecule, donor type, donor heavy atom, donor atom, acceptor molecule, acceptor atom, score
      P1  H  6896  6908       L1     1  0.99

> <Gold.Chemscore.Hbond.Weighted>
-3.3369

> <Gold.Chemscore.Metal.Weighted>
-0.0000

> <Gold.Chemscore.Lipo.Weighted>
-10.9898

> <Gold.Chemscore.Internal_Hbond.Weighted>
0.0000

> <Gold.Chemscore.DEClash.Weighted>
0.1201

> <Gold.Chemscore.DEInternal.Weighted>
0.0225

> <Gold.Chemscore.Rot.Weighted>
2.5600

> <Gold.Chemscore.Internal.Correction.Weighted>
   9.000000E+99

> <Gold.Protein.RotatedTorsions>
[ 6907 6896 6895 6894 ] final  -88.11 input  -60.11 | X-H torsion
[ 7974 7965 7964 7962 ] final  141.02 input  175.53 | X-H torsion
[ 8008 7997 7996 7995 ] final  -36.19 input   59.86 | X-H torsion
[ 10167 10162 10161 10158 ] final   14.45 input  -65.29 | X-H torsion
[ 10718 10713 10712 10709 ] final   57.33 input   66.30 | X-H torsion
[ 10763 10752 10751 10750 ] final   86.54 input  -60.55 | X-H torsion
[ 11005 11000 10999 10996 ] final  -48.50 input  -57.11 | X-H torsion

> <Gold.Protein.ActiveResidues>
 VAL166  LYS551  ARG553  GLY616  TRP617  ASP618  TYR619  PRO620  LYS621  CYS622 
 ASP623  PHE694  ASN695  SER759  ASP760  ASP761  ALA762  ILE779  LEU786  VAL792 
 PHE793  MET794  SER795  GLU796  ALA797  LYS798  CYS799  TRP800  GLU811  SER814 

> <Gold.Protein.RotatedAtoms>
  150.6868  134.2792  159.4620 H   0  0  0  0  0  0  0  0  0  0  0  0  # atno 6907 bound_to 6896
  152.0708  134.9532  160.0583 H   0  0  0  0  0  0  0  0  0  0  0  0  # atno 6908 bound_to 6896
  152.0923  133.4172  159.4586 H   0  0  0  0  0  0  0  0  0  0  0  0  # atno 6909 bound_to 6896
  144.9134  139.5263  143.5698 H   0  0  0  0  0  0  0  0  0  0  0  0  # atno 7974 bound_to 7965
  154.4078  140.1637  156.2333 H   0  0  0  0  0  0  0  0  0  0  0  0  # atno 8008 bound_to 7997
  155.9264  140.3418  155.6191 H   0  0  0  0  0  0  0  0  0  0  0  0  # atno 8009 bound_to 7997
  155.7160  140.0762  157.2342 H   0  0  0  0  0  0  0  0  0  0  0  0  # atno 8010 bound_to 7997
  140.5935  143.8749  150.6895 H   0  0  0  0  0  0  0  0  0  0  0  0  # atno 10167 bound_to 10162
  157.5505  130.8762  149.8957 H   0  0  0  0  0  0  0  0  0  0  0  0  # atno 10718 bound_to 10713
  153.1580  135.4576  154.9732 H   0  0  0  0  0  0  0  0  0  0  0  0  # atno 10763 bound_to 10752
  154.7876  135.3209  154.7853 H   0  0  0  0  0  0  0  0  0  0  0  0  # atno 10764 bound_to 10752
  153.8347  135.6935  153.4864 H   0  0  0  0  0  0  0  0  0  0  0  0  # atno 10765 bound_to 10752
  141.0704  133.6681  156.3450 H   0  0  0  0  0  0  0  0  0  0  0  0  # atno 11005 bound_to 11000
  146.3170  139.7957  142.8976 LP  0  0  0  0  0  0  0  0  0  0  0  0  # atno 17320 bound_to 7965
  145.3417  141.0289  143.3389 LP  0  0  0  0  0  0  0  0  0  0  0  0  # atno 17321 bound_to 7965
  140.2277  143.3759  152.1591 LP  0  0  0  0  0  0  0  0  0  0  0  0  # atno 17342 bound_to 10162
  139.5242  144.7081  151.5290 LP  0  0  0  0  0  0  0  0  0  0  0  0  # atno 17343 bound_to 10162
  156.0573  130.3706  150.1062 LP  0  0  0  0  0  0  0  0  0  0  0  0  # atno 17370 bound_to 10713
  156.9235  130.9690  151.3544 LP  0  0  0  0  0  0  0  0  0  0  0  0  # atno 17371 bound_to 10713
  140.5685  134.5864  157.5452 LP  0  0  0  0  0  0  0  0  0  0  0  0  # atno 17394 bound_to 11000
  139.9518  134.7604  156.0432 LP  0  0  0  0  0  0  0  0  0  0  0  0  # atno 17395 bound_to 11000

$$$$
