#       Name:                AV-unprocessed.smi:655
#       Creating user name   scv26
#       Creation time:       Fri Mar 27 00:15:37 2020


#       File generated by GOLD software.
#

@<TRIPOS>MOLECULE
AV-unprocessed.smi:655
    41    42     1
SMALL
NO_CHARGES


@<TRIPOS>ATOM
      1 ****        -0.8986  -3.8343  -0.9157 C.3            1 S1                 0.0000
      2 ****        -1.3017  -2.4595  -0.3637 C.3            1 S1                 0.0000
      3 ****        -0.7757  -1.3195  -1.2539 C.3            1 S1                 0.0000
      4 ****        -1.1653   0.0654  -0.7037 C.3            1 S1                 0.0000
      5 ****        -0.7054   0.2796   0.7592 C.3            1 S1                 0.0000
      6 ****        -1.3705   1.4261   1.2550 O.3            1 S1                 0.0000
      7 ****         0.8252   0.5083   0.9485 C.3            1 S1                 0.0000
      8 ****         1.3911   1.6185   0.1554 N.am           1 S1                 0.0000
      9 ****         1.2908   2.9108   0.7023 C.2            1 S1                 0.0000
     10 ****         1.7736   3.9994   0.0733 C.2            1 S1                 0.0000
     11 ****         1.6275   5.5719   0.7739 Cl             1 S1                 0.0000
     12 ****         2.4278   3.8092  -1.2186 C.2            1 S1                 0.0000
     13 ****         2.8649   4.7832  -1.8299 O.2            1 S1                 0.0000
     14 ****         2.5281   2.5344  -1.6949 N.pl3          1 S1                -1.0000
     15 ****         2.0420   1.4387  -1.0342 C.2            1 S1                 0.0000
     16 ****         2.1745   0.3000  -1.4798 O.2            1 S1                 0.0000
     17 ****        -1.2119  -0.8906   1.6362 C.3            1 S1                 0.0000
     18 ****        -0.8157  -2.2711   1.0844 C.3            1 S1                 0.0000
     19 ****         0.1858  -3.9454  -0.9488 H              1 S1                 0.0000
     20 ****        -1.2787  -3.9784  -1.9274 H              1 S1                 0.0000
     21 ****        -1.2968  -4.6383  -0.2964 H              1 S1                 0.0000
     22 ****        -2.3916  -2.4116  -0.3631 H              1 S1                 0.0000
     23 ****         0.3066  -1.4001  -1.3362 H              1 S1                 0.0000
     24 ****        -1.1656  -1.4283  -2.2663 H              1 S1                 0.0000
     25 ****        -0.7821   0.8507  -1.3551 H              1 S1                 0.0000
     26 ****        -2.2520   0.1514  -0.7532 H              1 S1                 0.0000
     27 ****        -1.1010   2.1707   0.7391 H              1 S1                 0.0000
     28 ****         1.0349   0.6932   2.0035 H              1 S1                 0.0000
     29 ****         1.3645  -0.4140   0.7324 H              1 S1                 0.0000
     30 ****         0.7997   2.9622   1.6631 H              1 S1                 0.0000
     31 ****        -0.8482  -0.7836   2.6590 H              1 S1                 0.0000
     32 ****        -2.3009  -0.8534   1.7013 H              1 S1                 0.0000
     33 ****        -1.2397  -3.0487   1.7206 H              1 S1                 0.0000
     34 ****         0.2660  -2.3970   1.1335 H              1 S1                 0.0000
     35 ****        -1.1250   1.5718   2.2134 LP             1 S1                 0.0000
     36 ****        -2.3600   1.3024   1.1795 LP             1 S1                 0.0000
     37 ****         2.7715   5.7001  -1.4419 LP             1 S1                 0.0000
     38 ****         3.3135   4.6580  -2.7148 LP             1 S1                 0.0000
     39 ****         2.9815   2.3930  -2.5749 LP             1 S1                 0.0000
     40 ****         1.8084  -0.4808  -0.9735 LP             1 S1                 0.0000
     41 ****         2.6483   0.1550  -2.3484 LP             1 S1                 0.0000
@<TRIPOS>BOND
    1    1    2 1     
    2    1   19 1     
    3    1   20 1     
    4    1   21 1     
    5    2   18 1     
    6    2    3 1     
    7    2   22 1     
    8    3    4 1     
    9    3   23 1     
   10    3   24 1     
   11    4    5 1     
   12    4   25 1     
   13    4   26 1     
   14    5    6 1     
   15    5    7 1     
   16    5   17 1     
   17    6   27 1     
   18    7    8 1     
   19    7   28 1     
   20    7   29 1     
   21    8   15 am    
   22    8    9 1     
   23    9   10 2     
   24    9   30 1     
   25   10   11 1     
   26   10   12 1     
   27   12   13 2     
   28   12   14 1     
   29   14   15 1     
   30   15   16 2     
   31   17   18 1     
   32   17   31 1     
   33   17   32 1     
   34   18   33 1     
   35   18   34 1     
   36    6   35 1     
   37    6   36 1     
   38   13   37 1     
   39   13   38 1     
   40   14   39 1     
   41   16   40 1     
   42   16   41 1     
@<TRIPOS>SUBSTRUCTURE
      1 S1             1
@<TRIPOS>SET
LONE_PAIRS      STATIC     ATOMS    <user>   **** ""
7 35 36 37 38 39 40 41
DONOR_HYDROGENS      STATIC     ATOMS    <user>   **** ""
1 27
ATOM$BLUE        STATIC     ATOMS    COLORGROUP SYSTEM
7 35 36 37 38 39 40 41
ATOM$RED        STATIC     ATOMS    COLORGROUP SYSTEM
1 27
