AV-unprocessed.smi:3041|AV-procd|sdf|11597|dock7
  -GOLD-   2272016573D 1   1.00000     0.00000
 Structure written by MMmdl.
 38 39  0  0  0  0  0  0  0  0  1 V2000
  146.1394  131.6704  151.8131 C   0  0  0  0  0  0  0  0  0  0  0  0
  145.6743  132.9749  151.3930 N   0  0  0  0  0  0  0  0  0  0  0  0
  146.2718  134.2033  151.5785 C   0  0  0  0  0  0  0  0  0  0  0  0
  145.4604  135.1436  151.0086 C   0  0  0  0  0  0  0  0  0  0  0  0
  145.6514  136.6326  150.9308 C   0  0  0  0  0  0  0  0  0  0  0  0
  145.6751  137.2713  152.3289 C   0  0  0  0  0  0  0  0  0  0  0  0
  146.7705  138.2242  152.4658 N   0  0  0  0  0  0  0  0  0  0  0  0
  147.2597  138.6669  153.6326 C   0  0  0  0  0  0  0  0  0  0  0  0
  146.8383  138.3165  154.7351 O   0  0  0  0  0  0  0  0  0  0  0  0
  148.2652  139.5346  153.4543 N   0  0  0  0  0  0  0  0  0  0  0  0
  149.0053  140.1911  154.5269 C   0  0  0  0  0  0  0  0  0  0  0  0
  150.5153  139.8913  154.4604 C   0  0  2  0  0  0  0  0  0  0  0  0
  150.8476  138.4140  154.4318 C   0  0  0  0  0  0  0  0  0  0  0  0
  152.3181  138.4156  154.8375 C   0  0  0  0  0  0  0  0  0  0  0  0
  152.4764  139.5240  155.7185 O   0  0  0  0  0  0  0  0  0  0  0  0
  151.3165  140.3506  155.6799 C   0  0  0  0  0  0  0  0  0  0  0  0
  144.3762  134.3767  150.4945 C   0  0  0  0  0  0  0  0  0  0  0  0
  144.5063  133.0808  150.7270 N   0  0  0  0  0  0  0  0  0  0  0  0
  147.1467  131.7462  152.2233 H   0  0  0  0  0  0  0  0  0  0  0  0
  146.1550  130.9901  150.9607 H   0  0  0  0  0  0  0  0  0  0  0  0
  145.4734  131.2707  152.5782 H   0  0  0  0  0  0  0  0  0  0  0  0
  147.2157  134.3063  152.0933 H   0  0  0  0  0  0  0  0  0  0  0  0
  146.5797  136.8663  150.4080 H   0  0  0  0  0  0  0  0  0  0  0  0
  144.8567  137.0885  150.3390 H   0  0  0  0  0  0  0  0  0  0  0  0
  144.7403  137.8025  152.5109 H   0  0  0  0  0  0  0  0  0  0  0  0
  145.7501  136.5024  153.0999 H   0  0  0  0  0  0  0  0  0  0  0  0
  147.1841  138.5700  151.6121 H   0  0  0  0  0  0  0  0  0  0  0  0
  148.5381  139.7601  152.5088 H   0  0  0  0  0  0  0  0  0  0  0  0
  148.8318  141.2643  154.4453 H   0  0  0  0  0  0  0  0  0  0  0  0
  148.6029  139.8871  155.4946 H   0  0  0  0  0  0  0  0  0  0  0  0
  150.9419  140.3539  153.5688 H   0  0  0  0  0  0  0  0  0  0  0  0
  150.2568  137.8745  155.1737 H   0  0  0  0  0  0  0  0  0  0  0  0
  150.6766  137.9534  153.4585 H   0  0  0  0  0  0  0  0  0  0  0  0
  152.6200  137.4820  155.3125 H   0  0  0  0  0  0  0  0  0  0  0  0
  152.9528  138.5723  153.9644 H   0  0  0  0  0  0  0  0  0  0  0  0
  151.5832  141.4065  155.6291 H   0  0  0  0  0  0  0  0  0  0  0  0
  150.7503  140.1896  156.5983 H   0  0  0  0  0  0  0  0  0  0  0  0
  143.5034  134.7231  149.9611 H   0  0  0  0  0  0  0  0  0  0  0  0
  1  2  1  0  0  0  0
  1 19  1  0  0  0  0
  1 20  1  0  0  0  0
  1 21  1  0  0  0  0
  2 18  1  0  0  0  0
  2  3  1  0  0  0  0
  3  4  2  0  0  0  0
  3 22  1  0  0  0  0
  4  5  1  0  0  0  0
  4 17  1  0  0  0  0
  5  6  1  0  0  0  0
  5 23  1  0  0  0  0
  5 24  1  0  0  0  0
  6  7  1  0  0  0  0
  6 25  1  0  0  0  0
  6 26  1  0  0  0  0
  7  8  1  0  0  0  0
  7 27  1  0  0  0  0
  8  9  2  0  0  0  0
  8 10  1  0  0  0  0
 10 11  1  0  0  0  0
 10 28  1  0  0  0  0
 11 12  1  0  0  0  0
 11 29  1  0  0  0  0
 11 30  1  0  0  0  0
 12 16  1  0  0  0  0
 12 13  1  0  0  0  0
 12 31  1  0  0  0  0
 13 14  1  0  0  0  0
 13 32  1  0  0  0  0
 13 33  1  0  0  0  0
 14 15  1  0  0  0  0
 14 34  1  0  0  0  0
 14 35  1  0  0  0  0
 15 16  1  0  0  0  0
 16 36  1  0  0  0  0
 16 37  1  0  0  0  0
 17 18  2  0  0  0  0
 17 38  1  0  0  0  0
M  END
> <s_m_source_file>
AV-unprocessed.smi

> <i_m_source_file_index>
3041

> <i_lp_mmshare_version>
43012

> <i_f3d_flags>
0

> <s_epik_input>
W0NIM11uMVtjSF1jKFtjSF1uMSlbQ0gyXVtDSDJdW05IXUMoPU8pW05IXVtDSDJdW0NAQEhdMltDSDJdW0NIMl1PW0NIMl0y

> <s_epik_cmdline>
J2VwaWtfcHl0aG9uJywgJy1waCcsICc3LjAnLCAnLXRuJywgJzgnLCAnLW1hJywgJzIwMCcsICctbWV0YWxfYmluZGluZycsICctaW1hZScsICc8aW5maWxlLm1hZT4nLCAnLW9tYWUnLCAnPG91dGZpbGUubWFlPic=

> <r_lp_tautomer_probability>
1

> <r_epik_Ionization_Penalty>
0.000557811

> <r_epik_Ionization_Penalty_Charging>
0

> <r_epik_Ionization_Penalty_Neutral>
0.000557811

> <r_epik_State_Penalty>
-0

> <r_epik_Charging_Adjusted_Penalty>
0

> <i_epik_Tot_Q>
0

> <i_epik_Tot_abs_Q>
0

> <r_epik_Metal_State_Penalty>
-0

> <b_epik_Metal_Only>
0

> <s_lp_Force_Field>
OPLS_2005

> <r_lp_Energy>
13.0487

> <b_lp_Chiralities_Consistent>
1

> <s_lp_Variant>
AV-unprocessed.smi:3041-1

> <Gold.Version>
5.8.1

> <Gold.Id.Protein>
6NUR|6NUR_protein|mol2

> <Gold.PLP.Fitness>
44.2702

> <Gold.PLP.PLP>
-33.2727

> <Gold.PLP.part.hbond>
-3.0000

> <Gold.PLP.part.metal>
0.0000

> <Gold.PLP.part.buried>
0.6188

> <Gold.PLP.part.nonpolar>
-31.6748

> <Gold.PLP.part.repulsive>
0.3552

> <Gold.PLP.ligand.clash>
0.0000

> <Gold.PLP.ligand.torsion>
0.4924

> <Gold.PLP.Chemscore.Hbond>
2.0000

> <Gold.PLP.Chemscore.CHOScore>
1.9876

> <Gold.PLP.Chemscore.Metal>
0.0000

> <Gold.Chemscore.Hbonds>
donor molecule, donor type, donor heavy atom, donor atom, acceptor molecule, acceptor atom, score
      L1  H    10    28       P1  7957  1.00
      P1  H  7997  8009       L1    15  1.00
      L1  C     3    22       P1  7948  0.89
      L1  C    17    38       P1 10186  0.98

> <Gold.PLP.Chemscore.Internal.Correction>
0.0195

> <Gold.Rescore>
     Score         DG    S(hbond)    S(metal)    S(lipo)     H(rot)  DE(clash)    DE(int)     intcor
     13.99     -17.00       1.99        0.00      82.31       1.85       2.53       0.48       ----

> <Gold.Chemscore.Fitness>
13.9879

> <Gold.Chemscore.DG>
-16.9995

> <Gold.Chemscore.ZeroCoef>
-5.4800

> <Gold.Chemscore.Hbond>
1.9857

> <Gold.Chemscore.Metal>
0.0000

> <Gold.Chemscore.Lipo>
82.3113

> <Gold.Chemscore.Internal_Hbond>
0.0000

> <Gold.Chemscore.DEClash>
2.5311

> <Gold.Chemscore.DEInternal>
0.4805

> <Gold.Chemscore.Rot>
1.8528

> <Gold.Chemscore.Internal.Correction>
   9.000000E+99

> <Gold.Chemscore.Hbonds>
donor molecule, donor type, donor heavy atom, donor atom, acceptor molecule, acceptor atom, score
      L1  H    10    28       P1  7957  0.99
      P1  H  7997  8009       L1    15  0.90

> <Gold.Chemscore.Hbond.Weighted>
-6.6324

> <Gold.Chemscore.Metal.Weighted>
-0.0000

> <Gold.Chemscore.Lipo.Weighted>
-9.6304

> <Gold.Chemscore.Internal_Hbond.Weighted>
0.0000

> <Gold.Chemscore.DEClash.Weighted>
2.5311

> <Gold.Chemscore.DEInternal.Weighted>
0.4805

> <Gold.Chemscore.Rot.Weighted>
4.7433

> <Gold.Chemscore.Internal.Correction.Weighted>
   9.000000E+99

> <Gold.Protein.RotatedTorsions>
[ 6907 6896 6895 6894 ] final  -50.90 input  -60.11 | X-H torsion
[ 7974 7965 7964 7962 ] final  -13.66 input  175.53 | X-H torsion
[ 8008 7997 7996 7995 ] final -155.60 input   59.86 | X-H torsion
[ 10167 10162 10161 10158 ] final  -60.71 input  -65.29 | X-H torsion
[ 10718 10713 10712 10709 ] final   10.79 input   66.30 | X-H torsion
[ 10763 10752 10751 10750 ] final  177.67 input  -60.55 | X-H torsion
[ 11005 11000 10999 10996 ] final   36.52 input  -57.11 | X-H torsion

> <Gold.Protein.ActiveResidues>
 VAL166  LYS551  ARG553  GLY616  TRP617  ASP618  TYR619  PRO620  LYS621  CYS622 
 ASP623  PHE694  ASN695  SER759  ASP760  ASP761  ALA762  ILE779  LEU786  VAL792 
 PHE793  MET794  SER795  GLU796  ALA797  LYS798  CYS799  TRP800  GLU811  SER814 

> <Gold.Protein.RotatedAtoms>
  150.8662  134.8026  159.7120 H   0  0  0  0  0  0  0  0  0  0  0  0  # atno 6907 bound_to 6896
  152.4683  134.5020  159.9737 H   0  0  0  0  0  0  0  0  0  0  0  0  # atno 6908 bound_to 6896
  151.5115  133.3445  159.2921 H   0  0  0  0  0  0  0  0  0  0  0  0  # atno 6909 bound_to 6896
  146.2105  140.3236  142.8392 H   0  0  0  0  0  0  0  0  0  0  0  0  # atno 7974 bound_to 7965
  155.7043  140.0770  157.2397 H   0  0  0  0  0  0  0  0  0  0  0  0  # atno 8008 bound_to 7997
  154.4068  140.1642  156.2278 H   0  0  0  0  0  0  0  0  0  0  0  0  # atno 8009 bound_to 7997
  155.9340  140.3389  155.6275 H   0  0  0  0  0  0  0  0  0  0  0  0  # atno 8010 bound_to 7997
  140.6054  143.2372  151.5834 H   0  0  0  0  0  0  0  0  0  0  0  0  # atno 10167 bound_to 10162
  156.9861  130.6024  149.5681 H   0  0  0  0  0  0  0  0  0  0  0  0  # atno 10718 bound_to 10713
  154.4975  135.2782  155.1447 H   0  0  0  0  0  0  0  0  0  0  0  0  # atno 10763 bound_to 10752
  154.3094  135.6232  153.5462 H   0  0  0  0  0  0  0  0  0  0  0  0  # atno 10764 bound_to 10752
  152.9897  135.5716  154.5411 H   0  0  0  0  0  0  0  0  0  0  0  0  # atno 10765 bound_to 10752
  140.2317  134.3519  155.7961 H   0  0  0  0  0  0  0  0  0  0  0  0  # atno 11005 bound_to 11000
  144.8902  140.7514  143.5931 LP  0  0  0  0  0  0  0  0  0  0  0  0  # atno 17320 bound_to 7965
  145.3158  139.1804  143.4614 LP  0  0  0  0  0  0  0  0  0  0  0  0  # atno 17321 bound_to 7965
  139.5321  144.2886  152.1170 LP  0  0  0  0  0  0  0  0  0  0  0  0  # atno 17342 bound_to 10162
  140.2075  144.4596  150.6401 LP  0  0  0  0  0  0  0  0  0  0  0  0  # atno 17343 bound_to 10162
  156.0225  130.5320  150.8316 LP  0  0  0  0  0  0  0  0  0  0  0  0  # atno 17370 bound_to 10713
  157.5492  131.0943  150.9719 LP  0  0  0  0  0  0  0  0  0  0  0  0  # atno 17371 bound_to 10713
  141.2217  133.7249  156.8743 LP  0  0  0  0  0  0  0  0  0  0  0  0  # atno 17394 bound_to 11000
  140.1743  134.9078  157.2872 LP  0  0  0  0  0  0  0  0  0  0  0  0  # atno 17395 bound_to 11000

$$$$
