AV-unprocessed.smi:549|AV-procd|sdf|2893|dock5
  -GOLD-   2262023383D 1   1.00000     0.00000
 Structure written by MMmdl.
 44 45  0  0  0  0  0  0  0  0  2 V2000
  145.8709  132.0860  150.3015 C   0  0  0  0  0  0  0  0  0  0  0  0
  146.4450  133.3434  150.7492 N   0  0  0  0  0  0  0  0  0  0  0  0
  145.6187  134.3901  151.1780 C   0  0  0  0  0  0  0  0  0  0  0  0
  144.2061  134.3256  151.2192 C   0  0  0  0  0  0  0  0  0  0  0  0
  143.4753  135.4433  151.6722 C   0  0  0  0  0  0  0  0  0  0  0  0
  144.1557  136.6139  152.0707 C   0  0  0  0  0  0  0  0  0  0  0  0
  143.3743  137.7081  152.5329 N   0  0  0  0  0  0  0  0  0  0  0  0
  142.1882  137.6851  153.1656 C   0  0  0  0  0  0  0  0  0  0  0  0
  141.5762  136.6692  153.4940 O   0  0  0  0  0  0  0  0  0  0  0  0
  141.7487  138.9260  153.4196 N   0  0  0  0  0  0  0  0  0  0  0  0
  140.4960  139.2505  154.0964 C   0  0  0  0  0  0  0  0  0  0  0  0
  139.3627  139.3734  153.0675 C   0  0  0  0  0  0  0  0  0  0  0  0
  138.0358  139.7693  153.7392 C   0  0  0  0  0  0  0  0  0  0  0  0
  138.1793  140.9947  154.5507 N   0  0  0  0  0  0  0  0  0  0  0  0
  137.6223  142.5210  153.9268 S   0  0  0  0  0  0  0  0  0  0  0  0
  136.5378  143.1813  155.2578 C   0  0  0  0  0  0  0  0  0  0  0  0
  138.7885  143.4089  153.8032 O   0  0  0  0  0  0  0  0  0  0  0  0
  136.7866  142.2470  152.7478 O   0  0  0  0  0  0  0  0  0  0  0  0
  139.2807  140.9575  155.5339 C   0  0  0  0  0  0  0  0  0  0  0  0
  140.6172  140.5702  154.8772 C   0  0  0  0  0  0  0  0  0  0  0  0
  145.5711  136.6173  152.0165 C   0  0  0  0  0  0  0  0  0  0  0  0
  146.2331  135.5247  151.5779 N   0  3  0  0  0  0  0  0  0  0  0  0
  146.6657  131.3965  150.0170 H   0  0  0  0  0  0  0  0  0  0  0  0
  145.2279  132.2410  149.4346 H   0  0  0  0  0  0  0  0  0  0  0  0
  145.2866  131.6213  151.0962 H   0  0  0  0  0  0  0  0  0  0  0  0
  147.4476  133.4628  150.7237 H   0  0  0  0  0  0  0  0  0  0  0  0
  143.6738  133.4373  150.9132 H   0  0  0  0  0  0  0  0  0  0  0  0
  142.3964  135.3991  151.7083 H   0  0  0  0  0  0  0  0  0  0  0  0
  143.7838  138.6208  152.3963 H   0  0  0  0  0  0  0  0  0  0  0  0
  142.3168  139.7047  153.1198 H   0  0  0  0  0  0  0  0  0  0  0  0
  140.2450  138.4451  154.7898 H   0  0  0  0  0  0  0  0  0  0  0  0
  139.6278  140.1083  152.3081 H   0  0  0  0  0  0  0  0  0  0  0  0
  139.2333  138.4265  152.5419 H   0  0  0  0  0  0  0  0  0  0  0  0
  137.2551  139.8984  152.9901 H   0  0  0  0  0  0  0  0  0  0  0  0
  137.7033  138.9618  154.3927 H   0  0  0  0  0  0  0  0  0  0  0  0
  136.1380  144.1453  154.9440 H   0  0  0  0  0  0  0  0  0  0  0  0
  137.1128  143.3187  156.1716 H   0  0  0  0  0  0  0  0  0  0  0  0
  135.7097  142.4976  155.4356 H   0  0  0  0  0  0  0  0  0  0  0  0
  139.3710  141.9179  156.0406 H   0  0  0  0  0  0  0  0  0  0  0  0
  139.0294  140.2270  156.3038 H   0  0  0  0  0  0  0  0  0  0  0  0
  141.3829  140.4816  155.6488 H   0  0  0  0  0  0  0  0  0  0  0  0
  140.9496  141.3661  154.2115 H   0  0  0  0  0  0  0  0  0  0  0  0
  146.2058  137.4378  152.3146 H   0  0  0  0  0  0  0  0  0  0  0  0
  147.2525  135.5606  151.5508 H   0  0  0  0  0  0  0  0  0  0  0  0
  1  2  1  0  0  0  0
  1 23  1  0  0  0  0
  1 24  1  0  0  0  0
  1 25  1  0  0  0  0
  2  3  1  0  0  0  0
  2 26  1  0  0  0  0
  3 22  1  0  0  0  0
  3  4  2  0  0  0  0
  4  5  1  0  0  0  0
  4 27  1  0  0  0  0
  5  6  2  0  0  0  0
  5 28  1  0  0  0  0
  6  7  1  0  0  0  0
  6 21  1  0  0  0  0
  7  8  1  0  0  0  0
  7 29  1  0  0  0  0
  8  9  2  0  0  0  0
  8 10  1  0  0  0  0
 10 11  1  0  0  0  0
 10 30  1  0  0  0  0
 11 20  1  0  0  0  0
 11 12  1  0  0  0  0
 11 31  1  0  0  0  0
 12 13  1  0  0  0  0
 12 32  1  0  0  0  0
 12 33  1  0  0  0  0
 13 14  1  0  0  0  0
 13 34  1  0  0  0  0
 13 35  1  0  0  0  0
 14 15  1  0  0  0  0
 14 19  1  0  0  0  0
 15 16  1  0  0  0  0
 15 17  2  0  0  0  0
 15 18  2  0  0  0  0
 16 36  1  0  0  0  0
 16 37  1  0  0  0  0
 16 38  1  0  0  0  0
 19 20  1  0  0  0  0
 19 39  1  0  0  0  0
 19 40  1  0  0  0  0
 20 41  1  0  0  0  0
 20 42  1  0  0  0  0
 21 22  2  0  0  0  0
 21 43  1  0  0  0  0
 22 44  1  0  0  0  0
M  CHG  1  22   1
M  END
> <s_m_source_file>
AV-unprocessed.smi

> <i_m_source_file_index>
549

> <i_lp_mmshare_version>
43012

> <i_f3d_flags>
0

> <s_epik_input>
W0NIM11bTkhdYzFbY0hdW2NIXWMoW2NIXW4xKVtOSF1DKD1PKVtOSF1bQ0hdMltDSDJdW0NIMl1OKFMoPU8pKD1PKVtDSDNdKVtDSDJdW0NIMl0y

> <s_epik_cmdline>
J2VwaWtfcHl0aG9uJywgJy1waCcsICc3LjAnLCAnLXRuJywgJzgnLCAnLW1hJywgJzIwMCcsICctbWV0YWxfYmluZGluZycsICctaW1hZScsICc8aW5maWxlLm1hZT4nLCAnLW9tYWUnLCAnPG91dGZpbGUubWFlPic=

> <r_lp_tautomer_probability>
0.999994

> <r_epik_Ionization_Penalty>
0.450019

> <r_epik_Ionization_Penalty_Charging>
0.449999

> <r_epik_Ionization_Penalty_Neutral>
1.96337e-05

> <r_epik_State_Penalty>
0.452724

> <r_epik_Charging_Adjusted_Penalty>
0.902724

> <i_epik_Tot_Q>
1

> <i_epik_Tot_abs_Q>
1

> <r_epik_Metal_State_Penalty>
0.680753

> <b_epik_Metal_Only>
0

> <s_lp_Force_Field>
OPLS_2005

> <r_lp_Energy>
8.99887

> <b_lp_Chiralities_Consistent>
1

> <s_lp_Variant>
AV-unprocessed.smi:549-2

> <Gold.Version>
5.8.1

> <Gold.Id.Protein>
6NUR|6NUR_protein|mol2

> <Gold.PLP.Fitness>
42.2366

> <Gold.PLP.PLP>
-28.4742

> <Gold.PLP.part.hbond>
-5.0000

> <Gold.PLP.part.metal>
0.0000

> <Gold.PLP.part.buried>
-2.0173

> <Gold.PLP.part.nonpolar>
-21.1328

> <Gold.PLP.part.repulsive>
0.3635

> <Gold.PLP.ligand.clash>
0.0000

> <Gold.PLP.ligand.torsion>
1.6332

> <Gold.PLP.Chemscore.Hbond>
4.9920

> <Gold.PLP.Chemscore.CHOScore>
0.0000

> <Gold.PLP.Chemscore.Metal>
0.0000

> <Gold.Chemscore.Hbonds>
donor molecule, donor type, donor heavy atom, donor atom, acceptor molecule, acceptor atom, score
      L1  H     7    29       P1 10175  0.99
      L1  H    10    30       P1 10175  1.00
      L1  H    22    44       P1  7948  2.00
      P1  H 10162 10167       L1    17  0.96

> <Gold.PLP.Chemscore.Internal.Correction>
2.0528

> <Gold.Rescore>
     Score         DG    S(hbond)    S(metal)    S(lipo)     H(rot)  DE(clash)    DE(int)     intcor
     18.74     -21.72       3.79        0.00      52.62       1.00       0.11       2.88       ----

> <Gold.Chemscore.Fitness>
18.7388

> <Gold.Chemscore.DG>
-21.7244

> <Gold.Chemscore.ZeroCoef>
-5.4800

> <Gold.Chemscore.Hbond>
3.7867

> <Gold.Chemscore.Metal>
0.0000

> <Gold.Chemscore.Lipo>
52.6231

> <Gold.Chemscore.Internal_Hbond>
0.0000

> <Gold.Chemscore.DEClash>
0.1093

> <Gold.Chemscore.DEInternal>
2.8764

> <Gold.Chemscore.Rot>
1.0000

> <Gold.Chemscore.Internal.Correction>
   9.000000E+99

> <Gold.Chemscore.Hbonds>
donor molecule, donor type, donor heavy atom, donor atom, acceptor molecule, acceptor atom, score
      L1  H     7    29       P1 10175  0.94
      L1  H    10    30       P1 10175  0.89
      L1  H    22    44       P1  7948  0.98
      P1  H 10162 10167       L1    17  0.92

> <Gold.Chemscore.Hbond.Weighted>
-12.6475

> <Gold.Chemscore.Metal.Weighted>
-0.0000

> <Gold.Chemscore.Lipo.Weighted>
-6.1569

> <Gold.Chemscore.Internal_Hbond.Weighted>
0.0000

> <Gold.Chemscore.DEClash.Weighted>
0.1093

> <Gold.Chemscore.DEInternal.Weighted>
2.8764

> <Gold.Chemscore.Rot.Weighted>
2.5600

> <Gold.Chemscore.Internal.Correction.Weighted>
   9.000000E+99

> <Gold.Protein.RotatedTorsions>
[ 6907 6896 6895 6894 ] final  -53.89 input  -60.11 | X-H torsion
[ 7974 7965 7964 7962 ] final  -64.99 input  175.53 | X-H torsion
[ 8008 7997 7996 7995 ] final  -33.34 input   59.86 | X-H torsion
[ 10167 10162 10161 10158 ] final -158.30 input  -65.29 | X-H torsion
[ 10718 10713 10712 10709 ] final -142.04 input   66.30 | X-H torsion
[ 10763 10752 10751 10750 ] final  162.41 input  -60.55 | X-H torsion
[ 11005 11000 10999 10996 ] final  147.75 input  -57.11 | X-H torsion

> <Gold.Protein.ActiveResidues>
 VAL166  LYS551  ARG553  GLY616  TRP617  ASP618  TYR619  PRO620  LYS621  CYS622 
 ASP623  PHE694  ASN695  SER759  ASP760  ASP761  ALA762  ILE779  LEU786  VAL792 
 PHE793  MET794  SER795  GLU796  ALA797  LYS798  CYS799  TRP800  GLU811  SER814 

> <Gold.Protein.RotatedAtoms>
  150.8387  134.7670  159.6913 H   0  0  0  0  0  0  0  0  0  0  0  0  # atno 6907 bound_to 6896
  152.4478  134.5454  159.9861 H   0  0  0  0  0  0  0  0  0  0  0  0  # atno 6908 bound_to 6896
  151.5599  133.3367  159.3005 H   0  0  0  0  0  0  0  0  0  0  0  0  # atno 6909 bound_to 6896
  145.7599  140.8867  143.0435 H   0  0  0  0  0  0  0  0  0  0  0  0  # atno 7974 bound_to 7965
  154.4152  140.1713  156.1873 H   0  0  0  0  0  0  0  0  0  0  0  0  # atno 8008 bound_to 7997
  155.9633  140.3391  155.6486 H   0  0  0  0  0  0  0  0  0  0  0  0  # atno 8009 bound_to 7997
  155.6721  140.0713  157.2507 H   0  0  0  0  0  0  0  0  0  0  0  0  # atno 8010 bound_to 7997
  139.6703  143.9757  152.2279 H   0  0  0  0  0  0  0  0  0  0  0  0  # atno 10167 bound_to 10162
  156.3412  130.7638  151.1775 H   0  0  0  0  0  0  0  0  0  0  0  0  # atno 10718 bound_to 10713
  154.2779  135.2764  155.2710 H   0  0  0  0  0  0  0  0  0  0  0  0  # atno 10763 bound_to 10752
  154.5244  135.5747  153.6710 H   0  0  0  0  0  0  0  0  0  0  0  0  # atno 10764 bound_to 10752
  152.9934  135.6212  154.2937 H   0  0  0  0  0  0  0  0  0  0  0  0  # atno 10765 bound_to 10752
  140.0902  134.9045  157.1638 H   0  0  0  0  0  0  0  0  0  0  0  0  # atno 11005 bound_to 11000
  144.6832  139.9708  143.7482 LP  0  0  0  0  0  0  0  0  0  0  0  0  # atno 17320 bound_to 7965
  146.0275  139.3305  143.0776 LP  0  0  0  0  0  0  0  0  0  0  0  0  # atno 17321 bound_to 7965
  139.9519  144.6614  150.8163 LP  0  0  0  0  0  0  0  0  0  0  0  0  # atno 17342 bound_to 10162
  140.7615  143.3176  151.2696 LP  0  0  0  0  0  0  0  0  0  0  0  0  # atno 17343 bound_to 10162
  157.7447  131.0454  150.4840 LP  0  0  0  0  0  0  0  0  0  0  0  0  # atno 17370 bound_to 10713
  156.5021  130.4119  149.6347 LP  0  0  0  0  0  0  0  0  0  0  0  0  # atno 17371 bound_to 10713
  140.3363  134.2753  155.7219 LP  0  0  0  0  0  0  0  0  0  0  0  0  # atno 17394 bound_to 11000
  141.2075  133.7803  157.0113 LP  0  0  0  0  0  0  0  0  0  0  0  0  # atno 17395 bound_to 11000

$$$$
