AV-unprocessed.smi:2287|AV-procd|sdf|9205|dock1
  -GOLD-   2272012423D 1   1.00000     0.00000
 Structure written by MMmdl.
 38 39  0  0  0  0  0  0  0  0  2 V2000
  146.1878  138.3051  150.9454 C   0  0  0  0  0  0  0  0  0  0  0  0
  145.5360  138.4649  152.2658 N   0  3  0  0  0  0  0  0  0  0  0  0
  144.9056  137.2039  152.7152 C   0  0  0  0  0  0  0  0  0  0  0  0
  146.4327  139.0397  153.3004 C   0  0  0  0  0  0  0  0  0  0  0  0
  147.1683  140.2978  152.8110 C   0  0  0  0  0  0  0  0  0  0  0  0
  148.5037  140.3681  153.3898 N   0  0  0  0  0  0  0  0  0  0  0  0
  148.7624  140.7650  154.6429 C   0  0  0  0  0  0  0  0  0  0  0  0
  147.8887  141.1298  155.4286 O   0  0  0  0  0  0  0  0  0  0  0  0
  150.0798  140.7240  154.9053 N   0  0  0  0  0  0  0  0  0  0  0  0
  150.7485  140.9930  156.1301 C   0  0  0  0  0  0  0  0  0  0  0  0
  150.3684  141.9817  157.0718 C   0  0  0  0  0  0  0  0  0  0  0  0
  151.0426  142.1560  158.2291 N   0  0  0  0  0  0  0  0  0  0  0  0
  152.0924  141.3592  158.4464 C   0  0  0  0  0  0  0  0  0  0  0  0
  152.8020  141.5242  159.7547 C   0  0  0  0  0  0  0  0  0  0  0  0
  153.3841  142.8632  160.1590 C   0  0  0  0  0  0  0  0  0  0  0  0
  154.3027  141.7267  159.8057 C   0  0  0  0  0  0  0  0  0  0  0  0
  152.5317  140.3862  157.6435 N   0  0  0  0  0  0  0  0  0  0  0  0
  151.8629  140.2037  156.4849 C   0  0  0  0  0  0  0  0  0  0  0  0
  147.0377  137.6241  151.0082 H   0  0  0  0  0  0  0  0  0  0  0  0
  146.5409  139.2586  150.5544 H   0  0  0  0  0  0  0  0  0  0  0  0
  145.4834  137.9006  150.2177 H   0  0  0  0  0  0  0  0  0  0  0  0
  145.6577  136.4362  152.9016 H   0  0  0  0  0  0  0  0  0  0  0  0
  144.2126  136.8279  151.9618 H   0  0  0  0  0  0  0  0  0  0  0  0
  144.3389  137.3595  153.6338 H   0  0  0  0  0  0  0  0  0  0  0  0
  145.8358  139.3144  154.1718 H   0  0  0  0  0  0  0  0  0  0  0  0
  147.1419  138.2818  153.6376 H   0  0  0  0  0  0  0  0  0  0  0  0
  147.2674  140.2994  151.7253 H   0  0  0  0  0  0  0  0  0  0  0  0
  146.6003  141.1884  153.0861 H   0  0  0  0  0  0  0  0  0  0  0  0
  149.2782  140.0912  152.8043 H   0  0  0  0  0  0  0  0  0  0  0  0
  150.6805  140.4791  154.1318 H   0  0  0  0  0  0  0  0  0  0  0  0
  149.5162  142.6276  156.9329 H   0  0  0  0  0  0  0  0  0  0  0  0
  152.3450  140.9139  160.5312 H   0  0  0  0  0  0  0  0  0  0  0  0
  153.3098  143.6854  159.4499 H   0  0  0  0  0  0  0  0  0  0  0  0
  153.3108  143.1442  161.2076 H   0  0  0  0  0  0  0  0  0  0  0  0
  154.8450  141.2467  160.6177 H   0  0  0  0  0  0  0  0  0  0  0  0
  154.8397  141.7929  158.8613 H   0  0  0  0  0  0  0  0  0  0  0  0
  152.2199  139.4162  155.8373 H   0  0  0  0  0  0  0  0  0  0  0  0
  144.7806  139.1243  152.1415 H   0  0  0  0  0  0  0  0  0  0  0  0
  1  2  1  0  0  0  0
  1 19  1  0  0  0  0
  1 20  1  0  0  0  0
  1 21  1  0  0  0  0
  2  3  1  0  0  0  0
  2  4  1  0  0  0  0
  2 38  1  0  0  0  0
  3 22  1  0  0  0  0
  3 23  1  0  0  0  0
  3 24  1  0  0  0  0
  4  5  1  0  0  0  0
  4 25  1  0  0  0  0
  4 26  1  0  0  0  0
  5  6  1  0  0  0  0
  5 27  1  0  0  0  0
  5 28  1  0  0  0  0
  6  7  1  0  0  0  0
  6 29  1  0  0  0  0
  7  8  2  0  0  0  0
  7  9  1  0  0  0  0
  9 10  1  0  0  0  0
  9 30  1  0  0  0  0
 10 18  1  0  0  0  0
 10 11  2  0  0  0  0
 11 12  1  0  0  0  0
 11 31  1  0  0  0  0
 12 13  2  0  0  0  0
 13 14  1  0  0  0  0
 13 17  1  0  0  0  0
 14 16  1  0  0  0  0
 14 15  1  0  0  0  0
 14 32  1  0  0  0  0
 15 16  1  0  0  0  0
 15 33  1  0  0  0  0
 15 34  1  0  0  0  0
 16 35  1  0  0  0  0
 16 36  1  0  0  0  0
 17 18  2  0  0  0  0
 18 37  1  0  0  0  0
M  CHG  1   2   1
M  END
> <s_m_source_file>
AV-unprocessed.smi

> <i_m_source_file_index>
2287

> <i_lp_mmshare_version>
43012

> <i_f3d_flags>
0

> <s_epik_input>
W0NIM11OKFtDSDNdKVtDSDJdW0NIMl1bTkhdQyg9TylbTkhdYzFbY0hdbmMobltjSF0xKVtDSF0yW0NIMl1bQ0gyXTI=

> <s_epik_cmdline>
J2VwaWtfcHl0aG9uJywgJy1waCcsICc3LjAnLCAnLXRuJywgJzgnLCAnLW1hJywgJzIwMCcsICctbWV0YWxfYmluZGluZycsICctaW1hZScsICc8aW5maWxlLm1hZT4nLCAnLW9tYWUnLCAnPG91dGZpbGUubWFlPic=

> <r_lp_tautomer_probability>
1

> <r_epik_Ionization_Penalty>
0.00435795

> <r_epik_Ionization_Penalty_Charging>
0.00433655

> <r_epik_Ionization_Penalty_Neutral>
2.14019e-05

> <r_epik_State_Penalty>
0.00312208

> <r_epik_Charging_Adjusted_Penalty>
0.00745864

> <i_epik_Tot_Q>
1

> <i_epik_Tot_abs_Q>
1

> <r_epik_Metal_State_Penalty>
-0

> <b_epik_Metal_Only>
0

> <s_lp_Force_Field>
OPLS_2005

> <r_lp_Energy>
7.96618

> <b_lp_Chiralities_Consistent>
1

> <s_lp_Variant>
AV-unprocessed.smi:2287-1

> <Gold.Version>
5.8.1

> <Gold.Id.Protein>
6NUR|6NUR_protein|mol2

> <Gold.PLP.Fitness>
43.4957

> <Gold.PLP.PLP>
-31.5202

> <Gold.PLP.part.hbond>
-3.9063

> <Gold.PLP.part.metal>
0.0000

> <Gold.PLP.part.buried>
2.0868

> <Gold.PLP.part.nonpolar>
-29.4897

> <Gold.PLP.part.repulsive>
1.6263

> <Gold.PLP.ligand.clash>
0.0000

> <Gold.PLP.ligand.torsion>
0.7251

> <Gold.PLP.Chemscore.Hbond>
3.4084

> <Gold.PLP.Chemscore.CHOScore>
0.9781

> <Gold.PLP.Chemscore.Metal>
0.0000

> <Gold.Chemscore.Hbonds>
donor molecule, donor type, donor heavy atom, donor atom, acceptor molecule, acceptor atom, score
      L1  H     2    38       P1 10175  2.00
      L1  H     6    29       P1  7957  0.74
      P1  H  7997  8009       L1    17  0.60
      L1  C    11    31       P1  8028  1.00

> <Gold.PLP.Chemscore.Internal.Correction>
0.2666

> <Gold.Rescore>
     Score         DG    S(hbond)    S(metal)    S(lipo)     H(rot)  DE(clash)    DE(int)     intcor
     14.38     -16.90       1.90        0.00      81.14       1.73       1.80       0.72       ----

> <Gold.Chemscore.Fitness>
14.3774

> <Gold.Chemscore.DG>
-16.8958

> <Gold.Chemscore.ZeroCoef>
-5.4800

> <Gold.Chemscore.Hbond>
1.8986

> <Gold.Chemscore.Metal>
0.0000

> <Gold.Chemscore.Lipo>
81.1375

> <Gold.Chemscore.Internal_Hbond>
0.0000

> <Gold.Chemscore.DEClash>
1.7981

> <Gold.Chemscore.DEInternal>
0.7202

> <Gold.Chemscore.Rot>
1.7260

> <Gold.Chemscore.Internal.Correction>
   9.000000E+99

> <Gold.Chemscore.Hbonds>
donor molecule, donor type, donor heavy atom, donor atom, acceptor molecule, acceptor atom, score
      L1  H     2    38       P1 10175  1.00
      L1  H     6    29       P1  7957  0.74
      P1  H  7997  8009       L1    17  0.10

> <Gold.Chemscore.Hbond.Weighted>
-6.3413

> <Gold.Chemscore.Metal.Weighted>
-0.0000

> <Gold.Chemscore.Lipo.Weighted>
-9.4931

> <Gold.Chemscore.Internal_Hbond.Weighted>
0.0000

> <Gold.Chemscore.DEClash.Weighted>
1.7981

> <Gold.Chemscore.DEInternal.Weighted>
0.7202

> <Gold.Chemscore.Rot.Weighted>
4.4186

> <Gold.Chemscore.Internal.Correction.Weighted>
   9.000000E+99

> <Gold.Protein.RotatedTorsions>
[ 6907 6896 6895 6894 ] final -169.78 input  -60.11 | X-H torsion
[ 7974 7965 7964 7962 ] final   61.88 input  175.53 | X-H torsion
[ 8008 7997 7996 7995 ] final  164.46 input   59.86 | X-H torsion
[ 10167 10162 10161 10158 ] final -159.62 input  -65.29 | X-H torsion
[ 10718 10713 10712 10709 ] final   65.70 input   66.30 | X-H torsion
[ 10763 10752 10751 10750 ] final -140.35 input  -60.55 | X-H torsion
[ 11005 11000 10999 10996 ] final    1.65 input  -57.11 | X-H torsion

> <Gold.Protein.ActiveResidues>
 VAL166  LYS551  ARG553  GLY616  TRP617  ASP618  TYR619  PRO620  LYS621  CYS622 
 ASP623  PHE694  ASN695  SER759  ASP760  ASP761  ALA762  ILE779  LEU786  VAL792 
 PHE793  MET794  SER795  GLU796  ALA797  LYS798  CYS799  TRP800  GLU811  SER814 

> <Gold.Protein.RotatedAtoms>
  151.4971  133.3512  159.2862 H   0  0  0  0  0  0  0  0  0  0  0  0  # atno 6907 bound_to 6896
  150.8797  134.8188  159.7226 H   0  0  0  0  0  0  0  0  0  0  0  0  # atno 6908 bound_to 6896
  152.4754  134.4867  159.9734 H   0  0  0  0  0  0  0  0  0  0  0  0  # atno 6909 bound_to 6896
  145.8797  139.3434  143.0713 H   0  0  0  0  0  0  0  0  0  0  0  0  # atno 7974 bound_to 7965
  156.1878  140.1696  156.8151 H   0  0  0  0  0  0  0  0  0  0  0  0  # atno 8008 bound_to 7997
  154.5435  140.0732  156.8582 H   0  0  0  0  0  0  0  0  0  0  0  0  # atno 8009 bound_to 7997
  155.3168  140.3371  155.4244 H   0  0  0  0  0  0  0  0  0  0  0  0  # atno 8010 bound_to 7997
  139.6601  143.9928  152.2220 H   0  0  0  0  0  0  0  0  0  0  0  0  # atno 10167 bound_to 10162
  157.6122  130.9228  150.0010 H   0  0  0  0  0  0  0  0  0  0  0  0  # atno 10718 bound_to 10713
  154.8581  135.3556  154.5693 H   0  0  0  0  0  0  0  0  0  0  0  0  # atno 10763 bound_to 10752
  153.6306  135.7002  153.5281 H   0  0  0  0  0  0  0  0  0  0  0  0  # atno 10764 bound_to 10752
  153.3052  135.4194  155.1247 H   0  0  0  0  0  0  0  0  0  0  0  0  # atno 10765 bound_to 10752
  140.6131  133.9730  155.8187 H   0  0  0  0  0  0  0  0  0  0  0  0  # atno 11005 bound_to 11000
  145.9039  140.9225  143.0489 LP  0  0  0  0  0  0  0  0  0  0  0  0  # atno 17320 bound_to 7965
  144.6727  140.1069  143.7457 LP  0  0  0  0  0  0  0  0  0  0  0  0  # atno 17321 bound_to 7965
  139.9664  144.6523  150.8030 LP  0  0  0  0  0  0  0  0  0  0  0  0  # atno 17342 bound_to 10162
  140.7576  143.3090  151.2891 LP  0  0  0  0  0  0  0  0  0  0  0  0  # atno 17343 bound_to 10162
  156.1229  130.3645  149.9857 LP  0  0  0  0  0  0  0  0  0  0  0  0  # atno 17370 bound_to 10713
  156.7934  130.9264  151.3646 LP  0  0  0  0  0  0  0  0  0  0  0  0  # atno 17371 bound_to 10713
  141.0794  134.0085  157.3408 LP  0  0  0  0  0  0  0  0  0  0  0  0  # atno 17394 bound_to 11000
  139.9184  135.0199  156.7970 LP  0  0  0  0  0  0  0  0  0  0  0  0  # atno 17395 bound_to 11000

$$$$
