AV-unprocessed.smi:1427|AV-procd|sdf|5812|dock2
  -GOLD-   22720 5463D 1   1.00000     0.00000
 Structure written by MMmdl.
 33 34  0  0  0  0  0  0  0  0  1 V2000
  149.4560  140.7287  155.5863 C   0  0  0  0  0  0  0  0  0  0  0  0
  149.8915  141.5031  156.8376 C   0  0  1  0  0  0  0  0  0  0  0  0
  151.2728  142.1639  156.6375 C   0  0  0  0  0  0  0  0  0  0  0  0
  151.8368  142.6709  157.8769 N   0  0  0  0  0  0  0  0  0  0  0  0
  151.9697  143.9814  158.2846 C   0  0  0  0  0  0  0  0  0  0  0  0
  152.5770  143.9668  159.5074 C   0  0  0  0  0  0  0  0  0  0  0  0
  152.7757  142.5825  159.7696 C   0  0  0  0  0  0  0  0  0  0  0  0
  152.3281  141.8090  158.7941 N   0  0  0  0  0  0  0  0  0  0  0  0
  148.8752  142.5056  157.1555 N   0  0  0  0  0  0  0  0  0  0  0  0
  147.6899  142.2607  157.7369 C   0  0  0  0  0  0  0  0  0  0  0  0
  147.3013  141.1292  158.0314 O   0  0  0  0  0  0  0  0  0  0  0  0
  146.8086  143.4841  158.0255 C   0  0  1  0  0  0  0  0  0  0  0  0
  145.5430  143.1645  158.8453 C   0  0  0  0  0  0  0  0  0  0  0  0
  145.8594  143.6097  160.2798 C   0  0  0  0  0  0  0  0  0  0  0  0
  147.0422  144.5447  160.0887 C   0  0  0  0  0  0  0  0  0  0  0  0
  147.4853  145.2702  160.9758 O   0  0  0  0  0  0  0  0  0  0  0  0
  147.5128  144.4573  158.8442 N   0  0  0  0  0  0  0  0  0  0  0  0
  150.1772  139.9498  155.3372 H   0  0  0  0  0  0  0  0  0  0  0  0
  149.3662  141.3874  154.7217 H   0  0  0  0  0  0  0  0  0  0  0  0
  148.4907  140.2448  155.7391 H   0  0  0  0  0  0  0  0  0  0  0  0
  149.9661  140.7801  157.6521 H   0  0  0  0  0  0  0  0  0  0  0  0
  151.9762  141.4393  156.2259 H   0  0  0  0  0  0  0  0  0  0  0  0
  151.2070  142.9777  155.9130 H   0  0  0  0  0  0  0  0  0  0  0  0
  151.6331  144.8055  157.6731 H   0  0  0  0  0  0  0  0  0  0  0  0
  152.8422  144.8157  160.1196 H   0  0  0  0  0  0  0  0  0  0  0  0
  153.2292  142.1200  160.6340 H   0  0  0  0  0  0  0  0  0  0  0  0
  149.1063  143.4658  156.9460 H   0  0  0  0  0  0  0  0  0  0  0  0
  146.5309  143.9591  157.0831 H   0  0  0  0  0  0  0  0  0  0  0  0
  144.6972  143.7365  158.4612 H   0  0  0  0  0  0  0  0  0  0  0  0
  145.2645  142.1103  158.8009 H   0  0  0  0  0  0  0  0  0  0  0  0
  145.0167  144.1130  160.7545 H   0  0  0  0  0  0  0  0  0  0  0  0
  146.1637  142.7662  160.9004 H   0  0  0  0  0  0  0  0  0  0  0  0
  148.3063  144.9796  158.5021 H   0  0  0  0  0  0  0  0  0  0  0  0
  1  2  1  0  0  0  0
  1 18  1  0  0  0  0
  1 19  1  0  0  0  0
  1 20  1  0  0  0  0
  2  3  1  0  0  0  0
  2  9  1  0  0  0  0
  2 21  1  0  0  0  0
  3  4  1  0  0  0  0
  3 22  1  0  0  0  0
  3 23  1  0  0  0  0
  4  8  1  0  0  0  0
  4  5  1  0  0  0  0
  5  6  2  0  0  0  0
  5 24  1  0  0  0  0
  6  7  1  0  0  0  0
  6 25  1  0  0  0  0
  7  8  2  0  0  0  0
  7 26  1  0  0  0  0
  9 10  1  0  0  0  0
  9 27  1  0  0  0  0
 10 11  2  0  0  0  0
 10 12  1  0  0  0  0
 12 17  1  0  0  0  0
 12 13  1  0  0  0  0
 12 28  1  0  0  0  0
 13 14  1  0  0  0  0
 13 29  1  0  0  0  0
 13 30  1  0  0  0  0
 14 15  1  0  0  0  0
 14 31  1  0  0  0  0
 14 32  1  0  0  0  0
 15 16  2  0  0  0  0
 15 17  1  0  0  0  0
 17 33  1  0  0  0  0
M  END
> <s_m_source_file>
AV-unprocessed.smi

> <i_m_source_file_index>
1427

> <i_lp_mmshare_version>
43012

> <i_f3d_flags>
0

> <s_epik_input>
bjFbY0hdW2NIXVtjSF1uMVtDSDJdW0NAQEhdKFtDSDNdKVtOSF1DKD1PKVtDQEBIXTJbQ0gyXVtDSDJdQyg9TylbTkhdMg==

> <s_epik_cmdline>
J2VwaWtfcHl0aG9uJywgJy1waCcsICc3LjAnLCAnLXRuJywgJzgnLCAnLW1hJywgJzIwMCcsICctbWV0YWxfYmluZGluZycsICctaW1hZScsICc8aW5maWxlLm1hZT4nLCAnLW9tYWUnLCAnPG91dGZpbGUubWFlPic=

> <r_lp_tautomer_probability>
1

> <r_epik_Ionization_Penalty>
0.000310707

> <r_epik_Ionization_Penalty_Charging>
0

> <r_epik_Ionization_Penalty_Neutral>
0.000310707

> <r_epik_State_Penalty>
-0

> <r_epik_Charging_Adjusted_Penalty>
0

> <i_epik_Tot_Q>
0

> <i_epik_Tot_abs_Q>
0

> <r_epik_Metal_State_Penalty>
-0

> <b_epik_Metal_Only>
0

> <s_lp_Force_Field>
OPLS_2005

> <r_lp_Energy>
14.0885

> <b_lp_Chiralities_Consistent>
1

> <s_lp_Variant>
AV-unprocessed.smi:1427-4

> <Gold.Version>
5.8.1

> <Gold.Id.Protein>
6NUR|6NUR_protein|mol2

> <Gold.PLP.Fitness>
38.2777

> <Gold.PLP.PLP>
-30.2773

> <Gold.PLP.part.hbond>
-3.0000

> <Gold.PLP.part.metal>
0.0000

> <Gold.PLP.part.buried>
-5.1798

> <Gold.PLP.part.nonpolar>
-22.2699

> <Gold.PLP.part.repulsive>
0.2102

> <Gold.PLP.ligand.clash>
0.0000

> <Gold.PLP.ligand.torsion>
0.5184

> <Gold.PLP.Chemscore.Hbond>
2.0000

> <Gold.PLP.Chemscore.CHOScore>
1.0000

> <Gold.PLP.Chemscore.Metal>
0.0000

> <Gold.Chemscore.Hbonds>
donor molecule, donor type, donor heavy atom, donor atom, acceptor molecule, acceptor atom, score
      L1  H     9    27       P1  8028  0.83
      L1  H    17    33       P1  8029  0.22

> <Gold.PLP.Chemscore.Internal.Correction>
0.0373

> <Gold.Rescore>
     Score         DG    S(hbond)    S(metal)    S(lipo)     H(rot)  DE(clash)    DE(int)     intcor
     12.48     -13.22       1.45        0.00      65.89       1.88       0.10       0.64       ----

> <Gold.Chemscore.Fitness>
12.4806

> <Gold.Chemscore.DG>
-13.2212

> <Gold.Chemscore.ZeroCoef>
-5.4800

> <Gold.Chemscore.Hbond>
1.4521

> <Gold.Chemscore.Metal>
0.0000

> <Gold.Chemscore.Lipo>
65.8917

> <Gold.Chemscore.Internal_Hbond>
0.0000

> <Gold.Chemscore.DEClash>
0.0962

> <Gold.Chemscore.DEInternal>
0.6444

> <Gold.Chemscore.Rot>
1.8821

> <Gold.Chemscore.Internal.Correction>
   9.000000E+99

> <Gold.Chemscore.Hbonds>
donor molecule, donor type, donor heavy atom, donor atom, acceptor molecule, acceptor atom, score
      L1  H     9    27       P1  8028  0.65
      L1  H    17    33       P1  8029  0.22

> <Gold.Chemscore.Hbond.Weighted>
-4.8499

> <Gold.Chemscore.Metal.Weighted>
-0.0000

> <Gold.Chemscore.Lipo.Weighted>
-7.7093

> <Gold.Chemscore.Internal_Hbond.Weighted>
0.0000

> <Gold.Chemscore.DEClash.Weighted>
0.0962

> <Gold.Chemscore.DEInternal.Weighted>
0.6444

> <Gold.Chemscore.Rot.Weighted>
4.8181

> <Gold.Chemscore.Internal.Correction.Weighted>
   9.000000E+99

> <Gold.Protein.RotatedTorsions>
[ 6907 6896 6895 6894 ] final   89.98 input  -60.11 | X-H torsion
[ 7974 7965 7964 7962 ] final   20.92 input  175.53 | X-H torsion
[ 8008 7997 7996 7995 ] final -104.26 input   59.86 | X-H torsion
[ 10167 10162 10161 10158 ] final  129.01 input  -65.29 | X-H torsion
[ 10718 10713 10712 10709 ] final -134.61 input   66.30 | X-H torsion
[ 10763 10752 10751 10750 ] final -171.91 input  -60.55 | X-H torsion
[ 11005 11000 10999 10996 ] final   -3.13 input  -57.11 | X-H torsion

> <Gold.Protein.ActiveResidues>
 VAL166  LYS551  ARG553  GLY616  TRP617  ASP618  TYR619  PRO620  LYS621  CYS622 
 ASP623  PHE694  ASN695  SER759  ASP760  ASP761  ALA762  ILE779  LEU786  VAL792 
 PHE793  MET794  SER795  GLU796  ALA797  LYS798  CYS799  TRP800  GLU811  SER814 

> <Gold.Protein.RotatedAtoms>
  152.5441  134.1883  159.8663 H   0  0  0  0  0  0  0  0  0  0  0  0  # atno 6907 bound_to 6896
  151.1880  133.4677  159.2602 H   0  0  0  0  0  0  0  0  0  0  0  0  # atno 6908 bound_to 6896
  151.1111  135.0039  159.8550 H   0  0  0  0  0  0  0  0  0  0  0  0  # atno 6909 bound_to 6896
  146.2092  139.8101  142.8702 H   0  0  0  0  0  0  0  0  0  0  0  0  # atno 7974 bound_to 7965
  154.8827  140.0418  157.1792 H   0  0  0  0  0  0  0  0  0  0  0  0  # atno 8008 bound_to 7997
  154.8622  140.2946  155.5511 H   0  0  0  0  0  0  0  0  0  0  0  0  # atno 8009 bound_to 7997
  156.2998  140.2444  156.3598 H   0  0  0  0  0  0  0  0  0  0  0  0  # atno 8010 bound_to 7997
  139.5499  144.6804  151.4358 H   0  0  0  0  0  0  0  0  0  0  0  0  # atno 10167 bound_to 10162
  156.2573  130.7189  151.1110 H   0  0  0  0  0  0  0  0  0  0  0  0  # atno 10718 bound_to 10713
  154.6253  135.2880  155.0280 H   0  0  0  0  0  0  0  0  0  0  0  0  # atno 10763 bound_to 10752
  154.1460  135.6511  153.4956 H   0  0  0  0  0  0  0  0  0  0  0  0  # atno 10764 bound_to 10752
  153.0254  135.5344  154.7058 H   0  0  0  0  0  0  0  0  0  0  0  0  # atno 10765 bound_to 10752
  140.6659  133.9279  155.8465 H   0  0  0  0  0  0  0  0  0  0  0  0  # atno 11005 bound_to 11000
  145.3205  141.0242  143.3503 LP  0  0  0  0  0  0  0  0  0  0  0  0  # atno 17320 bound_to 7965
  144.8870  139.4825  143.6696 LP  0  0  0  0  0  0  0  0  0  0  0  0  # atno 17321 bound_to 7965
  140.6758  143.8193  150.7056 LP  0  0  0  0  0  0  0  0  0  0  0  0  # atno 17342 bound_to 10162
  140.1631  143.4258  152.2053 LP  0  0  0  0  0  0  0  0  0  0  0  0  # atno 17343 bound_to 10162
  157.7237  131.0664  150.6024 LP  0  0  0  0  0  0  0  0  0  0  0  0  # atno 17370 bound_to 10713
  156.6109  130.4379  149.5859 LP  0  0  0  0  0  0  0  0  0  0  0  0  # atno 17371 bound_to 10713
  141.0429  134.0595  157.3879 LP  0  0  0  0  0  0  0  0  0  0  0  0  # atno 17394 bound_to 11000
  139.8997  135.0160  156.7209 LP  0  0  0  0  0  0  0  0  0  0  0  0  # atno 17395 bound_to 11000

$$$$
