#       Name:                AV-unprocessed.smi:109
#       Creating user name   scv26
#       Creation time:       Thu Mar 26 18:04:38 2020


#       File generated by GOLD software.
#

@<TRIPOS>MOLECULE
AV-unprocessed.smi:109
    71    74     1
SMALL
NO_CHARGES


@<TRIPOS>ATOM
      1 ****        -5.0304   0.7623   3.4021 O.3            1 S1                 0.0000
      2 ****        -3.7911   0.8837   2.7382 C.3            1 S1                 0.0000
      3 ****        -4.0223   1.0751   1.2307 C.3            1 S1                 0.0000
      4 ****        -2.7072   1.2424   0.4377 C.3            1 S1                 0.0000
      5 ****        -1.9484  -0.0080   0.4691 N.pl3          1 S1                 0.0000
      6 ****        -0.5981  -0.0216   0.4059 C.ar           1 S1                 0.0000
      7 ****         0.1172   1.1290   0.3060 N.ar           1 S1                 0.0000
      8 ****         1.4513   1.0844   0.2539 C.ar           1 S1                 0.0000
      9 ****         2.2516   0.0173   0.2890 N.ar           1 S1                 0.0000
     10 ****         1.5401  -1.1432   0.3886 C.ar           1 S1                 0.0000
     11 ****         0.1219  -1.2437   0.4511 C.ar           1 S1                 0.0000
     12 ****        -0.2522  -2.5771   0.5511 N.2            1 S1                 0.0000
     13 ****         0.8822  -3.2237   0.5504 C.2            1 S1                 0.0000
     14 ****         2.0115  -2.4404   0.4604 N.pl3          1 S1                 0.0000
     15 ****         3.4370  -2.9067   0.4465 C.3            1 S1                 0.0000
     16 ****         4.1865  -2.0870  -0.4038 O.3            1 S1                 0.0000
     17 ****         5.2747  -1.5127   0.3149 C.3            1 S1                 0.0000
     18 ****         6.4590  -1.2249  -0.6248 C.3            1 S1                 0.0000
     19 ****         7.1349  -2.4058  -1.0051 O.3            1 S1                 0.0000
     20 ****         5.5218  -2.4744   1.4800 C.3            1 S1                 0.0000
     21 ****         6.2307  -1.8884   2.5559 O.3            1 S1                 0.0000
     22 ****         4.0993  -2.8818   1.8412 C.3            1 S1                 0.0000
     23 ****         3.4810  -1.9792   2.7462 O.3            1 S1                 0.0000
     24 ****        -2.9039   1.7327  -1.0234 C.3            1 S1                 0.0000
     25 ****        -3.3634   3.2050  -1.1019 C.3            1 S1                 0.0000
     26 ****        -3.4501   3.6899  -2.5583 C.3            1 S1                 0.0000
     27 ****        -4.3768   2.7893  -3.3897 C.3            1 S1                 0.0000
     28 ****        -3.9322   1.3201  -3.3181 C.3            1 S1                 0.0000
     29 ****        -3.8419   0.8346  -1.8618 C.3            1 S1                 0.0000
     30 ****         3.3960  -3.9092   0.0189 H              1 S1                 0.0000
     31 ****         4.9166  -0.5624   0.7137 H              1 S1                 0.0000
     32 ****         6.0620  -3.3585   1.1400 H              1 S1                 0.0000
     33 ****         4.0635  -3.8795   2.2796 H              1 S1                 0.0000
     34 ****        -4.8656   0.6396   4.3247 H              1 S1                 0.0000
     35 ****        -3.2469   1.7320   3.1545 H              1 S1                 0.0000
     36 ****        -3.1996  -0.0112   2.9338 H              1 S1                 0.0000
     37 ****        -4.5907   0.2298   0.8407 H              1 S1                 0.0000
     38 ****        -4.6523   1.9534   1.0965 H              1 S1                 0.0000
     39 ****        -2.1308   2.0057   0.9617 H              1 S1                 0.0000
     40 ****        -2.5001  -0.8517   0.5315 H              1 S1                 0.0000
     41 ****         1.9488   2.0397   0.1750 H              1 S1                 0.0000
     42 ****         0.9271  -4.3007   0.6208 H              1 S1                 0.0000
     43 ****         6.1209  -0.6929  -1.5143 H              1 S1                 0.0000
     44 ****         7.1775  -0.5778  -0.1215 H              1 S1                 0.0000
     45 ****         7.8430  -2.1722  -1.5857 H              1 S1                 0.0000
     46 ****         7.0916  -1.6459   2.2511 H              1 S1                 0.0000
     47 ****         2.5683  -2.2108   2.8233 H              1 S1                 0.0000
     48 ****        -1.9243   1.7010  -1.5029 H              1 S1                 0.0000
     49 ****        -4.3394   3.3272  -0.6329 H              1 S1                 0.0000
     50 ****        -2.6722   3.8412  -0.5480 H              1 S1                 0.0000
     51 ****        -3.8091   4.7190  -2.5865 H              1 S1                 0.0000
     52 ****        -2.4535   3.6982  -3.0014 H              1 S1                 0.0000
     53 ****        -5.3999   2.8800  -3.0223 H              1 S1                 0.0000
     54 ****        -4.3893   3.1245  -4.4271 H              1 S1                 0.0000
     55 ****        -4.6292   0.6939  -3.8757 H              1 S1                 0.0000
     56 ****        -2.9610   1.2077  -3.8019 H              1 S1                 0.0000
     57 ****        -3.4906  -0.1974  -1.8464 H              1 S1                 0.0000
     58 ****        -4.8428   0.8282  -1.4294 H              1 S1                 0.0000
     59 ****        -5.5308  -0.0247   3.0412 LP             1 S1                 0.0000
     60 ****        -5.5702   1.5926   3.2633 LP             1 S1                 0.0000
     61 ****        -0.3552   2.0098   0.2714 LP             1 S1                 0.0000
     62 ****         3.2497   0.0623   0.2474 LP             1 S1                 0.0000
     63 ****        -1.1763  -2.9547   0.6100 LP             1 S1                 0.0000
     64 ****         3.6030  -1.3577  -0.7613 LP             1 S1                 0.0000
     65 ****         4.5412  -2.6325  -1.1632 LP             1 S1                 0.0000
     66 ****         6.5016  -3.0203  -1.4756 LP             1 S1                 0.0000
     67 ****         7.5005  -2.8615  -0.1935 LP             1 S1                 0.0000
     68 ****         6.3109  -2.5460   3.3049 LP             1 S1                 0.0000
     69 ****         5.7450  -1.0752   2.8767 LP             1 S1                 0.0000
     70 ****         3.5639  -1.0446   2.4001 LP             1 S1                 0.0000
     71 ****         3.9222  -2.0436   3.6412 LP             1 S1                 0.0000
@<TRIPOS>BOND
    1    1    2 1     
    2    1   34 1     
    3    2    3 1     
    4    2   35 1     
    5    2   36 1     
    6    3    4 1     
    7    3   37 1     
    8    3   38 1     
    9    4    5 1     
   10    4   24 1     
   11    4   39 1     
   12    5    6 1     
   13    5   40 1     
   14    6   11 ar    
   15    6    7 ar    
   16    7    8 ar    
   17    8    9 ar    
   18    8   41 1     
   19    9   10 ar    
   20   10   14 1     
   21   10   11 ar    
   22   11   12 1     
   23   12   13 2     
   24   13   14 1     
   25   13   42 1     
   26   14   15 1     
   27   15   30 1     
   28   15   22 1     
   29   15   16 1     
   30   16   17 1     
   31   17   31 1     
   32   17   18 1     
   33   17   20 1     
   34   18   19 1     
   35   18   43 1     
   36   18   44 1     
   37   19   45 1     
   38   20   32 1     
   39   20   21 1     
   40   20   22 1     
   41   21   46 1     
   42   22   33 1     
   43   22   23 1     
   44   23   47 1     
   45   24   29 1     
   46   24   25 1     
   47   24   48 1     
   48   25   26 1     
   49   25   49 1     
   50   25   50 1     
   51   26   27 1     
   52   26   51 1     
   53   26   52 1     
   54   27   28 1     
   55   27   53 1     
   56   27   54 1     
   57   28   29 1     
   58   28   55 1     
   59   28   56 1     
   60   29   57 1     
   61   29   58 1     
   62    1   59 1     
   63    1   60 1     
   64    7   61 1     
   65    9   62 1     
   66   12   63 1     
   67   16   64 1     
   68   16   65 1     
   69   19   66 1     
   70   19   67 1     
   71   21   68 1     
   72   21   69 1     
   73   23   70 1     
   74   23   71 1     
@<TRIPOS>SUBSTRUCTURE
      1 S1             1
@<TRIPOS>SET
LONE_PAIRS      STATIC     ATOMS    <user>   **** ""
13 59 60 61 62 63 64 65 66 67 68 69 70 71
DONOR_HYDROGENS      STATIC     ATOMS    <user>   **** ""
5 34 40 45 46 47
ATOM$BLUE        STATIC     ATOMS    COLORGROUP SYSTEM
13 59 60 61 62 63 64 65 66 67 68 69 70 71
ATOM$RED        STATIC     ATOMS    COLORGROUP SYSTEM
5 34 40 45 46 47
