AV-unprocessed.smi:1006|AV-procd|sdf|4397|dock6
  -GOLD-   22720 2333D 1   1.00000     0.00000
 Structure written by MMmdl.
 47 49  0  0  0  0  0  0  0  0  3 V2000
  148.3600  132.8675  152.7159 C   0  0  0  0  0  0  0  0  0  0  0  0
  149.3842  133.3193  153.7354 C   0  0  0  0  0  0  0  0  0  0  0  0
  150.0542  132.4079  154.5770 C   0  0  0  0  0  0  0  0  0  0  0  0
  150.9816  132.9471  155.4855 C   0  0  0  0  0  0  0  0  0  0  0  0
  151.6912  132.1240  156.3561 N   0  0  0  0  0  0  0  0  0  0  0  0
  151.2169  134.2726  155.5483 N   0  0  0  0  0  0  0  0  0  0  0  0
  150.5444  135.0841  154.7211 C   0  0  0  0  0  0  0  0  0  0  0  0
  150.8331  136.8443  154.7809 S   0  0  0  0  0  0  0  0  0  0  0  0
  151.6792  137.0614  156.3786 C   0  0  0  0  0  0  0  0  0  0  0  0
  151.3250  138.4029  157.0411 C   0  0  1  0  0  0  0  0  0  0  0  0
  151.4823  138.2859  158.4424 O   0  0  0  0  0  0  0  0  0  0  0  0
  152.1968  139.5573  156.5092 C   0  0  0  0  0  0  0  0  0  0  0  0
  151.6039  140.8800  156.7565 N   0  0  0  0  0  0  0  0  0  0  0  0
  150.7330  141.5954  155.9937 C   0  0  0  0  0  0  0  0  0  0  0  0
  150.4761  142.7621  156.6467 N   0  3  0  0  0  0  0  0  0  0  0  0
  151.1926  142.7932  157.8446 C   0  0  0  0  0  0  0  0  0  0  0  0
  151.2574  143.7609  158.8401 C   0  0  0  0  0  0  0  0  0  0  0  0
  152.0862  143.4885  159.9515 C   0  0  0  0  0  0  0  0  0  0  0  0
  152.1789  144.5249  161.0586 C   0  0  0  0  0  0  0  0  0  0  0  0
  152.8164  142.2749  160.0373 C   0  0  0  0  0  0  0  0  0  0  0  0
  153.7009  141.9902  161.2394 C   0  0  0  0  0  0  0  0  0  0  0  0
  152.7387  141.3042  159.0129 C   0  0  0  0  0  0  0  0  0  0  0  0
  151.9182  141.5883  157.9233 C   0  0  0  0  0  0  0  0  0  0  0  0
  149.6455  134.6475  153.8269 N   0  3  0  0  0  0  0  0  0  0  0  0
  148.4183  131.7907  152.5534 H   0  0  0  0  0  0  0  0  0  0  0  0
  148.5250  133.3637  151.7589 H   0  0  0  0  0  0  0  0  0  0  0  0
  147.3535  133.1072  153.0599 H   0  0  0  0  0  0  0  0  0  0  0  0
  149.8634  131.3453  154.5258 H   0  0  0  0  0  0  0  0  0  0  0  0
  151.5630  131.1222  156.3621 H   0  0  0  0  0  0  0  0  0  0  0  0
  152.3548  132.5035  157.0164 H   0  0  0  0  0  0  0  0  0  0  0  0
  151.4219  136.2343  157.0417 H   0  0  0  0  0  0  0  0  0  0  0  0
  152.7546  137.0123  156.2041 H   0  0  0  0  0  0  0  0  0  0  0  0
  150.2776  138.6331  156.8407 H   0  0  0  0  0  0  0  0  0  0  0  0
  152.2020  137.6994  158.6178 H   0  0  0  0  0  0  0  0  0  0  0  0
  153.2017  139.5246  156.9309 H   0  0  0  0  0  0  0  0  0  0  0  0
  152.3181  139.4608  155.4295 H   0  0  0  0  0  0  0  0  0  0  0  0
  150.3193  141.2925  155.0427 H   0  0  0  0  0  0  0  0  0  0  0  0
  150.6968  144.6817  158.7687 H   0  0  0  0  0  0  0  0  0  0  0  0
  153.2095  144.8565  161.1885 H   0  0  0  0  0  0  0  0  0  0  0  0
  151.8264  144.1086  162.0027 H   0  0  0  0  0  0  0  0  0  0  0  0
  151.5729  145.4032  160.8346 H   0  0  0  0  0  0  0  0  0  0  0  0
  154.1857  141.0169  161.1573 H   0  0  0  0  0  0  0  0  0  0  0  0
  153.1121  141.9918  162.1570 H   0  0  0  0  0  0  0  0  0  0  0  0
  154.4826  142.7451  161.3272 H   0  0  0  0  0  0  0  0  0  0  0  0
  153.2930  140.3805  159.0829 H   0  0  0  0  0  0  0  0  0  0  0  0
  149.1575  135.3038  153.2169 H   0  0  0  0  0  0  0  0  0  0  0  0
  149.8552  143.4816  156.2988 H   0  0  0  0  0  0  0  0  0  0  0  0
  1  2  1  0  0  0  0
  1 25  1  0  0  0  0
  1 26  1  0  0  0  0
  1 27  1  0  0  0  0
  2 24  1  0  0  0  0
  2  3  2  0  0  0  0
  3  4  1  0  0  0  0
  3 28  1  0  0  0  0
  4  5  1  0  0  0  0
  4  6  2  0  0  0  0
  5 29  1  0  0  0  0
  5 30  1  0  0  0  0
  6  7  1  0  0  0  0
  7  8  1  0  0  0  0
  7 24  2  0  0  0  0
  8  9  1  0  0  0  0
  9 10  1  0  0  0  0
  9 31  1  0  0  0  0
  9 32  1  0  0  0  0
 10 11  1  0  0  0  0
 10 12  1  0  0  0  0
 10 33  1  0  0  0  0
 11 34  1  0  0  0  0
 12 13  1  0  0  0  0
 12 35  1  0  0  0  0
 12 36  1  0  0  0  0
 13 23  1  0  0  0  0
 13 14  1  0  0  0  0
 14 15  2  0  0  0  0
 14 37  1  0  0  0  0
 15 16  1  0  0  0  0
 15 47  1  0  0  0  0
 16 23  2  0  0  0  0
 16 17  1  0  0  0  0
 17 18  2  0  0  0  0
 17 38  1  0  0  0  0
 18 19  1  0  0  0  0
 18 20  1  0  0  0  0
 19 39  1  0  0  0  0
 19 40  1  0  0  0  0
 19 41  1  0  0  0  0
 20 21  1  0  0  0  0
 20 22  2  0  0  0  0
 21 42  1  0  0  0  0
 21 43  1  0  0  0  0
 21 44  1  0  0  0  0
 22 23  1  0  0  0  0
 22 45  1  0  0  0  0
 24 46  1  0  0  0  0
M  CHG  1  15   1
M  CHG  1  24   1
M  END
> <s_m_source_file>
AV-unprocessed.smi

> <i_m_source_file_index>
1006

> <i_lp_mmshare_version>
43012

> <i_f3d_flags>
0

> <s_epik_input>
W0NIM11jMVtjSF1jKFtOSDJdKW5jKG4xKVNbQ0gyXVtDQEhdKFtPSF0pW0NIMl1uKFtjSF1uMiljKGMyMylbY0hdYyhbQ0gzXSljKFtjSF0zKVtDSDNd

> <s_epik_cmdline>
J2VwaWtfcHl0aG9uJywgJy1waCcsICc3LjAnLCAnLXRuJywgJzgnLCAnLW1hJywgJzIwMCcsICctbWV0YWxfYmluZGluZycsICctaW1hZScsICc8aW5maWxlLm1hZT4nLCAnLW9tYWUnLCAnPG91dGZpbGUubWFlPic=

> <r_lp_tautomer_probability>
0.999762

> <r_epik_Ionization_Penalty>
1.50932

> <r_epik_Ionization_Penalty_Charging>
1.50929

> <r_epik_Ionization_Penalty_Neutral>
3.48853e-05

> <r_epik_State_Penalty>
1.56619

> <r_epik_Charging_Adjusted_Penalty>
3.07548

> <i_epik_Tot_Q>
2

> <i_epik_Tot_abs_Q>
2

> <r_epik_Metal_State_Penalty>
1.82892

> <b_epik_Metal_Only>
0

> <s_lp_Force_Field>
OPLS_2005

> <r_lp_Energy>
17.0634

> <b_lp_Chiralities_Consistent>
1

> <s_lp_Variant>
AV-unprocessed.smi:1006-8

> <Gold.Version>
5.8.1

> <Gold.Id.Protein>
6NUR|6NUR_protein|mol2

> <Gold.PLP.Fitness>
58.2368

> <Gold.PLP.PLP>
-48.6789

> <Gold.PLP.part.hbond>
-2.0000

> <Gold.PLP.part.metal>
0.0000

> <Gold.PLP.part.buried>
-6.4170

> <Gold.PLP.part.nonpolar>
-40.4145

> <Gold.PLP.part.repulsive>
0.2023

> <Gold.PLP.ligand.clash>
0.0000

> <Gold.PLP.ligand.torsion>
1.2510

> <Gold.PLP.Chemscore.Hbond>
4.0000

> <Gold.PLP.Chemscore.CHOScore>
0.0000

> <Gold.PLP.Chemscore.Metal>
0.0000

> <Gold.Chemscore.Hbonds>
donor molecule, donor type, donor heavy atom, donor atom, acceptor molecule, acceptor atom, score
      L1  H    15    47       P1  8028  2.00
      L1  H    24    46       P1  7948  1.90

> <Gold.PLP.Chemscore.Internal.Correction>
0.0599

> <Gold.Rescore>
     Score         DG    S(hbond)    S(metal)    S(lipo)     H(rot)  DE(clash)    DE(int)     intcor
     15.72     -16.95       1.69        0.00     114.65       2.96       0.06       1.17       ----

> <Gold.Chemscore.Fitness>
15.7164

> <Gold.Chemscore.DG>
-16.9453

> <Gold.Chemscore.ZeroCoef>
-5.4800

> <Gold.Chemscore.Hbond>
1.6853

> <Gold.Chemscore.Metal>
0.0000

> <Gold.Chemscore.Lipo>
114.6453

> <Gold.Chemscore.Internal_Hbond>
0.0000

> <Gold.Chemscore.DEClash>
0.0589

> <Gold.Chemscore.DEInternal>
1.1700

> <Gold.Chemscore.Rot>
2.9599

> <Gold.Chemscore.Internal.Correction>
   9.000000E+99

> <Gold.Chemscore.Hbonds>
donor molecule, donor type, donor heavy atom, donor atom, acceptor molecule, acceptor atom, score
      L1  H    15    47       P1  8028  1.00
      L1  H    24    46       P1  7948  0.21

> <Gold.Chemscore.Hbond.Weighted>
-5.6290

> <Gold.Chemscore.Metal.Weighted>
-0.0000

> <Gold.Chemscore.Lipo.Weighted>
-13.4135

> <Gold.Chemscore.Internal_Hbond.Weighted>
0.0000

> <Gold.Chemscore.DEClash.Weighted>
0.0589

> <Gold.Chemscore.DEInternal.Weighted>
1.1700

> <Gold.Chemscore.Rot.Weighted>
7.5772

> <Gold.Chemscore.Internal.Correction.Weighted>
   9.000000E+99

> <Gold.Protein.RotatedTorsions>
[ 6907 6896 6895 6894 ] final  -26.32 input  -60.11 | X-H torsion
[ 7974 7965 7964 7962 ] final   -9.15 input  175.53 | X-H torsion
[ 8008 7997 7996 7995 ] final   67.06 input   59.86 | X-H torsion
[ 10167 10162 10161 10158 ] final -145.33 input  -65.29 | X-H torsion
[ 10718 10713 10712 10709 ] final  -10.85 input   66.30 | X-H torsion
[ 10763 10752 10751 10750 ] final -176.03 input  -60.55 | X-H torsion
[ 11005 11000 10999 10996 ] final -163.74 input  -57.11 | X-H torsion

> <Gold.Protein.ActiveResidues>
 VAL166  LYS551  ARG553  GLY616  TRP617  ASP618  TYR619  PRO620  LYS621  CYS622 
 ASP623  PHE694  ASN695  SER759  ASP760  ASP761  ALA762  ILE779  LEU786  VAL792 
 PHE793  MET794  SER795  GLU796  ALA797  LYS798  CYS799  TRP800  GLU811  SER814 

> <Gold.Protein.RotatedAtoms>
  151.1626  135.0280  159.8716 H   0  0  0  0  0  0  0  0  0  0  0  0  # atno 6907 bound_to 6896
  152.5451  134.1262  159.8430 H   0  0  0  0  0  0  0  0  0  0  0  0  # atno 6908 bound_to 6896
  151.1359  133.4958  159.2630 H   0  0  0  0  0  0  0  0  0  0  0  0  # atno 6909 bound_to 6896
  146.2260  140.2574  142.8350 H   0  0  0  0  0  0  0  0  0  0  0  0  # atno 7974 bound_to 7965
  155.6871  140.3496  155.4878 H   0  0  0  0  0  0  0  0  0  0  0  0  # atno 8008 bound_to 7997
  155.9556  140.1127  157.0962 H   0  0  0  0  0  0  0  0  0  0  0  0  # atno 8009 bound_to 7997
  154.4131  140.1185  156.5097 H   0  0  0  0  0  0  0  0  0  0  0  0  # atno 8010 bound_to 7997
  139.7816  143.8093  152.2639 H   0  0  0  0  0  0  0  0  0  0  0  0  # atno 10167 bound_to 10162
  156.6675  130.5000  149.6010 H   0  0  0  0  0  0  0  0  0  0  0  0  # atno 10718 bound_to 10713
  154.5772  135.2833  155.0768 H   0  0  0  0  0  0  0  0  0  0  0  0  # atno 10763 bound_to 10752
  154.2118  135.6406  153.5121 H   0  0  0  0  0  0  0  0  0  0  0  0  # atno 10764 bound_to 10752
  153.0076  135.5493  154.6415 H   0  0  0  0  0  0  0  0  0  0  0  0  # atno 10765 bound_to 10752
  140.5947  134.5008  157.5197 H   0  0  0  0  0  0  0  0  0  0  0  0  # atno 11005 bound_to 11000
  144.9365  140.8032  143.5657 LP  0  0  0  0  0  0  0  0  0  0  0  0  # atno 17320 bound_to 7965
  145.2522  139.2027  143.4936 LP  0  0  0  0  0  0  0  0  0  0  0  0  # atno 17321 bound_to 7965
  139.8157  144.7317  150.9638 LP  0  0  0  0  0  0  0  0  0  0  0  0  # atno 17342 bound_to 10162
  140.7818  143.4207  151.0846 LP  0  0  0  0  0  0  0  0  0  0  0  0  # atno 17343 bound_to 10162
  156.1963  130.6592  151.1118 LP  0  0  0  0  0  0  0  0  0  0  0  0  # atno 17370 bound_to 10713
  157.7088  131.0744  150.6573 LP  0  0  0  0  0  0  0  0  0  0  0  0  # atno 17371 bound_to 10713
  139.9258  134.8058  156.1072 LP  0  0  0  0  0  0  0  0  0  0  0  0  # atno 17394 bound_to 11000
  141.0911  133.6714  156.2544 LP  0  0  0  0  0  0  0  0  0  0  0  0  # atno 17395 bound_to 11000

$$$$
