AV-unprocessed.smi:849|AV-procd|sdf|3944|dock9
  -GOLD-   22720 1413D 1   1.00000     0.00000
 Structure written by MMmdl.
 36 38  0  0  0  0  0  0  0  0  1 V2000
  152.9222  139.7756  154.9662 O   0  0  0  0  0  0  0  0  0  0  0  0
  152.1533  140.2966  156.0315 C   0  0  0  0  0  0  0  0  0  0  0  0
  150.7577  140.6947  155.6417 C   0  0  0  0  0  0  0  0  0  0  0  0
  150.2622  140.4941  154.4181 N   0  0  0  0  0  0  0  0  0  0  0  0
  148.9805  140.9964  154.5186 C   0  0  0  0  0  0  0  0  0  0  0  0
  147.9480  141.0778  153.5573 C   0  0  0  0  0  0  0  0  0  0  0  0
  146.7009  141.6428  153.8959 C   0  0  0  0  0  0  0  0  0  0  0  0
  146.4688  142.1318  155.1977 C   0  0  0  0  0  0  0  0  0  0  0  0
  147.4842  142.0592  156.1705 C   0  0  0  0  0  0  0  0  0  0  0  0
  148.7277  141.4960  155.8266 C   0  0  0  0  0  0  0  0  0  0  0  0
  149.9133  141.2872  156.5248 N   0  0  0  0  0  0  0  0  0  0  0  0
  150.1546  141.6418  157.9172 C   0  0  0  0  0  0  0  0  0  0  0  0
  151.1913  142.7749  158.0703 C   0  0  1  0  0  0  0  0  0  0  0  0
  150.5539  143.9941  157.7443 O   0  0  0  0  0  0  0  0  0  0  0  0
  151.8247  142.8075  159.4610 C   0  0  0  0  0  0  0  0  0  0  0  0
  152.6425  141.7289  159.8713 C   0  0  0  0  0  0  0  0  0  0  0  0
  153.2573  141.7326  161.1373 C   0  0  0  0  0  0  0  0  0  0  0  0
  153.0619  142.8181  162.0092 C   0  0  0  0  0  0  0  0  0  0  0  0
  152.2527  143.8980  161.6123 C   0  0  0  0  0  0  0  0  0  0  0  0
  151.6339  143.9008  160.3460 C   0  0  0  0  0  0  0  0  0  0  0  0
  150.6597  145.2643  159.9197 Cl  0  0  0  0  0  0  0  0  0  0  0  0
  152.4148  139.8344  154.1716 H   0  0  0  0  0  0  0  0  0  0  0  0
  152.1039  139.5459  156.8204 H   0  0  0  0  0  0  0  0  0  0  0  0
  152.6756  141.1633  156.4337 H   0  0  0  0  0  0  0  0  0  0  0  0
  148.1167  140.7058  152.5577 H   0  0  0  0  0  0  0  0  0  0  0  0
  145.9190  141.7014  153.1529 H   0  0  0  0  0  0  0  0  0  0  0  0
  145.5112  142.5638  155.4487 H   0  0  0  0  0  0  0  0  0  0  0  0
  147.3108  142.4358  157.1677 H   0  0  0  0  0  0  0  0  0  0  0  0
  149.1989  141.9587  158.3378 H   0  0  0  0  0  0  0  0  0  0  0  0
  150.4537  140.7602  158.4839 H   0  0  0  0  0  0  0  0  0  0  0  0
  151.9656  142.6559  157.3139 H   0  0  0  0  0  0  0  0  0  0  0  0
  150.0075  143.8544  156.9862 H   0  0  0  0  0  0  0  0  0  0  0  0
  152.8104  140.8915  159.2104 H   0  0  0  0  0  0  0  0  0  0  0  0
  153.8804  140.9032  161.4382 H   0  0  0  0  0  0  0  0  0  0  0  0
  153.5329  142.8239  162.9812 H   0  0  0  0  0  0  0  0  0  0  0  0
  152.1069  144.7309  162.2846 H   0  0  0  0  0  0  0  0  0  0  0  0
  1  2  1  0  0  0  0
  1 22  1  0  0  0  0
  2  3  1  0  0  0  0
  2 23  1  0  0  0  0
  2 24  1  0  0  0  0
  3 11  1  0  0  0  0
  3  4  2  0  0  0  0
  4  5  1  0  0  0  0
  5 10  2  0  0  0  0
  5  6  1  0  0  0  0
  6  7  2  0  0  0  0
  6 25  1  0  0  0  0
  7  8  1  0  0  0  0
  7 26  1  0  0  0  0
  8  9  2  0  0  0  0
  8 27  1  0  0  0  0
  9 10  1  0  0  0  0
  9 28  1  0  0  0  0
 10 11  1  0  0  0  0
 11 12  1  0  0  0  0
 12 13  1  0  0  0  0
 12 29  1  0  0  0  0
 12 30  1  0  0  0  0
 13 14  1  0  0  0  0
 13 15  1  0  0  0  0
 13 31  1  0  0  0  0
 14 32  1  0  0  0  0
 15 20  1  0  0  0  0
 15 16  2  0  0  0  0
 16 17  1  0  0  0  0
 16 33  1  0  0  0  0
 17 18  2  0  0  0  0
 17 34  1  0  0  0  0
 18 19  1  0  0  0  0
 18 35  1  0  0  0  0
 19 20  2  0  0  0  0
 19 36  1  0  0  0  0
 20 21  1  0  0  0  0
M  END
> <s_m_source_file>
AV-unprocessed.smi

> <i_m_source_file_index>
849

> <i_lp_mmshare_version>
43012

> <i_f3d_flags>
0

> <s_epik_input>
W2NIXTFbY0hdW2NIXVtjSF1jKGMxMiluKGMobjIpW0NIMl1bT0hdKVtDSDJdW0NASF0oW09IXSljM1tjSF1bY0hdW2NIXVtjSF1jM0Ns

> <s_epik_cmdline>
J2VwaWtfcHl0aG9uJywgJy1waCcsICc3LjAnLCAnLXRuJywgJzgnLCAnLW1hJywgJzIwMCcsICctbWV0YWxfYmluZGluZycsICctaW1hZScsICc8aW5maWxlLm1hZT4nLCAnLW9tYWUnLCAnPG91dGZpbGUubWFlPic=

> <r_epik_Ionization_Penalty>
0.0634742

> <r_epik_Ionization_Penalty_Charging>
0

> <r_epik_Ionization_Penalty_Neutral>
0.0634742

> <r_epik_State_Penalty>
0.0551572

> <r_epik_Charging_Adjusted_Penalty>
0.0551572

> <i_epik_Tot_Q>
0

> <i_epik_Tot_abs_Q>
0

> <r_epik_Metal_State_Penalty>
5.78034e-05

> <b_epik_Metal_Only>
0

> <s_lp_Force_Field>
OPLS_2005

> <r_lp_Energy>
13.628

> <b_lp_Chiralities_Consistent>
1

> <s_lp_Variant>
AV-unprocessed.smi:849-2

> <Gold.Version>
5.8.1

> <Gold.Id.Protein>
6NUR|6NUR_protein|mol2

> <Gold.PLP.Fitness>
58.8958

> <Gold.PLP.PLP>
-51.4660

> <Gold.PLP.part.hbond>
-4.0000

> <Gold.PLP.part.metal>
0.0000

> <Gold.PLP.part.buried>
-3.0969

> <Gold.PLP.part.nonpolar>
-43.9811

> <Gold.PLP.part.repulsive>
0.1141

> <Gold.PLP.ligand.clash>
0.0000

> <Gold.PLP.ligand.torsion>
0.3195

> <Gold.PLP.Chemscore.Hbond>
2.6832

> <Gold.PLP.Chemscore.CHOScore>
0.0000

> <Gold.PLP.Chemscore.Metal>
0.0000

> <Gold.Chemscore.Hbonds>
donor molecule, donor type, donor heavy atom, donor atom, acceptor molecule, acceptor atom, score
      L1  H    14    32       P1  8028  0.86
      P1  H  7989  7998       L1     4  0.93
      P1  H  7997  8009       L1     1  0.90

> <Gold.PLP.Chemscore.Internal.Correction>
0.0191

> <Gold.Rescore>
     Score         DG    S(hbond)    S(metal)    S(lipo)     H(rot)  DE(clash)    DE(int)     intcor
     17.06     -19.66       1.71        0.00     129.64       2.62       0.59       2.01       ----

> <Gold.Chemscore.Fitness>
17.0574

> <Gold.Chemscore.DG>
-19.6588

> <Gold.Chemscore.ZeroCoef>
-5.4800

> <Gold.Chemscore.Hbond>
1.7143

> <Gold.Chemscore.Metal>
0.0000

> <Gold.Chemscore.Lipo>
129.6450

> <Gold.Chemscore.Internal_Hbond>
0.0000

> <Gold.Chemscore.DEClash>
0.5878

> <Gold.Chemscore.DEInternal>
2.0136

> <Gold.Chemscore.Rot>
2.6232

> <Gold.Chemscore.Internal.Correction>
   9.000000E+99

> <Gold.Chemscore.Hbonds>
donor molecule, donor type, donor heavy atom, donor atom, acceptor molecule, acceptor atom, score
      L1  H    14    32       P1  8028  0.82
      P1  H  7989  7998       L1     4  0.23
      P1  H  7997  8009       L1     1  0.17

> <Gold.Chemscore.Hbond.Weighted>
-5.7258

> <Gold.Chemscore.Metal.Weighted>
-0.0000

> <Gold.Chemscore.Lipo.Weighted>
-15.1685

> <Gold.Chemscore.Internal_Hbond.Weighted>
0.0000

> <Gold.Chemscore.DEClash.Weighted>
0.5878

> <Gold.Chemscore.DEInternal.Weighted>
2.0136

> <Gold.Chemscore.Rot.Weighted>
6.7154

> <Gold.Chemscore.Internal.Correction.Weighted>
   9.000000E+99

> <Gold.Protein.RotatedTorsions>
[ 6907 6896 6895 6894 ] final   60.71 input  -60.11 | X-H torsion
[ 7974 7965 7964 7962 ] final  179.71 input  175.53 | X-H torsion
[ 8008 7997 7996 7995 ] final -115.27 input   59.86 | X-H torsion
[ 10167 10162 10161 10158 ] final  177.80 input  -65.29 | X-H torsion
[ 10718 10713 10712 10709 ] final -119.28 input   66.30 | X-H torsion
[ 10763 10752 10751 10750 ] final  151.77 input  -60.55 | X-H torsion
[ 11005 11000 10999 10996 ] final  173.07 input  -57.11 | X-H torsion

> <Gold.Protein.ActiveResidues>
 VAL166  LYS551  ARG553  GLY616  TRP617  ASP618  TYR619  PRO620  LYS621  CYS622 
 ASP623  PHE694  ASN695  SER759  ASP760  ASP761  ALA762  ILE779  LEU786  VAL792 
 PHE793  MET794  SER795  GLU796  ALA797  LYS798  CYS799  TRP800  GLU811  SER814 

> <Gold.Protein.RotatedAtoms>
  152.4026  134.6260  160.0063 H   0  0  0  0  0  0  0  0  0  0  0  0  # atno 6907 bound_to 6896
  151.6461  133.3317  159.3149 H   0  0  0  0  0  0  0  0  0  0  0  0  # atno 6908 bound_to 6896
  150.7925  134.7001  159.6590 H   0  0  0  0  0  0  0  0  0  0  0  0  # atno 6909 bound_to 6896
  144.7143  140.0589  143.6433 H   0  0  0  0  0  0  0  0  0  0  0  0  # atno 7974 bound_to 7965
  155.0494  140.0393  157.2538 H   0  0  0  0  0  0  0  0  0  0  0  0  # atno 8008 bound_to 7997
  154.7150  140.2700  155.6570 H   0  0  0  0  0  0  0  0  0  0  0  0  # atno 8009 bound_to 7997
  156.2800  140.2714  156.1804 H   0  0  0  0  0  0  0  0  0  0  0  0  # atno 8010 bound_to 7997
  139.5268  144.2755  152.0591 H   0  0  0  0  0  0  0  0  0  0  0  0  # atno 10167 bound_to 10162
  156.1169  130.6293  150.9397 H   0  0  0  0  0  0  0  0  0  0  0  0  # atno 10718 bound_to 10713
  154.1092  135.2840  155.3234 H   0  0  0  0  0  0  0  0  0  0  0  0  # atno 10763 bound_to 10752
  154.6501  135.5372  153.7895 H   0  0  0  0  0  0  0  0  0  0  0  0  # atno 10764 bound_to 10752
  153.0351  135.6508  154.1251 H   0  0  0  0  0  0  0  0  0  0  0  0  # atno 10765 bound_to 10752
  140.3366  134.7312  157.4172 H   0  0  0  0  0  0  0  0  0  0  0  0  # atno 11005 bound_to 11000
  145.9880  139.2993  143.1002 LP  0  0  0  0  0  0  0  0  0  0  0  0  # atno 17320 bound_to 7965
  145.8935  140.9289  143.0540 LP  0  0  0  0  0  0  0  0  0  0  0  0  # atno 17321 bound_to 7965
  140.2213  144.4464  150.6341 LP  0  0  0  0  0  0  0  0  0  0  0  0  # atno 17342 bound_to 10162
  140.6417  143.2205  151.6276 LP  0  0  0  0  0  0  0  0  0  0  0  0  # atno 17343 bound_to 10162
  157.6353  131.0916  150.8361 LP  0  0  0  0  0  0  0  0  0  0  0  0  # atno 17370 bound_to 10713
  156.8463  130.5065  149.5316 LP  0  0  0  0  0  0  0  0  0  0  0  0  # atno 17371 bound_to 10713
  140.0816  134.5723  155.8534 LP  0  0  0  0  0  0  0  0  0  0  0  0  # atno 17394 bound_to 11000
  141.2050  133.6643  156.6152 LP  0  0  0  0  0  0  0  0  0  0  0  0  # atno 17395 bound_to 11000

$$$$
