AV-unprocessed.smi:1682|AV-procd|sdf|6744|dock10
  -GOLD-   22720 7503D 1   1.00000     0.00000
 Structure written by MMmdl.
 38 39  0  0  0  0  0  0  0  0  1 V2000
  150.0369  141.0777  153.9286 O   0  0  0  0  0  0  0  0  0  0  0  0
  150.4353  140.2137  154.7107 C   0  0  0  0  0  0  0  0  0  0  0  0
  150.9300  140.4940  155.9260 N   0  0  0  0  0  0  0  0  0  0  0  0
  151.0647  141.8340  156.4849 C   0  0  0  0  0  0  0  0  0  0  0  0
  150.6035  141.8853  157.9512 C   0  0  0  0  0  0  0  0  0  0  0  0
  150.9196  143.2164  158.6061 C   0  0  0  0  0  0  0  0  0  0  0  0
  151.9569  144.0349  158.1103 C   0  0  0  0  0  0  0  0  0  0  0  0
  152.2059  145.2644  158.7510 C   0  0  0  0  0  0  0  0  0  0  0  0
  151.4111  145.6263  159.8557 C   0  0  0  0  0  0  0  0  0  0  0  0
  150.3991  144.7387  160.2730 C   0  0  0  0  0  0  0  0  0  0  0  0
  150.1527  143.5575  159.6664 N   0  0  0  0  0  0  0  0  0  0  0  0
  150.3873  138.7297  154.3145 C   0  0  1  0  0  0  0  0  0  0  0  0
  151.7071  138.0103  154.6568 C   0  0  0  0  0  0  0  0  0  0  0  0
  151.3241  137.0455  155.7662 C   0  0  0  0  0  0  0  0  0  0  0  0
  152.1529  136.3752  156.3801 O   0  0  0  0  0  0  0  0  0  0  0  0
  150.0032  137.0502  155.9733 N   0  0  0  0  0  0  0  0  0  0  0  0
  149.2807  136.2803  156.9850 C   0  0  0  0  0  0  0  0  0  0  0  0
  148.9158  137.1246  158.2194 C   0  0  0  0  0  0  0  0  0  0  0  0
  148.3296  136.3817  159.1579 F   0  0  0  0  0  0  0  0  0  0  0  0
  150.0295  137.6479  158.7302 F   0  0  0  0  0  0  0  0  0  0  0  0
  148.0989  138.1201  157.8750 F   0  0  0  0  0  0  0  0  0  0  0  0
  149.2941  137.9523  155.0801 C   0  0  0  0  0  0  0  0  0  0  0  0
  151.2353  139.7250  156.5051 H   0  0  0  0  0  0  0  0  0  0  0  0
  152.0980  142.1746  156.3971 H   0  0  0  0  0  0  0  0  0  0  0  0
  150.4620  142.5127  155.8807 H   0  0  0  0  0  0  0  0  0  0  0  0
  149.5288  141.7077  158.0123 H   0  0  0  0  0  0  0  0  0  0  0  0
  151.0779  141.0872  158.5239 H   0  0  0  0  0  0  0  0  0  0  0  0
  152.5478  143.7308  157.2586 H   0  0  0  0  0  0  0  0  0  0  0  0
  152.9915  145.9174  158.4008 H   0  0  0  0  0  0  0  0  0  0  0  0
  151.5723  146.5616  160.3710 H   0  0  0  0  0  0  0  0  0  0  0  0
  149.7704  144.9843  161.1160 H   0  0  0  0  0  0  0  0  0  0  0  0
  150.1988  138.6546  153.2420 H   0  0  0  0  0  0  0  0  0  0  0  0
  152.0819  137.4486  153.8006 H   0  0  0  0  0  0  0  0  0  0  0  0
  152.4998  138.6813  154.9921 H   0  0  0  0  0  0  0  0  0  0  0  0
  148.3777  135.8559  156.5431 H   0  0  0  0  0  0  0  0  0  0  0  0
  149.8933  135.4314  157.2914 H   0  0  0  0  0  0  0  0  0  0  0  0
  148.6241  138.6036  155.6444 H   0  0  0  0  0  0  0  0  0  0  0  0
  148.6806  137.3707  154.3910 H   0  0  0  0  0  0  0  0  0  0  0  0
  1  2  2  0  0  0  0
  2  3  1  0  0  0  0
  2 12  1  0  0  0  0
  3  4  1  0  0  0  0
  3 23  1  0  0  0  0
  4  5  1  0  0  0  0
  4 24  1  0  0  0  0
  4 25  1  0  0  0  0
  5  6  1  0  0  0  0
  5 26  1  0  0  0  0
  5 27  1  0  0  0  0
  6 11  1  0  0  0  0
  6  7  2  0  0  0  0
  7  8  1  0  0  0  0
  7 28  1  0  0  0  0
  8  9  2  0  0  0  0
  8 29  1  0  0  0  0
  9 10  1  0  0  0  0
  9 30  1  0  0  0  0
 10 11  2  0  0  0  0
 10 31  1  0  0  0  0
 12 22  1  0  0  0  0
 12 13  1  0  0  0  0
 12 32  1  0  0  0  0
 13 14  1  0  0  0  0
 13 33  1  0  0  0  0
 13 34  1  0  0  0  0
 14 15  2  0  0  0  0
 14 16  1  0  0  0  0
 16 17  1  0  0  0  0
 16 22  1  0  0  0  0
 17 18  1  0  0  0  0
 17 35  1  0  0  0  0
 17 36  1  0  0  0  0
 18 19  1  0  0  0  0
 18 20  1  0  0  0  0
 18 21  1  0  0  0  0
 22 37  1  0  0  0  0
 22 38  1  0  0  0  0
M  END
> <s_m_source_file>
AV-unprocessed.smi

> <i_m_source_file_index>
1682

> <i_lp_mmshare_version>
43012

> <i_f3d_flags>
0

> <s_epik_input>
RkMoRikoRilbQ0gyXU4oW0NIMl0xKUMoPU8pW0NIMl1bQ0BIXTFDKD1PKVtOSF1bQ0gyXVtDSDJdYzJbY0hdW2NIXVtjSF1bY0hdbjI=

> <s_epik_cmdline>
J2VwaWtfcHl0aG9uJywgJy1waCcsICc3LjAnLCAnLXRuJywgJzgnLCAnLW1hJywgJzIwMCcsICctbWV0YWxfYmluZGluZycsICctaW1hZScsICc8aW5maWxlLm1hZT4nLCAnLW9tYWUnLCAnPG91dGZpbGUubWFlPic=

> <r_epik_Ionization_Penalty>
0.0252359

> <r_epik_Ionization_Penalty_Charging>
0

> <r_epik_Ionization_Penalty_Neutral>
0.0252359

> <r_epik_State_Penalty>
0.020532

> <r_epik_Charging_Adjusted_Penalty>
0.020532

> <i_epik_Tot_Q>
0

> <i_epik_Tot_abs_Q>
0

> <r_epik_Metal_State_Penalty>
0.0196899

> <b_epik_Metal_Only>
0

> <s_lp_Force_Field>
OPLS_2005

> <r_lp_Energy>
9.99714

> <b_lp_Chiralities_Consistent>
1

> <s_lp_Variant>
AV-unprocessed.smi:1682-2

> <Gold.Version>
5.8.1

> <Gold.Id.Protein>
6NUR|6NUR_protein|mol2

> <Gold.PLP.Fitness>
47.0010

> <Gold.PLP.PLP>
-44.0587

> <Gold.PLP.part.hbond>
-4.0000

> <Gold.PLP.part.metal>
0.0000

> <Gold.PLP.part.buried>
-5.7840

> <Gold.PLP.part.nonpolar>
-34.4954

> <Gold.PLP.part.repulsive>
0.6100

> <Gold.PLP.ligand.clash>
0.0000

> <Gold.PLP.ligand.torsion>
1.0336

> <Gold.PLP.Chemscore.Hbond>
1.6110

> <Gold.PLP.Chemscore.CHOScore>
0.0000

> <Gold.PLP.Chemscore.Metal>
0.0000

> <Gold.Chemscore.Hbonds>
donor molecule, donor type, donor heavy atom, donor atom, acceptor molecule, acceptor atom, score
      P1  H  8011  8017       L1     1  0.66
      P1  H 10752 10764       L1    15  1.00

> <Gold.PLP.Chemscore.Internal.Correction>
0.1764

> <Gold.Rescore>
     Score         DG    S(hbond)    S(metal)    S(lipo)     H(rot)  DE(clash)    DE(int)     intcor
     14.84     -16.49       1.53        0.00      96.06       2.09       0.19       1.45       ----

> <Gold.Chemscore.Fitness>
14.8435

> <Gold.Chemscore.DG>
-16.4914

> <Gold.Chemscore.ZeroCoef>
-5.4800

> <Gold.Chemscore.Hbond>
1.5325

> <Gold.Chemscore.Metal>
0.0000

> <Gold.Chemscore.Lipo>
96.0617

> <Gold.Chemscore.Internal_Hbond>
0.0000

> <Gold.Chemscore.DEClash>
0.1935

> <Gold.Chemscore.DEInternal>
1.4544

> <Gold.Chemscore.Rot>
2.0884

> <Gold.Chemscore.Internal.Correction>
   9.000000E+99

> <Gold.Chemscore.Hbonds>
donor molecule, donor type, donor heavy atom, donor atom, acceptor molecule, acceptor atom, score
      P1  H  8011  8017       L1     1  0.67
      P1  H 10752 10764       L1    15  0.70

> <Gold.Chemscore.Hbond.Weighted>
-5.1186

> <Gold.Chemscore.Metal.Weighted>
-0.0000

> <Gold.Chemscore.Lipo.Weighted>
-11.2392

> <Gold.Chemscore.Internal_Hbond.Weighted>
0.0000

> <Gold.Chemscore.DEClash.Weighted>
0.1935

> <Gold.Chemscore.DEInternal.Weighted>
1.4544

> <Gold.Chemscore.Rot.Weighted>
5.3464

> <Gold.Chemscore.Internal.Correction.Weighted>
   9.000000E+99

> <Gold.Protein.RotatedTorsions>
[ 6907 6896 6895 6894 ] final   14.87 input  -60.11 | X-H torsion
[ 7974 7965 7964 7962 ] final -161.44 input  175.53 | X-H torsion
[ 8008 7997 7996 7995 ] final   59.64 input   59.86 | X-H torsion
[ 10167 10162 10161 10158 ] final  146.48 input  -65.29 | X-H torsion
[ 10718 10713 10712 10709 ] final   23.81 input   66.30 | X-H torsion
[ 10763 10752 10751 10750 ] final  -21.75 input  -60.55 | X-H torsion
[ 11005 11000 10999 10996 ] final  115.90 input  -57.11 | X-H torsion

> <Gold.Protein.ActiveResidues>
 VAL166  LYS551  ARG553  GLY616  TRP617  ASP618  TYR619  PRO620  LYS621  CYS622 
 ASP623  PHE694  ASN695  SER759  ASP760  ASP761  ALA762  ILE779  LEU786  VAL792 
 PHE793  MET794  SER795  GLU796  ALA797  LYS798  CYS799  TRP800  GLU811  SER814 

> <Gold.Protein.RotatedAtoms>
  151.8091  135.0686  160.0410 H   0  0  0  0  0  0  0  0  0  0  0  0  # atno 6907 bound_to 6896
  152.3033  133.5673  159.5641 H   0  0  0  0  0  0  0  0  0  0  0  0  # atno 6908 bound_to 6896
  150.7284  134.0175  159.3732 H   0  0  0  0  0  0  0  0  0  0  0  0  # atno 6909 bound_to 6896
  144.7391  140.3397  143.6137 H   0  0  0  0  0  0  0  0  0  0  0  0  # atno 7974 bound_to 7965
  155.5694  140.3489  155.4511 H   0  0  0  0  0  0  0  0  0  0  0  0  # atno 8008 bound_to 7997
  156.0455  140.1305  157.0134 H   0  0  0  0  0  0  0  0  0  0  0  0  # atno 8009 bound_to 7997
  154.4411  140.1015  156.6285 H   0  0  0  0  0  0  0  0  0  0  0  0  # atno 8010 bound_to 7997
  139.4906  144.5826  151.6842 H   0  0  0  0  0  0  0  0  0  0  0  0  # atno 10167 bound_to 10162
  157.1712  130.6760  149.6078 H   0  0  0  0  0  0  0  0  0  0  0  0  # atno 10718 bound_to 10713
  153.6411  135.6985  153.5241 H   0  0  0  0  0  0  0  0  0  0  0  0  # atno 10763 bound_to 10752
  153.2782  135.4194  155.1052 H   0  0  0  0  0  0  0  0  0  0  0  0  # atno 10764 bound_to 10752
  154.8499  135.3595  154.5955 H   0  0  0  0  0  0  0  0  0  0  0  0  # atno 10765 bound_to 10752
  139.9024  134.9590  156.7116 H   0  0  0  0  0  0  0  0  0  0  0  0  # atno 11005 bound_to 11000
  145.7387  139.1758  143.2388 LP  0  0  0  0  0  0  0  0  0  0  0  0  # atno 17320 bound_to 7965
  146.1151  140.7380  142.9485 LP  0  0  0  0  0  0  0  0  0  0  0  0  # atno 17321 bound_to 7965
  140.5435  144.0540  150.6098 LP  0  0  0  0  0  0  0  0  0  0  0  0  # atno 17342 bound_to 10162
  140.3571  143.2929  152.0424 LP  0  0  0  0  0  0  0  0  0  0  0  0  # atno 17343 bound_to 10162
  155.9738  130.4678  150.6338 LP  0  0  0  0  0  0  0  0  0  0  0  0  # atno 17370 bound_to 10713
  157.4041  131.0814  151.1281 LP  0  0  0  0  0  0  0  0  0  0  0  0  # atno 17371 bound_to 10713
  140.7071  133.9256  155.8060 LP  0  0  0  0  0  0  0  0  0  0  0  0  # atno 17394 bound_to 11000
  141.0328  134.0731  157.3994 LP  0  0  0  0  0  0  0  0  0  0  0  0  # atno 17395 bound_to 11000

$$$$
