AV-unprocessed.smi:95|AV-procd|sdf|858|dock8
  -GOLD-   2262017303D 1   1.00000     0.00000
 Structure written by MMmdl.
 42 45  0  0  0  0  0  0  0  0  2 V2000
  152.3241  139.9949  155.3069 O   0  0  0  0  0  0  0  0  0  0  0  0
  151.1671  139.6261  155.0956 C   0  0  0  0  0  0  0  0  0  0  0  0
  150.8008  138.2433  154.8146 C   0  0  0  0  0  0  0  0  0  0  0  0
  151.7519  137.2944  154.7997 F   0  0  0  0  0  0  0  0  0  0  0  0
  149.5154  137.8943  154.5904 C   0  0  0  0  0  0  0  0  0  0  0  0
  148.4693  138.8041  154.5863 N   0  0  0  0  0  0  0  0  0  0  0  0
  147.0270  138.3617  154.4399 C   0  0  1  0  0  0  0  0  0  0  0  0
  146.2423  139.1090  153.3473 C   0  0  0  0  0  0  0  0  0  0  0  0
  146.1790  138.0812  152.2344 C   0  0  0  0  0  0  0  0  0  0  0  0
  146.1507  136.7776  153.0226 C   0  0  0  0  0  0  0  0  0  0  0  0
  147.0390  137.0047  154.1094 O   0  0  0  0  0  0  0  0  0  0  0  0
  148.7265  140.1532  154.9221 C   0  0  0  0  0  0  0  0  0  0  0  0
  147.8044  140.9640  155.0361 O   0  0  0  0  0  0  0  0  0  0  0  0
  150.0758  140.5263  155.1324 N   0  0  0  0  0  0  0  0  0  0  0  0
  150.3724  141.9094  155.4679 C   0  0  0  0  0  0  0  0  0  0  0  0
  150.8647  142.1259  156.8916 C   0  0  0  0  0  0  0  0  0  0  0  0
  151.3134  141.0706  157.7167 C   0  0  0  0  0  0  0  0  0  0  0  0
  151.7649  141.3577  159.0209 C   0  0  0  0  0  0  0  0  0  0  0  0
  151.7571  142.6937  159.4750 C   0  0  0  0  0  0  0  0  0  0  0  0
  152.2001  143.0226  160.7723 C   0  0  0  0  0  0  0  0  0  0  0  0
  152.1810  144.3647  161.2022 C   0  0  0  0  0  0  0  0  0  0  0  0
  151.7205  145.3797  160.3396 C   0  0  0  0  0  0  0  0  0  0  0  0
  151.2770  145.0581  159.0414 C   0  0  0  0  0  0  0  0  0  0  0  0
  151.2954  143.7171  158.6094 C   0  0  0  0  0  0  0  0  0  0  0  0
  150.8741  143.3916  157.3674 N   0  3  0  0  0  0  0  0  0  0  0  0
  149.3168  136.8485  154.4182 H   0  0  0  0  0  0  0  0  0  0  0  0
  146.5617  138.5223  155.4138 H   0  0  0  0  0  0  0  0  0  0  0  0
  145.2376  139.3026  153.7256 H   0  0  0  0  0  0  0  0  0  0  0  0
  146.6834  140.0663  153.0701 H   0  0  0  0  0  0  0  0  0  0  0  0
  145.3104  138.2059  151.5873 H   0  0  0  0  0  0  0  0  0  0  0  0
  147.0745  138.1251  151.6142 H   0  0  0  0  0  0  0  0  0  0  0  0
  145.1498  136.5873  153.4129 H   0  0  0  0  0  0  0  0  0  0  0  0
  146.4559  135.9167  152.4274 H   0  0  0  0  0  0  0  0  0  0  0  0
  151.1065  142.2568  154.7377 H   0  0  0  0  0  0  0  0  0  0  0  0
  149.4879  142.5188  155.2811 H   0  0  0  0  0  0  0  0  0  0  0  0
  151.3144  140.0512  157.3594 H   0  0  0  0  0  0  0  0  0  0  0  0
  152.1117  140.5593  159.6608 H   0  0  0  0  0  0  0  0  0  0  0  0
  152.5548  142.2517  161.4411 H   0  0  0  0  0  0  0  0  0  0  0  0
  152.5201  144.6165  162.1966 H   0  0  0  0  0  0  0  0  0  0  0  0
  151.7077  146.4066  160.6747 H   0  0  0  0  0  0  0  0  0  0  0  0
  150.9257  145.8417  158.3855 H   0  0  0  0  0  0  0  0  0  0  0  0
  150.5491  144.1400  156.7554 H   0  0  0  0  0  0  0  0  0  0  0  0
  1  2  2  0  0  0  0
  2 14  1  0  0  0  0
  2  3  1  0  0  0  0
  3  4  1  0  0  0  0
  3  5  2  0  0  0  0
  5  6  1  0  0  0  0
  5 26  1  0  0  0  0
  6  7  1  0  0  0  0
  6 12  1  0  0  0  0
  7 11  1  0  0  0  0
  7  8  1  0  0  0  0
  7 27  1  0  0  0  0
  8  9  1  0  0  0  0
  8 28  1  0  0  0  0
  8 29  1  0  0  0  0
  9 10  1  0  0  0  0
  9 30  1  0  0  0  0
  9 31  1  0  0  0  0
 10 11  1  0  0  0  0
 10 32  1  0  0  0  0
 10 33  1  0  0  0  0
 12 13  2  0  0  0  0
 12 14  1  0  0  0  0
 14 15  1  0  0  0  0
 15 16  1  0  0  0  0
 15 34  1  0  0  0  0
 15 35  1  0  0  0  0
 16 25  1  0  0  0  0
 16 17  2  0  0  0  0
 17 18  1  0  0  0  0
 17 36  1  0  0  0  0
 18 19  2  0  0  0  0
 18 37  1  0  0  0  0
 19 24  1  0  0  0  0
 19 20  1  0  0  0  0
 20 21  2  0  0  0  0
 20 38  1  0  0  0  0
 21 22  1  0  0  0  0
 21 39  1  0  0  0  0
 22 23  2  0  0  0  0
 22 40  1  0  0  0  0
 23 24  1  0  0  0  0
 23 41  1  0  0  0  0
 24 25  2  0  0  0  0
 25 42  1  0  0  0  0
M  CHG  1  25   1
M  END
> <s_m_source_file>
AV-unprocessed.smi

> <i_m_source_file_index>
95

> <i_lp_mmshare_version>
43012

> <i_f3d_flags>
0

> <s_epik_input>
TzFbQ0gyXVtDSDJdW0NIMl1bQ0BIXTFuKFtjSF1jKEYpYzI9TyljKD1PKW4yW0NIMl1jKFtjSF1bY0hdMyluYyhjMzQpW2NIXVtjSF1bY0hdW2NIXTQ=

> <s_epik_cmdline>
J2VwaWtfcHl0aG9uJywgJy1waCcsICc3LjAnLCAnLXRuJywgJzgnLCAnLW1hJywgJzIwMCcsICctbWV0YWxfYmluZGluZycsICctaW1hZScsICc8aW5maWxlLm1hZT4nLCAnLW9tYWUnLCAnPG91dGZpbGUubWFlPic=

> <r_lp_tautomer_probability>
1

> <r_epik_Ionization_Penalty>
1.83445

> <r_epik_Ionization_Penalty_Charging>
1.83445

> <r_epik_Ionization_Penalty_Neutral>
6.33322e-12

> <r_epik_State_Penalty>
1.95069

> <r_epik_Charging_Adjusted_Penalty>
3.78513

> <i_epik_Tot_Q>
1

> <i_epik_Tot_abs_Q>
1

> <r_epik_Metal_State_Penalty>
6.02102

> <b_epik_Metal_Only>
0

> <s_epik_Chemistry_Notes>
This compound contains an acetal/aminal-like group ( X-CH(R)-Y where X, Y are N, S, or O) that may be acid/base labile, releasing an aldehyde.

> <s_lp_Force_Field>
OPLS_2005

> <r_lp_Energy>
36.6829

> <b_lp_Chiralities_Consistent>
1

> <s_lp_Variant>
AV-unprocessed.smi:95-4

> <Gold.Version>
5.8.1

> <Gold.Id.Protein>
6NUR|6NUR_protein|mol2

> <Gold.PLP.Fitness>
52.5984

> <Gold.PLP.PLP>
-44.5125

> <Gold.PLP.part.hbond>
-2.5406

> <Gold.PLP.part.metal>
0.0000

> <Gold.PLP.part.buried>
2.4076

> <Gold.PLP.part.nonpolar>
-44.8273

> <Gold.PLP.part.repulsive>
0.9953

> <Gold.PLP.ligand.clash>
0.1206

> <Gold.PLP.ligand.torsion>
0.3227

> <Gold.PLP.Chemscore.Hbond>
2.3621

> <Gold.PLP.Chemscore.CHOScore>
0.5575

> <Gold.PLP.Chemscore.Metal>
0.0000

> <Gold.Chemscore.Hbonds>
donor molecule, donor type, donor heavy atom, donor atom, acceptor molecule, acceptor atom, score
      L1  H    25    42       P1  8028  1.60
      P1  H  7997  8010       L1     1  0.59
      L1  C     5    26       P1  7948  0.50

> <Gold.PLP.Chemscore.Internal.Correction>
0.0930

> <Gold.Rescore>
     Score         DG    S(hbond)    S(metal)    S(lipo)     H(rot)  DE(clash)    DE(int)     intcor
     15.86     -21.43       1.72        0.00     121.00       1.54       0.62       4.95       ----

> <Gold.Chemscore.Fitness>
15.8637

> <Gold.Chemscore.DG>
-21.4330

> <Gold.Chemscore.ZeroCoef>
-5.4800

> <Gold.Chemscore.Hbond>
1.7187

> <Gold.Chemscore.Metal>
0.0000

> <Gold.Chemscore.Lipo>
120.9980

> <Gold.Chemscore.Internal_Hbond>
0.0000

> <Gold.Chemscore.DEClash>
0.6226

> <Gold.Chemscore.DEInternal>
4.9467

> <Gold.Chemscore.Rot>
1.5407

> <Gold.Chemscore.Internal.Correction>
   9.000000E+99

> <Gold.Chemscore.Hbonds>
donor molecule, donor type, donor heavy atom, donor atom, acceptor molecule, acceptor atom, score
      L1  H    25    42       P1  8028  0.74
      P1  H  7997  8010       L1     1  0.58

> <Gold.Chemscore.Hbond.Weighted>
-5.7405

> <Gold.Chemscore.Metal.Weighted>
-0.0000

> <Gold.Chemscore.Lipo.Weighted>
-14.1568

> <Gold.Chemscore.Internal_Hbond.Weighted>
0.0000

> <Gold.Chemscore.DEClash.Weighted>
0.6226

> <Gold.Chemscore.DEInternal.Weighted>
4.9467

> <Gold.Chemscore.Rot.Weighted>
3.9443

> <Gold.Chemscore.Internal.Correction.Weighted>
   9.000000E+99

> <Gold.Protein.RotatedTorsions>
[ 6907 6896 6895 6894 ] final   17.87 input  -60.11 | X-H torsion
[ 7974 7965 7964 7962 ] final -122.40 input  175.53 | X-H torsion
[ 8008 7997 7996 7995 ] final   94.12 input   59.86 | X-H torsion
[ 10167 10162 10161 10158 ] final -114.45 input  -65.29 | X-H torsion
[ 10718 10713 10712 10709 ] final    7.11 input   66.30 | X-H torsion
[ 10763 10752 10751 10750 ] final    2.31 input  -60.55 | X-H torsion
[ 11005 11000 10999 10996 ] final  125.48 input  -57.11 | X-H torsion

> <Gold.Protein.ActiveResidues>
 VAL166  LYS551  ARG553  GLY616  TRP617  ASP618  TYR619  PRO620  LYS621  CYS622 
 ASP623  PHE694  ASN695  SER759  ASP760  ASP761  ALA762  ILE779  LEU786  VAL792 
 PHE793  MET794  SER795  GLU796  ALA797  LYS798  CYS799  TRP800  GLU811  SER814 

> <Gold.Protein.RotatedAtoms>
  151.8564  135.0539  160.0464 H   0  0  0  0  0  0  0  0  0  0  0  0  # atno 6907 bound_to 6896
  152.2697  133.5366  159.5440 H   0  0  0  0  0  0  0  0  0  0  0  0  # atno 6908 bound_to 6896
  150.7147  134.0631  159.3880 H   0  0  0  0  0  0  0  0  0  0  0  0  # atno 6909 bound_to 6896
  145.0298  140.8058  143.4330 H   0  0  0  0  0  0  0  0  0  0  0  0  # atno 7974 bound_to 7965
  156.0544  140.3304  155.7388 H   0  0  0  0  0  0  0  0  0  0  0  0  # atno 8008 bound_to 7997
  155.5551  140.0614  157.2859 H   0  0  0  0  0  0  0  0  0  0  0  0  # atno 8009 bound_to 7997
  154.4451  140.1887  156.0714 H   0  0  0  0  0  0  0  0  0  0  0  0  # atno 8010 bound_to 7997
  140.1008  143.4615  152.1813 H   0  0  0  0  0  0  0  0  0  0  0  0  # atno 10167 bound_to 10162
  156.9321  130.5830  149.5650 H   0  0  0  0  0  0  0  0  0  0  0  0  # atno 10718 bound_to 10713
  153.2972  135.6953  153.7237 H   0  0  0  0  0  0  0  0  0  0  0  0  # atno 10763 bound_to 10752
  153.6165  135.3435  155.2997 H   0  0  0  0  0  0  0  0  0  0  0  0  # atno 10764 bound_to 10752
  154.8541  135.4376  154.2073 H   0  0  0  0  0  0  0  0  0  0  0  0  # atno 10765 bound_to 10752
  139.9408  134.9635  156.8564 H   0  0  0  0  0  0  0  0  0  0  0  0  # atno 11005 bound_to 11000
  145.1785  139.2364  143.5304 LP  0  0  0  0  0  0  0  0  0  0  0  0  # atno 17320 bound_to 7965
  146.3497  140.1553  142.8591 LP  0  0  0  0  0  0  0  0  0  0  0  0  # atno 17321 bound_to 7965
  139.5672  144.7442  151.3989 LP  0  0  0  0  0  0  0  0  0  0  0  0  # atno 17342 bound_to 10162
  140.6979  143.7704  150.7355 LP  0  0  0  0  0  0  0  0  0  0  0  0  # atno 17343 bound_to 10162
  156.0442  130.5521  150.8842 LP  0  0  0  0  0  0  0  0  0  0  0  0  # atno 17370 bound_to 10713
  157.5840  131.0946  150.9226 LP  0  0  0  0  0  0  0  0  0  0  0  0  # atno 17371 bound_to 10713
  140.5956  134.0220  155.7517 LP  0  0  0  0  0  0  0  0  0  0  0  0  # atno 17394 bound_to 11000
  141.1042  133.9720  157.3026 LP  0  0  0  0  0  0  0  0  0  0  0  0  # atno 17395 bound_to 11000

$$$$
