AV-unprocessed.smi:287|AV-procd|sdf|2203|dock9
  -GOLD-   2262022 23D 1   1.00000     0.00000
 Structure written by MMmdl.
 55 58  0  0  0  0  0  0  0  0  1 V2000
  151.7178  145.3758  159.6894 C   0  0  0  0  0  0  0  0  0  0  0  0
  151.8817  143.9401  159.3249 C   0  0  0  0  0  0  0  0  0  0  0  0
  151.2751  143.1207  158.4180 C   0  0  0  0  0  0  0  0  0  0  0  0
  151.8710  141.8302  158.5435 C   0  0  0  0  0  0  0  0  0  0  0  0
  151.5119  140.5967  157.7260 C   0  0  1  0  0  0  0  0  0  0  0  0
  150.4287  140.9542  156.6945 C   0  0  0  0  0  0  0  0  0  0  0  0
  152.6000  140.1027  156.9693 O   0  0  0  0  0  0  0  0  0  0  0  0
  151.0372  139.4193  158.6083 C   0  0  0  0  0  0  0  0  0  0  0  0
  150.7683  138.2086  157.8433 N   0  0  0  0  0  0  0  0  0  0  0  0
  149.8686  137.2976  158.2702 C   0  0  0  0  0  0  0  0  0  0  0  0
  149.8768  137.0570  159.6022 N   0  0  0  0  0  0  0  0  0  0  0  0
  149.0315  136.1679  160.1278 C   0  0  0  0  0  0  0  0  0  0  0  0
  148.1131  135.4266  159.5087 N   0  0  0  0  0  0  0  0  0  0  0  0
  148.0851  135.6647  158.1644 C   0  0  0  0  0  0  0  0  0  0  0  0
  148.9322  136.5776  157.4686 C   0  0  0  0  0  0  0  0  0  0  0  0
  148.6312  136.5384  156.1124 N   0  0  0  0  0  0  0  0  0  0  0  0
  147.6743  135.6579  156.0180 C   0  0  0  0  0  0  0  0  0  0  0  0
  147.2598  135.0985  157.2066 N   0  0  0  0  0  0  0  0  0  0  0  0
  146.2011  134.0417  157.3858 C   0  0  1  0  0  0  0  0  0  0  0  0
  145.4019  134.3649  158.4819 O   0  0  0  0  0  0  0  0  0  0  0  0
  144.2741  135.1096  158.0399 C   0  0  2  0  0  0  0  0  0  0  0  0
  143.1889  135.1797  159.1283 C   0  0  0  0  0  0  0  0  0  0  0  0
  142.0174  135.7688  158.6053 O   0  0  0  0  0  0  0  0  0  0  0  0
  143.8944  134.3492  156.7642 C   0  0  2  0  0  0  0  0  0  0  0  0
  143.1375  133.1917  157.0811 O   0  0  0  0  0  0  0  0  0  0  0  0
  145.2612  134.0167  156.1610 C   0  0  2  0  0  0  0  0  0  0  0  0
  145.2727  132.7814  155.4693 O   0  0  0  0  0  0  0  0  0  0  0  0
  152.8174  141.9756  159.5297 C   0  0  0  0  0  0  0  0  0  0  0  0
  153.8082  141.0541  160.1617 C   0  0  0  0  0  0  0  0  0  0  0  0
  152.8279  143.2503  160.0101 O   0  0  0  0  0  0  0  0  0  0  0  0
  146.7596  133.1208  157.5560 H   0  0  0  0  0  0  0  0  0  0  0  0
  144.5917  136.1168  157.7614 H   0  0  0  0  0  0  0  0  0  0  0  0
  143.2999  134.9670  156.0904 H   0  0  0  0  0  0  0  0  0  0  0  0
  145.5394  134.8090  155.4648 H   0  0  0  0  0  0  0  0  0  0  0  0
  150.8027  145.7838  159.2600 H   0  0  0  0  0  0  0  0  0  0  0  0
  152.5568  145.9656  159.3200 H   0  0  0  0  0  0  0  0  0  0  0  0
  151.6668  145.4990  160.7713 H   0  0  0  0  0  0  0  0  0  0  0  0
  150.4866  143.4125  157.7402 H   0  0  0  0  0  0  0  0  0  0  0  0
  149.5208  141.3118  157.1816 H   0  0  0  0  0  0  0  0  0  0  0  0
  150.1545  140.0919  156.0856 H   0  0  0  0  0  0  0  0  0  0  0  0
  150.7690  141.7404  156.0194 H   0  0  0  0  0  0  0  0  0  0  0  0
  152.2808  139.4263  156.3918 H   0  0  0  0  0  0  0  0  0  0  0  0
  151.8287  139.1784  159.3193 H   0  0  0  0  0  0  0  0  0  0  0  0
  150.1609  139.7039  159.1925 H   0  0  0  0  0  0  0  0  0  0  0  0
  151.3074  138.0994  156.9960 H   0  0  0  0  0  0  0  0  0  0  0  0
  149.0995  136.0308  161.1969 H   0  0  0  0  0  0  0  0  0  0  0  0
  147.2366  135.3925  155.0666 H   0  0  0  0  0  0  0  0  0  0  0  0
  142.9279  134.1755  159.4638 H   0  0  0  0  0  0  0  0  0  0  0  0
  143.5340  135.7361  160.0004 H   0  0  0  0  0  0  0  0  0  0  0  0
  141.4605  135.0825  158.2705 H   0  0  0  0  0  0  0  0  0  0  0  0
  143.0430  132.6744  156.2956 H   0  0  0  0  0  0  0  0  0  0  0  0
  144.3808  132.5361  155.2767 H   0  0  0  0  0  0  0  0  0  0  0  0
  154.4675  140.6211  159.4096 H   0  0  0  0  0  0  0  0  0  0  0  0
  153.3022  140.2394  160.6793 H   0  0  0  0  0  0  0  0  0  0  0  0
  154.4285  141.5783  160.8890 H   0  0  0  0  0  0  0  0  0  0  0  0
  1  2  1  0  0  0  0
  1 35  1  0  0  0  0
  1 36  1  0  0  0  0
  1 37  1  0  0  0  0
  2 30  1  0  0  0  0
  2  3  2  0  0  0  0
  3  4  1  0  0  0  0
  3 38  1  0  0  0  0
  4  5  1  0  0  0  0
  4 28  2  0  0  0  0
  5  6  1  0  0  0  0
  5  7  1  0  0  0  0
  5  8  1  0  0  0  0
  6 39  1  0  0  0  0
  6 40  1  0  0  0  0
  6 41  1  0  0  0  0
  7 42  1  0  0  0  0
  8  9  1  0  0  0  0
  8 43  1  0  0  0  0
  8 44  1  0  0  0  0
  9 10  1  0  0  0  0
  9 45  1  0  0  0  0
 10 15  1  0  0  0  0
 10 11  2  0  0  0  0
 11 12  1  0  0  0  0
 12 13  2  0  0  0  0
 12 46  1  0  0  0  0
 13 14  1  0  0  0  0
 14 18  1  0  0  0  0
 14 15  2  0  0  0  0
 15 16  1  0  0  0  0
 16 17  2  0  0  0  0
 17 18  1  0  0  0  0
 17 47  1  0  0  0  0
 18 19  1  0  0  0  0
 19 31  1  0  0  0  0
 19 26  1  0  0  0  0
 19 20  1  0  0  0  0
 20 21  1  0  0  0  0
 21 32  1  0  0  0  0
 21 22  1  0  0  0  0
 21 24  1  0  0  0  0
 22 23  1  0  0  0  0
 22 48  1  0  0  0  0
 22 49  1  0  0  0  0
 23 50  1  0  0  0  0
 24 33  1  0  0  0  0
 24 25  1  0  0  0  0
 24 26  1  0  0  0  0
 25 51  1  0  0  0  0
 26 34  1  0  0  0  0
 26 27  1  0  0  0  0
 27 52  1  0  0  0  0
 28 29  1  0  0  0  0
 28 30  1  0  0  0  0
 29 53  1  0  0  0  0
 29 54  1  0  0  0  0
 29 55  1  0  0  0  0
M  END
> <s_m_source_file>
AV-unprocessed.smi

> <i_m_source_file_index>
287

> <i_lp_mmshare_version>
43012

> <i_f3d_flags>
0

> <s_epik_input>
W0NIM11jMVtjSF1jKGMobzEpW0NIM10pW0NAQF0oW0NIM10pKFtPSF0pW0NIMl1bTkhdYyhuW2NIXW4yKWMoYzIzKW5bY0hdbjNbQ0BASF00T1tDQEhdKFtDSDJdW09IXSlbQ0BASF0oW09IXSlbQ0BIXTRbT0hd

> <s_epik_cmdline>
J2VwaWtfcHl0aG9uJywgJy1waCcsICc3LjAnLCAnLXRuJywgJzgnLCAnLW1hJywgJzIwMCcsICctbWV0YWxfYmluZGluZycsICctaW1hZScsICc8aW5maWxlLm1hZT4nLCAnLW9tYWUnLCAnPG91dGZpbGUubWFlPic=

> <r_lp_tautomer_probability>
1

> <r_epik_Ionization_Penalty>
0.000992612

> <r_epik_Ionization_Penalty_Charging>
0

> <r_epik_Ionization_Penalty_Neutral>
0.000992612

> <r_epik_State_Penalty>
-0

> <r_epik_Charging_Adjusted_Penalty>
0

> <i_epik_Tot_Q>
0

> <i_epik_Tot_abs_Q>
0

> <r_epik_Metal_State_Penalty>
-0

> <b_epik_Metal_Only>
0

> <s_epik_Chemistry_Notes>
This compound contains an acetal/aminal-like group ( X-CH(R)-Y where X, Y are N, S, or O) that may be acid/base labile, releasing an aldehyde.

> <s_lp_Force_Field>
OPLS_2005

> <r_lp_Energy>
46.8376

> <b_lp_Chiralities_Consistent>
1

> <s_lp_Variant>
AV-unprocessed.smi:287-27

> <Gold.Version>
5.8.1

> <Gold.Id.Protein>
6NUR|6NUR_protein|mol2

> <Gold.PLP.Fitness>
49.9641

> <Gold.PLP.PLP>
-39.8547

> <Gold.PLP.part.hbond>
-6.0000

> <Gold.PLP.part.metal>
0.0000

> <Gold.PLP.part.buried>
-7.0004

> <Gold.PLP.part.nonpolar>
-28.1393

> <Gold.PLP.part.repulsive>
0.1103

> <Gold.PLP.ligand.clash>
0.0000

> <Gold.PLP.ligand.torsion>
0.9940

> <Gold.PLP.Chemscore.Hbond>
4.0000

> <Gold.PLP.Chemscore.CHOScore>
0.0000

> <Gold.PLP.Chemscore.Metal>
0.0000

> <Gold.Chemscore.Hbonds>
donor molecule, donor type, donor heavy atom, donor atom, acceptor molecule, acceptor atom, score
      L1  H    23    50       P1 11000  0.81
      L1  H    25    51       P1 10957  1.00
      L1  H    27    52       P1 10957  1.00
      P1  H  7997  8010       L1     7  1.00

> <Gold.PLP.Chemscore.Internal.Correction>
0.0974

> <Gold.Rescore>
     Score         DG    S(hbond)    S(metal)    S(lipo)     H(rot)  DE(clash)    DE(int)     intcor
     14.42     -15.17       3.93        0.00      85.99       5.27       0.00       0.75       ----

> <Gold.Chemscore.Fitness>
14.4213

> <Gold.Chemscore.DG>
-15.1746

> <Gold.Chemscore.ZeroCoef>
-5.4800

> <Gold.Chemscore.Hbond>
3.9274

> <Gold.Chemscore.Metal>
0.0000

> <Gold.Chemscore.Lipo>
85.9907

> <Gold.Chemscore.Internal_Hbond>
0.0000

> <Gold.Chemscore.DEClash>
0.0021

> <Gold.Chemscore.DEInternal>
0.7511

> <Gold.Chemscore.Rot>
5.2672

> <Gold.Chemscore.Internal.Correction>
   9.000000E+99

> <Gold.Chemscore.Hbonds>
donor molecule, donor type, donor heavy atom, donor atom, acceptor molecule, acceptor atom, score
      L1  H    23    50       P1 11000  0.77
      L1  H    25    51       P1 10957  1.00
      L1  H    27    52       P1 10957  0.98
      P1  H  7997  8010       L1     7  0.39

> <Gold.Chemscore.Hbond.Weighted>
-13.1176

> <Gold.Chemscore.Metal.Weighted>
-0.0000

> <Gold.Chemscore.Lipo.Weighted>
-10.0609

> <Gold.Chemscore.Internal_Hbond.Weighted>
0.0000

> <Gold.Chemscore.DEClash.Weighted>
0.0021

> <Gold.Chemscore.DEInternal.Weighted>
0.7511

> <Gold.Chemscore.Rot.Weighted>
13.4839

> <Gold.Chemscore.Internal.Correction.Weighted>
   9.000000E+99

> <Gold.Protein.RotatedTorsions>
[ 6907 6896 6895 6894 ] final -107.82 input  -60.11 | X-H torsion
[ 7974 7965 7964 7962 ] final   27.46 input  175.53 | X-H torsion
[ 8008 7997 7996 7995 ] final   60.06 input   59.86 | X-H torsion
[ 10167 10162 10161 10158 ] final   78.11 input  -65.29 | X-H torsion
[ 10718 10713 10712 10709 ] final  106.22 input   66.30 | X-H torsion
[ 10763 10752 10751 10750 ] final  -57.70 input  -60.55 | X-H torsion
[ 11005 11000 10999 10996 ] final    7.32 input  -57.11 | X-H torsion

> <Gold.Protein.ActiveResidues>
 VAL166  LYS551  ARG553  GLY616  TRP617  ASP618  TYR619  PRO620  LYS621  CYS622 
 ASP623  PHE694  ASN695  SER759  ASP760  ASP761  ALA762  ILE779  LEU786  VAL792 
 PHE793  MET794  SER795  GLU796  ALA797  LYS798  CYS799  TRP800  GLU811  SER814 

> <Gold.Protein.RotatedAtoms>
  150.7466  133.9770  159.3563 H   0  0  0  0  0  0  0  0  0  0  0  0  # atno 6907 bound_to 6896
  151.7708  135.0785  160.0369 H   0  0  0  0  0  0  0  0  0  0  0  0  # atno 6908 bound_to 6896
  152.3340  133.5954  159.5866 H   0  0  0  0  0  0  0  0  0  0  0  0  # atno 6909 bound_to 6896
  146.1783  139.7189  142.8918 H   0  0  0  0  0  0  0  0  0  0  0  0  # atno 7974 bound_to 7965
  155.5762  140.3490  155.4528 H   0  0  0  0  0  0  0  0  0  0  0  0  # atno 8008 bound_to 7997
  156.0407  140.1295  157.0184 H   0  0  0  0  0  0  0  0  0  0  0  0  # atno 8009 bound_to 7997
  154.4391  140.1024  156.6219 H   0  0  0  0  0  0  0  0  0  0  0  0  # atno 8010 bound_to 7997
  139.9744  144.5871  150.7956 H   0  0  0  0  0  0  0  0  0  0  0  0  # atno 10167 bound_to 10162
  157.6676  131.0845  150.5973 H   0  0  0  0  0  0  0  0  0  0  0  0  # atno 10718 bound_to 10713
  154.2266  135.6368  153.5162 H   0  0  0  0  0  0  0  0  0  0  0  0  # atno 10763 bound_to 10752
  152.9957  135.5509  154.6057 H   0  0  0  0  0  0  0  0  0  0  0  0  # atno 10764 bound_to 10752
  154.5530  135.2903  155.0965 H   0  0  0  0  0  0  0  0  0  0  0  0  # atno 10765 bound_to 10752
  140.5495  134.0296  155.7932 H   0  0  0  0  0  0  0  0  0  0  0  0  # atno 11005 bound_to 11000
  145.4149  141.0400  143.2996 LP  0  0  0  0  0  0  0  0  0  0  0  0  # atno 17320 bound_to 7965
  144.8272  139.5689  143.6960 LP  0  0  0  0  0  0  0  0  0  0  0  0  # atno 17321 bound_to 7965
  140.7511  143.2966  151.3188 LP  0  0  0  0  0  0  0  0  0  0  0  0  # atno 17342 bound_to 10162
  139.6457  144.0456  152.2589 LP  0  0  0  0  0  0  0  0  0  0  0  0  # atno 17343 bound_to 10162
  156.6274  130.4422  149.5799 LP  0  0  0  0  0  0  0  0  0  0  0  0  # atno 17370 bound_to 10713
  156.2308  130.6793  151.1462 LP  0  0  0  0  0  0  0  0  0  0  0  0  # atno 17371 bound_to 10713
  141.1180  133.9509  157.2786 LP  0  0  0  0  0  0  0  0  0  0  0  0  # atno 17394 bound_to 11000
  139.9462  135.0183  156.8859 LP  0  0  0  0  0  0  0  0  0  0  0  0  # atno 17395 bound_to 11000

$$$$
