AV-unprocessed.smi:720|AV-procd|sdf|3500|dock2
  -GOLD-   22720 0493D 1   1.00000     0.00000
 Structure written by MMmdl.
 46 48  0  0  0  0  0  0  0  0  1 V2000
  146.0148  138.5188  155.6534 C   0  0  0  0  0  0  0  0  0  0  0  0
  145.3941  138.1153  154.3968 N   0  0  0  0  0  0  0  0  0  0  0  0
  144.7541  136.8229  154.6058 C   0  0  0  0  0  0  0  0  0  0  0  0
  146.3746  137.9890  153.3165 C   0  0  0  0  0  0  0  0  0  0  0  0
  147.0503  139.3231  152.9332 C   0  0  0  0  0  0  0  0  0  0  0  0
  148.2048  139.6460  153.7537 N   0  0  0  0  0  0  0  0  0  0  0  0
  149.2627  138.8311  154.1049 C   0  0  0  0  0  0  0  0  0  0  0  0
  150.1173  139.5714  154.8706 C   0  0  0  0  0  0  0  0  0  0  0  0
  149.4847  140.8494  154.9212 C   0  0  0  0  0  0  0  0  0  0  0  0
  149.9708  141.9954  155.5999 N   0  0  0  0  0  0  0  0  0  0  0  0
  150.7930  142.0549  156.6655 C   0  0  0  0  0  0  0  0  0  0  0  0
  151.2979  141.0796  157.2180 O   0  0  0  0  0  0  0  0  0  0  0  0
  151.0254  143.3030  157.1100 N   0  0  0  0  0  0  0  0  0  0  0  0
  151.8641  143.7157  158.2380 C   0  0  1  0  0  0  0  0  0  0  0  0
  151.9114  145.2501  158.4350 C   0  0  0  0  0  0  0  0  0  0  0  0
  151.4119  145.4255  159.8806 C   0  0  2  0  0  0  0  0  0  0  0  0
  152.4640  144.8713  160.8612 C   0  0  0  0  0  0  0  0  0  0  0  0
  152.3402  143.3465  160.6712 C   0  0  0  0  0  0  0  0  0  0  0  0
  151.2636  143.2320  159.5762 C   0  0  1  0  0  0  0  0  0  0  0  0
  150.3193  144.3683  159.9578 C   0  0  0  0  0  0  0  0  0  0  0  0
  148.3553  140.8988  154.2368 N   0  0  0  0  0  0  0  0  0  0  0  0
  146.4167  139.5280  155.5913 H   0  0  0  0  0  0  0  0  0  0  0  0
  146.8224  137.8417  155.9355 H   0  0  0  0  0  0  0  0  0  0  0  0
  145.2790  138.5231  156.4585 H   0  0  0  0  0  0  0  0  0  0  0  0
  144.2423  136.4941  153.7006 H   0  0  0  0  0  0  0  0  0  0  0  0
  144.0071  136.8872  155.3979 H   0  0  0  0  0  0  0  0  0  0  0  0
  145.4821  136.0592  154.8836 H   0  0  0  0  0  0  0  0  0  0  0  0
  147.1110  137.2169  153.5448 H   0  0  0  0  0  0  0  0  0  0  0  0
  145.8419  137.6434  152.4295 H   0  0  0  0  0  0  0  0  0  0  0  0
  147.4020  139.2594  151.9031 H   0  0  0  0  0  0  0  0  0  0  0  0
  146.3313  140.1439  152.9602 H   0  0  0  0  0  0  0  0  0  0  0  0
  149.3170  137.8006  153.7867 H   0  0  0  0  0  0  0  0  0  0  0  0
  151.0437  139.2375  155.3130 H   0  0  0  0  0  0  0  0  0  0  0  0
  149.6146  142.8781  155.2643 H   0  0  0  0  0  0  0  0  0  0  0  0
  150.5583  144.0498  156.6162 H   0  0  0  0  0  0  0  0  0  0  0  0
  152.8655  143.3014  158.1065 H   0  0  0  0  0  0  0  0  0  0  0  0
  152.9144  145.6542  158.2922 H   0  0  0  0  0  0  0  0  0  0  0  0
  151.2461  145.7659  157.7406 H   0  0  0  0  0  0  0  0  0  0  0  0
  151.0888  146.4410  160.1113 H   0  0  0  0  0  0  0  0  0  0  0  0
  153.4666  145.2379  160.6385 H   0  0  0  0  0  0  0  0  0  0  0  0
  152.2257  145.1500  161.8885 H   0  0  0  0  0  0  0  0  0  0  0  0
  153.2840  142.8822  160.3827 H   0  0  0  0  0  0  0  0  0  0  0  0
  152.0042  142.8723  161.5942 H   0  0  0  0  0  0  0  0  0  0  0  0
  150.8027  142.2446  159.5276 H   0  0  0  0  0  0  0  0  0  0  0  0
  149.8915  144.2596  160.9559 H   0  0  0  0  0  0  0  0  0  0  0  0
  149.5137  144.5251  159.2382 H   0  0  0  0  0  0  0  0  0  0  0  0
  1  2  1  0  0  0  0
  1 22  1  0  0  0  0
  1 23  1  0  0  0  0
  1 24  1  0  0  0  0
  2  3  1  0  0  0  0
  2  4  1  0  0  0  0
  3 25  1  0  0  0  0
  3 26  1  0  0  0  0
  3 27  1  0  0  0  0
  4  5  1  0  0  0  0
  4 28  1  0  0  0  0
  4 29  1  0  0  0  0
  5  6  1  0  0  0  0
  5 30  1  0  0  0  0
  5 31  1  0  0  0  0
  6 21  1  0  0  0  0
  6  7  1  0  0  0  0
  7  8  2  0  0  0  0
  7 32  1  0  0  0  0
  8  9  1  0  0  0  0
  8 33  1  0  0  0  0
  9 10  1  0  0  0  0
  9 21  2  0  0  0  0
 10 11  1  0  0  0  0
 10 34  1  0  0  0  0
 11 12  2  0  0  0  0
 11 13  1  0  0  0  0
 13 14  1  0  0  0  0
 13 35  1  0  0  0  0
 14 19  1  0  0  0  0
 14 15  1  0  0  0  0
 14 36  1  0  0  0  0
 15 16  1  0  0  0  0
 15 37  1  0  0  0  0
 15 38  1  0  0  0  0
 16 20  1  0  0  0  0
 16 17  1  0  0  0  0
 16 39  1  0  0  0  0
 17 18  1  0  0  0  0
 17 40  1  0  0  0  0
 17 41  1  0  0  0  0
 18 19  1  0  0  0  0
 18 42  1  0  0  0  0
 18 43  1  0  0  0  0
 19 20  1  0  0  0  0
 19 44  1  0  0  0  0
 20 45  1  0  0  0  0
 20 46  1  0  0  0  0
M  END
> <s_m_source_file>
AV-unprocessed.smi

> <i_m_source_file_index>
720

> <i_lp_mmshare_version>
43012

> <i_f3d_flags>
0

> <s_epik_input>
W0NIM11OKFtDSDNdKVtDSDJdW0NIMl1uMVtjSF1bY0hdYyhuMSlbTkhdQyg9TylbTkhdW0NASF0oW0NIMl1bQ0BIXTIzKVtDQEhdKFtDSDJdMylbQ0gyXVtDSDJdMg==

> <s_epik_cmdline>
J2VwaWtfcHl0aG9uJywgJy1waCcsICc3LjAnLCAnLXRuJywgJzgnLCAnLW1hJywgJzIwMCcsICctbWV0YWxfYmluZGluZycsICctaW1hZScsICc8aW5maWxlLm1hZT4nLCAnLW9tYWUnLCAnPG91dGZpbGUubWFlPic=

> <r_lp_tautomer_probability>
1

> <r_epik_Ionization_Penalty>
1.83819

> <r_epik_Ionization_Penalty_Charging>
0

> <r_epik_Ionization_Penalty_Neutral>
1.83819

> <r_epik_State_Penalty>
1.95467

> <r_epik_Charging_Adjusted_Penalty>
1.95467

> <i_epik_Tot_Q>
0

> <i_epik_Tot_abs_Q>
0

> <r_epik_Metal_State_Penalty>
1.95467

> <b_epik_Metal_Only>
0

> <s_lp_Force_Field>
OPLS_2005

> <r_lp_Energy>
64.3951

> <b_lp_Chiralities_Consistent>
1

> <s_lp_Variant>
AV-unprocessed.smi:720-6

> <Gold.Version>
5.8.1

> <Gold.Id.Protein>
6NUR|6NUR_protein|mol2

> <Gold.PLP.Fitness>
45.8614

> <Gold.PLP.PLP>
-37.7139

> <Gold.PLP.part.hbond>
-2.0000

> <Gold.PLP.part.metal>
0.0000

> <Gold.PLP.part.buried>
-5.0096

> <Gold.PLP.part.nonpolar>
-30.7802

> <Gold.PLP.part.repulsive>
0.4163

> <Gold.PLP.ligand.clash>
0.0000

> <Gold.PLP.ligand.torsion>
0.4756

> <Gold.PLP.Chemscore.Hbond>
1.9920

> <Gold.PLP.Chemscore.CHOScore>
1.0000

> <Gold.PLP.Chemscore.Metal>
0.0000

> <Gold.Chemscore.Hbonds>
donor molecule, donor type, donor heavy atom, donor atom, acceptor molecule, acceptor atom, score
      L1  H    10    34       P1  8028  1.00
      L1  H    13    35       P1  8028  0.99
      L1  C     7    32       P1  7948  1.00

> <Gold.PLP.Chemscore.Internal.Correction>
0.1227

> <Gold.Rescore>
     Score         DG    S(hbond)    S(metal)    S(lipo)     H(rot)  DE(clash)    DE(int)     intcor
     17.65     -20.11       1.94        0.00     103.32       1.53       1.17       1.29       ----

> <Gold.Chemscore.Fitness>
17.6548

> <Gold.Chemscore.DG>
-20.1139

> <Gold.Chemscore.ZeroCoef>
-5.4800

> <Gold.Chemscore.Hbond>
1.9357

> <Gold.Chemscore.Metal>
0.0000

> <Gold.Chemscore.Lipo>
103.3194

> <Gold.Chemscore.Internal_Hbond>
0.0000

> <Gold.Chemscore.DEClash>
1.1729

> <Gold.Chemscore.DEInternal>
1.2862

> <Gold.Chemscore.Rot>
1.5312

> <Gold.Chemscore.Internal.Correction>
   9.000000E+99

> <Gold.Chemscore.Hbonds>
donor molecule, donor type, donor heavy atom, donor atom, acceptor molecule, acceptor atom, score
      L1  H    10    34       P1  8028  0.90
      L1  H    13    35       P1  8028  0.89

> <Gold.Chemscore.Hbond.Weighted>
-6.4654

> <Gold.Chemscore.Metal.Weighted>
-0.0000

> <Gold.Chemscore.Lipo.Weighted>
-12.0884

> <Gold.Chemscore.Internal_Hbond.Weighted>
0.0000

> <Gold.Chemscore.DEClash.Weighted>
1.1729

> <Gold.Chemscore.DEInternal.Weighted>
1.2862

> <Gold.Chemscore.Rot.Weighted>
3.9199

> <Gold.Chemscore.Internal.Correction.Weighted>
   9.000000E+99

> <Gold.Protein.RotatedTorsions>
[ 6907 6896 6895 6894 ] final   -3.86 input  -60.11 | X-H torsion
[ 7974 7965 7964 7962 ] final   38.22 input  175.53 | X-H torsion
[ 8008 7997 7996 7995 ] final  -78.71 input   59.86 | X-H torsion
[ 10167 10162 10161 10158 ] final   69.67 input  -65.29 | X-H torsion
[ 10718 10713 10712 10709 ] final    0.44 input   66.30 | X-H torsion
[ 10763 10752 10751 10750 ] final -135.83 input  -60.55 | X-H torsion
[ 11005 11000 10999 10996 ] final  -81.16 input  -57.11 | X-H torsion

> <Gold.Protein.ActiveResidues>
 VAL166  LYS551  ARG553  GLY616  TRP617  ASP618  TYR619  PRO620  LYS621  CYS622 
 ASP623  PHE694  ASN695  SER759  ASP760  ASP761  ALA762  ILE779  LEU786  VAL792 
 PHE793  MET794  SER795  GLU796  ALA797  LYS798  CYS799  TRP800  GLU811  SER814 

> <Gold.Protein.RotatedAtoms>
  151.5069  135.1064  159.9843 H   0  0  0  0  0  0  0  0  0  0  0  0  # atno 6907 bound_to 6896
  152.4678  133.7957  159.6936 H   0  0  0  0  0  0  0  0  0  0  0  0  # atno 6908 bound_to 6896
  150.8670  133.7496  159.2999 H   0  0  0  0  0  0  0  0  0  0  0  0  # atno 6909 bound_to 6896
  146.1079  139.5799  142.9372 H   0  0  0  0  0  0  0  0  0  0  0  0  # atno 7974 bound_to 7965
  154.5715  140.0690  156.8971 H   0  0  0  0  0  0  0  0  0  0  0  0  # atno 8008 bound_to 7997
  155.2626  140.3359  155.4253 H   0  0  0  0  0  0  0  0  0  0  0  0  # atno 8009 bound_to 7997
  156.2122  140.1764  156.7655 H   0  0  0  0  0  0  0  0  0  0  0  0  # atno 8010 bound_to 7997
  140.0653  144.5199  150.7265 H   0  0  0  0  0  0  0  0  0  0  0  0  # atno 10167 bound_to 10162
  156.8334  130.5496  149.5684 H   0  0  0  0  0  0  0  0  0  0  0  0  # atno 10718 bound_to 10713
  154.8696  135.3691  154.4961 H   0  0  0  0  0  0  0  0  0  0  0  0  # atno 10763 bound_to 10752
  153.5605  135.7023  153.5554 H   0  0  0  0  0  0  0  0  0  0  0  0  # atno 10764 bound_to 10752
  153.3632  135.4041  155.1697 H   0  0  0  0  0  0  0  0  0  0  0  0  # atno 10765 bound_to 10752
  141.1667  133.7183  156.8380 H   0  0  0  0  0  0  0  0  0  0  0  0  # atno 11005 bound_to 11000
  145.5724  141.0392  143.2167 LP  0  0  0  0  0  0  0  0  0  0  0  0  # atno 17320 bound_to 7965
  144.7486  139.7253  143.7282 LP  0  0  0  0  0  0  0  0  0  0  0  0  # atno 17321 bound_to 7965
  140.7152  143.2538  151.4456 LP  0  0  0  0  0  0  0  0  0  0  0  0  # atno 17342 bound_to 10162
  139.5869  144.1585  152.2040 LP  0  0  0  0  0  0  0  0  0  0  0  0  # atno 17343 bound_to 10162
  156.0921  130.5904  150.9751 LP  0  0  0  0  0  0  0  0  0  0  0  0  # atno 17370 bound_to 10713
  157.6394  131.0912  150.8281 LP  0  0  0  0  0  0  0  0  0  0  0  0  # atno 17371 bound_to 10713
  140.2003  134.8902  157.3161 LP  0  0  0  0  0  0  0  0  0  0  0  0  # atno 17394 bound_to 11000
  140.2194  134.4041  155.7573 LP  0  0  0  0  0  0  0  0  0  0  0  0  # atno 17395 bound_to 11000

$$$$
