AV-unprocessed.smi:2496|AV-procd|sdf|9825|dock3
  -GOLD-   2272013453D 1   1.00000     0.00000
 Structure written by MMmdl.
 40 40  0  0  0  0  0  0  0  0  1 V2000
  151.6551  137.8467  155.7504 C   0  0  0  0  0  0  0  0  0  0  0  0
  150.7338  138.8617  155.1362 C   0  0  0  0  0  0  0  0  0  0  0  0
  150.5068  138.8215  153.8328 N   0  0  0  0  0  0  0  0  0  0  0  0
  149.6695  139.8499  153.6201 N   0  0  0  0  0  0  0  0  0  0  0  0
  149.3623  140.5451  154.7658 C   0  0  0  0  0  0  0  0  0  0  0  0
  148.4558  141.7312  154.7374 C   0  0  0  0  0  0  0  0  0  0  0  0
  150.0375  139.9268  155.7878 C   0  0  0  0  0  0  0  0  0  0  0  0
  150.0817  140.2656  157.2640 C   0  0  2  0  0  0  0  0  0  0  0  0
  149.0002  141.2891  157.6588 C   0  0  0  0  0  0  0  0  0  0  0  0
  151.5022  140.7157  157.6375 C   0  0  0  0  0  0  0  0  0  0  0  0
  152.4875  140.1312  157.1857 O   0  0  0  0  0  0  0  0  0  0  0  0
  151.5816  141.7588  158.4831 N   0  0  0  0  0  0  0  0  0  0  0  0
  152.7918  142.3495  159.0614 C   0  0  2  0  0  0  0  0  0  0  0  0
  153.3134  141.4887  160.2304 C   0  0  0  0  0  0  0  0  0  0  0  0
  152.6079  143.8537  159.4134 C   0  0  0  0  0  0  0  0  0  0  0  0
  151.7120  144.0622  160.6503 C   0  0  0  0  0  0  0  0  0  0  0  0
  152.0457  144.6623  158.2306 C   0  0  0  0  0  0  0  0  0  0  0  0
  149.3214  140.0670  152.6971 H   0  0  0  0  0  0  0  0  0  0  0  0
  152.5421  138.3279  156.1627 H   0  0  0  0  0  0  0  0  0  0  0  0
  151.9885  137.1067  155.0218 H   0  0  0  0  0  0  0  0  0  0  0  0
  151.1601  137.3112  156.5606 H   0  0  0  0  0  0  0  0  0  0  0  0
  148.8368  142.5298  155.3735 H   0  0  0  0  0  0  0  0  0  0  0  0
  147.4593  141.4637  155.0885 H   0  0  0  0  0  0  0  0  0  0  0  0
  148.3596  142.1296  153.7272 H   0  0  0  0  0  0  0  0  0  0  0  0
  149.8846  139.3697  157.8539 H   0  0  0  0  0  0  0  0  0  0  0  0
  149.1272  142.2419  157.1452 H   0  0  0  0  0  0  0  0  0  0  0  0
  149.0203  141.4886  158.7309 H   0  0  0  0  0  0  0  0  0  0  0  0
  148.0056  140.9142  157.4163 H   0  0  0  0  0  0  0  0  0  0  0  0
  150.7079  142.1611  158.7900 H   0  0  0  0  0  0  0  0  0  0  0  0
  153.5373  142.2884  158.2677 H   0  0  0  0  0  0  0  0  0  0  0  0
  154.3292  141.7670  160.5095 H   0  0  0  0  0  0  0  0  0  0  0  0
  153.3387  140.4328  159.9589 H   0  0  0  0  0  0  0  0  0  0  0  0
  152.6888  141.5892  161.1182 H   0  0  0  0  0  0  0  0  0  0  0  0
  153.5856  144.2750  159.6492 H   0  0  0  0  0  0  0  0  0  0  0  0
  150.7242  143.6255  160.5005 H   0  0  0  0  0  0  0  0  0  0  0  0
  151.5763  145.1229  160.8627 H   0  0  0  0  0  0  0  0  0  0  0  0
  152.1414  143.6140  161.5462 H   0  0  0  0  0  0  0  0  0  0  0  0
  151.0901  144.2597  157.8937 H   0  0  0  0  0  0  0  0  0  0  0  0
  152.7281  144.6637  157.3811 H   0  0  0  0  0  0  0  0  0  0  0  0
  151.8861  145.7046  158.5081 H   0  0  0  0  0  0  0  0  0  0  0  0
  1  2  1  0  0  0  0
  1 19  1  0  0  0  0
  1 20  1  0  0  0  0
  1 21  1  0  0  0  0
  2  7  1  0  0  0  0
  2  3  2  0  0  0  0
  3  4  1  0  0  0  0
  4 18  1  0  0  0  0
  4  5  1  0  0  0  0
  5  6  1  0  0  0  0
  5  7  2  0  0  0  0
  6 22  1  0  0  0  0
  6 23  1  0  0  0  0
  6 24  1  0  0  0  0
  7  8  1  0  0  0  0
  8  9  1  0  0  0  0
  8 10  1  0  0  0  0
  8 25  1  0  0  0  0
  9 26  1  0  0  0  0
  9 27  1  0  0  0  0
  9 28  1  0  0  0  0
 10 11  2  0  0  0  0
 10 12  1  0  0  0  0
 12 13  1  0  0  0  0
 12 29  1  0  0  0  0
 13 14  1  0  0  0  0
 13 15  1  0  0  0  0
 13 30  1  0  0  0  0
 14 31  1  0  0  0  0
 14 32  1  0  0  0  0
 14 33  1  0  0  0  0
 15 16  1  0  0  0  0
 15 17  1  0  0  0  0
 15 34  1  0  0  0  0
 16 35  1  0  0  0  0
 16 36  1  0  0  0  0
 16 37  1  0  0  0  0
 17 38  1  0  0  0  0
 17 39  1  0  0  0  0
 17 40  1  0  0  0  0
M  END
> <s_m_source_file>
AV-unprocessed.smi

> <i_m_source_file_index>
2496

> <i_lp_mmshare_version>
43012

> <i_f3d_flags>
0

> <s_epik_input>
W0NIM11jMW5bbkhdYyhbQ0gzXSljMVtDQEhdKFtDSDNdKUMoPU8pW05IXVtDQEhdKFtDSDNdKVtDSF0oW0NIM10pW0NIM10=

> <s_epik_cmdline>
J2VwaWtfcHl0aG9uJywgJy1waCcsICc3LjAnLCAnLXRuJywgJzgnLCAnLW1hJywgJzIwMCcsICctbWV0YWxfYmluZGluZycsICctaW1hZScsICc8aW5maWxlLm1hZT4nLCAnLW9tYWUnLCAnPG91dGZpbGUubWFlPic=

> <r_lp_tautomer_probability>
1

> <r_epik_Ionization_Penalty>
0.000456212

> <r_epik_Ionization_Penalty_Charging>
0

> <r_epik_Ionization_Penalty_Neutral>
0.000456212

> <r_epik_State_Penalty>
-0

> <r_epik_Charging_Adjusted_Penalty>
0

> <i_epik_Tot_Q>
0

> <i_epik_Tot_abs_Q>
0

> <r_epik_Metal_State_Penalty>
-0

> <b_epik_Metal_Only>
0

> <s_lp_Force_Field>
OPLS_2005

> <r_lp_Energy>
1.67244

> <b_lp_Chiralities_Consistent>
1

> <s_lp_Variant>
AV-unprocessed.smi:2496-1

> <Gold.Version>
5.8.1

> <Gold.Id.Protein>
6NUR|6NUR_protein|mol2

> <Gold.PLP.Fitness>
40.0666

> <Gold.PLP.PLP>
-35.7880

> <Gold.PLP.part.hbond>
-1.7725

> <Gold.PLP.part.metal>
0.0000

> <Gold.PLP.part.buried>
-4.5228

> <Gold.PLP.part.nonpolar>
-29.3983

> <Gold.PLP.part.repulsive>
0.9754

> <Gold.PLP.ligand.clash>
0.0000

> <Gold.PLP.ligand.torsion>
0.9523

> <Gold.PLP.Chemscore.Hbond>
2.0000

> <Gold.PLP.Chemscore.CHOScore>
0.0000

> <Gold.PLP.Chemscore.Metal>
0.0000

> <Gold.Chemscore.Hbonds>
donor molecule, donor type, donor heavy atom, donor atom, acceptor molecule, acceptor atom, score
      L1  H     4    18       P1  7957  0.93
      P1  H  7997  8009       L1    11  1.00

> <Gold.PLP.Chemscore.Internal.Correction>
0.1833

> <Gold.Rescore>
     Score         DG    S(hbond)    S(metal)    S(lipo)     H(rot)  DE(clash)    DE(int)     intcor
     18.42     -19.58       1.98        0.00      96.06       1.47       0.02       1.14       ----

> <Gold.Chemscore.Fitness>
18.4230

> <Gold.Chemscore.DG>
-19.5789

> <Gold.Chemscore.ZeroCoef>
-5.4800

> <Gold.Chemscore.Hbond>
1.9802

> <Gold.Chemscore.Metal>
0.0000

> <Gold.Chemscore.Lipo>
96.0557

> <Gold.Chemscore.Internal_Hbond>
0.0000

> <Gold.Chemscore.DEClash>
0.0202

> <Gold.Chemscore.DEInternal>
1.1356

> <Gold.Chemscore.Rot>
1.4662

> <Gold.Chemscore.Internal.Correction>
   9.000000E+99

> <Gold.Chemscore.Hbonds>
donor molecule, donor type, donor heavy atom, donor atom, acceptor molecule, acceptor atom, score
      L1  H     4    18       P1  7957  0.87
      P1  H  7997  8009       L1    11  0.96

> <Gold.Chemscore.Hbond.Weighted>
-6.6138

> <Gold.Chemscore.Metal.Weighted>
-0.0000

> <Gold.Chemscore.Lipo.Weighted>
-11.2385

> <Gold.Chemscore.Internal_Hbond.Weighted>
0.0000

> <Gold.Chemscore.DEClash.Weighted>
0.0202

> <Gold.Chemscore.DEInternal.Weighted>
1.1356

> <Gold.Chemscore.Rot.Weighted>
3.7534

> <Gold.Chemscore.Internal.Correction.Weighted>
   9.000000E+99

> <Gold.Protein.RotatedTorsions>
[ 6907 6896 6895 6894 ] final  -50.49 input  -60.11 | X-H torsion
[ 7974 7965 7964 7962 ] final   52.66 input  175.53 | X-H torsion
[ 8008 7997 7996 7995 ] final  179.55 input   59.86 | X-H torsion
[ 10167 10162 10161 10158 ] final  103.37 input  -65.29 | X-H torsion
[ 10718 10713 10712 10709 ] final -120.51 input   66.30 | X-H torsion
[ 10763 10752 10751 10750 ] final -176.48 input  -60.55 | X-H torsion
[ 11005 11000 10999 10996 ] final  -75.79 input  -57.11 | X-H torsion

> <Gold.Protein.ActiveResidues>
 VAL166  LYS551  ARG553  GLY616  TRP617  ASP618  TYR619  PRO620  LYS621  CYS622 
 ASP623  PHE694  ASN695  SER759  ASP760  ASP761  ALA762  ILE779  LEU786  VAL792 
 PHE793  MET794  SER795  GLU796  ALA797  LYS798  CYS799  TRP800  GLU811  SER814 

> <Gold.Protein.RotatedAtoms>
  150.8702  134.8074  159.7148 H   0  0  0  0  0  0  0  0  0  0  0  0  # atno 6907 bound_to 6896
  152.4709  134.4958  159.9719 H   0  0  0  0  0  0  0  0  0  0  0  0  # atno 6908 bound_to 6896
  151.5048  133.3458  159.2910 H   0  0  0  0  0  0  0  0  0  0  0  0  # atno 6909 bound_to 6896
  145.9790  139.4224  143.0143 H   0  0  0  0  0  0  0  0  0  0  0  0  # atno 7974 bound_to 7965
  156.0421  140.1306  157.0144 H   0  0  0  0  0  0  0  0  0  0  0  0  # atno 8008 bound_to 7997
  154.4396  140.1028  156.6323 H   0  0  0  0  0  0  0  0  0  0  0  0  # atno 8009 bound_to 7997
  155.5650  140.3465  155.4503 H   0  0  0  0  0  0  0  0  0  0  0  0  # atno 8010 bound_to 7997
  139.7269  144.7045  151.0784 H   0  0  0  0  0  0  0  0  0  0  0  0  # atno 10167 bound_to 10162
  156.1263  130.6362  150.9549 H   0  0  0  0  0  0  0  0  0  0  0  0  # atno 10718 bound_to 10713
  154.5719  135.2828  155.0819 H   0  0  0  0  0  0  0  0  0  0  0  0  # atno 10763 bound_to 10752
  154.2188  135.6395  153.5142 H   0  0  0  0  0  0  0  0  0  0  0  0  # atno 10764 bound_to 10752
  153.0060  135.5509  154.6345 H   0  0  0  0  0  0  0  0  0  0  0  0  # atno 10765 bound_to 10752
  141.1648  133.6959  156.7570 H   0  0  0  0  0  0  0  0  0  0  0  0  # atno 11005 bound_to 11000
  145.7796  140.9862  143.1106 LP  0  0  0  0  0  0  0  0  0  0  0  0  # atno 17320 bound_to 7965
  144.6856  139.9548  143.7479 LP  0  0  0  0  0  0  0  0  0  0  0  0  # atno 17321 bound_to 7965
  140.7764  143.5094  150.9672 LP  0  0  0  0  0  0  0  0  0  0  0  0  # atno 17342 bound_to 10162
  139.8781  143.7106  152.3160 LP  0  0  0  0  0  0  0  0  0  0  0  0  # atno 17343 bound_to 10162
  157.6445  131.0906  150.8183 LP  0  0  0  0  0  0  0  0  0  0  0  0  # atno 17370 bound_to 10713
  156.8273  130.5004  149.5336 LP  0  0  0  0  0  0  0  0  0  0  0  0  # atno 17371 bound_to 10713
  140.2561  134.8502  157.3714 LP  0  0  0  0  0  0  0  0  0  0  0  0  # atno 17394 bound_to 11000
  140.1655  134.4674  155.7866 LP  0  0  0  0  0  0  0  0  0  0  0  0  # atno 17395 bound_to 11000

$$$$
