#       Name:                AV-unprocessed.smi:249
#       Creating user name   scv26
#       Creation time:       Thu Mar 26 21:01:10 2020


#       File generated by GOLD software.
#

@<TRIPOS>MOLECULE
AV-unprocessed.smi:249
    72    75     1
SMALL
NO_CHARGES


@<TRIPOS>ATOM
      1 ****        -4.4152  -0.2829   6.0358 C.3            1 S1                 0.0000
      2 ****        -3.0525  -0.1576   5.3353 C.3            1 S1                 0.0000
      3 ****        -3.1386  -0.2760   3.8507 N.4            1 S1                 1.0000
      4 ****        -3.8731   0.8765   3.2528 C.3            1 S1                 0.0000
      5 ****        -4.0430   0.7353   1.7320 C.3            1 S1                 0.0000
      6 ****        -2.6836   0.6063   1.0247 C.3            1 S1                 0.0000
      7 ****        -1.8907   1.8443   1.1042 N.3            1 S1                 0.0000
      8 ****        -2.4968   3.0638   0.5792 C.3            1 S1                 0.0000
      9 ****        -0.6081   1.7413   0.6905 C.ar           1 S1                 0.0000
     10 ****         0.3613   2.0079   1.5996 N.ar           1 S1                 0.0000
     11 ****         1.6475   1.9128   1.2489 C.ar           1 S1                 0.0000
     12 ****         2.1682   1.5754   0.0667 N.ar           1 S1                 0.0000
     13 ****         1.1923   1.3151  -0.8504 C.ar           1 S1                 0.0000
     14 ****        -0.2111   1.3738  -0.6255 C.ar           1 S1                 0.0000
     15 ****        -0.8943   1.0436  -1.7896 N.2            1 S1                 0.0000
     16 ****         0.0529   0.8005  -2.6545 C.2            1 S1                 0.0000
     17 ****         1.3355   0.9338  -2.1728 N.pl3          1 S1                 0.0000
     18 ****         2.5656   0.7263  -2.9177 C.3            1 S1                 0.0000
     19 ****         2.8580  -0.7659  -3.2163 C.3            1 S1                 0.0000
     20 ****         2.9769  -1.5847  -1.9051 C.3            1 S1                 0.0000
     21 ****         2.7996  -2.9668  -2.1334 O.3            1 S1                 0.0000
     22 ****         4.1219  -0.8946  -4.1106 C.3            1 S1                 0.0000
     23 ****         4.0272  -0.1711  -5.4516 C.3            1 S1                 0.0000
     24 ****         4.9078  -0.9895  -6.4007 C.3            1 S1                 0.0000
     25 ****         5.3778  -2.0938  -5.6403 O.3            1 S1                 0.0000
     26 ****         4.4742  -2.3103  -4.5705 C.3            1 S1                 0.0000
     27 ****        -1.9841  -0.6206   1.6488 C.3            1 S1                 0.0000
     28 ****        -1.8152  -0.5034   3.1823 C.3            1 S1                 0.0000
     29 ****        -1.0889  -1.7668   3.6899 C.3            1 S1                 0.0000
     30 ****        -4.2825  -0.3341   7.1168 H              1 S1                 0.0000
     31 ****        -4.9362  -1.1897   5.7268 H              1 S1                 0.0000
     32 ****        -5.0657   0.5686   5.8398 H              1 S1                 0.0000
     33 ****        -2.5685   0.7817   5.6064 H              1 S1                 0.0000
     34 ****        -2.4347  -0.9507   5.7487 H              1 S1                 0.0000
     35 ****        -4.8673   0.9603   3.6882 H              1 S1                 0.0000
     36 ****        -3.3500   1.8046   3.4889 H              1 S1                 0.0000
     37 ****        -4.6445  -0.1502   1.5219 H              1 S1                 0.0000
     38 ****        -4.6154   1.5742   1.3360 H              1 S1                 0.0000
     39 ****        -2.8699   0.4011  -0.0301 H              1 S1                 0.0000
     40 ****        -1.7604   3.8560   0.4316 H              1 S1                 0.0000
     41 ****        -3.2437   3.4439   1.2759 H              1 S1                 0.0000
     42 ****        -2.9851   2.8728  -0.3770 H              1 S1                 0.0000
     43 ****         2.3622   2.1391   2.0266 H              1 S1                 0.0000
     44 ****        -0.1583   0.5123  -3.6743 H              1 S1                 0.0000
     45 ****         2.4781   1.2988  -3.8408 H              1 S1                 0.0000
     46 ****         3.3938   1.1671  -2.3614 H              1 S1                 0.0000
     47 ****         2.0052  -1.1542  -3.7758 H              1 S1                 0.0000
     48 ****         3.9409  -1.4114  -1.4259 H              1 S1                 0.0000
     49 ****         2.2135  -1.3003  -1.1824 H              1 S1                 0.0000
     50 ****         2.8941  -3.4223  -1.3106 H              1 S1                 0.0000
     51 ****         4.9830  -0.4967  -3.5708 H              1 S1                 0.0000
     52 ****         3.0010  -0.1666  -5.8214 H              1 S1                 0.0000
     53 ****         4.3594   0.8651  -5.3788 H              1 S1                 0.0000
     54 ****         4.3285  -1.3485  -7.2524 H              1 S1                 0.0000
     55 ****         5.7500  -0.4119  -6.7823 H              1 S1                 0.0000
     56 ****         4.9415  -2.9080  -3.7877 H              1 S1                 0.0000
     57 ****         3.5935  -2.8411  -4.9364 H              1 S1                 0.0000
     58 ****        -2.5760  -1.5098   1.4260 H              1 S1                 0.0000
     59 ****        -1.0194  -0.7993   1.1729 H              1 S1                 0.0000
     60 ****        -1.1793   0.3567   3.3970 H              1 S1                 0.0000
     61 ****        -0.2194  -1.9900   3.0707 H              1 S1                 0.0000
     62 ****        -1.7419  -2.6398   3.6633 H              1 S1                 0.0000
     63 ****        -0.7090  -1.6530   4.7044 H              1 S1                 0.0000
     64 ****        -3.6906  -1.1001   3.6609 H              1 S1                 0.0000
     65 ****        -1.8839   1.9569   2.0979 LP             1 S1                 0.0000
     66 ****         0.1146   2.2753   2.5311 LP             1 S1                 0.0000
     67 ****         3.1486   1.5205  -0.1224 LP             1 S1                 0.0000
     68 ****        -1.8832   1.0019  -1.9319 LP             1 S1                 0.0000
     69 ****         3.4891  -3.2927  -2.7802 LP             1 S1                 0.0000
     70 ****         1.8871  -3.1323  -2.5074 LP             1 S1                 0.0000
     71 ****         6.2885  -1.8932  -5.2790 LP             1 S1                 0.0000
     72 ****         5.4205  -2.9090  -6.2178 LP             1 S1                 0.0000
@<TRIPOS>BOND
    1    1    2 1     
    2    1   30 1     
    3    1   31 1     
    4    1   32 1     
    5    2    3 1     
    6    2   33 1     
    7    2   34 1     
    8    3   28 1     
    9    3    4 1     
   10    3   64 1     
   11    4    5 1     
   12    4   35 1     
   13    4   36 1     
   14    5    6 1     
   15    5   37 1     
   16    5   38 1     
   17    6    7 1     
   18    6   27 1     
   19    6   39 1     
   20    7    8 1     
   21    7    9 1     
   22    8   40 1     
   23    8   41 1     
   24    8   42 1     
   25    9   14 ar    
   26    9   10 ar    
   27   10   11 ar    
   28   11   12 ar    
   29   11   43 1     
   30   12   13 ar    
   31   13   17 1     
   32   13   14 ar    
   33   14   15 1     
   34   15   16 2     
   35   16   17 1     
   36   16   44 1     
   37   17   18 1     
   38   18   19 1     
   39   18   45 1     
   40   18   46 1     
   41   19   20 1     
   42   19   22 1     
   43   19   47 1     
   44   20   21 1     
   45   20   48 1     
   46   20   49 1     
   47   21   50 1     
   48   22   26 1     
   49   22   23 1     
   50   22   51 1     
   51   23   24 1     
   52   23   52 1     
   53   23   53 1     
   54   24   25 1     
   55   24   54 1     
   56   24   55 1     
   57   25   26 1     
   58   26   56 1     
   59   26   57 1     
   60   27   28 1     
   61   27   58 1     
   62   27   59 1     
   63   28   29 1     
   64   28   60 1     
   65   29   61 1     
   66   29   62 1     
   67   29   63 1     
   68    7   65 1     
   69   10   66 1     
   70   12   67 1     
   71   15   68 1     
   72   21   69 1     
   73   21   70 1     
   74   25   71 1     
   75   25   72 1     
@<TRIPOS>SUBSTRUCTURE
      1 S1             1
@<TRIPOS>SET
LONE_PAIRS      STATIC     ATOMS    <user>   **** ""
8 65 66 67 68 69 70 71 72
DONOR_HYDROGENS      STATIC     ATOMS    <user>   **** ""
2 64 50
ATOM$BLUE        STATIC     ATOMS    COLORGROUP SYSTEM
8 65 66 67 68 69 70 71 72
ATOM$RED        STATIC     ATOMS    COLORGROUP SYSTEM
2 64 50
