AV-unprocessed.smi:1254|AV-procd|sdf|5277|dock10
  -GOLD-   22720 4393D 1   1.00000     0.00000
 Structure written by MMmdl.
 45 46  0  0  0  0  0  0  0  0  3 V2000
  151.1055  141.1764  156.1146 C   0  0  0  0  0  0  0  0  0  0  0  0
  151.3512  139.7694  155.6897 C   0  0  0  0  0  0  0  0  0  0  0  0
  150.5807  138.8465  155.0410 C   0  0  0  0  0  0  0  0  0  0  0  0
  151.4371  137.7154  154.9493 C   0  0  0  0  0  0  0  0  0  0  0  0
  151.1260  136.5329  154.3961 N   0  5  0  0  0  0  0  0  0  0  0  0
  150.5936  135.5464  155.1529 C   0  0  0  0  0  0  0  0  0  0  0  0
  150.9614  135.2053  156.2795 O   0  0  0  0  0  0  0  0  0  0  0  0
  149.5686  134.9149  154.5677 N   0  0  0  0  0  0  0  0  0  0  0  0
  148.8095  133.8219  155.1596 C   0  0  0  0  0  0  0  0  0  0  0  0
  147.7648  133.2924  154.1685 C   0  0  2  0  0  0  0  0  0  0  0  0
  148.3823  132.3066  153.1551 C   0  0  0  0  0  0  0  0  0  0  0  0
  147.3776  131.8536  152.1620 N   0  3  1  0  0  0  0  0  0  0  0  0
  146.4399  130.8249  152.6886 C   0  0  0  0  0  0  0  0  0  0  0  0
  147.0722  129.4185  152.7661 C   0  0  0  0  0  0  0  0  0  0  0  0
  146.8688  128.6622  151.4447 C   0  0  0  0  0  0  0  0  0  0  0  0
  146.5122  128.6018  153.9429 C   0  0  0  0  0  0  0  0  0  0  0  0
  146.7221  133.0204  151.5176 C   0  0  0  0  0  0  0  0  0  0  0  0
  146.1811  134.0141  152.5638 C   0  0  0  0  0  0  0  0  0  0  0  0
  147.2263  134.3972  153.4479 O   0  0  0  0  0  0  0  0  0  0  0  0
  152.6165  137.9275  155.5087 N   0  0  0  0  0  0  0  0  0  0  0  0
  152.5722  139.2454  155.9792 O   0  0  0  0  0  0  0  0  0  0  0  0
  150.0403  141.3574  156.2594 H   0  0  0  0  0  0  0  0  0  0  0  0
  151.4685  141.8749  155.3603 H   0  0  0  0  0  0  0  0  0  0  0  0
  151.6159  141.3950  157.0530 H   0  0  0  0  0  0  0  0  0  0  0  0
  149.5684  138.9618  154.6841 H   0  0  0  0  0  0  0  0  0  0  0  0
  149.2991  135.2184  153.6433 H   0  0  0  0  0  0  0  0  0  0  0  0
  149.4900  133.0244  155.4617 H   0  0  0  0  0  0  0  0  0  0  0  0
  148.3128  134.1824  156.0620 H   0  0  0  0  0  0  0  0  0  0  0  0
  146.9697  132.7972  154.7294 H   0  0  0  0  0  0  0  0  0  0  0  0
  149.1950  132.7989  152.6187 H   0  0  0  0  0  0  0  0  0  0  0  0
  148.8285  131.4511  153.6637 H   0  0  0  0  0  0  0  0  0  0  0  0
  146.1177  131.1062  153.6923 H   0  0  0  0  0  0  0  0  0  0  0  0
  145.5348  130.8019  152.0816 H   0  0  0  0  0  0  0  0  0  0  0  0
  148.1479  129.5159  152.9087 H   0  0  0  0  0  0  0  0  0  0  0  0
  145.8099  128.5162  151.2290 H   0  0  0  0  0  0  0  0  0  0  0  0
  147.3398  127.6793  151.4771 H   0  0  0  0  0  0  0  0  0  0  0  0
  147.3071  129.2065  150.6075 H   0  0  0  0  0  0  0  0  0  0  0  0
  145.4332  128.4695  153.8568 H   0  0  0  0  0  0  0  0  0  0  0  0
  146.7135  129.0864  154.8984 H   0  0  0  0  0  0  0  0  0  0  0  0
  146.9646  127.6105  153.9819 H   0  0  0  0  0  0  0  0  0  0  0  0
  147.4655  133.5255  150.8995 H   0  0  0  0  0  0  0  0  0  0  0  0
  145.9285  132.7068  150.8407 H   0  0  0  0  0  0  0  0  0  0  0  0
  145.7996  134.9061  152.0667 H   0  0  0  0  0  0  0  0  0  0  0  0
  145.3484  133.5909  153.1270 H   0  0  0  0  0  0  0  0  0  0  0  0
  147.9024  131.3811  151.4397 H   0  0  0  0  0  0  0  0  0  0  0  0
  1  2  1  0  0  0  0
  1 22  1  0  0  0  0
  1 23  1  0  0  0  0
  1 24  1  0  0  0  0
  2 21  1  0  0  0  0
  2  3  2  0  0  0  0
  3  4  1  0  0  0  0
  3 25  1  0  0  0  0
  4  5  1  0  0  0  0
  4 20  2  0  0  0  0
  5  6  1  0  0  0  0
  6  7  2  0  0  0  0
  6  8  1  0  0  0  0
  8  9  1  0  0  0  0
  8 26  1  0  0  0  0
  9 10  1  0  0  0  0
  9 27  1  0  0  0  0
  9 28  1  0  0  0  0
 10 19  1  0  0  0  0
 10 11  1  0  0  0  0
 10 29  1  0  0  0  0
 11 12  1  0  0  0  0
 11 30  1  0  0  0  0
 11 31  1  0  0  0  0
 12 13  1  0  0  0  0
 12 17  1  0  0  0  0
 12 45  1  0  0  0  0
 13 14  1  0  0  0  0
 13 32  1  0  0  0  0
 13 33  1  0  0  0  0
 14 15  1  0  0  0  0
 14 16  1  0  0  0  0
 14 34  1  0  0  0  0
 15 35  1  0  0  0  0
 15 36  1  0  0  0  0
 15 37  1  0  0  0  0
 16 38  1  0  0  0  0
 16 39  1  0  0  0  0
 16 40  1  0  0  0  0
 17 18  1  0  0  0  0
 17 41  1  0  0  0  0
 17 42  1  0  0  0  0
 18 19  1  0  0  0  0
 18 43  1  0  0  0  0
 18 44  1  0  0  0  0
 20 21  1  0  0  0  0
M  CHG  1   5  -1
M  CHG  1  12   1
M  END
> <s_m_source_file>
AV-unprocessed.smi

> <i_m_source_file_index>
1254

> <i_lp_mmshare_version>
43012

> <i_f3d_flags>
0

> <s_epik_input>
W0NIM11jMVtjSF1jKG5vMSlbTkhdQyg9TylbTkhdW0NIMl1bQ0BASF0yW0NIMl1OKFtDSDJdW0NIMl1PMilbQ0gyXVtDSF0oW0NIM10pW0NIM10=

> <s_epik_cmdline>
J2VwaWtfcHl0aG9uJywgJy1waCcsICc3LjAnLCAnLXRuJywgJzgnLCAnLW1hJywgJzIwMCcsICctbWV0YWxfYmluZGluZycsICctaW1hZScsICc8aW5maWxlLm1hZT4nLCAnLW9tYWUnLCAnPG91dGZpbGUubWFlPic=

> <r_epik_Ionization_Penalty>
6.33139

> <r_epik_Ionization_Penalty_Charging>
6.33128

> <r_epik_Ionization_Penalty_Neutral>
0.000104968

> <r_epik_State_Penalty>
6.32522

> <r_epik_Charging_Adjusted_Penalty>
12.6565

> <i_epik_Tot_Q>
0

> <i_epik_Tot_abs_Q>
2

> <r_epik_Metal_State_Penalty>
2.26285

> <b_epik_Metal_Only>
1

> <s_lp_Force_Field>
OPLS_2005

> <r_lp_Energy>
8.92976

> <b_lp_Chiralities_Consistent>
1

> <s_lp_Variant>
AV-unprocessed.smi:1254-9

> <Gold.Version>
5.8.1

> <Gold.Id.Protein>
6NUR|6NUR_protein|mol2

> <Gold.PLP.Fitness>
46.0678

> <Gold.PLP.PLP>
-35.2287

> <Gold.PLP.part.hbond>
-4.9545

> <Gold.PLP.part.metal>
0.0000

> <Gold.PLP.part.buried>
-5.2765

> <Gold.PLP.part.nonpolar>
-27.9328

> <Gold.PLP.part.repulsive>
3.3832

> <Gold.PLP.ligand.clash>
0.0000

> <Gold.PLP.ligand.torsion>
1.9376

> <Gold.PLP.Chemscore.Hbond>
4.8426

> <Gold.PLP.Chemscore.CHOScore>
0.0000

> <Gold.PLP.Chemscore.Metal>
0.0000

> <Gold.Chemscore.Hbonds>
donor molecule, donor type, donor heavy atom, donor atom, acceptor molecule, acceptor atom, score
      L1  H     8    26       P1  7948  0.98
      L1  H    12    45       P1 10747  1.00
      P1  H  7997  8010       L1    21  0.98
      P1  H 10752 10765       L1     5  1.64

> <Gold.PLP.Chemscore.Internal.Correction>
0.1866

> <Gold.Rescore>
     Score         DG    S(hbond)    S(metal)    S(lipo)     H(rot)  DE(clash)    DE(int)     intcor
     15.98     -18.39       2.68        0.00      71.03       1.69       0.52       1.90       ----

> <Gold.Chemscore.Fitness>
15.9800

> <Gold.Chemscore.DG>
-18.3927

> <Gold.Chemscore.ZeroCoef>
-5.4800

> <Gold.Chemscore.Hbond>
2.6754

> <Gold.Chemscore.Metal>
0.0000

> <Gold.Chemscore.Lipo>
71.0255

> <Gold.Chemscore.Internal_Hbond>
0.0000

> <Gold.Chemscore.DEClash>
0.5153

> <Gold.Chemscore.DEInternal>
1.8974

> <Gold.Chemscore.Rot>
1.6926

> <Gold.Chemscore.Internal.Correction>
   9.000000E+99

> <Gold.Chemscore.Hbonds>
donor molecule, donor type, donor heavy atom, donor atom, acceptor molecule, acceptor atom, score
      L1  H     8    26       P1  7948  0.23
      L1  H    12    45       P1 10747  1.00
      P1  H  7997  8010       L1    21  0.86
      P1  H 10752 10765       L1     5  0.06

> <Gold.Chemscore.Hbond.Weighted>
-8.9358

> <Gold.Chemscore.Metal.Weighted>
-0.0000

> <Gold.Chemscore.Lipo.Weighted>
-8.3100

> <Gold.Chemscore.Internal_Hbond.Weighted>
0.0000

> <Gold.Chemscore.DEClash.Weighted>
0.5153

> <Gold.Chemscore.DEInternal.Weighted>
1.8974

> <Gold.Chemscore.Rot.Weighted>
4.3330

> <Gold.Chemscore.Internal.Correction.Weighted>
   9.000000E+99

> <Gold.Protein.RotatedTorsions>
[ 6907 6896 6895 6894 ] final  140.34 input  -60.11 | X-H torsion
[ 7974 7965 7964 7962 ] final -158.97 input  175.53 | X-H torsion
[ 8008 7997 7996 7995 ] final   66.10 input   59.86 | X-H torsion
[ 10167 10162 10161 10158 ] final  -34.12 input  -65.29 | X-H torsion
[ 10718 10713 10712 10709 ] final   74.03 input   66.30 | X-H torsion
[ 10763 10752 10751 10750 ] final  146.24 input  -60.55 | X-H torsion
[ 11005 11000 10999 10996 ] final  -48.92 input  -57.11 | X-H torsion

> <Gold.Protein.ActiveResidues>
 VAL166  LYS551  ARG553  GLY616  TRP617  ASP618  TYR619  PRO620  LYS621  CYS622 
 ASP623  PHE694  ASN695  SER759  ASP760  ASP761  ALA762  ILE779  LEU786  VAL792 
 PHE793  MET794  SER795  GLU796  ALA797  LYS798  CYS799  TRP800  GLU811  SER814 

> <Gold.Protein.RotatedAtoms>
  152.2442  133.5160  159.5287 H   0  0  0  0  0  0  0  0  0  0  0  0  # atno 6907 bound_to 6896
  150.7073  134.1048  159.3988 H   0  0  0  0  0  0  0  0  0  0  0  0  # atno 6908 bound_to 6896
  151.8968  135.0394  160.0553 H   0  0  0  0  0  0  0  0  0  0  0  0  # atno 6909 bound_to 6896
  144.7484  140.3751  143.6067 H   0  0  0  0  0  0  0  0  0  0  0  0  # atno 7974 bound_to 7965
  155.6722  140.3497  155.4822 H   0  0  0  0  0  0  0  0  0  0  0  0  # atno 8008 bound_to 7997
  155.9679  140.1150  157.0861 H   0  0  0  0  0  0  0  0  0  0  0  0  # atno 8009 bound_to 7997
  154.4159  140.1163  156.5253 H   0  0  0  0  0  0  0  0  0  0  0  0  # atno 8010 bound_to 7997
  140.7192  143.3571  151.2038 H   0  0  0  0  0  0  0  0  0  0  0  0  # atno 10167 bound_to 10162
  157.6574  130.9658  150.1154 H   0  0  0  0  0  0  0  0  0  0  0  0  # atno 10718 bound_to 10713
  154.0185  135.2908  155.3384 H   0  0  0  0  0  0  0  0  0  0  0  0  # atno 10763 bound_to 10752
  154.7060  135.5169  153.8599 H   0  0  0  0  0  0  0  0  0  0  0  0  # atno 10764 bound_to 10752
  153.0691  135.6641  154.0410 H   0  0  0  0  0  0  0  0  0  0  0  0  # atno 10765 bound_to 10752
  141.0729  133.6674  156.3511 H   0  0  0  0  0  0  0  0  0  0  0  0  # atno 11005 bound_to 11000
  145.7036  139.1667  143.2579 LP  0  0  0  0  0  0  0  0  0  0  0  0  # atno 17320 bound_to 7965
  146.1398  140.7074  142.9372 LP  0  0  0  0  0  0  0  0  0  0  0  0  # atno 17321 bound_to 7965
  139.7114  143.9370  152.2949 LP  0  0  0  0  0  0  0  0  0  0  0  0  # atno 17342 bound_to 10162
  139.9096  144.6864  150.8576 LP  0  0  0  0  0  0  0  0  0  0  0  0  # atno 17343 bound_to 10162
  156.2039  130.3662  149.8753 LP  0  0  0  0  0  0  0  0  0  0  0  0  # atno 17370 bound_to 10713
  156.6650  130.8797  151.3553 LP  0  0  0  0  0  0  0  0  0  0  0  0  # atno 17371 bound_to 10713
  140.5635  134.5911  157.5440 LP  0  0  0  0  0  0  0  0  0  0  0  0  # atno 17394 bound_to 11000
  139.9542  134.7564  156.0380 LP  0  0  0  0  0  0  0  0  0  0  0  0  # atno 17395 bound_to 11000

$$$$
