AV-unprocessed.smi:1608|AV-procd|sdf|6468|dock7
  -GOLD-   22720 7123D 1   1.00000     0.00000
 Structure written by MMmdl.
 42 43  0  0  0  0  0  0  0  0  1 V2000
  146.2537  131.7180  149.1823 C   0  0  0  0  0  0  0  0  0  0  0  0
  145.5139  132.5748  150.1123 N   0  0  0  0  0  0  0  0  0  0  0  0
  146.2564  133.4186  150.9594 C   0  0  0  0  0  0  0  0  0  0  0  0
  145.6781  134.2363  151.8577 C   0  0  0  0  0  0  0  0  0  0  0  0
  146.5134  135.0327  152.6534 N   0  0  0  0  0  0  0  0  0  0  0  0
  146.2345  135.6524  153.8148 C   0  0  0  0  0  0  0  0  0  0  0  0
  145.1688  135.5923  154.4271 O   0  0  0  0  0  0  0  0  0  0  0  0
  147.2936  136.3495  154.2517 N   0  0  0  0  0  0  0  0  0  0  0  0
  147.3453  137.1154  155.4933 C   0  0  1  0  0  0  0  0  0  0  0  0
  146.3469  138.2843  155.4514 C   0  0  0  0  0  0  0  0  0  0  0  0
  146.3739  139.0390  156.7850 C   0  0  0  0  0  0  0  0  0  0  0  0
  146.0946  138.0946  157.9670 C   0  0  0  0  0  0  0  0  0  0  0  0
  147.0038  136.9306  157.9615 N   0  0  0  0  0  0  0  0  0  0  0  0
  148.3710  136.8902  159.0378 S   0  0  0  0  0  0  0  0  0  0  0  0
  149.6409  137.9199  158.1945 C   0  0  0  0  0  0  0  0  0  0  0  0
  147.9822  137.5708  160.2823 O   0  0  0  0  0  0  0  0  0  0  0  0
  148.8632  135.5050  159.0882 O   0  0  0  0  0  0  0  0  0  0  0  0
  147.0454  136.1866  156.6865 C   0  0  0  0  0  0  0  0  0  0  0  0
  144.2232  134.2337  151.9073 C   0  0  0  0  0  0  0  0  0  0  0  0
  143.5063  133.4311  151.0961 C   0  0  0  0  0  0  0  0  0  0  0  0
  144.1508  132.5320  150.1356 C   0  0  0  0  0  0  0  0  0  0  0  0
  143.5062  131.7888  149.3954 O   0  0  0  0  0  0  0  0  0  0  0  0
  147.3347  131.8169  149.2861 H   0  0  0  0  0  0  0  0  0  0  0  0
  146.0007  131.9667  148.1509 H   0  0  0  0  0  0  0  0  0  0  0  0
  146.0078  130.6681  149.3487 H   0  0  0  0  0  0  0  0  0  0  0  0
  147.3283  133.3515  150.8383 H   0  0  0  0  0  0  0  0  0  0  0  0
  147.4534  135.1418  152.3022 H   0  0  0  0  0  0  0  0  0  0  0  0
  148.1304  136.3447  153.6872 H   0  0  0  0  0  0  0  0  0  0  0  0
  148.3515  137.5173  155.6125 H   0  0  0  0  0  0  0  0  0  0  0  0
  146.5899  138.9667  154.6360 H   0  0  0  0  0  0  0  0  0  0  0  0
  145.3398  137.9115  155.2595 H   0  0  0  0  0  0  0  0  0  0  0  0
  147.3412  139.5234  156.9109 H   0  0  0  0  0  0  0  0  0  0  0  0
  145.6340  139.8396  156.7715 H   0  0  0  0  0  0  0  0  0  0  0  0
  146.1722  138.6340  158.9106 H   0  0  0  0  0  0  0  0  0  0  0  0
  145.0689  137.7293  157.9058 H   0  0  0  0  0  0  0  0  0  0  0  0
  150.5355  137.9596  158.8155 H   0  0  0  0  0  0  0  0  0  0  0  0
  149.2651  138.9318  158.0534 H   0  0  0  0  0  0  0  0  0  0  0  0
  149.8995  137.4795  157.2333 H   0  0  0  0  0  0  0  0  0  0  0  0
  146.0786  135.7015  156.5444 H   0  0  0  0  0  0  0  0  0  0  0  0
  147.7837  135.3866  156.7422 H   0  0  0  0  0  0  0  0  0  0  0  0
  143.6781  134.8812  152.5746 H   0  0  0  0  0  0  0  0  0  0  0  0
  142.4277  133.4553  151.1487 H   0  0  0  0  0  0  0  0  0  0  0  0
  1  2  1  0  0  0  0
  1 23  1  0  0  0  0
  1 24  1  0  0  0  0
  1 25  1  0  0  0  0
  2 21  1  0  0  0  0
  2  3  1  0  0  0  0
  3  4  2  0  0  0  0
  3 26  1  0  0  0  0
  4  5  1  0  0  0  0
  4 19  1  0  0  0  0
  5  6  1  0  0  0  0
  5 27  1  0  0  0  0
  6  7  2  0  0  0  0
  6  8  1  0  0  0  0
  8  9  1  0  0  0  0
  8 28  1  0  0  0  0
  9 18  1  0  0  0  0
  9 10  1  0  0  0  0
  9 29  1  0  0  0  0
 10 11  1  0  0  0  0
 10 30  1  0  0  0  0
 10 31  1  0  0  0  0
 11 12  1  0  0  0  0
 11 32  1  0  0  0  0
 11 33  1  0  0  0  0
 12 13  1  0  0  0  0
 12 34  1  0  0  0  0
 12 35  1  0  0  0  0
 13 14  1  0  0  0  0
 13 18  1  0  0  0  0
 14 15  1  0  0  0  0
 14 16  2  0  0  0  0
 14 17  2  0  0  0  0
 15 36  1  0  0  0  0
 15 37  1  0  0  0  0
 15 38  1  0  0  0  0
 18 39  1  0  0  0  0
 18 40  1  0  0  0  0
 19 20  2  0  0  0  0
 19 41  1  0  0  0  0
 20 21  1  0  0  0  0
 20 42  1  0  0  0  0
 21 22  2  0  0  0  0
M  END
> <s_m_source_file>
AV-unprocessed.smi

> <i_m_source_file_index>
1608

> <i_lp_mmshare_version>
43012

> <i_f3d_flags>
0

> <s_epik_input>
Tz1jMVtjSF1bY0hdYyhbY0hdbjFbQ0gzXSlbTkhdQyg9TylbTkhdW0NAQEhdMltDSDJdW0NIMl1bQ0gyXU4oW0NIMl0yKVMoPU8pKD1PKVtDSDNd

> <s_epik_cmdline>
J2VwaWtfcHl0aG9uJywgJy1waCcsICc3LjAnLCAnLXRuJywgJzgnLCAnLW1hJywgJzIwMCcsICctbWV0YWxfYmluZGluZycsICctaW1hZScsICc8aW5maWxlLm1hZT4nLCAnLW9tYWUnLCAnPG91dGZpbGUubWFlPic=

> <r_lp_tautomer_probability>
1

> <r_epik_Ionization_Penalty>
2.44111e-05

> <r_epik_Ionization_Penalty_Charging>
5.7429e-06

> <r_epik_Ionization_Penalty_Neutral>
1.86682e-05

> <r_epik_State_Penalty>
-0

> <r_epik_Charging_Adjusted_Penalty>
5.7429e-06

> <i_epik_Tot_Q>
0

> <i_epik_Tot_abs_Q>
0

> <r_epik_Metal_State_Penalty>
-0

> <b_epik_Metal_Only>
0

> <s_lp_Force_Field>
OPLS_2005

> <r_lp_Energy>
11.6091

> <b_lp_Chiralities_Consistent>
1

> <s_lp_Variant>
AV-unprocessed.smi:1608-2

> <Gold.Version>
5.8.1

> <Gold.Id.Protein>
6NUR|6NUR_protein|mol2

> <Gold.PLP.Fitness>
43.3202

> <Gold.PLP.PLP>
-27.8782

> <Gold.PLP.part.hbond>
-6.0000

> <Gold.PLP.part.metal>
0.0000

> <Gold.PLP.part.buried>
-3.8056

> <Gold.PLP.part.nonpolar>
-19.2091

> <Gold.PLP.part.repulsive>
0.6824

> <Gold.PLP.ligand.clash>
0.0000

> <Gold.PLP.ligand.torsion>
1.1210

> <Gold.PLP.Chemscore.Hbond>
5.2098

> <Gold.PLP.Chemscore.CHOScore>
0.0000

> <Gold.PLP.Chemscore.Metal>
0.0000

> <Gold.Chemscore.Hbonds>
donor molecule, donor type, donor heavy atom, donor atom, acceptor molecule, acceptor atom, score
      L1  H     5    27       P1  7948  1.00
      L1  H     8    28       P1  7948  0.98
      P1  H  6896  6909       L1    17  0.64
      P1  H  6931  6943       L1    16  0.52
      P1  H  6934  6947       L1    16  0.66
      P1  H 10785 10796       L1    22  0.99

> <Gold.PLP.Chemscore.Internal.Correction>
2.0546

> <Gold.Rescore>
     Score         DG    S(hbond)    S(metal)    S(lipo)     H(rot)  DE(clash)    DE(int)     intcor
     20.12     -23.99       4.90        0.00      40.18       1.00       0.76       3.11       ----

> <Gold.Chemscore.Fitness>
20.1242

> <Gold.Chemscore.DG>
-23.9931

> <Gold.Chemscore.ZeroCoef>
-5.4800

> <Gold.Chemscore.Hbond>
4.9018

> <Gold.Chemscore.Metal>
0.0000

> <Gold.Chemscore.Lipo>
40.1805

> <Gold.Chemscore.Internal_Hbond>
0.0000

> <Gold.Chemscore.DEClash>
0.7585

> <Gold.Chemscore.DEInternal>
3.1105

> <Gold.Chemscore.Rot>
1.0000

> <Gold.Chemscore.Internal.Correction>
   9.000000E+99

> <Gold.Chemscore.Hbonds>
donor molecule, donor type, donor heavy atom, donor atom, acceptor molecule, acceptor atom, score
      L1  H     5    27       P1  7948  0.96
      L1  H     8    28       P1  7948  0.90
      P1  H  6896  6909       L1    17  0.60
      P1  H  6931  6943       L1    16  0.48
      P1  H  6934  6947       L1    16  0.66
      P1  H 10785 10796       L1    22  0.93

> <Gold.Chemscore.Hbond.Weighted>
-16.3720

> <Gold.Chemscore.Metal.Weighted>
-0.0000

> <Gold.Chemscore.Lipo.Weighted>
-4.7011

> <Gold.Chemscore.Internal_Hbond.Weighted>
0.0000

> <Gold.Chemscore.DEClash.Weighted>
0.7585

> <Gold.Chemscore.DEInternal.Weighted>
3.1105

> <Gold.Chemscore.Rot.Weighted>
2.5600

> <Gold.Chemscore.Internal.Correction.Weighted>
   9.000000E+99

> <Gold.Protein.RotatedTorsions>
[ 6907 6896 6895 6894 ] final   30.24 input  -60.11 | X-H torsion
[ 7974 7965 7964 7962 ] final  -87.12 input  175.53 | X-H torsion
[ 8008 7997 7996 7995 ] final  166.74 input   59.86 | X-H torsion
[ 10167 10162 10161 10158 ] final  144.50 input  -65.29 | X-H torsion
[ 10718 10713 10712 10709 ] final   38.23 input   66.30 | X-H torsion
[ 10763 10752 10751 10750 ] final  -98.51 input  -60.55 | X-H torsion
[ 11005 11000 10999 10996 ] final    1.52 input  -57.11 | X-H torsion

> <Gold.Protein.ActiveResidues>
 VAL166  LYS551  ARG553  GLY616  TRP617  ASP618  TYR619  PRO620  LYS621  CYS622 
 ASP623  PHE694  ASN695  SER759  ASP760  ASP761  ALA762  ILE779  LEU786  VAL792 
 PHE793  MET794  SER795  GLU796  ALA797  LYS798  CYS799  TRP800  GLU811  SER814 

> <Gold.Protein.RotatedAtoms>
  152.0431  134.9699  160.0573 H   0  0  0  0  0  0  0  0  0  0  0  0  # atno 6907 bound_to 6896
  152.1130  133.4306  159.4648 H   0  0  0  0  0  0  0  0  0  0  0  0  # atno 6908 bound_to 6896
  150.6844  134.2545  159.4567 H   0  0  0  0  0  0  0  0  0  0  0  0  # atno 6909 bound_to 6896
  145.4707  140.9559  143.1918 H   0  0  0  0  0  0  0  0  0  0  0  0  # atno 7974 bound_to 7965
  156.1693  140.1635  156.8476 H   0  0  0  0  0  0  0  0  0  0  0  0  # atno 8008 bound_to 7997
  154.5240  140.0772  156.8258 H   0  0  0  0  0  0  0  0  0  0  0  0  # atno 8009 bound_to 7997
  155.3546  140.3392  155.4242 H   0  0  0  0  0  0  0  0  0  0  0  0  # atno 8010 bound_to 7997
  139.4946  144.5967  151.6567 H   0  0  0  0  0  0  0  0  0  0  0  0  # atno 10167 bound_to 10162
  157.3563  130.7625  149.7015 H   0  0  0  0  0  0  0  0  0  0  0  0  # atno 10718 bound_to 10713
  154.7420  135.5007  153.9139 H   0  0  0  0  0  0  0  0  0  0  0  0  # atno 10763 bound_to 10752
  153.1053  135.6695  153.9606 H   0  0  0  0  0  0  0  0  0  0  0  0  # atno 10764 bound_to 10752
  153.9381  135.3070  155.3423 H   0  0  0  0  0  0  0  0  0  0  0  0  # atno 10765 bound_to 10752
  140.6145  133.9718  155.8193 H   0  0  0  0  0  0  0  0  0  0  0  0  # atno 11005 bound_to 11000
  144.7947  139.6258  143.7098 LP  0  0  0  0  0  0  0  0  0  0  0  0  # atno 17320 bound_to 7965
  146.2398  139.5978  142.9499 LP  0  0  0  0  0  0  0  0  0  0  0  0  # atno 17321 bound_to 7965
  140.5607  144.0273  150.6168 LP  0  0  0  0  0  0  0  0  0  0  0  0  # atno 17342 bound_to 10162
  140.3358  143.3050  152.0640 LP  0  0  0  0  0  0  0  0  0  0  0  0  # atno 17343 bound_to 10162
  155.9730  130.4126  150.4041 LP  0  0  0  0  0  0  0  0  0  0  0  0  # atno 17370 bound_to 10713
  157.2112  131.0461  151.2598 LP  0  0  0  0  0  0  0  0  0  0  0  0  # atno 17371 bound_to 10713
  141.0785  134.0098  157.3421 LP  0  0  0  0  0  0  0  0  0  0  0  0  # atno 17394 bound_to 11000
  139.9178  135.0198  156.7950 LP  0  0  0  0  0  0  0  0  0  0  0  0  # atno 17395 bound_to 11000

$$$$
