#       Name:                AV-unprocessed.smi:1430
#       Creating user name   scv26
#       Creation time:       Fri Mar 27 05:48:33 2020


#       File generated by GOLD software.
#

@<TRIPOS>MOLECULE
AV-unprocessed.smi:1430
    54    55     1
SMALL
NO_CHARGES


@<TRIPOS>ATOM
      1 ****        -6.6388   3.4370   1.2260 C.3            1 S1                 0.0000
      2 ****        -5.4926   3.7452   0.4401 O.3            1 S1                 0.0000
      3 ****        -4.3092   3.0956   0.7252 C.ar           1 S1                 0.0000
      4 ****        -3.1743   3.3875  -0.0569 C.ar           1 S1                 0.0000
      5 ****        -1.9627   2.7286   0.2266 C.ar           1 S1                 0.0000
      6 ****        -1.9220   1.7998   1.2943 C.ar           1 S1                 0.0000
      7 ****        -0.7704   1.0556   1.6697 N.am           1 S1                 0.0000
      8 ****         0.5186   1.3029   1.3822 C.2            1 S1                 0.0000
      9 ****         0.9375   2.2847   0.7710 O.2            1 S1                 0.0000
     10 ****         1.3160   0.3330   1.8531 N.am           1 S1                 0.0000
     11 ****         2.7706   0.2881   1.7077 C.3            1 S1                 0.0000
     12 ****         3.2397   0.1461   0.2424 C.3            1 S1                 0.0000
     13 ****         2.4467  -0.8477  -0.5234 N.4            1 S1                 1.0000
     14 ****         2.5091  -0.6358  -1.9874 C.3            1 S1                 0.0000
     15 ****         1.5809  -1.6232  -2.7205 C.3            1 S1                 0.0000
     16 ****         0.0863  -1.2888  -2.5623 C.3            1 S1                 0.0000
     17 ****         1.8804  -2.9631  -2.3267 O.3            1 S1                 0.0000
     18 ****         1.8151  -3.2080  -0.9234 C.3            1 S1                 0.0000
     19 ****         2.1748  -4.6782  -0.6831 C.3            1 S1                 0.0000
     20 ****         2.7725  -2.2527  -0.1885 C.3            1 S1                 0.0000
     21 ****        -3.1167   1.5700   2.0076 C.ar           1 S1                 0.0000
     22 ****        -4.2812   2.1973   1.7404 N.ar           1 S1                 0.0000
     23 ****        -7.4849   4.0283   0.8765 H              1 S1                 0.0000
     24 ****        -6.4785   3.6780   2.2778 H              1 S1                 0.0000
     25 ****        -6.9120   2.3845   1.1371 H              1 S1                 0.0000
     26 ****        -3.2332   4.1018  -0.8650 H              1 S1                 0.0000
     27 ****        -1.1015   2.9392  -0.3876 H              1 S1                 0.0000
     28 ****        -0.9496   0.2551   2.2581 H              1 S1                 0.0000
     29 ****         0.8869  -0.4286   2.3588 H              1 S1                 0.0000
     30 ****         3.2134   1.1767   2.1599 H              1 S1                 0.0000
     31 ****         3.1306  -0.5586   2.2921 H              1 S1                 0.0000
     32 ****         3.1399   1.1195  -0.2394 H              1 S1                 0.0000
     33 ****         4.3014  -0.1007   0.1990 H              1 S1                 0.0000
     34 ****         2.2276   0.3891  -2.2330 H              1 S1                 0.0000
     35 ****         3.5381  -0.7719  -2.3249 H              1 S1                 0.0000
     36 ****         1.8065  -1.5640  -3.7857 H              1 S1                 0.0000
     37 ****        -0.1389  -0.3133  -2.9942 H              1 S1                 0.0000
     38 ****        -0.2246  -1.2573  -1.5183 H              1 S1                 0.0000
     39 ****        -0.5329  -2.0255  -3.0744 H              1 S1                 0.0000
     40 ****         0.7965  -3.0476  -0.5695 H              1 S1                 0.0000
     41 ****         2.1377  -4.9236   0.3785 H              1 S1                 0.0000
     42 ****         3.1790  -4.9035  -1.0437 H              1 S1                 0.0000
     43 ****         1.4796  -5.3395  -1.2009 H              1 S1                 0.0000
     44 ****         3.8073  -2.4633  -0.4642 H              1 S1                 0.0000
     45 ****         2.6892  -2.4106   0.8869 H              1 S1                 0.0000
     46 ****        -3.1407   0.8603   2.8218 H              1 S1                 0.0000
     47 ****         1.4828  -0.6975  -0.2616 H              1 S1                 0.0000
     48 ****        -5.3226   4.7259   0.5367 LP             1 S1                 0.0000
     49 ****        -5.7218   3.5387  -0.5111 LP             1 S1                 0.0000
     50 ****         0.2979   2.9802   0.4437 LP             1 S1                 0.0000
     51 ****         1.9177   2.3873   0.6015 LP             1 S1                 0.0000
     52 ****         2.8068  -3.1776  -2.6362 LP             1 S1                 0.0000
     53 ****         1.2286  -3.5722  -2.7785 LP             1 S1                 0.0000
     54 ****        -5.1025   2.0045   2.2774 LP             1 S1                 0.0000
@<TRIPOS>BOND
    1    1    2 1     
    2    1   23 1     
    3    1   24 1     
    4    1   25 1     
    5    2    3 1     
    6    3   22 ar    
    7    3    4 ar    
    8    4    5 ar    
    9    4   26 1     
   10    5    6 ar    
   11    5   27 1     
   12    6    7 1     
   13    6   21 ar    
   14    7    8 am    
   15    7   28 1     
   16    8    9 2     
   17    8   10 am    
   18   10   11 1     
   19   10   29 1     
   20   11   12 1     
   21   11   30 1     
   22   11   31 1     
   23   12   13 1     
   24   12   32 1     
   25   12   33 1     
   26   13   20 1     
   27   13   14 1     
   28   13   47 1     
   29   14   15 1     
   30   14   34 1     
   31   14   35 1     
   32   15   16 1     
   33   15   17 1     
   34   15   36 1     
   35   16   37 1     
   36   16   38 1     
   37   16   39 1     
   38   17   18 1     
   39   18   19 1     
   40   18   20 1     
   41   18   40 1     
   42   19   41 1     
   43   19   42 1     
   44   19   43 1     
   45   20   44 1     
   46   20   45 1     
   47   21   22 ar    
   48   21   46 1     
   49    2   48 1     
   50    2   49 1     
   51    9   50 1     
   52    9   51 1     
   53   17   52 1     
   54   17   53 1     
   55   22   54 1     
@<TRIPOS>SUBSTRUCTURE
      1 S1             1
@<TRIPOS>SET
LONE_PAIRS      STATIC     ATOMS    <user>   **** ""
7 48 49 50 51 52 53 54
DONOR_HYDROGENS      STATIC     ATOMS    <user>   **** ""
3 28 29 47
ATOM$BLUE        STATIC     ATOMS    COLORGROUP SYSTEM
7 48 49 50 51 52 53 54
ATOM$RED        STATIC     ATOMS    COLORGROUP SYSTEM
3 28 29 47
