AV-unprocessed.smi:3287|AV-procd|sdf|12604|dock1
  -GOLD-   2272018533D 1   1.00000     0.00000
 Structure written by MMmdl.
 43 44  0  0  0  0  0  0  0  0  2 V2000
  147.9165  141.4891  156.3237 C   0  0  0  0  0  0  0  0  0  0  0  0
  148.5115  141.6312  154.9082 C   0  0  2  0  0  0  0  0  0  0  0  0
  147.4080  141.6739  153.8312 C   0  0  0  0  0  0  0  0  0  0  0  0
  146.7620  140.2977  153.5935 C   0  0  0  0  0  0  0  0  0  0  0  0
  147.8202  139.2348  153.2328 C   0  0  2  0  0  0  0  0  0  0  0  0
  147.2192  137.8943  153.0532 N   0  3  0  0  0  0  0  0  0  0  0  0
  146.1583  137.8067  152.0264 C   0  0  0  0  0  0  0  0  0  0  0  0
  145.0250  136.8633  152.4651 C   0  0  1  0  0  0  0  0  0  0  0  0
  143.7859  137.5216  152.2862 O   0  0  0  0  0  0  0  0  0  0  0  0
  145.0842  135.5503  151.7003 C   0  0  0  0  0  0  0  0  0  0  0  0
  143.9979  135.1138  150.9108 C   0  0  0  0  0  0  0  0  0  0  0  0
  144.1183  133.8952  150.2136 C   0  0  0  0  0  0  0  0  0  0  0  0
  145.2237  133.1214  150.2594 N   0  0  0  0  0  0  0  0  0  0  0  0
  146.2600  133.5437  151.0148 C   0  0  0  0  0  0  0  0  0  0  0  0
  146.2418  134.7457  151.7505 C   0  0  0  0  0  0  0  0  0  0  0  0
  148.9127  139.1743  154.3166 C   0  0  0  0  0  0  0  0  0  0  0  0
  149.5651  140.5520  154.5487 C   0  0  2  0  0  0  0  0  0  0  0  0
  150.7241  140.4716  155.5560 C   0  0  0  0  0  0  0  0  0  0  0  0
  147.4323  140.5247  156.4730 H   0  0  0  0  0  0  0  0  0  0  0  0
  147.1703  142.2621  156.5091 H   0  0  0  0  0  0  0  0  0  0  0  0
  148.6814  141.5990  157.0921 H   0  0  0  0  0  0  0  0  0  0  0  0
  149.0150  142.5988  154.8846 H   0  0  0  0  0  0  0  0  0  0  0  0
  146.6430  142.4022  154.1033 H   0  0  0  0  0  0  0  0  0  0  0  0
  147.8381  142.0283  152.8933 H   0  0  0  0  0  0  0  0  0  0  0  0
  146.2096  139.9884  154.4814 H   0  0  0  0  0  0  0  0  0  0  0  0
  146.0267  140.3934  152.7948 H   0  0  0  0  0  0  0  0  0  0  0  0
  148.2974  139.5173  152.2931 H   0  0  0  0  0  0  0  0  0  0  0  0
  147.9582  137.2648  152.7750 H   0  0  0  0  0  0  0  0  0  0  0  0
  145.7576  138.7983  151.8149 H   0  0  0  0  0  0  0  0  0  0  0  0
  146.5992  137.4346  151.1004 H   0  0  0  0  0  0  0  0  0  0  0  0
  145.1280  136.6474  153.5297 H   0  0  0  0  0  0  0  0  0  0  0  0
  143.9307  138.4541  152.3477 H   0  0  0  0  0  0  0  0  0  0  0  0
  143.0917  135.6972  150.8352 H   0  0  0  0  0  0  0  0  0  0  0  0
  143.3057  133.5345  149.6004 H   0  0  0  0  0  0  0  0  0  0  0  0
  147.1317  132.9063  151.0319 H   0  0  0  0  0  0  0  0  0  0  0  0
  147.1007  135.0385  152.3366 H   0  0  0  0  0  0  0  0  0  0  0  0
  148.4925  138.7990  155.2507 H   0  0  0  0  0  0  0  0  0  0  0  0
  149.6782  138.4564  154.0192 H   0  0  0  0  0  0  0  0  0  0  0  0
  150.0107  140.8543  153.5993 H   0  0  0  0  0  0  0  0  0  0  0  0
  150.3949  140.0923  156.5235 H   0  0  0  0  0  0  0  0  0  0  0  0
  151.1768  141.4508  155.7146 H   0  0  0  0  0  0  0  0  0  0  0  0
  151.5068  139.8038  155.1951 H   0  0  0  0  0  0  0  0  0  0  0  0
  146.8468  137.5769  153.9370 H   0  0  0  0  0  0  0  0  0  0  0  0
  1  2  1  0  0  0  0
  1 19  1  0  0  0  0
  1 20  1  0  0  0  0
  1 21  1  0  0  0  0
  2 17  1  0  0  0  0
  2  3  1  0  0  0  0
  2 22  1  0  0  0  0
  3  4  1  0  0  0  0
  3 23  1  0  0  0  0
  3 24  1  0  0  0  0
  4  5  1  0  0  0  0
  4 25  1  0  0  0  0
  4 26  1  0  0  0  0
  5  6  1  0  0  0  0
  5 16  1  0  0  0  0
  5 27  1  0  0  0  0
  6  7  1  0  0  0  0
  6 28  1  0  0  0  0
  6 43  1  0  0  0  0
  7  8  1  0  0  0  0
  7 29  1  0  0  0  0
  7 30  1  0  0  0  0
  8  9  1  0  0  0  0
  8 10  1  0  0  0  0
  8 31  1  0  0  0  0
  9 32  1  0  0  0  0
 10 15  1  0  0  0  0
 10 11  2  0  0  0  0
 11 12  1  0  0  0  0
 11 33  1  0  0  0  0
 12 13  2  0  0  0  0
 12 34  1  0  0  0  0
 13 14  1  0  0  0  0
 14 15  2  0  0  0  0
 14 35  1  0  0  0  0
 15 36  1  0  0  0  0
 16 17  1  0  0  0  0
 16 37  1  0  0  0  0
 16 38  1  0  0  0  0
 17 18  1  0  0  0  0
 17 39  1  0  0  0  0
 18 40  1  0  0  0  0
 18 41  1  0  0  0  0
 18 42  1  0  0  0  0
M  CHG  1   6   1
M  END
> <s_m_source_file>
AV-unprocessed.smi

> <i_m_source_file_index>
3287

> <i_lp_mmshare_version>
43012

> <i_f3d_flags>
0

> <s_epik_input>
W0NIM11bQ0BASF0xW0NIMl1bQ0gyXVtDQEhdKFtDSDJdW0NASF0xW0NIM10pW05IXVtDSDJdW0NASF0oW09IXSljMltjSF1bY0hdbltjSF1bY0hdMg==

> <s_epik_cmdline>
J2VwaWtfcHl0aG9uJywgJy1waCcsICc3LjAnLCAnLXRuJywgJzgnLCAnLW1hJywgJzIwMCcsICctbWV0YWxfYmluZGluZycsICctaW1hZScsICc8aW5maWxlLm1hZT4nLCAnLW9tYWUnLCAnPG91dGZpbGUubWFlPic=

> <r_lp_tautomer_probability>
1

> <r_epik_Ionization_Penalty>
0.00537262

> <r_epik_Ionization_Penalty_Charging>
0.00321624

> <r_epik_Ionization_Penalty_Neutral>
0.00215638

> <r_epik_State_Penalty>
-0

> <r_epik_Charging_Adjusted_Penalty>
0.00321624

> <i_epik_Tot_Q>
1

> <i_epik_Tot_abs_Q>
1

> <r_epik_Metal_State_Penalty>
-0

> <b_epik_Metal_Only>
0

> <s_lp_Force_Field>
OPLS_2005

> <r_lp_Energy>
17.5476

> <b_lp_Chiralities_Consistent>
1

> <s_lp_Variant>
AV-unprocessed.smi:3287-15

> <Gold.Version>
5.8.1

> <Gold.Id.Protein>
6NUR|6NUR_protein|mol2

> <Gold.PLP.Fitness>
44.0493

> <Gold.PLP.PLP>
-33.4271

> <Gold.PLP.part.hbond>
-3.0000

> <Gold.PLP.part.metal>
0.0000

> <Gold.PLP.part.buried>
1.7529

> <Gold.PLP.part.nonpolar>
-32.7344

> <Gold.PLP.part.repulsive>
0.1943

> <Gold.PLP.ligand.clash>
0.0000

> <Gold.PLP.ligand.torsion>
0.9445

> <Gold.PLP.Chemscore.Hbond>
3.0000

> <Gold.PLP.Chemscore.CHOScore>
1.1554

> <Gold.PLP.Chemscore.Metal>
0.0000

> <Gold.Chemscore.Hbonds>
donor molecule, donor type, donor heavy atom, donor atom, acceptor molecule, acceptor atom, score
      L1  H     6    28       P1  7948  2.00
      L1  H     9    32       P1 10175  1.00
      L1  C    12    34       P1 10186  0.93
      L1  C    14    35       P1 10747  0.19

> <Gold.PLP.Chemscore.Internal.Correction>
0.0450

> <Gold.Rescore>
     Score         DG    S(hbond)    S(metal)    S(lipo)     H(rot)  DE(clash)    DE(int)     intcor
     15.85     -17.70       1.97        0.00      89.91       1.90       0.86       0.99       ----

> <Gold.Chemscore.Fitness>
15.8550

> <Gold.Chemscore.DG>
-17.7047

> <Gold.Chemscore.ZeroCoef>
-5.4800

> <Gold.Chemscore.Hbond>
1.9694

> <Gold.Chemscore.Metal>
0.0000

> <Gold.Chemscore.Lipo>
89.9124

> <Gold.Chemscore.Internal_Hbond>
0.0000

> <Gold.Chemscore.DEClash>
0.8594

> <Gold.Chemscore.DEInternal>
0.9903

> <Gold.Chemscore.Rot>
1.9035

> <Gold.Chemscore.Internal.Correction>
   9.000000E+99

> <Gold.Chemscore.Hbonds>
donor molecule, donor type, donor heavy atom, donor atom, acceptor molecule, acceptor atom, score
      L1  H     6    28       P1  7948  1.00
      L1  H     9    32       P1 10175  0.96

> <Gold.Chemscore.Hbond.Weighted>
-6.5778

> <Gold.Chemscore.Metal.Weighted>
-0.0000

> <Gold.Chemscore.Lipo.Weighted>
-10.5197

> <Gold.Chemscore.Internal_Hbond.Weighted>
0.0000

> <Gold.Chemscore.DEClash.Weighted>
0.8594

> <Gold.Chemscore.DEInternal.Weighted>
0.9903

> <Gold.Chemscore.Rot.Weighted>
4.8729

> <Gold.Chemscore.Internal.Correction.Weighted>
   9.000000E+99

> <Gold.Protein.RotatedTorsions>
[ 6907 6896 6895 6894 ] final  105.15 input  -60.11 | X-H torsion
[ 7974 7965 7964 7962 ] final  -95.56 input  175.53 | X-H torsion
[ 8008 7997 7996 7995 ] final  -82.59 input   59.86 | X-H torsion
[ 10167 10162 10161 10158 ] final   45.52 input  -65.29 | X-H torsion
[ 10718 10713 10712 10709 ] final   69.34 input   66.30 | X-H torsion
[ 10763 10752 10751 10750 ] final  -16.82 input  -60.55 | X-H torsion
[ 11005 11000 10999 10996 ] final   40.28 input  -57.11 | X-H torsion

> <Gold.Protein.ActiveResidues>
 VAL166  LYS551  ARG553  GLY616  TRP617  ASP618  TYR619  PRO620  LYS621  CYS622 
 ASP623  PHE694  ASN695  SER759  ASP760  ASP761  ALA762  ILE779  LEU786  VAL792 
 PHE793  MET794  SER795  GLU796  ALA797  LYS798  CYS799  TRP800  GLU811  SER814 

> <Gold.Protein.RotatedAtoms>
  152.5240  133.9572  159.7699 H   0  0  0  0  0  0  0  0  0  0  0  0  # atno 6907 bound_to 6896
  150.9870  133.6180  159.2721 H   0  0  0  0  0  0  0  0  0  0  0  0  # atno 6908 bound_to 6896
  151.3337  135.0853  159.9400 H   0  0  0  0  0  0  0  0  0  0  0  0  # atno 6909 bound_to 6896
  145.3584  140.9488  143.2514 H   0  0  0  0  0  0  0  0  0  0  0  0  # atno 7974 bound_to 7965
  154.6101  140.0631  156.9483 H   0  0  0  0  0  0  0  0  0  0  0  0  # atno 8008 bound_to 7997
  155.1987  140.3313  155.4328 H   0  0  0  0  0  0  0  0  0  0  0  0  # atno 8009 bound_to 7997
  156.2372  140.1868  156.7072 H   0  0  0  0  0  0  0  0  0  0  0  0  # atno 8010 bound_to 7997
  140.3233  144.2678  150.6179 H   0  0  0  0  0  0  0  0  0  0  0  0  # atno 10167 bound_to 10162
  157.6340  130.9420  150.0500 H   0  0  0  0  0  0  0  0  0  0  0  0  # atno 10718 bound_to 10713
  153.5644  135.7009  153.5532 H   0  0  0  0  0  0  0  0  0  0  0  0  # atno 10763 bound_to 10752
  153.3400  135.4023  155.1564 H   0  0  0  0  0  0  0  0  0  0  0  0  # atno 10764 bound_to 10752
  154.8643  135.3740  154.5163 H   0  0  0  0  0  0  0  0  0  0  0  0  # atno 10765 bound_to 10752
  140.1945  134.3945  155.8128 H   0  0  0  0  0  0  0  0  0  0  0  0  # atno 11005 bound_to 11000
  144.8664  139.5101  143.6788 LP  0  0  0  0  0  0  0  0  0  0  0  0  # atno 17320 bound_to 7965
  146.2938  139.7216  142.9142 LP  0  0  0  0  0  0  0  0  0  0  0  0  # atno 17321 bound_to 7965
  140.5463  143.2214  151.8001 LP  0  0  0  0  0  0  0  0  0  0  0  0  # atno 17342 bound_to 10162
  139.4870  144.4534  151.9626 LP  0  0  0  0  0  0  0  0  0  0  0  0  # atno 17343 bound_to 10162
  156.1565  130.3643  149.9362 LP  0  0  0  0  0  0  0  0  0  0  0  0  # atno 17370 bound_to 10713
  156.7369  130.9065  151.3629 LP  0  0  0  0  0  0  0  0  0  0  0  0  # atno 17371 bound_to 10713
  141.2227  133.7063  156.8153 LP  0  0  0  0  0  0  0  0  0  0  0  0  # atno 17394 bound_to 11000
  140.2122  134.8819  157.3287 LP  0  0  0  0  0  0  0  0  0  0  0  0  # atno 17395 bound_to 11000

$$$$
