AV-unprocessed.smi:910|AV-procd|sdf|4133|dock2
  -GOLD-   22720 2 33D 1   1.00000     0.00000
 Structure written by MMmdl.
 45 46  0  0  0  0  0  0  0  0  2 V2000
  150.3660  132.6434  161.6092 C   0  0  0  0  0  0  0  0  0  0  0  0
  150.3779  134.0505  161.1019 C   0  0  0  0  0  0  0  0  0  0  0  0
  150.3199  134.3471  159.7493 N   0  0  0  0  0  0  0  0  0  0  0  0
  150.3406  135.6791  159.6677 C   0  0  0  0  0  0  0  0  0  0  0  0
  150.2848  136.4047  158.5394 N   0  5  0  0  0  0  0  0  0  0  0  0
  151.1921  137.3865  158.3369 C   0  0  0  0  0  0  0  0  0  0  0  0
  152.3911  137.3395  158.6225 O   0  0  0  0  0  0  0  0  0  0  0  0
  150.6752  138.4991  157.7952 N   0  0  0  0  0  0  0  0  0  0  0  0
  151.3849  139.7593  157.5932 C   0  0  0  0  0  0  0  0  0  0  0  0
  150.6979  140.9067  158.3504 C   0  0  0  0  0  0  0  0  0  0  0  0
  151.6199  141.4552  159.2800 O   0  0  0  0  0  0  0  0  0  0  0  0
  152.3459  142.5946  158.8372 C   0  0  1  0  0  0  0  0  0  0  0  0
  151.3955  143.7818  158.5630 C   0  0  0  0  0  0  0  0  0  0  0  0
  150.6742  144.2422  159.8408 C   0  0  0  0  0  0  0  0  0  0  0  0
  151.6746  144.5880  160.9534 C   0  0  0  0  0  0  0  0  0  0  0  0
  152.6358  143.4203  161.2272 C   0  0  0  0  0  0  0  0  0  0  0  0
  153.3603  142.9651  159.9428 C   0  0  1  0  0  0  0  0  0  0  0  0
  154.3531  141.8257  160.2213 C   0  0  0  0  0  0  0  0  0  0  0  0
  150.4279  136.2671  160.8944 O   0  0  0  0  0  0  0  0  0  0  0  0
  150.4471  135.2324  161.7894 C   0  0  0  0  0  0  0  0  0  0  0  0
  150.5308  135.5647  163.2402 C   0  0  0  0  0  0  0  0  0  0  0  0
  151.3755  132.2344  161.6505 H   0  0  0  0  0  0  0  0  0  0  0  0
  149.7710  131.9952  160.9652 H   0  0  0  0  0  0  0  0  0  0  0  0
  149.9440  132.5875  162.6127 H   0  0  0  0  0  0  0  0  0  0  0  0
  149.6913  138.4890  157.5705 H   0  0  0  0  0  0  0  0  0  0  0  0
  152.4324  139.6728  157.8865 H   0  0  0  0  0  0  0  0  0  0  0  0
  151.3804  139.9743  156.5248 H   0  0  0  0  0  0  0  0  0  0  0  0
  150.3861  141.6850  157.6529 H   0  0  0  0  0  0  0  0  0  0  0  0
  149.8001  140.5337  158.8423 H   0  0  0  0  0  0  0  0  0  0  0  0
  152.8926  142.3445  157.9263 H   0  0  0  0  0  0  0  0  0  0  0  0
  151.9733  144.6151  158.1617 H   0  0  0  0  0  0  0  0  0  0  0  0
  150.6644  143.5332  157.7949 H   0  0  0  0  0  0  0  0  0  0  0  0
  150.0478  145.1075  159.6238 H   0  0  0  0  0  0  0  0  0  0  0  0
  150.0018  143.4571  160.1859 H   0  0  0  0  0  0  0  0  0  0  0  0
  152.2464  145.4716  160.6676 H   0  0  0  0  0  0  0  0  0  0  0  0
  151.1368  144.8478  161.8658 H   0  0  0  0  0  0  0  0  0  0  0  0
  153.3648  143.7198  161.9805 H   0  0  0  0  0  0  0  0  0  0  0  0
  152.0788  142.5859  161.6557 H   0  0  0  0  0  0  0  0  0  0  0  0
  153.9453  143.8114  159.5796 H   0  0  0  0  0  0  0  0  0  0  0  0
  153.8483  140.9440  160.6175 H   0  0  0  0  0  0  0  0  0  0  0  0
  155.1048  142.1310  160.9494 H   0  0  0  0  0  0  0  0  0  0  0  0
  154.8760  141.5301  159.3116 H   0  0  0  0  0  0  0  0  0  0  0  0
  149.6033  135.3025  163.7493 H   0  0  0  0  0  0  0  0  0  0  0  0
  150.7091  136.6300  163.3887 H   0  0  0  0  0  0  0  0  0  0  0  0
  151.3447  135.0164  163.7147 H   0  0  0  0  0  0  0  0  0  0  0  0
  1 22  1  0  0  0  0
  1 23  1  0  0  0  0
  1 24  1  0  0  0  0
  1  2  1  0  0  0  0
  2  3  1  0  0  0  0
  2 20  2  0  0  0  0
  3  4  2  0  0  0  0
  4 19  1  0  0  0  0
  4  5  1  0  0  0  0
  5  6  1  0  0  0  0
  6  8  1  0  0  0  0
  6  7  2  0  0  0  0
  8  9  1  0  0  0  0
  8 25  1  0  0  0  0
  9 10  1  0  0  0  0
  9 26  1  0  0  0  0
  9 27  1  0  0  0  0
 10 11  1  0  0  0  0
 10 28  1  0  0  0  0
 10 29  1  0  0  0  0
 11 12  1  0  0  0  0
 12 17  1  0  0  0  0
 12 13  1  0  0  0  0
 12 30  1  0  0  0  0
 13 14  1  0  0  0  0
 13 31  1  0  0  0  0
 13 32  1  0  0  0  0
 14 15  1  0  0  0  0
 14 33  1  0  0  0  0
 14 34  1  0  0  0  0
 15 16  1  0  0  0  0
 15 35  1  0  0  0  0
 15 36  1  0  0  0  0
 16 17  1  0  0  0  0
 16 37  1  0  0  0  0
 16 38  1  0  0  0  0
 17 18  1  0  0  0  0
 17 39  1  0  0  0  0
 18 40  1  0  0  0  0
 18 41  1  0  0  0  0
 18 42  1  0  0  0  0
 19 20  1  0  0  0  0
 20 21  1  0  0  0  0
 21 43  1  0  0  0  0
 21 44  1  0  0  0  0
 21 45  1  0  0  0  0
M  CHG  1   5  -1
M  END
> <s_m_source_file>
AV-unprocessed.smi

> <i_m_source_file_index>
910

> <i_lp_mmshare_version>
43012

> <i_f3d_flags>
0

> <s_epik_input>
W0NIM11jMW5jKG9jMVtDSDNdKVtOSF1DKD1PKVtOSF1bQ0gyXVtDSDJdT1tDQEBIXTJbQ0gyXVtDSDJdW0NIMl1bQ0gyXVtDQEhdMltDSDNd

> <s_epik_cmdline>
J2VwaWtfcHl0aG9uJywgJy1waCcsICc3LjAnLCAnLXRuJywgJzgnLCAnLW1hJywgJzIwMCcsICctbWV0YWxfYmluZGluZycsICctaW1hZScsICc8aW5maWxlLm1hZT4nLCAnLW9tYWUnLCAnPG91dGZpbGUubWFlPic=

> <r_lp_tautomer_probability>
0.107061

> <r_epik_Ionization_Penalty>
10.1763

> <r_epik_Ionization_Penalty_Charging>
7.13067

> <r_epik_Ionization_Penalty_Neutral>
3.04564

> <r_epik_State_Penalty>
5.57927

> <r_epik_Charging_Adjusted_Penalty>
12.7099

> <i_epik_Tot_Q>
-1

> <i_epik_Tot_abs_Q>
1

> <r_epik_Metal_State_Penalty>
1.52303

> <b_epik_Metal_Only>
1

> <s_lp_Force_Field>
OPLS_2005

> <r_lp_Energy>
4.58121

> <b_lp_Chiralities_Consistent>
1

> <s_lp_Variant>
AV-unprocessed.smi:910-18

> <Gold.Version>
5.8.1

> <Gold.Id.Protein>
6NUR|6NUR_protein|mol2

> <Gold.PLP.Fitness>
55.0122

> <Gold.PLP.PLP>
-50.6812

> <Gold.PLP.part.hbond>
-3.2379

> <Gold.PLP.part.metal>
0.0000

> <Gold.PLP.part.buried>
-7.0286

> <Gold.PLP.part.nonpolar>
-41.8242

> <Gold.PLP.part.repulsive>
0.0956

> <Gold.PLP.ligand.clash>
0.0000

> <Gold.PLP.ligand.torsion>
1.3655

> <Gold.PLP.Chemscore.Hbond>
2.3074

> <Gold.PLP.Chemscore.CHOScore>
0.0000

> <Gold.PLP.Chemscore.Metal>
0.0000

> <Gold.PLP.Chemscore.Internal.Correction>
0.1398

> <Gold.Rescore>
     Score         DG    S(hbond)    S(metal)    S(lipo)     H(rot)  DE(clash)    DE(int)     intcor
     20.97     -23.67       2.49        0.00     119.66       1.62       1.24       1.45       ----

> <Gold.Chemscore.Fitness>
20.9745

> <Gold.Chemscore.DG>
-23.6664

> <Gold.Chemscore.ZeroCoef>
-5.4800

> <Gold.Chemscore.Hbond>
2.4926

> <Gold.Chemscore.Metal>
0.0000

> <Gold.Chemscore.Lipo>
119.6600

> <Gold.Chemscore.Internal_Hbond>
0.0000

> <Gold.Chemscore.DEClash>
1.2447

> <Gold.Chemscore.DEInternal>
1.4472

> <Gold.Chemscore.Rot>
1.6169

> <Gold.Chemscore.Internal.Correction>
   9.000000E+99

> <Gold.Chemscore.Hbond.Weighted>
-8.3254

> <Gold.Chemscore.Metal.Weighted>
-0.0000

> <Gold.Chemscore.Lipo.Weighted>
-14.0002

> <Gold.Chemscore.Internal_Hbond.Weighted>
0.0000

> <Gold.Chemscore.DEClash.Weighted>
1.2447

> <Gold.Chemscore.DEInternal.Weighted>
1.4472

> <Gold.Chemscore.Rot.Weighted>
4.1393

> <Gold.Chemscore.Internal.Correction.Weighted>
   9.000000E+99

> <Gold.Protein.RotatedTorsions>
[ 6907 6896 6895 6894 ] final -141.91 input  -60.11 | X-H torsion
[ 7974 7965 7964 7962 ] final -112.70 input  175.53 | X-H torsion
[ 8008 7997 7996 7995 ] final   39.00 input   59.86 | X-H torsion
[ 10167 10162 10161 10158 ] final  -89.18 input  -65.29 | X-H torsion
[ 10718 10713 10712 10709 ] final -153.09 input   66.30 | X-H torsion
[ 10763 10752 10751 10750 ] final   75.77 input  -60.55 | X-H torsion
[ 11005 11000 10999 10996 ] final   43.25 input  -57.11 | X-H torsion

> <Gold.Protein.ActiveResidues>
 VAL166  LYS551  ARG553  GLY616  TRP617  ASP618  TYR619  PRO620  LYS621  CYS622 
 ASP623  PHE694  ASN695  SER759  ASP760  ASP761  ALA762  ILE779  LEU786  VAL792 
 PHE793  MET794  SER795  GLU796  ALA797  LYS798  CYS799  TRP800  GLU811  SER814 

> <Gold.Protein.RotatedAtoms>
  151.0801  133.5397  159.2621 H   0  0  0  0  0  0  0  0  0  0  0  0  # atno 6907 bound_to 6896
  151.2304  135.0551  159.8995 H   0  0  0  0  0  0  0  0  0  0  0  0  # atno 6908 bound_to 6896
  152.5422  134.0591  159.8197 H   0  0  0  0  0  0  0  0  0  0  0  0  # atno 6909 bound_to 6896
  145.1409  140.8777  143.3703 H   0  0  0  0  0  0  0  0  0  0  0  0  # atno 7974 bound_to 7965
  155.2294  140.3337  155.4305 H   0  0  0  0  0  0  0  0  0  0  0  0  # atno 8008 bound_to 7997
  156.2301  140.1847  156.7310 H   0  0  0  0  0  0  0  0  0  0  0  0  # atno 8009 bound_to 7997
  154.5964  140.0630  156.9294 H   0  0  0  0  0  0  0  0  0  0  0  0  # atno 8010 bound_to 7997
  140.3674  143.2811  151.9542 H   0  0  0  0  0  0  0  0  0  0  0  0  # atno 10167 bound_to 10162
  156.4812  130.8304  151.2531 H   0  0  0  0  0  0  0  0  0  0  0  0  # atno 10718 bound_to 10713
  153.0678  135.4976  154.8238 H   0  0  0  0  0  0  0  0  0  0  0  0  # atno 10763 bound_to 10752
  154.6979  135.2996  154.9387 H   0  0  0  0  0  0  0  0  0  0  0  0  # atno 10764 bound_to 10752
  154.0120  135.6753  153.4819 H   0  0  0  0  0  0  0  0  0  0  0  0  # atno 10765 bound_to 10752
  140.1663  134.4278  155.8285 H   0  0  0  0  0  0  0  0  0  0  0  0  # atno 11005 bound_to 11000
  145.0533  139.3164  143.5917 LP  0  0  0  0  0  0  0  0  0  0  0  0  # atno 17320 bound_to 7965
  146.3505  139.9949  142.8682 LP  0  0  0  0  0  0  0  0  0  0  0  0  # atno 17321 bound_to 7965
  139.4807  144.5938  151.7726 LP  0  0  0  0  0  0  0  0  0  0  0  0  # atno 17342 bound_to 10162
  140.5067  144.1087  150.5984 LP  0  0  0  0  0  0  0  0  0  0  0  0  # atno 17343 bound_to 10162
  157.7483  131.0044  150.3075 LP  0  0  0  0  0  0  0  0  0  0  0  0  # atno 17370 bound_to 10713
  156.3520  130.3832  149.7321 LP  0  0  0  0  0  0  0  0  0  0  0  0  # atno 17371 bound_to 10713
  141.2214  133.6935  156.7683 LP  0  0  0  0  0  0  0  0  0  0  0  0  # atno 17394 bound_to 11000
  140.2430  134.8599  157.3592 LP  0  0  0  0  0  0  0  0  0  0  0  0  # atno 17395 bound_to 11000

$$$$
