AV-unprocessed.smi:2840|AV-procd|sdf|10931|dock1
  -GOLD-   2272015373D 1   1.00000     0.00000
 Structure written by MMmdl.
 36 37  0  0  0  0  0  0  0  0  1 V2000
  151.3402  145.4285  159.8234 C   0  0  0  0  0  0  0  0  0  0  0  0
  151.6912  143.9981  160.2702 C   0  0  2  0  0  0  0  0  0  0  0  0
  152.3476  144.0179  161.6657 C   0  0  0  0  0  0  0  0  0  0  0  0
  152.7049  142.6057  162.1524 C   0  0  0  0  0  0  0  0  0  0  0  0
  153.6170  141.8922  161.1459 C   0  0  0  0  0  0  0  0  0  0  0  0
  152.9692  141.8472  159.7547 C   0  0  0  0  0  0  0  0  0  0  0  0
  152.5952  143.2557  159.2516 C   0  0  1  0  0  0  0  0  0  0  0  0
  151.9272  143.1273  157.9569 N   0  0  0  0  0  0  0  0  0  0  0  0
  150.8125  142.4225  157.7105 C   0  0  0  0  0  0  0  0  0  0  0  0
  150.2106  141.7746  158.5674 O   0  0  0  0  0  0  0  0  0  0  0  0
  150.4551  142.5228  156.4183 N   0  0  0  0  0  0  0  0  0  0  0  0
  149.3526  141.9144  155.7611 C   0  0  0  0  0  0  0  0  0  0  0  0
  148.1961  141.7547  156.5574 C   0  0  0  0  0  0  0  0  0  0  0  0
  147.0459  141.1651  155.9982 C   0  0  0  0  0  0  0  0  0  0  0  0
  147.0819  140.7491  154.6554 C   0  0  0  0  0  0  0  0  0  0  0  0
  148.2729  140.9452  153.9323 C   0  0  0  0  0  0  0  0  0  0  0  0
  149.3762  141.5105  154.4663 N   0  0  0  0  0  0  0  0  0  0  0  0
  152.2399  146.0262  159.6734 H   0  0  0  0  0  0  0  0  0  0  0  0
  150.7270  145.9332  160.5704 H   0  0  0  0  0  0  0  0  0  0  0  0
  150.7777  145.4339  158.8900 H   0  0  0  0  0  0  0  0  0  0  0  0
  150.7546  143.4446  160.3565 H   0  0  0  0  0  0  0  0  0  0  0  0
  153.2503  144.6300  161.6388 H   0  0  0  0  0  0  0  0  0  0  0  0
  151.6783  144.4900  162.3858 H   0  0  0  0  0  0  0  0  0  0  0  0
  153.1952  142.6601  163.1247 H   0  0  0  0  0  0  0  0  0  0  0  0
  151.7926  142.0258  162.2971 H   0  0  0  0  0  0  0  0  0  0  0  0
  154.5756  142.4093  161.0879 H   0  0  0  0  0  0  0  0  0  0  0  0
  153.8307  140.8799  161.4898 H   0  0  0  0  0  0  0  0  0  0  0  0
  153.6515  141.3692  159.0507 H   0  0  0  0  0  0  0  0  0  0  0  0
  152.0782  141.2188  159.7941 H   0  0  0  0  0  0  0  0  0  0  0  0
  153.5219  143.8222  159.1404 H   0  0  0  0  0  0  0  0  0  0  0  0
  152.3496  143.6223  157.1852 H   0  0  0  0  0  0  0  0  0  0  0  0
  151.0429  143.0994  155.8349 H   0  0  0  0  0  0  0  0  0  0  0  0
  148.1859  142.0798  157.5879 H   0  0  0  0  0  0  0  0  0  0  0  0
  146.1521  141.0354  156.5901 H   0  0  0  0  0  0  0  0  0  0  0  0
  146.2198  140.2929  154.1915 H   0  0  0  0  0  0  0  0  0  0  0  0
  148.3419  140.6413  152.8982 H   0  0  0  0  0  0  0  0  0  0  0  0
  1  2  1  0  0  0  0
  1 18  1  0  0  0  0
  1 19  1  0  0  0  0
  1 20  1  0  0  0  0
  2  7  1  0  0  0  0
  2  3  1  0  0  0  0
  2 21  1  0  0  0  0
  3  4  1  0  0  0  0
  3 22  1  0  0  0  0
  3 23  1  0  0  0  0
  4  5  1  0  0  0  0
  4 24  1  0  0  0  0
  4 25  1  0  0  0  0
  5  6  1  0  0  0  0
  5 26  1  0  0  0  0
  5 27  1  0  0  0  0
  6  7  1  0  0  0  0
  6 28  1  0  0  0  0
  6 29  1  0  0  0  0
  7  8  1  0  0  0  0
  7 30  1  0  0  0  0
  8  9  1  0  0  0  0
  8 31  1  0  0  0  0
  9 10  2  0  0  0  0
  9 11  1  0  0  0  0
 11 12  1  0  0  0  0
 11 32  1  0  0  0  0
 12 17  1  0  0  0  0
 12 13  2  0  0  0  0
 13 14  1  0  0  0  0
 13 33  1  0  0  0  0
 14 15  2  0  0  0  0
 14 34  1  0  0  0  0
 15 16  1  0  0  0  0
 15 35  1  0  0  0  0
 16 17  2  0  0  0  0
 16 36  1  0  0  0  0
M  END
> <s_m_source_file>
AV-unprocessed.smi

> <i_m_source_file_index>
2840

> <i_lp_mmshare_version>
43012

> <i_f3d_flags>
0

> <s_epik_input>
W0NIM11bQ0BASF0xW0NIMl1bQ0gyXVtDSDJdW0NIMl1bQ0BIXTFbTkhdQyg9TylbTkhdYzJbY0hdW2NIXVtjSF1bY0hdbjI=

> <s_epik_cmdline>
J2VwaWtfcHl0aG9uJywgJy1waCcsICc3LjAnLCAnLXRuJywgJzgnLCAnLW1hJywgJzIwMCcsICctbWV0YWxfYmluZGluZycsICctaW1hZScsICc8aW5maWxlLm1hZT4nLCAnLW9tYWUnLCAnPG91dGZpbGUubWFlPic=

> <r_lp_tautomer_probability>
1

> <r_epik_Ionization_Penalty>
5.29956e-05

> <r_epik_Ionization_Penalty_Charging>
0

> <r_epik_Ionization_Penalty_Neutral>
5.29956e-05

> <r_epik_State_Penalty>
-0

> <r_epik_Charging_Adjusted_Penalty>
0

> <i_epik_Tot_Q>
0

> <i_epik_Tot_abs_Q>
0

> <r_epik_Metal_State_Penalty>
-0

> <b_epik_Metal_Only>
0

> <s_lp_Force_Field>
OPLS_2005

> <r_lp_Energy>
13.2298

> <b_lp_Chiralities_Consistent>
1

> <s_lp_Variant>
AV-unprocessed.smi:2840-1

> <Gold.Version>
5.8.1

> <Gold.Id.Protein>
6NUR|6NUR_protein|mol2

> <Gold.PLP.Fitness>
41.4767

> <Gold.PLP.PLP>
-38.6140

> <Gold.PLP.part.hbond>
-2.9400

> <Gold.PLP.part.metal>
0.0000

> <Gold.PLP.part.buried>
-0.4461

> <Gold.PLP.part.nonpolar>
-34.4031

> <Gold.PLP.part.repulsive>
0.3174

> <Gold.PLP.ligand.clash>
0.0000

> <Gold.PLP.ligand.torsion>
0.2386

> <Gold.PLP.Chemscore.Hbond>
0.1120

> <Gold.PLP.Chemscore.CHOScore>
1.0000

> <Gold.PLP.Chemscore.Metal>
0.0000

> <Gold.Chemscore.Hbonds>
donor molecule, donor type, donor heavy atom, donor atom, acceptor molecule, acceptor atom, score
      P1  H  8011  8017       L1    17  0.04
      L1  C    16    36       P1  7957  1.00

> <Gold.PLP.Chemscore.Internal.Correction>
0.0038

> <Gold.Rescore>
     Score         DG    S(hbond)    S(metal)    S(lipo)     H(rot)  DE(clash)    DE(int)     intcor
     12.59     -14.99       0.18        0.00      98.07       1.00       0.09       2.30       ----

> <Gold.Chemscore.Fitness>
12.5909

> <Gold.Chemscore.DG>
-14.9877

> <Gold.Chemscore.ZeroCoef>
-5.4800

> <Gold.Chemscore.Hbond>
0.1775

> <Gold.Chemscore.Metal>
0.0000

> <Gold.Chemscore.Lipo>
98.0744

> <Gold.Chemscore.Internal_Hbond>
0.0000

> <Gold.Chemscore.DEClash>
0.0929

> <Gold.Chemscore.DEInternal>
2.3038

> <Gold.Chemscore.Rot>
1.0000

> <Gold.Chemscore.Internal.Correction>
   9.000000E+99

> <Gold.Chemscore.Hbond.Weighted>
-0.5930

> <Gold.Chemscore.Metal.Weighted>
-0.0000

> <Gold.Chemscore.Lipo.Weighted>
-11.4747

> <Gold.Chemscore.Internal_Hbond.Weighted>
0.0000

> <Gold.Chemscore.DEClash.Weighted>
0.0929

> <Gold.Chemscore.DEInternal.Weighted>
2.3038

> <Gold.Chemscore.Rot.Weighted>
2.5600

> <Gold.Chemscore.Internal.Correction.Weighted>
   9.000000E+99

> <Gold.Protein.RotatedTorsions>
[ 6907 6896 6895 6894 ] final  163.46 input  -60.11 | X-H torsion
[ 7974 7965 7964 7962 ] final  146.18 input  175.53 | X-H torsion
[ 8008 7997 7996 7995 ] final  -92.70 input   59.86 | X-H torsion
[ 10167 10162 10161 10158 ] final  103.17 input  -65.29 | X-H torsion
[ 10718 10713 10712 10709 ] final   43.12 input   66.30 | X-H torsion
[ 10763 10752 10751 10750 ] final  -33.22 input  -60.55 | X-H torsion
[ 11005 11000 10999 10996 ] final  -62.52 input  -57.11 | X-H torsion

> <Gold.Protein.ActiveResidues>
 VAL166  LYS551  ARG553  GLY616  TRP617  ASP618  TYR619  PRO620  LYS621  CYS622 
 ASP623  PHE694  ASN695  SER759  ASP760  ASP761  ALA762  ILE779  LEU786  VAL792 
 PHE793  MET794  SER795  GLU796  ALA797  LYS798  CYS799  TRP800  GLU811  SER814 

> <Gold.Protein.RotatedAtoms>
  151.9249  133.3595  159.3909 H   0  0  0  0  0  0  0  0  0  0  0  0  # atno 6907 bound_to 6896
  150.7029  134.4597  159.5384 H   0  0  0  0  0  0  0  0  0  0  0  0  # atno 6908 bound_to 6896
  152.2227  134.8397  160.0534 H   0  0  0  0  0  0  0  0  0  0  0  0  # atno 6909 bound_to 6896
  144.8692  139.5873  143.5895 H   0  0  0  0  0  0  0  0  0  0  0  0  # atno 7974 bound_to 7965
  154.7264  140.0506  157.0686 H   0  0  0  0  0  0  0  0  0  0  0  0  # atno 8008 bound_to 7997
  155.0360  140.3163  155.4722 H   0  0  0  0  0  0  0  0  0  0  0  0  # atno 8009 bound_to 7997
  156.2830  140.2141  156.5482 H   0  0  0  0  0  0  0  0  0  0  0  0  # atno 8010 bound_to 7997
  139.7286  144.7041  151.0758 H   0  0  0  0  0  0  0  0  0  0  0  0  # atno 10167 bound_to 10162
  157.4124  130.7922  149.7442 H   0  0  0  0  0  0  0  0  0  0  0  0  # atno 10718 bound_to 10713
  153.8266  135.6869  153.4820 H   0  0  0  0  0  0  0  0  0  0  0  0  # atno 10763 bound_to 10752
  153.1536  135.4608  154.9670 H   0  0  0  0  0  0  0  0  0  0  0  0  # atno 10764 bound_to 10752
  154.7904  135.3300  154.7734 H   0  0  0  0  0  0  0  0  0  0  0  0  # atno 10765 bound_to 10752
  141.1362  133.6641  156.5540 H   0  0  0  0  0  0  0  0  0  0  0  0  # atno 11005 bound_to 11000
  146.2918  139.7161  142.9155 LP  0  0  0  0  0  0  0  0  0  0  0  0  # atno 17320 bound_to 7965
  145.4163  141.0402  143.2989 LP  0  0  0  0  0  0  0  0  0  0  0  0  # atno 17321 bound_to 7965
  140.7767  143.5072  150.9697 LP  0  0  0  0  0  0  0  0  0  0  0  0  # atno 17342 bound_to 10162
  139.8760  143.7132  152.3162 LP  0  0  0  0  0  0  0  0  0  0  0  0  # atno 17343 bound_to 10162
  155.9855  130.3983  150.3260 LP  0  0  0  0  0  0  0  0  0  0  0  0  # atno 17370 bound_to 10713
  157.1400  131.0294  151.2932 LP  0  0  0  0  0  0  0  0  0  0  0  0  # atno 17371 bound_to 10713
  140.4041  134.7331  157.4797 LP  0  0  0  0  0  0  0  0  0  0  0  0  # atno 17394 bound_to 11000
  140.0475  134.6178  155.8903 LP  0  0  0  0  0  0  0  0  0  0  0  0  # atno 17395 bound_to 11000

$$$$
