AV-unprocessed.smi:955|AV-procd|sdf|4259|dock10
  -GOLD-   22720 2173D 1   1.00000     0.00000
 Structure written by MMmdl.
 29 29  0  0  0  0  0  0  0  0  1 V2000
  149.0925  141.7502  154.5717 C   0  0  0  0  0  0  0  0  0  0  0  0
  149.4493  141.1491  155.9412 C   0  0  2  0  0  0  0  0  0  0  0  0
  150.0066  142.2176  156.7674 N   0  0  0  0  0  0  0  0  0  0  0  0
  150.6400  142.0485  157.9402 C   0  0  0  0  0  0  0  0  0  0  0  0
  150.8135  140.9415  158.4520 O   0  0  0  0  0  0  0  0  0  0  0  0
  151.1660  143.3254  158.6211 C   0  0  2  0  0  0  0  0  0  0  0  0
  152.0050  144.2134  157.6792 C   0  0  0  0  0  0  0  0  0  0  0  0
  151.8890  143.0035  159.8476 N   0  0  0  0  0  0  0  0  0  0  0  0
  153.0482  142.2659  159.9805 C   0  0  0  0  0  0  0  0  0  0  0  0
  153.3789  142.2550  161.3051 C   0  0  0  0  0  0  0  0  0  0  0  0
  152.3538  143.0298  161.9152 C   0  0  0  0  0  0  0  0  0  0  0  0
  151.4685  143.4814  161.0422 N   0  0  0  0  0  0  0  0  0  0  0  0
  150.4934  140.0435  155.7157 C   0  0  0  0  0  0  0  0  0  0  0  0
  150.1762  138.8202  156.1457 N   0  0  0  0  0  0  0  0  0  0  0  0
  151.5599  140.2809  155.1497 O   0  0  0  0  0  0  0  0  0  0  0  0
  148.6672  140.9979  153.9063 H   0  0  0  0  0  0  0  0  0  0  0  0
  149.9641  142.1801  154.0753 H   0  0  0  0  0  0  0  0  0  0  0  0
  148.3513  142.5430  154.6785 H   0  0  0  0  0  0  0  0  0  0  0  0
  148.5520  140.7369  156.4074 H   0  0  0  0  0  0  0  0  0  0  0  0
  149.9143  143.1582  156.4128 H   0  0  0  0  0  0  0  0  0  0  0  0
  150.2877  143.9044  158.9106 H   0  0  0  0  0  0  0  0  0  0  0  0
  151.4268  144.5196  156.8069 H   0  0  0  0  0  0  0  0  0  0  0  0
  152.8975  143.6990  157.3209 H   0  0  0  0  0  0  0  0  0  0  0  0
  152.3292  145.1213  158.1884 H   0  0  0  0  0  0  0  0  0  0  0  0
  153.5378  141.8154  159.1295 H   0  0  0  0  0  0  0  0  0  0  0  0
  154.2260  141.7704  161.7673 H   0  0  0  0  0  0  0  0  0  0  0  0
  152.2296  143.2789  162.9587 H   0  0  0  0  0  0  0  0  0  0  0  0
  150.8251  138.0573  156.0183 H   0  0  0  0  0  0  0  0  0  0  0  0
  149.2852  138.6621  156.5935 H   0  0  0  0  0  0  0  0  0  0  0  0
  1  2  1  0  0  0  0
  1 16  1  0  0  0  0
  1 17  1  0  0  0  0
  1 18  1  0  0  0  0
  2  3  1  0  0  0  0
  2 13  1  0  0  0  0
  2 19  1  0  0  0  0
  3  4  1  0  0  0  0
  3 20  1  0  0  0  0
  4  5  2  0  0  0  0
  4  6  1  0  0  0  0
  6  7  1  0  0  0  0
  6  8  1  0  0  0  0
  6 21  1  0  0  0  0
  7 22  1  0  0  0  0
  7 23  1  0  0  0  0
  7 24  1  0  0  0  0
  8 12  1  0  0  0  0
  8  9  1  0  0  0  0
  9 10  2  0  0  0  0
  9 25  1  0  0  0  0
 10 11  1  0  0  0  0
 10 26  1  0  0  0  0
 11 12  2  0  0  0  0
 11 27  1  0  0  0  0
 13 14  1  0  0  0  0
 13 15  2  0  0  0  0
 14 28  1  0  0  0  0
 14 29  1  0  0  0  0
M  END
> <s_m_source_file>
AV-unprocessed.smi

> <i_m_source_file_index>
955

> <i_lp_mmshare_version>
43012

> <i_f3d_flags>
0

> <s_epik_input>
W05IMl1DKD1PKVtDQEhdKFtDSDNdKVtOSF1DKD1PKVtDQEhdKFtDSDNdKW4xW2NIXVtjSF1bY0hdbjE=

> <s_epik_cmdline>
J2VwaWtfcHl0aG9uJywgJy1waCcsICc3LjAnLCAnLXRuJywgJzgnLCAnLW1hJywgJzIwMCcsICctbWV0YWxfYmluZGluZycsICctaW1hZScsICc8aW5maWxlLm1hZT4nLCAnLW9tYWUnLCAnPG91dGZpbGUubWFlPic=

> <r_lp_tautomer_probability>
1

> <r_epik_Ionization_Penalty>
2.8146e-05

> <r_epik_Ionization_Penalty_Charging>
0

> <r_epik_Ionization_Penalty_Neutral>
2.8146e-05

> <r_epik_State_Penalty>
-0

> <r_epik_Charging_Adjusted_Penalty>
0

> <i_epik_Tot_Q>
0

> <i_epik_Tot_abs_Q>
0

> <r_epik_Metal_State_Penalty>
-0

> <b_epik_Metal_Only>
0

> <s_lp_Force_Field>
OPLS_2005

> <r_lp_Energy>
4.37159

> <b_lp_Chiralities_Consistent>
1

> <s_lp_Variant>
AV-unprocessed.smi:955-1

> <Gold.Version>
5.8.1

> <Gold.Id.Protein>
6NUR|6NUR_protein|mol2

> <Gold.PLP.Fitness>
40.1762

> <Gold.PLP.PLP>
-34.6727

> <Gold.PLP.part.hbond>
-2.4885

> <Gold.PLP.part.metal>
0.0000

> <Gold.PLP.part.buried>
-3.5952

> <Gold.PLP.part.nonpolar>
-28.2357

> <Gold.PLP.part.repulsive>
0.2119

> <Gold.PLP.ligand.clash>
0.0000

> <Gold.PLP.ligand.torsion>
0.2342

> <Gold.PLP.Chemscore.Hbond>
1.9513

> <Gold.PLP.Chemscore.CHOScore>
0.0000

> <Gold.PLP.Chemscore.Metal>
0.0000

> <Gold.Chemscore.Hbonds>
donor molecule, donor type, donor heavy atom, donor atom, acceptor molecule, acceptor atom, score
      L1  H     3    20       P1  8028  1.00
      P1  H  7989  7998       L1    15  0.94

> <Gold.PLP.Chemscore.Internal.Correction>
0.1182

> <Gold.Rescore>
     Score         DG    S(hbond)    S(metal)    S(lipo)     H(rot)  DE(clash)    DE(int)     intcor
     13.25     -14.60       1.98        0.00      71.61       2.30       0.00       1.35       ----

> <Gold.Chemscore.Fitness>
13.2525

> <Gold.Chemscore.DG>
-14.5980

> <Gold.Chemscore.ZeroCoef>
-5.4800

> <Gold.Chemscore.Hbond>
1.9823

> <Gold.Chemscore.Metal>
0.0000

> <Gold.Chemscore.Lipo>
71.6075

> <Gold.Chemscore.Internal_Hbond>
0.0000

> <Gold.Chemscore.DEClash>
0.0000

> <Gold.Chemscore.DEInternal>
1.3455

> <Gold.Chemscore.Rot>
2.2972

> <Gold.Chemscore.Internal.Correction>
   9.000000E+99

> <Gold.Chemscore.Hbonds>
donor molecule, donor type, donor heavy atom, donor atom, acceptor molecule, acceptor atom, score
      L1  H     3    20       P1  8028  0.93
      P1  H  7989  7998       L1    15  0.90

> <Gold.Chemscore.Hbond.Weighted>
-6.6208

> <Gold.Chemscore.Metal.Weighted>
-0.0000

> <Gold.Chemscore.Lipo.Weighted>
-8.3781

> <Gold.Chemscore.Internal_Hbond.Weighted>
0.0000

> <Gold.Chemscore.DEClash.Weighted>
0.0000

> <Gold.Chemscore.DEInternal.Weighted>
1.3455

> <Gold.Chemscore.Rot.Weighted>
5.8809

> <Gold.Chemscore.Internal.Correction.Weighted>
   9.000000E+99

> <Gold.Protein.RotatedTorsions>
[ 6907 6896 6895 6894 ] final  -33.40 input  -60.11 | X-H torsion
[ 7974 7965 7964 7962 ] final   49.98 input  175.53 | X-H torsion
[ 8008 7997 7996 7995 ] final  -37.58 input   59.86 | X-H torsion
[ 10167 10162 10161 10158 ] final   18.22 input  -65.29 | X-H torsion
[ 10718 10713 10712 10709 ] final -155.03 input   66.30 | X-H torsion
[ 10763 10752 10751 10750 ] final -149.08 input  -60.55 | X-H torsion
[ 11005 11000 10999 10996 ] final  126.51 input  -57.11 | X-H torsion

> <Gold.Protein.ActiveResidues>
 VAL166  LYS551  ARG553  GLY616  TRP617  ASP618  TYR619  PRO620  LYS621  CYS622 
 ASP623  PHE694  ASN695  SER759  ASP760  ASP761  ALA762  ILE779  LEU786  VAL792 
 PHE793  MET794  SER795  GLU796  ALA797  LYS798  CYS799  TRP800  GLU811  SER814 

> <Gold.Protein.RotatedAtoms>
  151.0661  134.9768  159.8284 H   0  0  0  0  0  0  0  0  0  0  0  0  # atno 6907 bound_to 6896
  152.5402  134.2357  159.8852 H   0  0  0  0  0  0  0  0  0  0  0  0  # atno 6908 bound_to 6896
  151.2379  133.4372  159.2640 H   0  0  0  0  0  0  0  0  0  0  0  0  # atno 6909 bound_to 6896
  146.0056  139.4487  142.9988 H   0  0  0  0  0  0  0  0  0  0  0  0  # atno 7974 bound_to 7965
  154.4051  140.1600  156.2560 H   0  0  0  0  0  0  0  0  0  0  0  0  # atno 8008 bound_to 7997
  155.9078  140.3429  155.6053 H   0  0  0  0  0  0  0  0  0  0  0  0  # atno 8009 bound_to 7997
  155.7372  140.0788  157.2253 H   0  0  0  0  0  0  0  0  0  0  0  0  # atno 8010 bound_to 7997
  140.5669  143.9233  150.6683 H   0  0  0  0  0  0  0  0  0  0  0  0  # atno 10167 bound_to 10162
  156.5073  130.8419  151.2633 H   0  0  0  0  0  0  0  0  0  0  0  0  # atno 10718 bound_to 10713
  154.8197  135.3318  154.7073 H   0  0  0  0  0  0  0  0  0  0  0  0  # atno 10763 bound_to 10752
  153.7708  135.6926  153.4911 H   0  0  0  0  0  0  0  0  0  0  0  0  # atno 10764 bound_to 10752
  153.2046  135.4504  155.0256 H   0  0  0  0  0  0  0  0  0  0  0  0  # atno 10765 bound_to 10752
  139.9460  134.9629  156.8717 H   0  0  0  0  0  0  0  0  0  0  0  0  # atno 11005 bound_to 11000
  145.7421  141.0004  143.1295 LP  0  0  0  0  0  0  0  0  0  0  0  0  # atno 17320 bound_to 7965
  144.6934  139.9111  143.7463 LP  0  0  0  0  0  0  0  0  0  0  0  0  # atno 17321 bound_to 7965
  140.2699  143.3464  152.1248 LP  0  0  0  0  0  0  0  0  0  0  0  0  # atno 17342 bound_to 10162
  139.5098  144.6873  151.5854 LP  0  0  0  0  0  0  0  0  0  0  0  0  # atno 17343 bound_to 10162
  157.7455  130.9961  150.2769 LP  0  0  0  0  0  0  0  0  0  0  0  0  # atno 17370 bound_to 10713
  156.3274  130.3795  149.7521 LP  0  0  0  0  0  0  0  0  0  0  0  0  # atno 17371 bound_to 10713
  140.5834  134.0330  155.7472 LP  0  0  0  0  0  0  0  0  0  0  0  0  # atno 17394 bound_to 11000
  141.1110  133.9617  157.2910 LP  0  0  0  0  0  0  0  0  0  0  0  0  # atno 17395 bound_to 11000

$$$$
