AV-unprocessed.smi:287|AV-procd|sdf|2200|dock2
  -GOLD-   2262022 13D 1   1.00000     0.00000
 Structure written by MMmdl.
 55 58  0  0  0  0  0  0  0  0  1 V2000
  149.0752  125.7409  150.3628 C   0  0  0  0  0  0  0  0  0  0  0  0
  148.6585  126.6600  151.4592 C   0  0  0  0  0  0  0  0  0  0  0  0
  147.5663  127.4519  151.6638 C   0  0  0  0  0  0  0  0  0  0  0  0
  147.7356  128.0931  152.9276 C   0  0  0  0  0  0  0  0  0  0  0  0
  146.7718  129.0744  153.5811 C   0  0  2  0  0  0  0  0  0  0  0  0
  146.4169  128.5867  154.9951 C   0  0  0  0  0  0  0  0  0  0  0  0
  145.5395  129.1651  152.8920 O   0  0  0  0  0  0  0  0  0  0  0  0
  147.3264  130.5170  153.6387 C   0  0  0  0  0  0  0  0  0  0  0  0
  147.4709  131.1237  152.3194 N   0  0  0  0  0  0  0  0  0  0  0  0
  146.9258  132.3307  152.0627 C   0  0  0  0  0  0  0  0  0  0  0  0
  146.3768  132.6087  150.8514 N   0  0  0  0  0  0  0  0  0  0  0  0
  145.8497  133.8147  150.6201 C   0  0  0  0  0  0  0  0  0  0  0  0
  145.7694  134.8616  151.4436 N   0  0  0  0  0  0  0  0  0  0  0  0
  146.3152  134.5854  152.6636 C   0  0  0  0  0  0  0  0  0  0  0  0
  146.9097  133.3513  153.0475 C   0  0  0  0  0  0  0  0  0  0  0  0
  147.3596  133.4318  154.3588 N   0  0  0  0  0  0  0  0  0  0  0  0
  147.0487  134.6464  154.7243 C   0  0  0  0  0  0  0  0  0  0  0  0
  146.4173  135.4089  153.7668 N   0  0  0  0  0  0  0  0  0  0  0  0
  145.9489  136.8214  153.8933 C   0  0  1  0  0  0  0  0  0  0  0  0
  146.9596  137.5621  154.4983 O   0  0  0  0  0  0  0  0  0  0  0  0
  146.9476  138.8782  153.9659 C   0  0  1  0  0  0  0  0  0  0  0  0
  148.2816  139.5952  154.2382 C   0  0  0  0  0  0  0  0  0  0  0  0
  149.3348  138.9239  153.5806 O   0  0  0  0  0  0  0  0  0  0  0  0
  146.5987  138.6557  152.4856 C   0  0  1  0  0  0  0  0  0  0  0  0
  147.7509  138.3800  151.7111 O   0  0  0  0  0  0  0  0  0  0  0  0
  145.6692  137.4433  152.5135 C   0  0  2  0  0  0  0  0  0  0  0  0
  144.3273  137.8787  152.4177 O   0  0  0  0  0  0  0  0  0  0  0  0
  148.9521  127.6478  153.3856 C   0  0  0  0  0  0  0  0  0  0  0  0
  149.7605  127.9230  154.6105 C   0  0  0  0  0  0  0  0  0  0  0  0
  149.5146  126.7733  152.5054 O   0  0  0  0  0  0  0  0  0  0  0  0
  145.0716  136.7725  154.5403 H   0  0  0  0  0  0  0  0  0  0  0  0
  146.1248  139.4273  154.4284 H   0  0  0  0  0  0  0  0  0  0  0  0
  146.1235  139.5386  152.0554 H   0  0  0  0  0  0  0  0  0  0  0  0
  145.8772  136.7372  151.7073 H   0  0  0  0  0  0  0  0  0  0  0  0
  148.3264  125.7147  149.5711 H   0  0  0  0  0  0  0  0  0  0  0  0
  149.2054  124.7258  150.7383 H   0  0  0  0  0  0  0  0  0  0  0  0
  150.0196  126.0643  149.9248 H   0  0  0  0  0  0  0  0  0  0  0  0
  146.7317  127.5538  150.9860 H   0  0  0  0  0  0  0  0  0  0  0  0
  147.3068  128.5131  155.6212 H   0  0  0  0  0  0  0  0  0  0  0  0
  145.9519  127.6000  154.9691 H   0  0  0  0  0  0  0  0  0  0  0  0
  145.7229  129.2663  155.4912 H   0  0  0  0  0  0  0  0  0  0  0  0
  144.8399  129.1560  153.5269 H   0  0  0  0  0  0  0  0  0  0  0  0
  146.7065  131.1429  154.2826 H   0  0  0  0  0  0  0  0  0  0  0  0
  148.3200  130.4954  154.0892 H   0  0  0  0  0  0  0  0  0  0  0  0
  148.0335  130.6117  151.6544 H   0  0  0  0  0  0  0  0  0  0  0  0
  145.4336  133.9627  149.6348 H   0  0  0  0  0  0  0  0  0  0  0  0
  147.2727  135.0221  155.7120 H   0  0  0  0  0  0  0  0  0  0  0  0
  148.2432  140.6387  153.9236 H   0  0  0  0  0  0  0  0  0  0  0  0
  148.5055  139.5825  155.3051 H   0  0  0  0  0  0  0  0  0  0  0  0
  149.3123  139.1541  152.6642 H   0  0  0  0  0  0  0  0  0  0  0  0
  148.1482  137.5854  152.0326 H   0  0  0  0  0  0  0  0  0  0  0  0
  144.3047  138.8139  152.5520 H   0  0  0  0  0  0  0  0  0  0  0  0
  149.8857  128.9959  154.7575 H   0  0  0  0  0  0  0  0  0  0  0  0
  150.7528  127.4773  154.5380 H   0  0  0  0  0  0  0  0  0  0  0  0
  149.2723  127.5145  155.4951 H   0  0  0  0  0  0  0  0  0  0  0  0
  1  2  1  0  0  0  0
  1 35  1  0  0  0  0
  1 36  1  0  0  0  0
  1 37  1  0  0  0  0
  2 30  1  0  0  0  0
  2  3  2  0  0  0  0
  3  4  1  0  0  0  0
  3 38  1  0  0  0  0
  4  5  1  0  0  0  0
  4 28  2  0  0  0  0
  5  6  1  0  0  0  0
  5  7  1  0  0  0  0
  5  8  1  0  0  0  0
  6 39  1  0  0  0  0
  6 40  1  0  0  0  0
  6 41  1  0  0  0  0
  7 42  1  0  0  0  0
  8  9  1  0  0  0  0
  8 43  1  0  0  0  0
  8 44  1  0  0  0  0
  9 10  1  0  0  0  0
  9 45  1  0  0  0  0
 10 15  1  0  0  0  0
 10 11  2  0  0  0  0
 11 12  1  0  0  0  0
 12 13  2  0  0  0  0
 12 46  1  0  0  0  0
 13 14  1  0  0  0  0
 14 18  1  0  0  0  0
 14 15  2  0  0  0  0
 15 16  1  0  0  0  0
 16 17  2  0  0  0  0
 17 18  1  0  0  0  0
 17 47  1  0  0  0  0
 18 19  1  0  0  0  0
 19 31  1  0  0  0  0
 19 26  1  0  0  0  0
 19 20  1  0  0  0  0
 20 21  1  0  0  0  0
 21 32  1  0  0  0  0
 21 22  1  0  0  0  0
 21 24  1  0  0  0  0
 22 23  1  0  0  0  0
 22 48  1  0  0  0  0
 22 49  1  0  0  0  0
 23 50  1  0  0  0  0
 24 33  1  0  0  0  0
 24 25  1  0  0  0  0
 24 26  1  0  0  0  0
 25 51  1  0  0  0  0
 26 34  1  0  0  0  0
 26 27  1  0  0  0  0
 27 52  1  0  0  0  0
 28 29  1  0  0  0  0
 28 30  1  0  0  0  0
 29 53  1  0  0  0  0
 29 54  1  0  0  0  0
 29 55  1  0  0  0  0
M  END
> <s_m_source_file>
AV-unprocessed.smi

> <i_m_source_file_index>
287

> <i_lp_mmshare_version>
43012

> <i_f3d_flags>
0

> <s_epik_input>
W0NIM11jMVtjSF1jKGMobzEpW0NIM10pW0NAQF0oW0NIM10pKFtPSF0pW0NIMl1bTkhdYyhuW2NIXW4yKWMoYzIzKW5bY0hdbjNbQ0BASF00T1tDQEhdKFtDSDJdW09IXSlbQ0BASF0oW09IXSlbQ0BIXTRbT0hd

> <s_epik_cmdline>
J2VwaWtfcHl0aG9uJywgJy1waCcsICc3LjAnLCAnLXRuJywgJzgnLCAnLW1hJywgJzIwMCcsICctbWV0YWxfYmluZGluZycsICctaW1hZScsICc8aW5maWxlLm1hZT4nLCAnLW9tYWUnLCAnPG91dGZpbGUubWFlPic=

> <r_lp_tautomer_probability>
1

> <r_epik_Ionization_Penalty>
0.000992612

> <r_epik_Ionization_Penalty_Charging>
0

> <r_epik_Ionization_Penalty_Neutral>
0.000992612

> <r_epik_State_Penalty>
-0

> <r_epik_Charging_Adjusted_Penalty>
0

> <i_epik_Tot_Q>
0

> <i_epik_Tot_abs_Q>
0

> <r_epik_Metal_State_Penalty>
-0

> <b_epik_Metal_Only>
0

> <s_epik_Chemistry_Notes>
This compound contains an acetal/aminal-like group ( X-CH(R)-Y where X, Y are N, S, or O) that may be acid/base labile, releasing an aldehyde.

> <s_lp_Force_Field>
OPLS_2005

> <r_lp_Energy>
38.4634

> <b_lp_Chiralities_Consistent>
1

> <s_lp_Variant>
AV-unprocessed.smi:287-24

> <Gold.Version>
5.8.1

> <Gold.Id.Protein>
6NUR|6NUR_protein|mol2

> <Gold.PLP.Fitness>
60.5251

> <Gold.PLP.PLP>
-44.0472

> <Gold.PLP.part.hbond>
-8.4214

> <Gold.PLP.part.metal>
0.0000

> <Gold.PLP.part.buried>
-6.1271

> <Gold.PLP.part.nonpolar>
-32.4895

> <Gold.PLP.part.repulsive>
2.6581

> <Gold.PLP.ligand.clash>
0.0000

> <Gold.PLP.ligand.torsion>
0.9082

> <Gold.PLP.Chemscore.Hbond>
5.0640

> <Gold.PLP.Chemscore.CHOScore>
0.9464

> <Gold.PLP.Chemscore.Metal>
0.0000

> <Gold.Chemscore.Hbonds>
donor molecule, donor type, donor heavy atom, donor atom, acceptor molecule, acceptor atom, score
      L1  H     7    42       P1 10956  1.00
      L1  H     9    45       P1 10747  0.85
      L1  H    23    50       P1  7957  1.00
      L1  H    25    51       P1  7948  1.00
      L1  H    27    52       P1 10175  1.00
      P1  H  7954  7966       L1    25  0.50
      L1  C    12    46       P1  7921  1.00

> <Gold.PLP.Chemscore.Internal.Correction>
0.2632

> <Gold.Rescore>
     Score         DG    S(hbond)    S(metal)    S(lipo)     H(rot)  DE(clash)    DE(int)     intcor
     12.90     -16.43       4.61        0.00      77.17       5.27       0.16       3.38       ----

> <Gold.Chemscore.Fitness>
12.8992

> <Gold.Chemscore.DG>
-16.4324

> <Gold.Chemscore.ZeroCoef>
-5.4800

> <Gold.Chemscore.Hbond>
4.6131

> <Gold.Chemscore.Metal>
0.0000

> <Gold.Chemscore.Lipo>
77.1658

> <Gold.Chemscore.Internal_Hbond>
0.0000

> <Gold.Chemscore.DEClash>
0.1578

> <Gold.Chemscore.DEInternal>
3.3754

> <Gold.Chemscore.Rot>
5.2672

> <Gold.Chemscore.Internal.Correction>
   9.000000E+99

> <Gold.Chemscore.Hbonds>
donor molecule, donor type, donor heavy atom, donor atom, acceptor molecule, acceptor atom, score
      L1  H     7    42       P1 10956  0.73
      L1  H     9    45       P1 10747  0.83
      L1  H    23    50       P1  7957  0.99
      L1  H    25    51       P1  7948  0.92
      L1  H    27    52       P1 10175  0.99
      P1  H  7954  7966       L1    25  0.02

> <Gold.Chemscore.Hbond.Weighted>
-15.4079

> <Gold.Chemscore.Metal.Weighted>
-0.0000

> <Gold.Chemscore.Lipo.Weighted>
-9.0284

> <Gold.Chemscore.Internal_Hbond.Weighted>
0.0000

> <Gold.Chemscore.DEClash.Weighted>
0.1578

> <Gold.Chemscore.DEInternal.Weighted>
3.3754

> <Gold.Chemscore.Rot.Weighted>
13.4839

> <Gold.Chemscore.Internal.Correction.Weighted>
   9.000000E+99

> <Gold.Protein.RotatedTorsions>
[ 6907 6896 6895 6894 ] final  -60.52 input  -60.11 | X-H torsion
[ 7974 7965 7964 7962 ] final   78.95 input  175.53 | X-H torsion
[ 8008 7997 7996 7995 ] final -112.32 input   59.86 | X-H torsion
[ 10167 10162 10161 10158 ] final  -91.10 input  -65.29 | X-H torsion
[ 10718 10713 10712 10709 ] final -142.38 input   66.30 | X-H torsion
[ 10763 10752 10751 10750 ] final  131.96 input  -60.55 | X-H torsion
[ 11005 11000 10999 10996 ] final  174.58 input  -57.11 | X-H torsion

> <Gold.Protein.ActiveResidues>
 VAL166  LYS551  ARG553  GLY616  TRP617  ASP618  TYR619  PRO620  LYS621  CYS622 
 ASP623  PHE694  ASN695  SER759  ASP760  ASP761  ALA762  ILE779  LEU786  VAL792 
 PHE793  MET794  SER795  GLU796  ALA797  LYS798  CYS799  TRP800  GLU811  SER814 

> <Gold.Protein.RotatedAtoms>
  150.7850  134.6826  159.6451 H   0  0  0  0  0  0  0  0  0  0  0  0  # atno 6907 bound_to 6896
  152.3944  134.6386  160.0104 H   0  0  0  0  0  0  0  0  0  0  0  0  # atno 6908 bound_to 6896
  151.6677  133.3278  159.3225 H   0  0  0  0  0  0  0  0  0  0  0  0  # atno 6909 bound_to 6896
  145.6706  139.2495  143.1871 H   0  0  0  0  0  0  0  0  0  0  0  0  # atno 7974 bound_to 7965
  155.0034  140.0394  157.2369 H   0  0  0  0  0  0  0  0  0  0  0  0  # atno 8008 bound_to 7997
  154.7524  140.2769  155.6259 H   0  0  0  0  0  0  0  0  0  0  0  0  # atno 8009 bound_to 7997
  156.2887  140.2644  156.2280 H   0  0  0  0  0  0  0  0  0  0  0  0  # atno 8010 bound_to 7997
  140.3483  143.2905  151.9755 H   0  0  0  0  0  0  0  0  0  0  0  0  # atno 10167 bound_to 10162
  156.3453  130.7659  151.1802 H   0  0  0  0  0  0  0  0  0  0  0  0  # atno 10718 bound_to 10713
  153.7829  135.3166  155.3368 H   0  0  0  0  0  0  0  0  0  0  0  0  # atno 10763 bound_to 10752
  154.8154  135.4639  154.0633 H   0  0  0  0  0  0  0  0  0  0  0  0  # atno 10764 bound_to 10752
  153.1927  135.6911  153.8417 H   0  0  0  0  0  0  0  0  0  0  0  0  # atno 10765 bound_to 10752
  140.3529  134.7179  157.4280 H   0  0  0  0  0  0  0  0  0  0  0  0  # atno 11005 bound_to 11000
  146.1049  140.7499  142.9531 LP  0  0  0  0  0  0  0  0  0  0  0  0  # atno 17320 bound_to 7965
  144.7058  140.3846  143.7119 LP  0  0  0  0  0  0  0  0  0  0  0  0  # atno 17321 bound_to 7965
  139.4830  144.6098  151.7455 LP  0  0  0  0  0  0  0  0  0  0  0  0  # atno 17342 bound_to 10162
  140.5243  144.0830  150.6032 LP  0  0  0  0  0  0  0  0  0  0  0  0  # atno 17343 bound_to 10162
  157.7453  131.0443  150.4786 LP  0  0  0  0  0  0  0  0  0  0  0  0  # atno 17370 bound_to 10713
  156.4973  130.4109  149.6373 LP  0  0  0  0  0  0  0  0  0  0  0  0  # atno 17371 bound_to 10713
  140.0688  134.5891  155.8665 LP  0  0  0  0  0  0  0  0  0  0  0  0  # atno 17394 bound_to 11000
  141.2007  133.6614  156.5910 LP  0  0  0  0  0  0  0  0  0  0  0  0  # atno 17395 bound_to 11000

$$$$
