AV-unprocessed.smi:1436|AV-procd|sdf|5860|dock8
  -GOLD-   22720 5533D 1   1.00000     0.00000
 Structure written by MMmdl.
 43 44  0  0  0  0  0  0  0  0  1 V2000
  150.0459  134.6006  155.2375 C   0  0  0  0  0  0  0  0  0  0  0  0
  150.7051  135.3900  156.3314 C   0  0  0  0  0  0  0  0  0  0  0  0
  150.6011  134.9805  157.5845 N   0  0  0  0  0  0  0  0  0  0  0  0
  151.2982  135.9179  158.3525 O   0  0  0  0  0  0  0  0  0  0  0  0
  151.7987  136.8671  157.5213 C   0  0  0  0  0  0  0  0  0  0  0  0
  152.5766  137.9711  158.1535 C   0  0  0  0  0  0  0  0  0  0  0  0
  151.4620  136.5925  156.2246 C   0  0  0  0  0  0  0  0  0  0  0  0
  151.8036  137.3736  154.9799 C   0  0  0  0  0  0  0  0  0  0  0  0
  152.0575  138.8468  155.3139 C   0  0  0  0  0  0  0  0  0  0  0  0
  153.0961  139.4002  154.9505 O   0  0  0  0  0  0  0  0  0  0  0  0
  151.0967  139.4692  156.0143 N   0  0  0  0  0  0  0  0  0  0  0  0
  151.1408  140.8554  156.4744 C   0  0  1  0  0  0  0  0  0  0  0  0
  149.9938  141.6686  155.8536 C   0  0  0  0  0  0  0  0  0  0  0  0
  151.2101  140.9503  158.0184 C   0  0  0  0  0  0  0  0  0  0  0  0
  151.8060  142.1656  158.5826 N   0  0  0  0  0  0  0  0  0  0  0  0
  152.0543  142.0047  160.0118 C   0  0  0  0  0  0  0  0  0  0  0  0
  152.6883  143.2608  160.6335 C   0  0  0  0  0  0  0  0  0  0  0  0
  151.8483  144.3848  160.3945 O   0  0  0  0  0  0  0  0  0  0  0  0
  151.6181  144.6094  159.0080 C   0  0  0  0  0  0  0  0  0  0  0  0
  150.9842  143.3567  158.3789 C   0  0  0  0  0  0  0  0  0  0  0  0
  149.1027  135.0616  154.9442 H   0  0  0  0  0  0  0  0  0  0  0  0
  149.8333  133.5777  155.5498 H   0  0  0  0  0  0  0  0  0  0  0  0
  150.6814  134.5499  154.3533 H   0  0  0  0  0  0  0  0  0  0  0  0
  152.1547  138.9402  157.8866 H   0  0  0  0  0  0  0  0  0  0  0  0
  153.6143  137.9506  157.8206 H   0  0  0  0  0  0  0  0  0  0  0  0
  152.5682  137.8877  159.2405 H   0  0  0  0  0  0  0  0  0  0  0  0
  152.6968  136.9785  154.4954 H   0  0  0  0  0  0  0  0  0  0  0  0
  151.0014  137.2964  154.2449 H   0  0  0  0  0  0  0  0  0  0  0  0
  150.2768  138.9362  156.2651 H   0  0  0  0  0  0  0  0  0  0  0  0
  152.0653  141.2906  156.0909 H   0  0  0  0  0  0  0  0  0  0  0  0
  150.0381  142.7104  156.1719 H   0  0  0  0  0  0  0  0  0  0  0  0
  149.0177  141.2748  156.1381 H   0  0  0  0  0  0  0  0  0  0  0  0
  150.0496  141.6547  154.7648 H   0  0  0  0  0  0  0  0  0  0  0  0
  150.2213  140.7850  158.4493 H   0  0  0  0  0  0  0  0  0  0  0  0
  151.8101  140.1014  158.3491 H   0  0  0  0  0  0  0  0  0  0  0  0
  151.1184  141.7822  160.5268 H   0  0  0  0  0  0  0  0  0  0  0  0
  152.7126  141.1515  160.1796 H   0  0  0  0  0  0  0  0  0  0  0  0
  152.8134  143.1308  161.7087 H   0  0  0  0  0  0  0  0  0  0  0  0
  153.6794  143.4421  160.2144 H   0  0  0  0  0  0  0  0  0  0  0  0
  150.9572  145.4683  158.8908 H   0  0  0  0  0  0  0  0  0  0  0  0
  152.5576  144.8569  158.5114 H   0  0  0  0  0  0  0  0  0  0  0  0
  150.8419  143.5430  157.3157 H   0  0  0  0  0  0  0  0  0  0  0  0
  149.9946  143.2002  158.8084 H   0  0  0  0  0  0  0  0  0  0  0  0
  1  2  1  0  0  0  0
  1 21  1  0  0  0  0
  1 22  1  0  0  0  0
  1 23  1  0  0  0  0
  2  7  1  0  0  0  0
  2  3  2  0  0  0  0
  3  4  1  0  0  0  0
  4  5  1  0  0  0  0
  5  6  1  0  0  0  0
  5  7  2  0  0  0  0
  6 24  1  0  0  0  0
  6 25  1  0  0  0  0
  6 26  1  0  0  0  0
  7  8  1  0  0  0  0
  8  9  1  0  0  0  0
  8 27  1  0  0  0  0
  8 28  1  0  0  0  0
  9 10  2  0  0  0  0
  9 11  1  0  0  0  0
 11 12  1  0  0  0  0
 11 29  1  0  0  0  0
 12 13  1  0  0  0  0
 12 14  1  0  0  0  0
 12 30  1  0  0  0  0
 13 31  1  0  0  0  0
 13 32  1  0  0  0  0
 13 33  1  0  0  0  0
 14 15  1  0  0  0  0
 14 34  1  0  0  0  0
 14 35  1  0  0  0  0
 15 20  1  0  0  0  0
 15 16  1  0  0  0  0
 16 17  1  0  0  0  0
 16 36  1  0  0  0  0
 16 37  1  0  0  0  0
 17 18  1  0  0  0  0
 17 38  1  0  0  0  0
 17 39  1  0  0  0  0
 18 19  1  0  0  0  0
 19 20  1  0  0  0  0
 19 40  1  0  0  0  0
 19 41  1  0  0  0  0
 20 42  1  0  0  0  0
 20 43  1  0  0  0  0
M  END
> <s_m_source_file>
AV-unprocessed.smi

> <i_m_source_file_index>
1436

> <i_lp_mmshare_version>
43012

> <i_f3d_flags>
0

> <s_epik_input>
W0NIM11jMW5vYyhbQ0gzXSljMVtDSDJdQyg9TylbTkhdW0NASF0oW0NIM10pW0NIMl1OMltDSDJdW0NIMl1PW0NIMl1bQ0gyXTI=

> <s_epik_cmdline>
J2VwaWtfcHl0aG9uJywgJy1waCcsICc3LjAnLCAnLXRuJywgJzgnLCAnLW1hJywgJzIwMCcsICctbWV0YWxfYmluZGluZycsICctaW1hZScsICc8aW5maWxlLm1hZT4nLCAnLW9tYWUnLCAnPG91dGZpbGUubWFlPic=

> <r_epik_Ionization_Penalty>
0.234179

> <r_epik_Ionization_Penalty_Charging>
0

> <r_epik_Ionization_Penalty_Neutral>
0.234179

> <r_epik_State_Penalty>
0.224936

> <r_epik_Charging_Adjusted_Penalty>
0.224936

> <i_epik_Tot_Q>
0

> <i_epik_Tot_abs_Q>
0

> <r_epik_Metal_State_Penalty>
0.224936

> <b_epik_Metal_Only>
0

> <s_lp_Force_Field>
OPLS_2005

> <r_lp_Energy>
22.5578

> <b_lp_Chiralities_Consistent>
1

> <s_lp_Variant>
AV-unprocessed.smi:1436-2

> <Gold.Version>
5.8.1

> <Gold.Id.Protein>
6NUR|6NUR_protein|mol2

> <Gold.PLP.Fitness>
40.8411

> <Gold.PLP.PLP>
-37.6929

> <Gold.PLP.part.hbond>
-3.6944

> <Gold.PLP.part.metal>
0.0000

> <Gold.PLP.part.buried>
-5.2960

> <Gold.PLP.part.nonpolar>
-29.4612

> <Gold.PLP.part.repulsive>
0.2002

> <Gold.PLP.ligand.clash>
0.0000

> <Gold.PLP.ligand.torsion>
0.7015

> <Gold.PLP.Chemscore.Hbond>
1.4940

> <Gold.PLP.Chemscore.CHOScore>
0.0000

> <Gold.PLP.Chemscore.Metal>
0.0000

> <Gold.Chemscore.Hbonds>
donor molecule, donor type, donor heavy atom, donor atom, acceptor molecule, acceptor atom, score
      P1  H  6896  6908       L1     4  0.23
      P1  H  7997  8008       L1    10  1.00

> <Gold.PLP.Chemscore.Internal.Correction>
0.0691

> <Gold.Rescore>
     Score         DG    S(hbond)    S(metal)    S(lipo)     H(rot)  DE(clash)    DE(int)     intcor
     16.62     -17.47       1.78        0.00      89.11       1.71       0.03       0.82       ----

> <Gold.Chemscore.Fitness>
16.6159

> <Gold.Chemscore.DG>
-17.4737

> <Gold.Chemscore.ZeroCoef>
-5.4800

> <Gold.Chemscore.Hbond>
1.7837

> <Gold.Chemscore.Metal>
0.0000

> <Gold.Chemscore.Lipo>
89.1050

> <Gold.Chemscore.Internal_Hbond>
0.0000

> <Gold.Chemscore.DEClash>
0.0340

> <Gold.Chemscore.DEInternal>
0.8238

> <Gold.Chemscore.Rot>
1.7145

> <Gold.Chemscore.Internal.Correction>
   9.000000E+99

> <Gold.Chemscore.Hbonds>
donor molecule, donor type, donor heavy atom, donor atom, acceptor molecule, acceptor atom, score
      P1  H  6896  6908       L1     4  0.01
      P1  H  7997  8008       L1    10  1.00

> <Gold.Chemscore.Hbond.Weighted>
-5.9575

> <Gold.Chemscore.Metal.Weighted>
-0.0000

> <Gold.Chemscore.Lipo.Weighted>
-10.4253

> <Gold.Chemscore.Internal_Hbond.Weighted>
0.0000

> <Gold.Chemscore.DEClash.Weighted>
0.0340

> <Gold.Chemscore.DEInternal.Weighted>
0.8238

> <Gold.Chemscore.Rot.Weighted>
4.3891

> <Gold.Chemscore.Internal.Correction.Weighted>
   9.000000E+99

> <Gold.Protein.RotatedTorsions>
[ 6907 6896 6895 6894 ] final -156.19 input  -60.11 | X-H torsion
[ 7974 7965 7964 7962 ] final -177.41 input  175.53 | X-H torsion
[ 8008 7997 7996 7995 ] final  -13.06 input   59.86 | X-H torsion
[ 10167 10162 10161 10158 ] final -122.21 input  -65.29 | X-H torsion
[ 10718 10713 10712 10709 ] final  -74.61 input   66.30 | X-H torsion
[ 10763 10752 10751 10750 ] final -100.69 input  -60.55 | X-H torsion
[ 11005 11000 10999 10996 ] final  118.75 input  -57.11 | X-H torsion

> <Gold.Protein.ActiveResidues>
 VAL166  LYS551  ARG553  GLY616  TRP617  ASP618  TYR619  PRO620  LYS621  CYS622 
 ASP623  PHE694  ASN695  SER759  ASP760  ASP761  ALA762  ILE779  LEU786  VAL792 
 PHE793  MET794  SER795  GLU796  ALA797  LYS798  CYS799  TRP800  GLU811  SER814 

> <Gold.Protein.RotatedAtoms>
  151.2839  133.4196  159.2628 H   0  0  0  0  0  0  0  0  0  0  0  0  # atno 6907 bound_to 6896
  151.0336  134.9557  159.8134 H   0  0  0  0  0  0  0  0  0  0  0  0  # atno 6908 bound_to 6896
  152.5351  134.2800  159.9056 H   0  0  0  0  0  0  0  0  0  0  0  0  # atno 6909 bound_to 6896
  144.7128  140.1023  143.6416 H   0  0  0  0  0  0  0  0  0  0  0  0  # atno 7974 bound_to 7965
  154.5324  140.2259  155.8781 H   0  0  0  0  0  0  0  0  0  0  0  0  # atno 8008 bound_to 7997
  156.1777  140.3107  155.9054 H   0  0  0  0  0  0  0  0  0  0  0  0  # atno 8009 bound_to 7997
  155.3423  140.0451  157.3035 H   0  0  0  0  0  0  0  0  0  0  0  0  # atno 8010 bound_to 7997
  140.0167  143.5386  152.2239 H   0  0  0  0  0  0  0  0  0  0  0  0  # atno 10167 bound_to 10162
  156.0236  130.4421  150.2919 H   0  0  0  0  0  0  0  0  0  0  0  0  # atno 10718 bound_to 10713
  154.7599  135.4925  153.9445 H   0  0  0  0  0  0  0  0  0  0  0  0  # atno 10763 bound_to 10752
  153.1239  135.6738  153.9297 H   0  0  0  0  0  0  0  0  0  0  0  0  # atno 10764 bound_to 10752
  153.9020  135.3108  155.3427 H   0  0  0  0  0  0  0  0  0  0  0  0  # atno 10765 bound_to 10752
  139.9121  134.9623  156.7550 H   0  0  0  0  0  0  0  0  0  0  0  0  # atno 11005 bound_to 11000
  145.9527  139.2745  143.1202 LP  0  0  0  0  0  0  0  0  0  0  0  0  # atno 17320 bound_to 7965
  145.9305  140.9051  143.0358 LP  0  0  0  0  0  0  0  0  0  0  0  0  # atno 17321 bound_to 7965
  139.6168  144.7621  151.2829 LP  0  0  0  0  0  0  0  0  0  0  0  0  # atno 17342 bound_to 10162
  140.7359  143.6722  150.8072 LP  0  0  0  0  0  0  0  0  0  0  0  0  # atno 17343 bound_to 10162
  157.1022  131.0199  151.3081 LP  0  0  0  0  0  0  0  0  0  0  0  0  # atno 17370 bound_to 10713
  157.4771  130.7743  149.7378 LP  0  0  0  0  0  0  0  0  0  0  0  0  # atno 17371 bound_to 10713
  140.6743  133.9531  155.7874 LP  0  0  0  0  0  0  0  0  0  0  0  0  # atno 17394 bound_to 11000
  141.0555  134.0422  157.3728 LP  0  0  0  0  0  0  0  0  0  0  0  0  # atno 17395 bound_to 11000

$$$$
