AV-unprocessed.smi:2965|AV-procd|sdf|11322|dock3
  -GOLD-   2272016223D 1   1.00000     0.00000
 Structure written by MMmdl.
 36 37  0  0  0  0  0  0  0  0  1 V2000
  152.4654  140.1120  155.3431 O   0  0  0  0  0  0  0  0  0  0  0  0
  151.5489  139.9366  156.1477 C   0  0  0  0  0  0  0  0  0  0  0  0
  151.8237  139.3636  157.5455 C   0  0  0  0  0  0  0  0  0  0  0  0
  152.3007  140.3703  158.5086 N   0  0  0  0  0  0  0  0  0  0  0  0
  151.9557  141.7129  158.2565 C   0  0  0  0  0  0  0  0  0  0  0  0
  152.3376  142.7298  159.0530 C   0  0  0  0  0  0  0  0  0  0  0  0
  151.9003  144.1627  158.7911 C   0  0  0  0  0  0  0  0  0  0  0  0
  152.3319  144.9774  159.7540 F   0  0  0  0  0  0  0  0  0  0  0  0
  152.4058  144.5855  157.6332 F   0  0  0  0  0  0  0  0  0  0  0  0
  150.5717  144.2597  158.7246 F   0  0  0  0  0  0  0  0  0  0  0  0
  153.1100  142.3743  160.2272 C   0  0  0  0  0  0  0  0  0  0  0  0
  153.4373  141.0940  160.4900 C   0  0  0  0  0  0  0  0  0  0  0  0
  153.0303  140.0013  159.6038 C   0  0  0  0  0  0  0  0  0  0  0  0
  153.3259  138.8280  159.8318 O   0  0  0  0  0  0  0  0  0  0  0  0
  150.2655  140.2076  155.8678 N   0  0  0  0  0  0  0  0  0  0  0  0
  149.7769  140.7411  154.6016 C   0  0  0  0  0  0  0  0  0  0  0  0
  148.2568  140.9707  154.6313 C   0  0  2  0  0  0  0  0  0  0  0  0
  147.7532  141.8915  153.5219 C   0  0  0  0  0  0  0  0  0  0  0  0
  146.4623  142.4039  154.1178 C   0  0  0  0  0  0  0  0  0  0  0  0
  146.8401  142.5703  155.5871 C   0  0  0  0  0  0  0  0  0  0  0  0
  147.8679  141.6156  155.8419 O   0  0  0  0  0  0  0  0  0  0  0  0
  150.9184  138.8836  157.9226 H   0  0  0  0  0  0  0  0  0  0  0  0
  152.5514  138.5572  157.4443 H   0  0  0  0  0  0  0  0  0  0  0  0
  151.3492  141.8621  157.3750 H   0  0  0  0  0  0  0  0  0  0  0  0
  153.4347  143.1485  160.9067 H   0  0  0  0  0  0  0  0  0  0  0  0
  154.0153  140.8662  161.3738 H   0  0  0  0  0  0  0  0  0  0  0  0
  149.5744  140.0246  156.5809 H   0  0  0  0  0  0  0  0  0  0  0  0
  150.2937  141.6803  154.4028 H   0  0  0  0  0  0  0  0  0  0  0  0
  150.0411  140.0635  153.7880 H   0  0  0  0  0  0  0  0  0  0  0  0
  147.7234  140.0206  154.5689 H   0  0  0  0  0  0  0  0  0  0  0  0
  148.4450  142.7200  153.3631 H   0  0  0  0  0  0  0  0  0  0  0  0
  147.6116  141.3753  152.5719 H   0  0  0  0  0  0  0  0  0  0  0  0
  146.1133  143.3295  153.6590 H   0  0  0  0  0  0  0  0  0  0  0  0
  145.6784  141.6524  154.0135 H   0  0  0  0  0  0  0  0  0  0  0  0
  147.2444  143.5672  155.7667 H   0  0  0  0  0  0  0  0  0  0  0  0
  145.9886  142.4259  156.2522 H   0  0  0  0  0  0  0  0  0  0  0  0
  1  2  2  0  0  0  0
  2  3  1  0  0  0  0
  2 15  1  0  0  0  0
  3  4  1  0  0  0  0
  3 22  1  0  0  0  0
  3 23  1  0  0  0  0
  4 13  1  0  0  0  0
  4  5  1  0  0  0  0
  5  6  2  0  0  0  0
  5 24  1  0  0  0  0
  6  7  1  0  0  0  0
  6 11  1  0  0  0  0
  7  8  1  0  0  0  0
  7  9  1  0  0  0  0
  7 10  1  0  0  0  0
 11 12  2  0  0  0  0
 11 25  1  0  0  0  0
 12 13  1  0  0  0  0
 12 26  1  0  0  0  0
 13 14  2  0  0  0  0
 15 16  1  0  0  0  0
 15 27  1  0  0  0  0
 16 17  1  0  0  0  0
 16 28  1  0  0  0  0
 16 29  1  0  0  0  0
 17 21  1  0  0  0  0
 17 18  1  0  0  0  0
 17 30  1  0  0  0  0
 18 19  1  0  0  0  0
 18 31  1  0  0  0  0
 18 32  1  0  0  0  0
 19 20  1  0  0  0  0
 19 33  1  0  0  0  0
 19 34  1  0  0  0  0
 20 21  1  0  0  0  0
 20 35  1  0  0  0  0
 20 36  1  0  0  0  0
M  END
> <s_m_source_file>
AV-unprocessed.smi

> <i_m_source_file_index>
2965

> <i_lp_mmshare_version>
43012

> <i_f3d_flags>
0

> <s_epik_input>
TzFbQ0gyXVtDSDJdW0NIMl1bQ0BIXTFbQ0gyXVtOSF1DKD1PKVtDSDJdbjJbY0hdYyhDKEYpKEYpRilbY0hdW2NIXWMyPU8=

> <s_epik_cmdline>
J2VwaWtfcHl0aG9uJywgJy1waCcsICc3LjAnLCAnLXRuJywgJzgnLCAnLW1hJywgJzIwMCcsICctbWV0YWxfYmluZGluZycsICctaW1hZScsICc8aW5maWxlLm1hZT4nLCAnLW9tYWUnLCAnPG91dGZpbGUubWFlPic=

> <r_lp_tautomer_probability>
1

> <r_epik_Ionization_Penalty>
4.53327e-08

> <r_epik_Ionization_Penalty_Charging>
1.84737e-08

> <r_epik_Ionization_Penalty_Neutral>
2.6859e-08

> <r_epik_State_Penalty>
-0

> <r_epik_Charging_Adjusted_Penalty>
1.84737e-08

> <i_epik_Tot_Q>
0

> <i_epik_Tot_abs_Q>
0

> <r_epik_Metal_State_Penalty>
-0

> <b_epik_Metal_Only>
0

> <s_lp_Force_Field>
OPLS_2005

> <r_lp_Energy>
28.8202

> <b_lp_Chiralities_Consistent>
1

> <s_lp_Variant>
AV-unprocessed.smi:2965-1

> <Gold.Version>
5.8.1

> <Gold.Id.Protein>
6NUR|6NUR_protein|mol2

> <Gold.PLP.Fitness>
50.3898

> <Gold.PLP.PLP>
-47.5152

> <Gold.PLP.part.hbond>
-2.0000

> <Gold.PLP.part.metal>
0.0000

> <Gold.PLP.part.buried>
-2.6380

> <Gold.PLP.part.nonpolar>
-41.3353

> <Gold.PLP.part.repulsive>
0.1645

> <Gold.PLP.ligand.clash>
0.0000

> <Gold.PLP.ligand.torsion>
0.7881

> <Gold.PLP.Chemscore.Hbond>
1.4645

> <Gold.PLP.Chemscore.CHOScore>
0.0000

> <Gold.PLP.Chemscore.Metal>
0.0000

> <Gold.Chemscore.Hbonds>
donor molecule, donor type, donor heavy atom, donor atom, acceptor molecule, acceptor atom, score
      P1  H  7989  7998       L1     1  0.43
      P1  H  7997  8010       L1     1  0.98

> <Gold.PLP.Chemscore.Internal.Correction>
0.0574

> <Gold.Rescore>
     Score         DG    S(hbond)    S(metal)    S(lipo)     H(rot)  DE(clash)    DE(int)     intcor
     14.24     -15.26       1.25        0.00      88.90       1.87       0.39       0.63       ----

> <Gold.Chemscore.Fitness>
14.2394

> <Gold.Chemscore.DG>
-15.2615

> <Gold.Chemscore.ZeroCoef>
-5.4800

> <Gold.Chemscore.Hbond>
1.2461

> <Gold.Chemscore.Metal>
0.0000

> <Gold.Chemscore.Lipo>
88.9044

> <Gold.Chemscore.Internal_Hbond>
0.0000

> <Gold.Chemscore.DEClash>
0.3900

> <Gold.Chemscore.DEInternal>
0.6321

> <Gold.Chemscore.Rot>
1.8681

> <Gold.Chemscore.Internal.Correction>
   9.000000E+99

> <Gold.Chemscore.Hbonds>
donor molecule, donor type, donor heavy atom, donor atom, acceptor molecule, acceptor atom, score
      P1  H  7989  7998       L1     1  0.31
      P1  H  7997  8010       L1     1  0.90

> <Gold.Chemscore.Hbond.Weighted>
-4.1619

> <Gold.Chemscore.Metal.Weighted>
-0.0000

> <Gold.Chemscore.Lipo.Weighted>
-10.4018

> <Gold.Chemscore.Internal_Hbond.Weighted>
0.0000

> <Gold.Chemscore.DEClash.Weighted>
0.3900

> <Gold.Chemscore.DEInternal.Weighted>
0.6321

> <Gold.Chemscore.Rot.Weighted>
4.7822

> <Gold.Chemscore.Internal.Correction.Weighted>
   9.000000E+99

> <Gold.Protein.RotatedTorsions>
[ 6907 6896 6895 6894 ] final -109.10 input  -60.11 | X-H torsion
[ 7974 7965 7964 7962 ] final -133.48 input  175.53 | X-H torsion
[ 8008 7997 7996 7995 ] final   98.58 input   59.86 | X-H torsion
[ 10167 10162 10161 10158 ] final  -30.98 input  -65.29 | X-H torsion
[ 10718 10713 10712 10709 ] final  -75.47 input   66.30 | X-H torsion
[ 10763 10752 10751 10750 ] final  132.35 input  -60.55 | X-H torsion
[ 11005 11000 10999 10996 ] final   61.22 input  -57.11 | X-H torsion

> <Gold.Protein.ActiveResidues>
 VAL166  LYS551  ARG553  GLY616  TRP617  ASP618  TYR619  PRO620  LYS621  CYS622 
 ASP623  PHE694  ASN695  SER759  ASP760  ASP761  ALA762  ILE779  LEU786  VAL792 
 PHE793  MET794  SER795  GLU796  ALA797  LYS798  CYS799  TRP800  GLU811  SER814 

> <Gold.Protein.RotatedAtoms>
  150.7541  133.9580  159.3506 H   0  0  0  0  0  0  0  0  0  0  0  0  # atno 6907 bound_to 6896
  151.7503  135.0832  160.0339 H   0  0  0  0  0  0  0  0  0  0  0  0  # atno 6908 bound_to 6896
  152.3471  133.6097  159.5953 H   0  0  0  0  0  0  0  0  0  0  0  0  # atno 6909 bound_to 6896
  144.9189  140.6990  143.4977 H   0  0  0  0  0  0  0  0  0  0  0  0  # atno 7974 bound_to 7965
  156.1019  140.3241  155.7953 H   0  0  0  0  0  0  0  0  0  0  0  0  # atno 8008 bound_to 7997
  155.4822  140.0555  157.2983 H   0  0  0  0  0  0  0  0  0  0  0  0  # atno 8009 bound_to 7997
  154.4702  140.2008  156.0029 H   0  0  0  0  0  0  0  0  0  0  0  0  # atno 8010 bound_to 7997
  140.7242  143.3806  151.1607 H   0  0  0  0  0  0  0  0  0  0  0  0  # atno 10167 bound_to 10162
  156.0206  130.4441  150.3047 H   0  0  0  0  0  0  0  0  0  0  0  0  # atno 10718 bound_to 10713
  153.7893  135.3157  155.3376 H   0  0  0  0  0  0  0  0  0  0  0  0  # atno 10763 bound_to 10752
  154.8131  135.4654  154.0574 H   0  0  0  0  0  0  0  0  0  0  0  0  # atno 10764 bound_to 10752
  153.1887  135.6905  153.8467 H   0  0  0  0  0  0  0  0  0  0  0  0  # atno 10765 bound_to 10752
  140.0176  134.6201  155.9686 H   0  0  0  0  0  0  0  0  0  0  0  0  # atno 11005 bound_to 11000
  145.3329  139.1754  143.4527 LP  0  0  0  0  0  0  0  0  0  0  0  0  # atno 17320 bound_to 7965
  146.3195  140.3360  142.8644 LP  0  0  0  0  0  0  0  0  0  0  0  0  # atno 17321 bound_to 7965
  139.7395  143.8947  152.3045 LP  0  0  0  0  0  0  0  0  0  0  0  0  # atno 17342 bound_to 10162
  139.8763  144.7041  150.8929 LP  0  0  0  0  0  0  0  0  0  0  0  0  # atno 17343 bound_to 10162
  157.1150  131.0231  151.3033 LP  0  0  0  0  0  0  0  0  0  0  0  0  # atno 17370 bound_to 10713
  157.4674  130.7689  149.7292 LP  0  0  0  0  0  0  0  0  0  0  0  0  # atno 17371 bound_to 10713
  141.1753  133.6540  156.4805 LP  0  0  0  0  0  0  0  0  0  0  0  0  # atno 17394 bound_to 11000
  140.4443  134.6987  157.5008 LP  0  0  0  0  0  0  0  0  0  0  0  0  # atno 17395 bound_to 11000

$$$$
