AV-unprocessed.smi:1439|AV-procd|sdf|5869|dock2
  -GOLD-   22720 5543D 1   1.00000     0.00000
 Structure written by MMmdl.
 36 37  0  0  0  0  0  0  0  0  1 V2000
  142.3259  132.6603  150.9741 N   0  0  0  0  0  0  0  0  0  0  0  0
  143.5663  132.6951  150.4795 C   0  0  0  0  0  0  0  0  0  0  0  0
  143.9618  131.8891  149.6399 O   0  0  0  0  0  0  0  0  0  0  0  0
  144.4994  133.7873  151.0061 C   0  0  0  0  0  0  0  0  0  0  0  0
  145.6834  133.1755  151.6979 C   0  0  0  0  0  0  0  0  0  0  0  0
  145.9092  131.8371  151.9156 C   0  0  0  0  0  0  0  0  0  0  0  0
  147.4087  131.5529  152.7563 S   0  0  0  0  0  0  0  0  0  0  0  0
  147.6717  133.2975  152.7883 C   0  0  0  0  0  0  0  0  0  0  0  0
  148.7692  133.9930  153.3540 N   0  0  0  0  0  0  0  0  0  0  0  0
  149.5931  133.5818  154.3336 C   0  0  0  0  0  0  0  0  0  0  0  0
  149.5091  132.4951  154.9054 O   0  0  0  0  0  0  0  0  0  0  0  0
  150.6914  134.5714  154.7351 C   0  0  0  0  0  0  0  0  0  0  0  0
  150.3380  135.3783  155.9977 C   0  0  0  0  0  0  0  0  0  0  0  0
  150.9872  136.7699  156.0095 C   0  0  2  0  0  0  0  0  0  0  0  0
  150.6642  137.6149  154.7810 C   0  0  0  0  0  0  0  0  0  0  0  0
  151.7950  138.6276  154.7646 C   0  0  0  0  0  0  0  0  0  0  0  0
  152.9178  137.9399  155.5492 C   0  0  0  0  0  0  0  0  0  0  0  0
  152.4013  136.6733  155.9419 O   0  0  0  0  0  0  0  0  0  0  0  0
  146.6965  133.9973  152.2061 N   0  0  0  0  0  0  0  0  0  0  0  0
  141.6760  131.9599  150.6476 H   0  0  0  0  0  0  0  0  0  0  0  0
  142.0396  133.3378  151.6660 H   0  0  0  0  0  0  0  0  0  0  0  0
  144.8133  134.4240  150.1774 H   0  0  0  0  0  0  0  0  0  0  0  0
  143.9476  134.4301  151.6929 H   0  0  0  0  0  0  0  0  0  0  0  0
  145.2861  131.0033  151.6273 H   0  0  0  0  0  0  0  0  0  0  0  0
  148.9512  134.9074  152.9667 H   0  0  0  0  0  0  0  0  0  0  0  0
  151.6259  134.0321  154.8974 H   0  0  0  0  0  0  0  0  0  0  0  0
  150.8637  135.2474  153.8969 H   0  0  0  0  0  0  0  0  0  0  0  0
  149.2558  135.4850  156.0856 H   0  0  0  0  0  0  0  0  0  0  0  0
  150.6664  134.8271  156.8801 H   0  0  0  0  0  0  0  0  0  0  0  0
  150.7104  137.3137  156.9146 H   0  0  0  0  0  0  0  0  0  0  0  0
  150.7077  137.0027  153.8791 H   0  0  0  0  0  0  0  0  0  0  0  0
  149.6779  138.0773  154.8299 H   0  0  0  0  0  0  0  0  0  0  0  0
  152.0944  138.8832  153.7478 H   0  0  0  0  0  0  0  0  0  0  0  0
  151.4939  139.5472  155.2679 H   0  0  0  0  0  0  0  0  0  0  0  0
  153.8199  137.8102  154.9508 H   0  0  0  0  0  0  0  0  0  0  0  0
  153.1791  138.5195  156.4353 H   0  0  0  0  0  0  0  0  0  0  0  0
  1  2  1  0  0  0  0
  1 20  1  0  0  0  0
  1 21  1  0  0  0  0
  2  3  2  0  0  0  0
  2  4  1  0  0  0  0
  4  5  1  0  0  0  0
  4 22  1  0  0  0  0
  4 23  1  0  0  0  0
  5 19  1  0  0  0  0
  5  6  2  0  0  0  0
  6  7  1  0  0  0  0
  6 24  1  0  0  0  0
  7  8  1  0  0  0  0
  8  9  1  0  0  0  0
  8 19  2  0  0  0  0
  9 10  1  0  0  0  0
  9 25  1  0  0  0  0
 10 11  2  0  0  0  0
 10 12  1  0  0  0  0
 12 13  1  0  0  0  0
 12 26  1  0  0  0  0
 12 27  1  0  0  0  0
 13 14  1  0  0  0  0
 13 28  1  0  0  0  0
 13 29  1  0  0  0  0
 14 18  1  0  0  0  0
 14 15  1  0  0  0  0
 14 30  1  0  0  0  0
 15 16  1  0  0  0  0
 15 31  1  0  0  0  0
 15 32  1  0  0  0  0
 16 17  1  0  0  0  0
 16 33  1  0  0  0  0
 16 34  1  0  0  0  0
 17 18  1  0  0  0  0
 17 35  1  0  0  0  0
 17 36  1  0  0  0  0
M  END
> <s_m_source_file>
AV-unprocessed.smi

> <i_m_source_file_index>
1439

> <i_lp_mmshare_version>
43012

> <i_f3d_flags>
0

> <s_epik_input>
W05IMl1DKD1PKVtDSDJdYzFbY0hdc2MobjEpW05IXUMoPU8pW0NIMl1bQ0gyXVtDQEBIXTJbQ0gyXVtDSDJdW0NIMl1PMg==

> <s_epik_cmdline>
J2VwaWtfcHl0aG9uJywgJy1waCcsICc3LjAnLCAnLXRuJywgJzgnLCAnLW1hJywgJzIwMCcsICctbWV0YWxfYmluZGluZycsICctaW1hZScsICc8aW5maWxlLm1hZT4nLCAnLW9tYWUnLCAnPG91dGZpbGUubWFlPic=

> <r_lp_tautomer_probability>
1

> <r_epik_Ionization_Penalty>
0.000300833

> <r_epik_Ionization_Penalty_Charging>
0

> <r_epik_Ionization_Penalty_Neutral>
0.000300833

> <r_epik_State_Penalty>
-0

> <r_epik_Charging_Adjusted_Penalty>
0

> <i_epik_Tot_Q>
0

> <i_epik_Tot_abs_Q>
0

> <r_epik_Metal_State_Penalty>
0.167159

> <b_epik_Metal_Only>
0

> <s_lp_Force_Field>
OPLS_2005

> <r_lp_Energy>
15.8288

> <b_lp_Chiralities_Consistent>
1

> <s_lp_Variant>
AV-unprocessed.smi:1439-1

> <Gold.Version>
5.8.1

> <Gold.Id.Protein>
6NUR|6NUR_protein|mol2

> <Gold.PLP.Fitness>
43.0342

> <Gold.PLP.PLP>
-32.9889

> <Gold.PLP.part.hbond>
-4.7818

> <Gold.PLP.part.metal>
0.0000

> <Gold.PLP.part.buried>
-5.7151

> <Gold.PLP.part.nonpolar>
-23.8863

> <Gold.PLP.part.repulsive>
0.4205

> <Gold.PLP.ligand.clash>
0.0000

> <Gold.PLP.ligand.torsion>
0.6210

> <Gold.PLP.Chemscore.Hbond>
3.7360

> <Gold.PLP.Chemscore.CHOScore>
0.0000

> <Gold.PLP.Chemscore.Metal>
0.0000

> <Gold.Chemscore.Hbonds>
donor molecule, donor type, donor heavy atom, donor atom, acceptor molecule, acceptor atom, score
      L1  H     1    20       P1 10952  0.66
      L1  H     9    25       P1  7948  0.75
      P1  H 10752 10763       L1    18  1.00
      P1  H 10785 10796       L1     3  0.64

> <Gold.PLP.Chemscore.Internal.Correction>
0.0794

> <Gold.Rescore>
     Score         DG    S(hbond)    S(metal)    S(lipo)     H(rot)  DE(clash)    DE(int)     intcor
     11.97     -13.35       2.33        0.00      56.73       2.56       0.24       1.15       ----

> <Gold.Chemscore.Fitness>
11.9658

> <Gold.Chemscore.DG>
-13.3544

> <Gold.Chemscore.ZeroCoef>
-5.4800

> <Gold.Chemscore.Hbond>
2.3323

> <Gold.Chemscore.Metal>
0.0000

> <Gold.Chemscore.Lipo>
56.7324

> <Gold.Chemscore.Internal_Hbond>
0.0000

> <Gold.Chemscore.DEClash>
0.2403

> <Gold.Chemscore.DEInternal>
1.1484

> <Gold.Chemscore.Rot>
2.5598

> <Gold.Chemscore.Internal.Correction>
   9.000000E+99

> <Gold.Chemscore.Hbonds>
donor molecule, donor type, donor heavy atom, donor atom, acceptor molecule, acceptor atom, score
      L1  H     1    20       P1 10952  0.10
      L1  H     9    25       P1  7948  0.09
      P1  H 10752 10763       L1    18  0.60
      P1  H 10785 10796       L1     3  0.62

> <Gold.Chemscore.Hbond.Weighted>
-7.7899

> <Gold.Chemscore.Metal.Weighted>
-0.0000

> <Gold.Chemscore.Lipo.Weighted>
-6.6377

> <Gold.Chemscore.Internal_Hbond.Weighted>
0.0000

> <Gold.Chemscore.DEClash.Weighted>
0.2403

> <Gold.Chemscore.DEInternal.Weighted>
1.1484

> <Gold.Chemscore.Rot.Weighted>
6.5532

> <Gold.Chemscore.Internal.Correction.Weighted>
   9.000000E+99

> <Gold.Protein.RotatedTorsions>
[ 6907 6896 6895 6894 ] final -130.63 input  -60.11 | X-H torsion
[ 7974 7965 7964 7962 ] final    7.53 input  175.53 | X-H torsion
[ 8008 7997 7996 7995 ] final -165.68 input   59.86 | X-H torsion
[ 10167 10162 10161 10158 ] final  -71.88 input  -65.29 | X-H torsion
[ 10718 10713 10712 10709 ] final  -75.20 input   66.30 | X-H torsion
[ 10763 10752 10751 10750 ] final   85.14 input  -60.55 | X-H torsion
[ 11005 11000 10999 10996 ] final -112.83 input  -57.11 | X-H torsion

> <Gold.Protein.ActiveResidues>
 VAL166  LYS551  ARG553  GLY616  TRP617  ASP618  TYR619  PRO620  LYS621  CYS622 
 ASP623  PHE694  ASN695  SER759  ASP760  ASP761  ALA762  ILE779  LEU786  VAL792 
 PHE793  MET794  SER795  GLU796  ALA797  LYS798  CYS799  TRP800  GLU811  SER814 

> <Gold.Protein.RotatedAtoms>
  150.9419  133.6647  159.2788 H   0  0  0  0  0  0  0  0  0  0  0  0  # atno 6907 bound_to 6896
  151.4033  135.0973  159.9572 H   0  0  0  0  0  0  0  0  0  0  0  0  # atno 6908 bound_to 6896
  152.5073  133.8908  159.7447 H   0  0  0  0  0  0  0  0  0  0  0  0  # atno 6909 bound_to 6896
  146.2425  140.0069  142.8410 H   0  0  0  0  0  0  0  0  0  0  0  0  # atno 7974 bound_to 7965
  155.8532  140.0966  157.1661 H   0  0  0  0  0  0  0  0  0  0  0  0  # atno 8008 bound_to 7997
  154.3986  140.1379  156.3932 H   0  0  0  0  0  0  0  0  0  0  0  0  # atno 8009 bound_to 7997
  155.7938  140.3455  155.5367 H   0  0  0  0  0  0  0  0  0  0  0  0  # atno 8010 bound_to 7997
  140.5237  143.2328  151.7384 H   0  0  0  0  0  0  0  0  0  0  0  0  # atno 10167 bound_to 10162
  156.0216  130.4435  150.3007 H   0  0  0  0  0  0  0  0  0  0  0  0  # atno 10718 bound_to 10713
  153.1447  135.4628  154.9548 H   0  0  0  0  0  0  0  0  0  0  0  0  # atno 10763 bound_to 10752
  154.7776  135.3178  154.8060 H   0  0  0  0  0  0  0  0  0  0  0  0  # atno 10764 bound_to 10752
  153.8577  135.6915  153.4840 H   0  0  0  0  0  0  0  0  0  0  0  0  # atno 10765 bound_to 10752
  141.0652  133.9471  157.2593 H   0  0  0  0  0  0  0  0  0  0  0  0  # atno 11005 bound_to 11000
  145.1364  140.9547  143.4514 LP  0  0  0  0  0  0  0  0  0  0  0  0  # atno 17320 bound_to 7965
  145.0338  139.3318  143.6011 LP  0  0  0  0  0  0  0  0  0  0  0  0  # atno 17321 bound_to 7965
  139.4931  144.4217  151.9971 LP  0  0  0  0  0  0  0  0  0  0  0  0  # atno 17342 bound_to 10162
  140.3315  144.3311  150.5986 LP  0  0  0  0  0  0  0  0  0  0  0  0  # atno 17343 bound_to 10162
  157.1109  131.0221  151.3048 LP  0  0  0  0  0  0  0  0  0  0  0  0  # atno 17370 bound_to 10713
  157.4705  130.7706  149.7319 LP  0  0  0  0  0  0  0  0  0  0  0  0  # atno 17371 bound_to 10713
  139.9469  135.0182  156.8879 LP  0  0  0  0  0  0  0  0  0  0  0  0  # atno 17394 bound_to 11000
  140.5788  134.0372  155.7457 LP  0  0  0  0  0  0  0  0  0  0  0  0  # atno 17395 bound_to 11000

$$$$
