AV-unprocessed.smi:3058|AV-procd|sdf|11674|dock9
  -GOLD-   2272017 83D 1   1.00000     0.00000
 Structure written by MMmdl.
 39 41  0  0  0  0  0  0  0  0  2 V2000
  149.5386  141.4927  158.0176 O   0  0  0  0  0  0  0  0  0  0  0  0
  150.6230  142.0666  157.9076 C   0  0  0  0  0  0  0  0  0  0  0  0
  151.7292  141.4532  157.4594 N   0  0  0  0  0  0  0  0  0  0  0  0
  151.8045  140.0521  157.0638 C   0  0  0  0  0  0  0  0  0  0  0  0
  151.9503  139.9014  155.5407 C   0  0  0  0  0  0  0  0  0  0  0  0
  150.6056  139.8284  154.8446 C   0  0  0  0  0  0  0  0  0  0  0  0
  149.6769  140.8852  154.9693 C   0  0  0  0  0  0  0  0  0  0  0  0
  148.4348  140.7960  154.3072 C   0  0  0  0  0  0  0  0  0  0  0  0
  148.1498  139.6521  153.5341 C   0  0  0  0  0  0  0  0  0  0  0  0
  149.0634  138.6610  153.4372 N   0  3  0  0  0  0  0  0  0  0  0  0
  150.2636  138.7081  154.0565 C   0  0  0  0  0  0  0  0  0  0  0  0
  150.7729  143.5563  158.2641 C   0  0  1  0  0  0  0  0  0  0  0  0
  150.1194  143.9711  159.6058 C   0  0  0  0  0  0  0  0  0  0  0  0
  151.2713  144.6722  160.3502 C   0  0  1  0  0  0  0  0  0  0  0  0
  152.2935  143.6214  160.8230 C   0  0  0  0  0  0  0  0  0  0  0  0
  153.0051  143.2279  159.5155 C   0  0  0  0  0  0  0  0  0  0  0  0
  152.2354  144.0417  158.4517 C   0  0  2  0  0  0  0  0  0  0  0  0
  152.0162  145.3501  159.2059 C   0  0  0  0  0  0  0  0  0  0  0  0
  152.5774  141.9966  157.3888 H   0  0  0  0  0  0  0  0  0  0  0  0
  152.6349  139.5655  157.5785 H   0  0  0  0  0  0  0  0  0  0  0  0
  150.8956  139.5539  157.4022 H   0  0  0  0  0  0  0  0  0  0  0  0
  152.5188  140.7389  155.1339 H   0  0  0  0  0  0  0  0  0  0  0  0
  152.5178  139.0012  155.3005 H   0  0  0  0  0  0  0  0  0  0  0  0
  149.9136  141.7561  155.5636 H   0  0  0  0  0  0  0  0  0  0  0  0
  147.7122  141.5947  154.3911 H   0  0  0  0  0  0  0  0  0  0  0  0
  147.2264  139.5016  152.9939 H   0  0  0  0  0  0  0  0  0  0  0  0
  150.9089  137.8555  153.9015 H   0  0  0  0  0  0  0  0  0  0  0  0
  150.3131  144.1437  157.4668 H   0  0  0  0  0  0  0  0  0  0  0  0
  149.3027  144.6712  159.4241 H   0  0  0  0  0  0  0  0  0  0  0  0
  149.7081  143.1424  160.1838 H   0  0  0  0  0  0  0  0  0  0  0  0
  150.9346  145.3410  161.1428 H   0  0  0  0  0  0  0  0  0  0  0  0
  153.0023  144.0530  161.5309 H   0  0  0  0  0  0  0  0  0  0  0  0
  151.8131  142.7700  161.3065 H   0  0  0  0  0  0  0  0  0  0  0  0
  154.0485  143.5452  159.5479 H   0  0  0  0  0  0  0  0  0  0  0  0
  153.0071  142.1533  159.3379 H   0  0  0  0  0  0  0  0  0  0  0  0
  152.7783  144.1541  157.5127 H   0  0  0  0  0  0  0  0  0  0  0  0
  151.4061  146.0712  158.6587 H   0  0  0  0  0  0  0  0  0  0  0  0
  152.9435  145.8331  159.5191 H   0  0  0  0  0  0  0  0  0  0  0  0
  148.8375  137.8421  152.8718 H   0  0  0  0  0  0  0  0  0  0  0  0
  1  2  2  0  0  0  0
  2  3  1  0  0  0  0
  2 12  1  0  0  0  0
  3  4  1  0  0  0  0
  3 19  1  0  0  0  0
  4  5  1  0  0  0  0
  4 20  1  0  0  0  0
  4 21  1  0  0  0  0
  5  6  1  0  0  0  0
  5 22  1  0  0  0  0
  5 23  1  0  0  0  0
  6 11  1  0  0  0  0
  6  7  2  0  0  0  0
  7  8  1  0  0  0  0
  7 24  1  0  0  0  0
  8  9  2  0  0  0  0
  8 25  1  0  0  0  0
  9 10  1  0  0  0  0
  9 26  1  0  0  0  0
 10 11  2  0  0  0  0
 10 39  1  0  0  0  0
 11 27  1  0  0  0  0
 12 17  1  0  0  0  0
 12 13  1  0  0  0  0
 12 28  1  0  0  0  0
 13 14  1  0  0  0  0
 13 29  1  0  0  0  0
 13 30  1  0  0  0  0
 14 18  1  0  0  0  0
 14 15  1  0  0  0  0
 14 31  1  0  0  0  0
 15 16  1  0  0  0  0
 15 32  1  0  0  0  0
 15 33  1  0  0  0  0
 16 17  1  0  0  0  0
 16 34  1  0  0  0  0
 16 35  1  0  0  0  0
 17 18  1  0  0  0  0
 17 36  1  0  0  0  0
 18 37  1  0  0  0  0
 18 38  1  0  0  0  0
M  CHG  1  10   1
M  END
> <s_m_source_file>
AV-unprocessed.smi

> <i_m_source_file_index>
3058

> <i_lp_mmshare_version>
43012

> <i_f3d_flags>
0

> <s_epik_input>
W0NIMl0xW0NIMl1bQ0BIXShbQ0gyXTIpW0NAQEhdKFtDSDJdW0NAQEhdMTIpQyg9TylbTkhdW0NIMl1bQ0gyXWMzW2NIXVtjSF1bY0hdbltjSF0z

> <s_epik_cmdline>
J2VwaWtfcHl0aG9uJywgJy1waCcsICc3LjAnLCAnLXRuJywgJzgnLCAnLW1hJywgJzIwMCcsICctbWV0YWxfYmluZGluZycsICctaW1hZScsICc8aW5maWxlLm1hZT4nLCAnLW9tYWUnLCAnPG91dGZpbGUubWFlPic=

> <r_epik_Ionization_Penalty>
2.24375

> <r_epik_Ionization_Penalty_Charging>
2.24375

> <r_epik_Ionization_Penalty_Neutral>
1.89995e-08

> <r_epik_State_Penalty>
2.39035

> <r_epik_Charging_Adjusted_Penalty>
4.63411

> <i_epik_Tot_Q>
1

> <i_epik_Tot_abs_Q>
1

> <r_epik_Metal_State_Penalty>
2.40369

> <b_epik_Metal_Only>
0

> <s_lp_Force_Field>
OPLS_2005

> <r_lp_Energy>
53.8875

> <b_lp_Chiralities_Consistent>
1

> <s_lp_Variant>
AV-unprocessed.smi:3058-6

> <Gold.Version>
5.8.1

> <Gold.Id.Protein>
6NUR|6NUR_protein|mol2

> <Gold.PLP.Fitness>
49.7951

> <Gold.PLP.PLP>
-45.0580

> <Gold.PLP.part.hbond>
-2.0000

> <Gold.PLP.part.metal>
0.0000

> <Gold.PLP.part.buried>
-2.4998

> <Gold.PLP.part.nonpolar>
-41.2148

> <Gold.PLP.part.repulsive>
0.2186

> <Gold.PLP.ligand.clash>
0.0000

> <Gold.PLP.ligand.torsion>
0.6363

> <Gold.PLP.Chemscore.Hbond>
2.0000

> <Gold.PLP.Chemscore.CHOScore>
0.0000

> <Gold.PLP.Chemscore.Metal>
0.0000

> <Gold.Chemscore.Hbonds>
donor molecule, donor type, donor heavy atom, donor atom, acceptor molecule, acceptor atom, score
      L1  H    10    39       P1  7948  2.00

> <Gold.PLP.Chemscore.Internal.Correction>
0.0096

> <Gold.Rescore>
     Score         DG    S(hbond)    S(metal)    S(lipo)     H(rot)  DE(clash)    DE(int)     intcor
     18.48     -20.27       0.98        0.00     130.37       1.45       0.13       1.65       ----

> <Gold.Chemscore.Fitness>
18.4850

> <Gold.Chemscore.DG>
-20.2677

> <Gold.Chemscore.ZeroCoef>
-5.4800

> <Gold.Chemscore.Hbond>
0.9755

> <Gold.Chemscore.Metal>
0.0000

> <Gold.Chemscore.Lipo>
130.3748

> <Gold.Chemscore.Internal_Hbond>
0.0000

> <Gold.Chemscore.DEClash>
0.1332

> <Gold.Chemscore.DEInternal>
1.6496

> <Gold.Chemscore.Rot>
1.4548

> <Gold.Chemscore.Internal.Correction>
   9.000000E+99

> <Gold.Chemscore.Hbonds>
donor molecule, donor type, donor heavy atom, donor atom, acceptor molecule, acceptor atom, score
      L1  H    10    39       P1  7948  1.00

> <Gold.Chemscore.Hbond.Weighted>
-3.2581

> <Gold.Chemscore.Metal.Weighted>
-0.0000

> <Gold.Chemscore.Lipo.Weighted>
-15.2539

> <Gold.Chemscore.Internal_Hbond.Weighted>
0.0000

> <Gold.Chemscore.DEClash.Weighted>
0.1332

> <Gold.Chemscore.DEInternal.Weighted>
1.6496

> <Gold.Chemscore.Rot.Weighted>
3.7242

> <Gold.Chemscore.Internal.Correction.Weighted>
   9.000000E+99

> <Gold.Protein.RotatedTorsions>
[ 6907 6896 6895 6894 ] final -118.02 input  -60.11 | X-H torsion
[ 7974 7965 7964 7962 ] final  114.56 input  175.53 | X-H torsion
[ 8008 7997 7996 7995 ] final  155.12 input   59.86 | X-H torsion
[ 10167 10162 10161 10158 ] final -122.61 input  -65.29 | X-H torsion
[ 10718 10713 10712 10709 ] final -156.83 input   66.30 | X-H torsion
[ 10763 10752 10751 10750 ] final   72.92 input  -60.55 | X-H torsion
[ 11005 11000 10999 10996 ] final  -74.71 input  -57.11 | X-H torsion

> <Gold.Protein.ActiveResidues>
 VAL166  LYS551  ARG553  GLY616  TRP617  ASP618  TYR619  PRO620  LYS621  CYS622 
 ASP623  PHE694  ASN695  SER759  ASP760  ASP761  ALA762  ILE779  LEU786  VAL792 
 PHE793  MET794  SER795  GLU796  ALA797  LYS798  CYS799  TRP800  GLU811  SER814 

> <Gold.Protein.RotatedAtoms>
  150.8185  133.8294  159.3149 H   0  0  0  0  0  0  0  0  0  0  0  0  # atno 6907 bound_to 6896
  151.6059  135.1042  160.0080 H   0  0  0  0  0  0  0  0  0  0  0  0  # atno 6908 bound_to 6896
  152.4275  133.7180  159.6573 H   0  0  0  0  0  0  0  0  0  0  0  0  # atno 6909 bound_to 6896
  145.2028  139.2944  143.4309 H   0  0  0  0  0  0  0  0  0  0  0  0  # atno 7974 bound_to 7965
  156.2495  140.1948  156.6752 H   0  0  0  0  0  0  0  0  0  0  0  0  # atno 8008 bound_to 7997
  154.6363  140.0589  156.9818 H   0  0  0  0  0  0  0  0  0  0  0  0  # atno 8009 bound_to 7997
  155.1632  140.3261  155.4410 H   0  0  0  0  0  0  0  0  0  0  0  0  # atno 8010 bound_to 7997
  140.0124  143.5428  152.2257 H   0  0  0  0  0  0  0  0  0  0  0  0  # atno 10167 bound_to 10162
  156.5320  130.8525  151.2719 H   0  0  0  0  0  0  0  0  0  0  0  0  # atno 10718 bound_to 10713
  153.0489  135.5082  154.7816 H   0  0  0  0  0  0  0  0  0  0  0  0  # atno 10763 bound_to 10752
  154.6694  135.2950  154.9764 H   0  0  0  0  0  0  0  0  0  0  0  0  # atno 10764 bound_to 10752
  154.0588  135.6694  153.4862 H   0  0  0  0  0  0  0  0  0  0  0  0  # atno 10765 bound_to 10752
  141.1638  133.6921  156.7406 H   0  0  0  0  0  0  0  0  0  0  0  0  # atno 11005 bound_to 11000
  146.3414  140.2279  142.8592 LP  0  0  0  0  0  0  0  0  0  0  0  0  # atno 17320 bound_to 7965
  144.9931  140.8564  143.5327 LP  0  0  0  0  0  0  0  0  0  0  0  0  # atno 17321 bound_to 7965
  139.6196  144.7626  151.2771 LP  0  0  0  0  0  0  0  0  0  0  0  0  # atno 17342 bound_to 10162
  140.7376  143.6674  150.8111 LP  0  0  0  0  0  0  0  0  0  0  0  0  # atno 17343 bound_to 10162
  157.7420  130.9881  150.2486 LP  0  0  0  0  0  0  0  0  0  0  0  0  # atno 17370 bound_to 10713
  156.3051  130.3764  149.7714 LP  0  0  0  0  0  0  0  0  0  0  0  0  # atno 17371 bound_to 10713
  140.2677  134.8417  157.3818 LP  0  0  0  0  0  0  0  0  0  0  0  0  # atno 17394 bound_to 11000
  140.1551  134.4800  155.7934 LP  0  0  0  0  0  0  0  0  0  0  0  0  # atno 17395 bound_to 11000

$$$$
