AV-unprocessed.smi:2060|AV-procd|sdf|8359|dock6
  -GOLD-   2272011 33D 1   1.00000     0.00000
 Structure written by MMmdl.
 45 46  0  0  0  0  0  0  0  0  3 V2000
  144.1865  132.9765  151.4306 C   0  0  0  0  0  0  0  0  0  0  0  0
  145.1218  132.9264  152.6595 C   0  0  0  0  0  0  0  0  0  0  0  0
  146.5510  133.5668  152.5278 C   0  0  2  0  0  0  0  0  0  0  0  0
  147.2266  132.9639  151.2535 C   0  0  0  0  0  0  0  0  0  0  0  0
  147.4601  133.2267  153.7684 C   0  0  0  0  0  0  0  0  0  0  0  0
  148.8596  133.5918  153.5170 N   0  5  0  0  0  0  0  0  0  0  0  0
  149.6762  134.1989  154.4206 C   0  0  0  0  0  0  0  0  0  0  0  0
  150.2243  133.6858  155.4030 O   0  0  0  0  0  0  0  0  0  0  0  0
  149.8546  135.5043  154.1470 N   0  0  0  0  0  0  0  0  0  0  0  0
  150.6221  136.4651  154.8574 C   0  0  0  0  0  0  0  0  0  0  0  0
  150.4892  137.8509  154.5745 C   0  0  0  0  0  0  0  0  0  0  0  0
  151.3692  138.4301  155.4447 C   0  0  0  0  0  0  0  0  0  0  0  0
  151.7548  139.8455  155.7063 C   0  0  0  0  0  0  0  0  0  0  0  0
  151.9871  137.4794  156.1965 O   0  0  0  0  0  0  0  0  0  0  0  0
  151.5032  136.2220  155.8163 N   0  0  0  0  0  0  0  0  0  0  0  0
  146.4288  135.0777  152.4253 N   0  3  0  0  0  0  0  0  0  0  0  0
  145.6347  135.6158  151.2825 C   0  0  0  0  0  0  0  0  0  0  0  0
  145.7846  137.1447  151.1870 C   0  0  0  0  0  0  0  0  0  0  0  0
  145.3997  137.7566  152.4093 O   0  0  0  0  0  0  0  0  0  0  0  0
  146.2146  137.3218  153.4879 C   0  0  0  0  0  0  0  0  0  0  0  0
  146.0372  135.8080  153.6719 C   0  0  0  0  0  0  0  0  0  0  0  0
  143.2464  132.4715  151.6529 H   0  0  0  0  0  0  0  0  0  0  0  0
  144.6167  132.4804  150.5607 H   0  0  0  0  0  0  0  0  0  0  0  0
  143.9367  133.9990  151.1492 H   0  0  0  0  0  0  0  0  0  0  0  0
  144.5935  133.4284  153.4711 H   0  0  0  0  0  0  0  0  0  0  0  0
  145.1882  131.8816  152.9698 H   0  0  0  0  0  0  0  0  0  0  0  0
  147.4474  131.8983  151.3470 H   0  0  0  0  0  0  0  0  0  0  0  0
  148.1719  133.4510  151.0052 H   0  0  0  0  0  0  0  0  0  0  0  0
  146.5792  133.0527  150.3804 H   0  0  0  0  0  0  0  0  0  0  0  0
  147.0619  133.7473  154.6401 H   0  0  0  0  0  0  0  0  0  0  0  0
  147.3671  132.1668  154.0054 H   0  0  0  0  0  0  0  0  0  0  0  0
  149.3821  135.8478  153.3244 H   0  0  0  0  0  0  0  0  0  0  0  0
  149.8541  138.3412  153.8518 H   0  0  0  0  0  0  0  0  0  0  0  0
  151.1210  140.5321  155.1448 H   0  0  0  0  0  0  0  0  0  0  0  0
  152.7895  140.0236  155.4130 H   0  0  0  0  0  0  0  0  0  0  0  0
  151.6561  140.0840  156.7653 H   0  0  0  0  0  0  0  0  0  0  0  0
  145.9685  135.2155  150.3275 H   0  0  0  0  0  0  0  0  0  0  0  0
  144.5852  135.3439  151.4013 H   0  0  0  0  0  0  0  0  0  0  0  0
  146.8121  137.4175  150.9404 H   0  0  0  0  0  0  0  0  0  0  0  0
  145.1543  137.5323  150.3864 H   0  0  0  0  0  0  0  0  0  0  0  0
  147.2603  137.5766  153.3065 H   0  0  0  0  0  0  0  0  0  0  0  0
  145.9095  137.8483  154.3924 H   0  0  0  0  0  0  0  0  0  0  0  0
  144.9947  135.6031  153.9174 H   0  0  0  0  0  0  0  0  0  0  0  0
  146.6322  135.4940  154.5287 H   0  0  0  0  0  0  0  0  0  0  0  0
  147.3796  135.3643  152.2335 H   0  0  0  0  0  0  0  0  0  0  0  0
  1  2  1  0  0  0  0
  1 22  1  0  0  0  0
  1 23  1  0  0  0  0
  1 24  1  0  0  0  0
  2  3  1  0  0  0  0
  2 25  1  0  0  0  0
  2 26  1  0  0  0  0
  3  4  1  0  0  0  0
  3  5  1  0  0  0  0
  3 16  1  0  0  0  0
  4 27  1  0  0  0  0
  4 28  1  0  0  0  0
  4 29  1  0  0  0  0
  5  6  1  0  0  0  0
  5 30  1  0  0  0  0
  5 31  1  0  0  0  0
  6  7  1  0  0  0  0
  7  8  2  0  0  0  0
  7  9  1  0  0  0  0
  9 10  1  0  0  0  0
  9 32  1  0  0  0  0
 10 15  2  0  0  0  0
 10 11  1  0  0  0  0
 11 12  2  0  0  0  0
 11 33  1  0  0  0  0
 12 13  1  0  0  0  0
 12 14  1  0  0  0  0
 13 34  1  0  0  0  0
 13 35  1  0  0  0  0
 13 36  1  0  0  0  0
 14 15  1  0  0  0  0
 16 21  1  0  0  0  0
 16 17  1  0  0  0  0
 16 45  1  0  0  0  0
 17 18  1  0  0  0  0
 17 37  1  0  0  0  0
 17 38  1  0  0  0  0
 18 19  1  0  0  0  0
 18 39  1  0  0  0  0
 18 40  1  0  0  0  0
 19 20  1  0  0  0  0
 20 21  1  0  0  0  0
 20 41  1  0  0  0  0
 20 42  1  0  0  0  0
 21 43  1  0  0  0  0
 21 44  1  0  0  0  0
M  CHG  1   6  -1
M  CHG  1  16   1
M  END
> <s_m_source_file>
AV-unprocessed.smi

> <i_m_source_file_index>
2060

> <i_lp_mmshare_version>
43012

> <i_f3d_flags>
0

> <s_epik_input>
W0NIMl0xW0NIMl1PW0NIMl1bQ0gyXU4xW0NAQF0oW0NIM10pKFtDSDJdW0NIM10pW0NIMl1bTkhdQyg9TylbTkhdYzJbY0hdYyhbQ0gzXSlvbjI=

> <s_epik_cmdline>
J2VwaWtfcHl0aG9uJywgJy1waCcsICc3LjAnLCAnLXRuJywgJzgnLCAnLW1hJywgJzIwMCcsICctbWV0YWxfYmluZGluZycsICctaW1hZScsICc8aW5maWxlLm1hZT4nLCAnLW9tYWUnLCAnPG91dGZpbGUubWFlPic=

> <r_epik_Ionization_Penalty>
6.79469

> <r_epik_Ionization_Penalty_Charging>
6.79469

> <r_epik_Ionization_Penalty_Neutral>
5.68576e-06

> <r_epik_State_Penalty>
7.33145

> <r_epik_Charging_Adjusted_Penalty>
14.1261

> <i_epik_Tot_Q>
0

> <i_epik_Tot_abs_Q>
2

> <r_epik_Metal_State_Penalty>
3.24803

> <b_epik_Metal_Only>
1

> <s_lp_Force_Field>
OPLS_2005

> <r_lp_Energy>
28.6548

> <b_lp_Chiralities_Consistent>
1

> <s_lp_Variant>
AV-unprocessed.smi:2060-6

> <Gold.Version>
5.8.1

> <Gold.Id.Protein>
6NUR|6NUR_protein|mol2

> <Gold.PLP.Fitness>
37.3156

> <Gold.PLP.PLP>
-27.2284

> <Gold.PLP.part.hbond>
-3.9655

> <Gold.PLP.part.metal>
0.0000

> <Gold.PLP.part.buried>
2.5893

> <Gold.PLP.part.nonpolar>
-26.7421

> <Gold.PLP.part.repulsive>
1.1369

> <Gold.PLP.ligand.clash>
0.0000

> <Gold.PLP.ligand.torsion>
1.0911

> <Gold.PLP.Chemscore.Hbond>
3.9913

> <Gold.PLP.Chemscore.CHOScore>
0.0000

> <Gold.PLP.Chemscore.Metal>
0.0000

> <Gold.Chemscore.Hbonds>
donor molecule, donor type, donor heavy atom, donor atom, acceptor molecule, acceptor atom, score
      L1  H     9    32       P1  7948  1.00
      L1  H    16    45       P1  7948  2.00
      P1  H 10752 10764       L1    15  1.00

> <Gold.PLP.Chemscore.Internal.Correction>
0.2956

> <Gold.Rescore>
     Score         DG    S(hbond)    S(metal)    S(lipo)     H(rot)  DE(clash)    DE(int)     intcor
     10.74     -14.91       1.85        0.00      65.71       1.73       1.48       2.69       ----

> <Gold.Chemscore.Fitness>
10.7350

> <Gold.Chemscore.DG>
-14.9089

> <Gold.Chemscore.ZeroCoef>
-5.4800

> <Gold.Chemscore.Hbond>
1.8468

> <Gold.Chemscore.Metal>
0.0000

> <Gold.Chemscore.Lipo>
65.7088

> <Gold.Chemscore.Internal_Hbond>
0.0000

> <Gold.Chemscore.DEClash>
1.4795

> <Gold.Chemscore.DEInternal>
2.6944

> <Gold.Chemscore.Rot>
1.7294

> <Gold.Chemscore.Internal.Correction>
   9.000000E+99

> <Gold.Chemscore.Hbonds>
donor molecule, donor type, donor heavy atom, donor atom, acceptor molecule, acceptor atom, score
      L1  H     9    32       P1  7948  0.37
      L1  H    16    45       P1  7948  1.00
      P1  H 10752 10764       L1    15  0.12

> <Gold.Chemscore.Hbond.Weighted>
-6.1682

> <Gold.Chemscore.Metal.Weighted>
-0.0000

> <Gold.Chemscore.Lipo.Weighted>
-7.6879

> <Gold.Chemscore.Internal_Hbond.Weighted>
0.0000

> <Gold.Chemscore.DEClash.Weighted>
1.4795

> <Gold.Chemscore.DEInternal.Weighted>
2.6944

> <Gold.Chemscore.Rot.Weighted>
4.4272

> <Gold.Chemscore.Internal.Correction.Weighted>
   9.000000E+99

> <Gold.Protein.RotatedTorsions>
[ 6907 6896 6895 6894 ] final   93.16 input  -60.11 | X-H torsion
[ 7974 7965 7964 7962 ] final  180.00 input  175.53 | X-H torsion
[ 8008 7997 7996 7995 ] final -129.83 input   59.86 | X-H torsion
[ 10167 10162 10161 10158 ] final  -28.48 input  -65.29 | X-H torsion
[ 10718 10713 10712 10709 ] final   90.82 input   66.30 | X-H torsion
[ 10763 10752 10751 10750 ] final  -44.88 input  -60.55 | X-H torsion
[ 11005 11000 10999 10996 ] final  -76.96 input  -57.11 | X-H torsion

> <Gold.Protein.ActiveResidues>
 VAL166  LYS551  ARG553  GLY616  TRP617  ASP618  TYR619  PRO620  LYS621  CYS622 
 ASP623  PHE694  ASN695  SER759  ASP760  ASP761  ALA762  ILE779  LEU786  VAL792 
 PHE793  MET794  SER795  GLU796  ALA797  LYS798  CYS799  TRP800  GLU811  SER814 

> <Gold.Protein.RotatedAtoms>
  152.5453  134.1391  159.8471 H   0  0  0  0  0  0  0  0  0  0  0  0  # atno 6907 bound_to 6896
  151.1429  133.4952  159.2604 H   0  0  0  0  0  0  0  0  0  0  0  0  # atno 6908 bound_to 6896
  151.1554  135.0258  159.8741 H   0  0  0  0  0  0  0  0  0  0  0  0  # atno 6909 bound_to 6896
  144.7141  140.0632  143.6432 H   0  0  0  0  0  0  0  0  0  0  0  0  # atno 7974 bound_to 7965
  155.2857  140.0446  157.3019 H   0  0  0  0  0  0  0  0  0  0  0  0  # atno 8008 bound_to 7997
  154.5570  140.2335  155.8362 H   0  0  0  0  0  0  0  0  0  0  0  0  # atno 8009 bound_to 7997
  156.2016  140.3024  155.9545 H   0  0  0  0  0  0  0  0  0  0  0  0  # atno 8010 bound_to 7997
  140.7269  143.4007  151.1270 H   0  0  0  0  0  0  0  0  0  0  0  0  # atno 10167 bound_to 10162
  157.6959  131.0385  150.3636 H   0  0  0  0  0  0  0  0  0  0  0  0  # atno 10718 bound_to 10713
  154.0193  135.6671  153.4771 H   0  0  0  0  0  0  0  0  0  0  0  0  # atno 10763 bound_to 10752
  153.0587  135.5041  154.8038 H   0  0  0  0  0  0  0  0  0  0  0  0  # atno 10764 bound_to 10752
  154.6947  135.3068  154.9393 H   0  0  0  0  0  0  0  0  0  0  0  0  # atno 10765 bound_to 10752
  141.1657  133.7004  156.7748 H   0  0  0  0  0  0  0  0  0  0  0  0  # atno 11005 bound_to 11000
  145.9846  139.2967  143.1021 LP  0  0  0  0  0  0  0  0  0  0  0  0  # atno 17320 bound_to 7965
  145.8972  140.9266  143.0521 LP  0  0  0  0  0  0  0  0  0  0  0  0  # atno 17321 bound_to 7965
  139.7626  143.8612  152.3103 LP  0  0  0  0  0  0  0  0  0  0  0  0  # atno 17342 bound_to 10162
  139.8503  144.7167  150.9222 LP  0  0  0  0  0  0  0  0  0  0  0  0  # atno 17343 bound_to 10162
  156.4069  130.3926  149.6919 LP  0  0  0  0  0  0  0  0  0  0  0  0  # atno 17370 bound_to 10713
  156.4217  130.7772  151.2789 LP  0  0  0  0  0  0  0  0  0  0  0  0  # atno 17371 bound_to 10713
  140.2437  134.8593  157.3599 LP  0  0  0  0  0  0  0  0  0  0  0  0  # atno 17394 bound_to 11000
  140.1770  134.4537  155.7795 LP  0  0  0  0  0  0  0  0  0  0  0  0  # atno 17395 bound_to 11000

$$$$
