AV-unprocessed.smi:54|AV-procd|sdf|539|dock3
  -GOLD-   2262016423D 1   1.00000     0.00000
 Structure written by MMmdl.
 44 46  0  0  0  0  0  0  0  0  1 V2000
  153.1106  142.3350  161.8871 C   0  0  0  0  0  0  0  0  0  0  0  0
  153.0783  142.3780  160.3506 C   0  0  0  0  0  0  0  0  0  0  0  0
  151.8756  143.1880  159.8402 C   0  0  0  0  0  0  0  0  0  0  0  0
  153.0575  140.9594  159.7699 C   0  0  0  0  0  0  0  0  0  0  0  0
  153.6716  140.0303  160.2958 O   0  0  0  0  0  0  0  0  0  0  0  0
  152.2624  140.7919  158.5663 N   0  0  0  0  0  0  0  0  0  0  0  0
  152.0722  139.6557  157.8559 C   0  0  0  0  0  0  0  0  0  0  0  0
  151.4225  139.6208  156.7012 N   0  0  0  0  0  0  0  0  0  0  0  0
  151.3340  138.3794  156.1361 C   0  0  0  0  0  0  0  0  0  0  0  0
  151.8387  137.2033  156.6486 C   0  0  0  0  0  0  0  0  0  0  0  0
  151.5515  136.1460  155.7925 N   0  0  0  0  0  0  0  0  0  0  0  0
  150.9006  136.7024  154.8089 C   0  0  0  0  0  0  0  0  0  0  0  0
  150.7354  138.0625  154.9365 N   0  0  0  0  0  0  0  0  0  0  0  0
  150.0555  139.0373  154.0224 C   0  0  2  0  0  0  0  0  0  0  0  0
  150.2101  140.3195  154.5537 O   0  0  0  0  0  0  0  0  0  0  0  0
  148.9998  140.7266  155.1776 C   0  0  1  0  0  0  0  0  0  0  0  0
  148.9622  142.2519  155.3717 C   0  0  0  0  0  0  0  0  0  0  0  0
  148.8232  142.8990  154.1250 O   0  0  0  0  0  0  0  0  0  0  0  0
  147.9213  140.1095  154.2778 C   0  0  1  0  0  0  0  0  0  0  0  0
  147.6998  140.9020  153.1260 O   0  0  0  0  0  0  0  0  0  0  0  0
  148.5341  138.7683  153.8922 C   0  0  2  0  0  0  0  0  0  0  0  0
  148.0479  137.7535  154.7555 O   0  0  0  0  0  0  0  0  0  0  0  0
  152.5388  137.2229  157.9003 C   0  0  0  0  0  0  0  0  0  0  0  0
  153.0493  136.2809  158.5024 O   0  0  0  0  0  0  0  0  0  0  0  0
  152.6111  138.5118  158.4451 N   0  0  0  0  0  0  0  0  0  0  0  0
  150.5973  138.9540  153.0793 H   0  0  0  0  0  0  0  0  0  0  0  0
  148.9550  140.2441  156.1556 H   0  0  0  0  0  0  0  0  0  0  0  0
  146.9690  140.0033  154.7995 H   0  0  0  0  0  0  0  0  0  0  0  0
  148.2974  138.4865  152.8652 H   0  0  0  0  0  0  0  0  0  0  0  0
  153.9591  141.7538  162.2506 H   0  0  0  0  0  0  0  0  0  0  0  0
  152.2023  141.8903  162.2960 H   0  0  0  0  0  0  0  0  0  0  0  0
  153.2012  143.3391  162.3020 H   0  0  0  0  0  0  0  0  0  0  0  0
  153.9884  142.8731  160.0086 H   0  0  0  0  0  0  0  0  0  0  0  0
  151.8528  143.2199  158.7501 H   0  0  0  0  0  0  0  0  0  0  0  0
  151.9201  144.2177  160.1962 H   0  0  0  0  0  0  0  0  0  0  0  0
  150.9311  142.7621  160.1809 H   0  0  0  0  0  0  0  0  0  0  0  0
  151.7883  141.6182  158.2334 H   0  0  0  0  0  0  0  0  0  0  0  0
  150.5296  136.1322  153.9701 H   0  0  0  0  0  0  0  0  0  0  0  0
  148.1109  142.5238  155.9960 H   0  0  0  0  0  0  0  0  0  0  0  0
  149.8555  142.6169  155.8791 H   0  0  0  0  0  0  0  0  0  0  0  0
  148.2411  142.3869  153.5843 H   0  0  0  0  0  0  0  0  0  0  0  0
  148.2329  140.5620  152.4234 H   0  0  0  0  0  0  0  0  0  0  0  0
  147.1940  137.4863  154.4517 H   0  0  0  0  0  0  0  0  0  0  0  0
  153.0936  138.6014  159.3270 H   0  0  0  0  0  0  0  0  0  0  0  0
  1  2  1  0  0  0  0
  1 30  1  0  0  0  0
  1 31  1  0  0  0  0
  1 32  1  0  0  0  0
  2  3  1  0  0  0  0
  2  4  1  0  0  0  0
  2 33  1  0  0  0  0
  3 34  1  0  0  0  0
  3 35  1  0  0  0  0
  3 36  1  0  0  0  0
  4  5  2  0  0  0  0
  4  6  1  0  0  0  0
  6 37  1  0  0  0  0
  6  7  1  0  0  0  0
  7 25  1  0  0  0  0
  7  8  2  0  0  0  0
  8  9  1  0  0  0  0
  9 13  1  0  0  0  0
  9 10  2  0  0  0  0
 10 11  1  0  0  0  0
 10 23  1  0  0  0  0
 11 12  2  0  0  0  0
 12 13  1  0  0  0  0
 12 38  1  0  0  0  0
 13 14  1  0  0  0  0
 14 26  1  0  0  0  0
 14 21  1  0  0  0  0
 14 15  1  0  0  0  0
 15 16  1  0  0  0  0
 16 27  1  0  0  0  0
 16 17  1  0  0  0  0
 16 19  1  0  0  0  0
 17 18  1  0  0  0  0
 17 39  1  0  0  0  0
 17 40  1  0  0  0  0
 18 41  1  0  0  0  0
 19 28  1  0  0  0  0
 19 20  1  0  0  0  0
 19 21  1  0  0  0  0
 20 42  1  0  0  0  0
 21 29  1  0  0  0  0
 21 22  1  0  0  0  0
 22 43  1  0  0  0  0
 23 24  2  0  0  0  0
 23 25  1  0  0  0  0
 25 44  1  0  0  0  0
M  END
> <s_m_source_file>
AV-unprocessed.smi

> <i_m_source_file_index>
54

> <i_lp_mmshare_version>
43012

> <i_f3d_flags>
0

> <s_epik_input>
W0NIM11bQ0hdKFtDSDNdKUMoPU8pW05IXWMobjEpW25IXWMoPU8pYyhjMTIpbltjSF1uMltDQEBIXTNPW0NASF0oW0NIMl1bT0hdKVtDQEBIXShbT0hdKVtDQEhdM1tPSF0=

> <s_epik_cmdline>
J2VwaWtfcHl0aG9uJywgJy1waCcsICc3LjAnLCAnLXRuJywgJzgnLCAnLW1hJywgJzIwMCcsICctbWV0YWxfYmluZGluZycsICctaW1hZScsICc8aW5maWxlLm1hZT4nLCAnLW9tYWUnLCAnPG91dGZpbGUubWFlPic=

> <r_lp_tautomer_probability>
0.85571

> <r_epik_Ionization_Penalty>
0.0316551

> <r_epik_Ionization_Penalty_Charging>
0.0316043

> <r_epik_Ionization_Penalty_Neutral>
5.07097e-05

> <r_epik_State_Penalty>
3.15494e-07

> <r_epik_Charging_Adjusted_Penalty>
0.0316047

> <i_epik_Tot_Q>
0

> <i_epik_Tot_abs_Q>
0

> <r_epik_Metal_State_Penalty>
0.421206

> <b_epik_Metal_Only>
0

> <s_epik_Chemistry_Notes>
This compound contains an acetal/aminal-like group ( X-CH(R)-Y where X, Y are N, S, or O) that may be acid/base labile, releasing an aldehyde.

> <s_lp_Force_Field>
OPLS_2005

> <r_lp_Energy>
38.2372

> <b_lp_Chiralities_Consistent>
1

> <s_lp_Variant>
AV-unprocessed.smi:54-11

> <Gold.Version>
5.8.1

> <Gold.Id.Protein>
6NUR|6NUR_protein|mol2

> <Gold.PLP.Fitness>
48.3553

> <Gold.PLP.PLP>
-35.1957

> <Gold.PLP.part.hbond>
-6.3088

> <Gold.PLP.part.metal>
0.0000

> <Gold.PLP.part.buried>
1.1756

> <Gold.PLP.part.nonpolar>
-29.0389

> <Gold.PLP.part.repulsive>
0.3160

> <Gold.PLP.ligand.clash>
0.3396

> <Gold.PLP.ligand.torsion>
0.7376

> <Gold.PLP.Chemscore.Hbond>
4.3078

> <Gold.PLP.Chemscore.CHOScore>
0.6483

> <Gold.PLP.Chemscore.Metal>
0.0000

> <Gold.Chemscore.Hbonds>
donor molecule, donor type, donor heavy atom, donor atom, acceptor molecule, acceptor atom, score
      L1  H    20    42       P1  7957  1.00
      P1  H  6896  6909       L1    24  0.37
      P1  H  7989  7998       L1    15  0.90
      P1  H  8022  8030       L1    18  1.00
      P1  H 10752 10763       L1    11  1.00
      L1  C    12    38       P1  7948  0.34
      L1  C    12    38       P1  7949  0.42

> <Gold.PLP.Chemscore.Internal.Correction>
0.1062

> <Gold.Rescore>
     Score         DG    S(hbond)    S(metal)    S(lipo)     H(rot)  DE(clash)    DE(int)     intcor
      6.20     -11.11       2.60        0.00      62.58       4.05       2.18       2.73       ----

> <Gold.Chemscore.Fitness>
6.1954

> <Gold.Chemscore.DG>
-11.1064

> <Gold.Chemscore.ZeroCoef>
-5.4800

> <Gold.Chemscore.Hbond>
2.5962

> <Gold.Chemscore.Metal>
0.0000

> <Gold.Chemscore.Lipo>
62.5754

> <Gold.Chemscore.Internal_Hbond>
0.0000

> <Gold.Chemscore.DEClash>
2.1833

> <Gold.Chemscore.DEInternal>
2.7276

> <Gold.Chemscore.Rot>
4.0493

> <Gold.Chemscore.Internal.Correction>
   9.000000E+99

> <Gold.Chemscore.Hbonds>
donor molecule, donor type, donor heavy atom, donor atom, acceptor molecule, acceptor atom, score
      L1  H    20    42       P1  7957  1.00
      P1  H  6896  6909       L1    24  0.36
      P1  H  7989  7998       L1    15  0.17
      P1  H  8022  8030       L1    18  0.59
      P1  H 10752 10763       L1    11  0.44

> <Gold.Chemscore.Hbond.Weighted>
-8.6713

> <Gold.Chemscore.Metal.Weighted>
-0.0000

> <Gold.Chemscore.Lipo.Weighted>
-7.3213

> <Gold.Chemscore.Internal_Hbond.Weighted>
0.0000

> <Gold.Chemscore.DEClash.Weighted>
2.1833

> <Gold.Chemscore.DEInternal.Weighted>
2.7276

> <Gold.Chemscore.Rot.Weighted>
10.3662

> <Gold.Chemscore.Internal.Correction.Weighted>
   9.000000E+99

> <Gold.Protein.RotatedTorsions>
[ 6907 6896 6895 6894 ] final  157.30 input  -60.11 | X-H torsion
[ 7974 7965 7964 7962 ] final   75.64 input  175.53 | X-H torsion
[ 8008 7997 7996 7995 ] final   48.98 input   59.86 | X-H torsion
[ 10167 10162 10161 10158 ] final  161.30 input  -65.29 | X-H torsion
[ 10718 10713 10712 10709 ] final  -36.64 input   66.30 | X-H torsion
[ 10763 10752 10751 10750 ] final   95.83 input  -60.55 | X-H torsion
[ 11005 11000 10999 10996 ] final   72.71 input  -57.11 | X-H torsion

> <Gold.Protein.ActiveResidues>
 VAL166  LYS551  ARG553  GLY616  TRP617  ASP618  TYR619  PRO620  LYS621  CYS622 
 ASP623  PHE694  ASN695  SER759  ASP760  ASP761  ALA762  ILE779  LEU786  VAL792 
 PHE793  MET794  SER795  GLU796  ALA797  LYS798  CYS799  TRP800  GLU811  SER814 

> <Gold.Protein.RotatedAtoms>
  152.0171  133.3884  159.4242 H   0  0  0  0  0  0  0  0  0  0  0  0  # atno 6907 bound_to 6896
  150.6893  134.3666  159.4983 H   0  0  0  0  0  0  0  0  0  0  0  0  # atno 6908 bound_to 6896
  152.1435  134.9044  160.0603 H   0  0  0  0  0  0  0  0  0  0  0  0  # atno 6909 bound_to 6896
  145.7130  139.2621  143.1639 H   0  0  0  0  0  0  0  0  0  0  0  0  # atno 7974 bound_to 7965
  155.3945  140.3435  155.4253 H   0  0  0  0  0  0  0  0  0  0  0  0  # atno 8008 bound_to 7997
  156.1538  140.1579  156.8758 H   0  0  0  0  0  0  0  0  0  0  0  0  # atno 8009 bound_to 7997
  154.5076  140.0798  156.7908 H   0  0  0  0  0  0  0  0  0  0  0  0  # atno 8010 bound_to 7997
  139.4848  144.4550  151.8780 H   0  0  0  0  0  0  0  0  0  0  0  0  # atno 10167 bound_to 10162
  156.3244  130.4270  149.7930 H   0  0  0  0  0  0  0  0  0  0  0  0  # atno 10718 bound_to 10713
  153.2577  135.4240  155.0862 H   0  0  0  0  0  0  0  0  0  0  0  0  # atno 10763 bound_to 10752
  154.8408  135.3441  154.6422 H   0  0  0  0  0  0  0  0  0  0  0  0  # atno 10764 bound_to 10752
  153.6842  135.7037  153.5166 H   0  0  0  0  0  0  0  0  0  0  0  0  # atno 10765 bound_to 10752
  139.9477  134.7283  156.0939 H   0  0  0  0  0  0  0  0  0  0  0  0  # atno 11005 bound_to 11000
  146.0695  140.7884  142.9695 LP  0  0  0  0  0  0  0  0  0  0  0  0  # atno 17320 bound_to 7965
  144.6937  140.3320  143.7214 LP  0  0  0  0  0  0  0  0  0  0  0  0  # atno 17321 bound_to 7965
  140.4009  144.2494  150.5893 LP  0  0  0  0  0  0  0  0  0  0  0  0  # atno 17342 bound_to 10162
  140.5058  143.2304  151.8610 LP  0  0  0  0  0  0  0  0  0  0  0  0  # atno 17343 bound_to 10162
  156.5225  130.8221  151.3209 LP  0  0  0  0  0  0  0  0  0  0  0  0  # atno 17370 bound_to 10713
  157.7418  130.9878  150.2473 LP  0  0  0  0  0  0  0  0  0  0  0  0  # atno 17371 bound_to 10713
  141.1132  133.6636  156.3029 LP  0  0  0  0  0  0  0  0  0  0  0  0  # atno 17394 bound_to 11000
  140.5795  134.5760  157.5476 LP  0  0  0  0  0  0  0  0  0  0  0  0  # atno 17395 bound_to 11000

$$$$
