AV-unprocessed.smi:1647|AV-procd|sdf|6625|dock2
  -GOLD-   22720 7323D 1   1.00000     0.00000
 Structure written by MMmdl.
 39 40  0  0  0  0  0  0  0  0  1 V2000
  145.0313  135.5571  150.8647 C   0  0  0  0  0  0  0  0  0  0  0  0
  145.2505  136.3546  151.9207 C   0  0  0  0  0  0  0  0  0  0  0  0
  145.7684  137.7763  151.8278 C   0  0  0  0  0  0  0  0  0  0  0  0
  147.1258  137.8852  152.3478 N   0  0  0  0  0  0  0  0  0  0  0  0
  147.5287  138.7769  153.2644 C   0  0  0  0  0  0  0  0  0  0  0  0
  146.7864  139.6287  153.7525 O   0  0  0  0  0  0  0  0  0  0  0  0
  148.8317  138.6173  153.5532 N   0  0  0  0  0  0  0  0  0  0  0  0
  149.6283  139.2953  154.5165 C   0  0  0  0  0  0  0  0  0  0  0  0
  151.0035  139.0525  154.7431 C   0  0  0  0  0  0  0  0  0  0  0  0
  151.6807  139.8178  155.7120 C   0  0  0  0  0  0  0  0  0  0  0  0
  150.9748  140.8129  156.4279 C   0  0  0  0  0  0  0  0  0  0  0  0
  151.6421  141.6021  157.3899 N   0  0  0  0  0  0  0  0  0  0  0  0
  151.1219  142.9635  157.5359 C   0  0  0  0  0  0  0  0  0  0  0  0
  152.1072  143.8586  158.3067 C   0  0  0  0  0  0  0  0  0  0  0  0
  152.4886  143.2276  159.6536 C   0  0  0  0  0  0  0  0  0  0  0  0
  153.0375  141.8111  159.4308 C   0  0  0  0  0  0  0  0  0  0  0  0
  152.0378  140.9492  158.6410 C   0  0  0  0  0  0  0  0  0  0  0  0
  149.6566  141.0412  156.2095 N   0  0  0  0  0  0  0  0  0  0  0  0
  149.0117  140.3061  155.2804 C   0  0  0  0  0  0  0  0  0  0  0  0
  145.2152  135.8982  149.8563 H   0  0  0  0  0  0  0  0  0  0  0  0
  144.6627  134.5505  150.9967 H   0  0  0  0  0  0  0  0  0  0  0  0
  145.0561  135.9783  152.9145 H   0  0  0  0  0  0  0  0  0  0  0  0
  145.7762  138.0750  150.7796 H   0  0  0  0  0  0  0  0  0  0  0  0
  145.1015  138.4653  152.3493 H   0  0  0  0  0  0  0  0  0  0  0  0
  147.8035  137.2264  151.9928 H   0  0  0  0  0  0  0  0  0  0  0  0
  149.3200  137.9214  153.0087 H   0  0  0  0  0  0  0  0  0  0  0  0
  151.5592  138.3102  154.1928 H   0  0  0  0  0  0  0  0  0  0  0  0
  152.7279  139.6307  155.8982 H   0  0  0  0  0  0  0  0  0  0  0  0
  150.9144  143.4211  156.5694 H   0  0  0  0  0  0  0  0  0  0  0  0
  150.1712  142.9157  158.0682 H   0  0  0  0  0  0  0  0  0  0  0  0
  153.0058  144.0117  157.7074 H   0  0  0  0  0  0  0  0  0  0  0  0
  151.6689  144.8442  158.4660 H   0  0  0  0  0  0  0  0  0  0  0  0
  153.2292  143.8440  160.1636 H   0  0  0  0  0  0  0  0  0  0  0  0
  151.6132  143.1861  160.3027 H   0  0  0  0  0  0  0  0  0  0  0  0
  153.9809  141.8666  158.8860 H   0  0  0  0  0  0  0  0  0  0  0  0
  153.2598  141.3406  160.3888 H   0  0  0  0  0  0  0  0  0  0  0  0
  151.1484  140.7643  159.2449 H   0  0  0  0  0  0  0  0  0  0  0  0
  152.4925  139.9802  158.4298 H   0  0  0  0  0  0  0  0  0  0  0  0
  147.9653  140.5366  155.1415 H   0  0  0  0  0  0  0  0  0  0  0  0
  1  2  2  0  0  0  0
  1 20  1  0  0  0  0
  1 21  1  0  0  0  0
  2  3  1  0  0  0  0
  2 22  1  0  0  0  0
  3  4  1  0  0  0  0
  3 23  1  0  0  0  0
  3 24  1  0  0  0  0
  4  5  1  0  0  0  0
  4 25  1  0  0  0  0
  5  6  2  0  0  0  0
  5  7  1  0  0  0  0
  7  8  1  0  0  0  0
  7 26  1  0  0  0  0
  8 19  1  0  0  0  0
  8  9  2  0  0  0  0
  9 10  1  0  0  0  0
  9 27  1  0  0  0  0
 10 11  2  0  0  0  0
 10 28  1  0  0  0  0
 11 12  1  0  0  0  0
 11 18  1  0  0  0  0
 12 17  1  0  0  0  0
 12 13  1  0  0  0  0
 13 14  1  0  0  0  0
 13 29  1  0  0  0  0
 13 30  1  0  0  0  0
 14 15  1  0  0  0  0
 14 31  1  0  0  0  0
 14 32  1  0  0  0  0
 15 16  1  0  0  0  0
 15 33  1  0  0  0  0
 15 34  1  0  0  0  0
 16 17  1  0  0  0  0
 16 35  1  0  0  0  0
 16 36  1  0  0  0  0
 17 37  1  0  0  0  0
 17 38  1  0  0  0  0
 18 19  2  0  0  0  0
 19 39  1  0  0  0  0
M  END
> <s_m_source_file>
AV-unprocessed.smi

> <i_m_source_file_index>
1647

> <i_lp_mmshare_version>
43012

> <i_f3d_flags>
0

> <s_epik_input>
W0NIMl09W0NIXVtDSDJdW05IXUMoPU8pW05IXWMxW2NIXVtjSF1jKG5bY0hdMSlOMltDSDJdW0NIMl1bQ0gyXVtDSDJdW0NIMl0y

> <s_epik_cmdline>
J2VwaWtfcHl0aG9uJywgJy1waCcsICc3LjAnLCAnLXRuJywgJzgnLCAnLW1hJywgJzIwMCcsICctbWV0YWxfYmluZGluZycsICctaW1hZScsICc8aW5maWxlLm1hZT4nLCAnLW9tYWUnLCAnPG91dGZpbGUubWFlPic=

> <r_lp_tautomer_probability>
1

> <r_epik_Ionization_Penalty>
0.279668

> <r_epik_Ionization_Penalty_Charging>
0

> <r_epik_Ionization_Penalty_Neutral>
0.279668

> <r_epik_State_Penalty>
0.266067

> <r_epik_Charging_Adjusted_Penalty>
0.266067

> <i_epik_Tot_Q>
0

> <i_epik_Tot_abs_Q>
0

> <r_epik_Metal_State_Penalty>
0.180941

> <b_epik_Metal_Only>
0

> <s_lp_Force_Field>
OPLS_2005

> <r_lp_Energy>
18.0201

> <b_lp_Chiralities_Consistent>
1

> <s_lp_Variant>
AV-unprocessed.smi:1647-1

> <Gold.Version>
5.8.1

> <Gold.Id.Protein>
6NUR|6NUR_protein|mol2

> <Gold.PLP.Fitness>
44.1664

> <Gold.PLP.PLP>
-39.4353

> <Gold.PLP.part.hbond>
-2.9366

> <Gold.PLP.part.metal>
0.0000

> <Gold.PLP.part.buried>
-0.3325

> <Gold.PLP.part.nonpolar>
-37.5796

> <Gold.PLP.part.repulsive>
0.3935

> <Gold.PLP.ligand.clash>
0.0000

> <Gold.PLP.ligand.torsion>
0.5632

> <Gold.PLP.Chemscore.Hbond>
1.8247

> <Gold.PLP.Chemscore.CHOScore>
0.0000

> <Gold.PLP.Chemscore.Metal>
0.0000

> <Gold.Chemscore.Hbonds>
donor molecule, donor type, donor heavy atom, donor atom, acceptor molecule, acceptor atom, score
      L1  H     4    25       P1  7948  0.94
      L1  H     7    26       P1  7948  0.83

> <Gold.PLP.Chemscore.Internal.Correction>
0.3834

> <Gold.Rescore>
     Score         DG    S(hbond)    S(metal)    S(lipo)     H(rot)  DE(clash)    DE(int)     intcor
     16.90     -19.14       1.71        0.00      96.96       1.32       0.26       1.97       ----

> <Gold.Chemscore.Fitness>
16.9043

> <Gold.Chemscore.DG>
-19.1358

> <Gold.Chemscore.ZeroCoef>
-5.4800

> <Gold.Chemscore.Hbond>
1.7051

> <Gold.Chemscore.Metal>
0.0000

> <Gold.Chemscore.Lipo>
96.9616

> <Gold.Chemscore.Internal_Hbond>
0.0000

> <Gold.Chemscore.DEClash>
0.2569

> <Gold.Chemscore.DEInternal>
1.9745

> <Gold.Chemscore.Rot>
1.3218

> <Gold.Chemscore.Internal.Correction>
   9.000000E+99

> <Gold.Chemscore.Hbonds>
donor molecule, donor type, donor heavy atom, donor atom, acceptor molecule, acceptor atom, score
      L1  H     4    25       P1  7948  0.90
      L1  H     7    26       P1  7948  0.73

> <Gold.Chemscore.Hbond.Weighted>
-5.6950

> <Gold.Chemscore.Metal.Weighted>
-0.0000

> <Gold.Chemscore.Lipo.Weighted>
-11.3445

> <Gold.Chemscore.Internal_Hbond.Weighted>
0.0000

> <Gold.Chemscore.DEClash.Weighted>
0.2569

> <Gold.Chemscore.DEInternal.Weighted>
1.9745

> <Gold.Chemscore.Rot.Weighted>
3.3838

> <Gold.Chemscore.Internal.Correction.Weighted>
   9.000000E+99

> <Gold.Protein.RotatedTorsions>
[ 6907 6896 6895 6894 ] final   19.78 input  -60.11 | X-H torsion
[ 7974 7965 7964 7962 ] final  -65.17 input  175.53 | X-H torsion
[ 8008 7997 7996 7995 ] final  171.32 input   59.86 | X-H torsion
[ 10167 10162 10161 10158 ] final -150.49 input  -65.29 | X-H torsion
[ 10718 10713 10712 10709 ] final  -12.90 input   66.30 | X-H torsion
[ 10763 10752 10751 10750 ] final -144.13 input  -60.55 | X-H torsion
[ 11005 11000 10999 10996 ] final  145.66 input  -57.11 | X-H torsion

> <Gold.Protein.ActiveResidues>
 VAL166  LYS551  ARG553  GLY616  TRP617  ASP618  TYR619  PRO620  LYS621  CYS622 
 ASP623  PHE694  ASN695  SER759  ASP760  ASP761  ALA762  ILE779  LEU786  VAL792 
 PHE793  MET794  SER795  GLU796  ALA797  LYS798  CYS799  TRP800  GLU811  SER814 

> <Gold.Protein.RotatedAtoms>
  151.8862  135.0434  160.0493 H   0  0  0  0  0  0  0  0  0  0  0  0  # atno 6907 bound_to 6896
  152.2472  133.5180  159.5313 H   0  0  0  0  0  0  0  0  0  0  0  0  # atno 6908 bound_to 6896
  150.7072  134.0925  159.3979 H   0  0  0  0  0  0  0  0  0  0  0  0  # atno 6909 bound_to 6896
  145.7576  140.8878  143.0447 H   0  0  0  0  0  0  0  0  0  0  0  0  # atno 7974 bound_to 7965
  156.1282  140.1515  156.9104 H   0  0  0  0  0  0  0  0  0  0  0  0  # atno 8008 bound_to 7997
  154.4888  140.0857  156.7588 H   0  0  0  0  0  0  0  0  0  0  0  0  # atno 8009 bound_to 7997
  155.4304  140.3427  155.4282 H   0  0  0  0  0  0  0  0  0  0  0  0  # atno 8010 bound_to 7997
  139.7350  143.8749  152.2546 H   0  0  0  0  0  0  0  0  0  0  0  0  # atno 10167 bound_to 10162
  156.6380  130.4920  149.6105 H   0  0  0  0  0  0  0  0  0  0  0  0  # atno 10718 bound_to 10713
  154.8441  135.3449  154.6297 H   0  0  0  0  0  0  0  0  0  0  0  0  # atno 10763 bound_to 10752
  153.6907  135.6975  153.5095 H   0  0  0  0  0  0  0  0  0  0  0  0  # atno 10764 bound_to 10752
  153.2597  135.4327  155.0837 H   0  0  0  0  0  0  0  0  0  0  0  0  # atno 10765 bound_to 10752
  140.0730  134.9141  157.1377 H   0  0  0  0  0  0  0  0  0  0  0  0  # atno 11005 bound_to 11000
  144.6837  139.9678  143.7481 LP  0  0  0  0  0  0  0  0  0  0  0  0  # atno 17320 bound_to 7965
  146.0296  139.3323  143.0763 LP  0  0  0  0  0  0  0  0  0  0  0  0  # atno 17321 bound_to 7965
  139.8683  144.7081  150.9017 LP  0  0  0  0  0  0  0  0  0  0  0  0  # atno 17342 bound_to 10162
  140.7777  143.3759  151.1564 LP  0  0  0  0  0  0  0  0  0  0  0  0  # atno 17343 bound_to 10162
  156.2181  130.6720  151.1340 LP  0  0  0  0  0  0  0  0  0  0  0  0  # atno 17370 bound_to 10713
  157.7180  131.0699  150.6252 LP  0  0  0  0  0  0  0  0  0  0  0  0  # atno 17371 bound_to 10713
  140.3599  134.2506  155.7188 LP  0  0  0  0  0  0  0  0  0  0  0  0  # atno 17394 bound_to 11000
  141.2019  133.7951  157.0417 LP  0  0  0  0  0  0  0  0  0  0  0  0  # atno 17395 bound_to 11000

$$$$
