AV-unprocessed.smi:1248|AV-procd|sdf|5250|dock6
  -GOLD-   22720 4363D 1   1.00000     0.00000
 Structure written by MMmdl.
 44 46  0  0  0  0  0  0  0  0  2 V2000
  152.8122  143.4974  160.1778 C   0  0  0  0  0  0  0  0  0  0  0  0
  152.3185  143.8535  158.7708 C   0  0  0  0  0  0  0  0  0  0  0  0
  151.6408  142.7377  158.1405 N   0  0  0  0  0  0  0  0  0  0  0  0
  150.9509  142.7228  156.9447 C   0  0  0  0  0  0  0  0  0  0  0  0
  150.5002  141.4464  156.7920 C   0  0  0  0  0  0  0  0  0  0  0  0
  149.7359  140.9850  155.6916 N   0  0  0  0  0  0  0  0  0  0  0  0
  148.7976  140.0249  155.7012 C   0  0  0  0  0  0  0  0  0  0  0  0
  148.4602  139.3730  156.6892 O   0  0  0  0  0  0  0  0  0  0  0  0
  148.2576  139.8583  154.4853 N   0  0  0  0  0  0  0  0  0  0  0  0
  147.2071  138.8991  154.1573 C   0  0  2  0  0  0  0  0  0  0  0  0
  147.6279  137.4909  154.6101 C   0  0  0  0  0  0  0  0  0  0  0  0
  146.5877  136.4380  154.1924 C   0  0  0  0  0  0  0  0  0  0  0  0
  146.3572  136.4704  152.7269 N   0  3  1  0  0  0  0  0  0  0  0  0
  145.4541  135.3878  152.2799 C   0  0  0  0  0  0  0  0  0  0  0  0
  146.1133  134.3920  151.3544 C   0  0  0  0  0  0  0  0  0  0  0  0
  145.1526  135.4202  150.7997 C   0  0  0  0  0  0  0  0  0  0  0  0
  145.8989  137.8066  152.2733 C   0  0  0  0  0  0  0  0  0  0  0  0
  146.9214  138.8938  152.6431 C   0  0  0  0  0  0  0  0  0  0  0  0
  150.9562  140.7333  157.9368 C   0  0  0  0  0  0  0  0  0  0  0  0
  151.6442  141.5246  158.7460 N   0  0  0  0  0  0  0  0  0  0  0  0
  153.3211  144.3456  160.6357 H   0  0  0  0  0  0  0  0  0  0  0  0
  153.5137  142.6633  160.1487 H   0  0  0  0  0  0  0  0  0  0  0  0
  151.9835  143.2167  160.8286 H   0  0  0  0  0  0  0  0  0  0  0  0
  151.6343  144.7021  158.8112 H   0  0  0  0  0  0  0  0  0  0  0  0
  153.1577  144.1527  158.1421 H   0  0  0  0  0  0  0  0  0  0  0  0
  150.8443  143.6004  156.3242 H   0  0  0  0  0  0  0  0  0  0  0  0
  149.9156  141.4405  154.8089 H   0  0  0  0  0  0  0  0  0  0  0  0
  148.5981  140.4382  153.7321 H   0  0  0  0  0  0  0  0  0  0  0  0
  146.2947  139.1727  154.6916 H   0  0  0  0  0  0  0  0  0  0  0  0
  148.5957  137.2335  154.1766 H   0  0  0  0  0  0  0  0  0  0  0  0
  147.7585  137.4695  155.6927 H   0  0  0  0  0  0  0  0  0  0  0  0
  146.9354  135.4470  154.4866 H   0  0  0  0  0  0  0  0  0  0  0  0
  145.6454  136.6108  154.7150 H   0  0  0  0  0  0  0  0  0  0  0  0
  144.6955  135.0654  152.9911 H   0  0  0  0  0  0  0  0  0  0  0  0
  147.1703  134.5195  151.1269 H   0  0  0  0  0  0  0  0  0  0  0  0
  145.7685  133.3609  151.3973 H   0  0  0  0  0  0  0  0  0  0  0  0
  144.1748  135.0668  150.4789 H   0  0  0  0  0  0  0  0  0  0  0  0
  145.5719  136.2302  150.2055 H   0  0  0  0  0  0  0  0  0  0  0  0
  145.7533  137.7969  151.1925 H   0  0  0  0  0  0  0  0  0  0  0  0
  144.9299  138.0330  152.7210 H   0  0  0  0  0  0  0  0  0  0  0  0
  146.5490  139.8682  152.3244 H   0  0  0  0  0  0  0  0  0  0  0  0
  147.8472  138.7221  152.0919 H   0  0  0  0  0  0  0  0  0  0  0  0
  150.8208  139.6977  158.2103 H   0  0  0  0  0  0  0  0  0  0  0  0
  147.2500  136.3027  152.2855 H   0  0  0  0  0  0  0  0  0  0  0  0
  1  2  1  0  0  0  0
  1 21  1  0  0  0  0
  1 22  1  0  0  0  0
  1 23  1  0  0  0  0
  2  3  1  0  0  0  0
  2 24  1  0  0  0  0
  2 25  1  0  0  0  0
  3 20  1  0  0  0  0
  3  4  1  0  0  0  0
  4  5  2  0  0  0  0
  4 26  1  0  0  0  0
  5  6  1  0  0  0  0
  5 19  1  0  0  0  0
  6  7  1  0  0  0  0
  6 27  1  0  0  0  0
  7  8  2  0  0  0  0
  7  9  1  0  0  0  0
  9 10  1  0  0  0  0
  9 28  1  0  0  0  0
 10 18  1  0  0  0  0
 10 11  1  0  0  0  0
 10 29  1  0  0  0  0
 11 12  1  0  0  0  0
 11 30  1  0  0  0  0
 11 31  1  0  0  0  0
 12 13  1  0  0  0  0
 12 32  1  0  0  0  0
 12 33  1  0  0  0  0
 13 14  1  0  0  0  0
 13 17  1  0  0  0  0
 13 44  1  0  0  0  0
 14 16  1  0  0  0  0
 14 15  1  0  0  0  0
 14 34  1  0  0  0  0
 15 16  1  0  0  0  0
 15 35  1  0  0  0  0
 15 36  1  0  0  0  0
 16 37  1  0  0  0  0
 16 38  1  0  0  0  0
 17 18  1  0  0  0  0
 17 39  1  0  0  0  0
 17 40  1  0  0  0  0
 18 41  1  0  0  0  0
 18 42  1  0  0  0  0
 19 20  2  0  0  0  0
 19 43  1  0  0  0  0
M  CHG  1  13   1
M  END
> <s_m_source_file>
AV-unprocessed.smi

> <i_m_source_file_index>
1248

> <i_lp_mmshare_version>
43012

> <i_f3d_flags>
0

> <s_epik_input>
W0NIM11bQ0gyXW4xW2NIXWMoW2NIXW4xKVtOSF1DKD1PKVtOSF1bQ0hdMltDSDJdW0NIMl1OKFtDSDJdW0NIMl0yKVtDSF0zW0NIMl1bQ0gyXTM=

> <s_epik_cmdline>
J2VwaWtfcHl0aG9uJywgJy1waCcsICc3LjAnLCAnLXRuJywgJzgnLCAnLW1hJywgJzIwMCcsICctbWV0YWxfYmluZGluZycsICctaW1hZScsICc8aW5maWxlLm1hZT4nLCAnLW9tYWUnLCAnPG91dGZpbGUubWFlPic=

> <r_lp_tautomer_probability>
1

> <r_epik_Ionization_Penalty>
0.115699

> <r_epik_Ionization_Penalty_Charging>
0.115549

> <r_epik_Ionization_Penalty_Neutral>
0.00014958

> <r_epik_State_Penalty>
0.105184

> <r_epik_Charging_Adjusted_Penalty>
0.220733

> <i_epik_Tot_Q>
1

> <i_epik_Tot_abs_Q>
1

> <r_epik_Metal_State_Penalty>
0.105189

> <b_epik_Metal_Only>
0

> <s_lp_Force_Field>
OPLS_2005

> <r_lp_Energy>
30.1422

> <b_lp_Chiralities_Consistent>
1

> <s_lp_Variant>
AV-unprocessed.smi:1248-1

> <Gold.Version>
5.8.1

> <Gold.Id.Protein>
6NUR|6NUR_protein|mol2

> <Gold.PLP.Fitness>
39.7895

> <Gold.PLP.PLP>
-31.6444

> <Gold.PLP.part.hbond>
-1.0000

> <Gold.PLP.part.metal>
0.0000

> <Gold.PLP.part.buried>
-4.2401

> <Gold.PLP.part.nonpolar>
-27.9689

> <Gold.PLP.part.repulsive>
0.1674

> <Gold.PLP.ligand.clash>
0.0000

> <Gold.PLP.ligand.torsion>
1.0603

> <Gold.PLP.Chemscore.Hbond>
2.0000

> <Gold.PLP.Chemscore.CHOScore>
1.0000

> <Gold.PLP.Chemscore.Metal>
0.0000

> <Gold.Chemscore.Hbonds>
donor molecule, donor type, donor heavy atom, donor atom, acceptor molecule, acceptor atom, score
      L1  H    13    44       P1  7948  2.00
      L1  C     4    26       P1  8028  1.00

> <Gold.PLP.Chemscore.Internal.Correction>
1.2658

> <Gold.Rescore>
     Score         DG    S(hbond)    S(metal)    S(lipo)     H(rot)  DE(clash)    DE(int)     intcor
     13.46     -15.69       1.00        0.00      88.18       1.34       0.23       2.00       ----

> <Gold.Chemscore.Fitness>
13.4603

> <Gold.Chemscore.DG>
-15.6938

> <Gold.Chemscore.ZeroCoef>
-5.4800

> <Gold.Chemscore.Hbond>
0.9991

> <Gold.Chemscore.Metal>
0.0000

> <Gold.Chemscore.Lipo>
88.1792

> <Gold.Chemscore.Internal_Hbond>
0.0000

> <Gold.Chemscore.DEClash>
0.2345

> <Gold.Chemscore.DEInternal>
1.9989

> <Gold.Chemscore.Rot>
1.3438

> <Gold.Chemscore.Internal.Correction>
   9.000000E+99

> <Gold.Chemscore.Hbonds>
donor molecule, donor type, donor heavy atom, donor atom, acceptor molecule, acceptor atom, score
      L1  H    13    44       P1  7948  1.00

> <Gold.Chemscore.Hbond.Weighted>
-3.3369

> <Gold.Chemscore.Metal.Weighted>
-0.0000

> <Gold.Chemscore.Lipo.Weighted>
-10.3170

> <Gold.Chemscore.Internal_Hbond.Weighted>
0.0000

> <Gold.Chemscore.DEClash.Weighted>
0.2345

> <Gold.Chemscore.DEInternal.Weighted>
1.9989

> <Gold.Chemscore.Rot.Weighted>
3.4401

> <Gold.Chemscore.Internal.Correction.Weighted>
   9.000000E+99

> <Gold.Protein.RotatedTorsions>
[ 6907 6896 6895 6894 ] final  -12.40 input  -60.11 | X-H torsion
[ 7974 7965 7964 7962 ] final  -22.46 input  175.53 | X-H torsion
[ 8008 7997 7996 7995 ] final   87.81 input   59.86 | X-H torsion
[ 10167 10162 10161 10158 ] final  -78.45 input  -65.29 | X-H torsion
[ 10718 10713 10712 10709 ] final   62.10 input   66.30 | X-H torsion
[ 10763 10752 10751 10750 ] final -100.30 input  -60.55 | X-H torsion
[ 11005 11000 10999 10996 ] final  -65.34 input  -57.11 | X-H torsion

> <Gold.Protein.ActiveResidues>
 VAL166  LYS551  ARG553  GLY616  TRP617  ASP618  TYR619  PRO620  LYS621  CYS622 
 ASP623  PHE694  ASN695  SER759  ASP760  ASP761  ALA762  ILE779  LEU786  VAL792 
 PHE793  MET794  SER795  GLU796  ALA797  LYS798  CYS799  TRP800  GLU811  SER814 

> <Gold.Protein.RotatedAtoms>
  151.3711  135.0922  159.9465 H   0  0  0  0  0  0  0  0  0  0  0  0  # atno 6907 bound_to 6896
  152.5135  133.9163  159.7523 H   0  0  0  0  0  0  0  0  0  0  0  0  # atno 6908 bound_to 6896
  150.9577  133.6424  159.2789 H   0  0  0  0  0  0  0  0  0  0  0  0  # atno 6909 bound_to 6896
  146.1674  140.4482  142.8546 H   0  0  0  0  0  0  0  0  0  0  0  0  # atno 7974 bound_to 7965
  155.9800  140.3378  155.6654 H   0  0  0  0  0  0  0  0  0  0  0  0  # atno 8008 bound_to 7997
  155.6561  140.0711  157.2588 H   0  0  0  0  0  0  0  0  0  0  0  0  # atno 8009 bound_to 7997
  154.4189  140.1717  156.1714 H   0  0  0  0  0  0  0  0  0  0  0  0  # atno 8010 bound_to 7997
  140.4681  143.2434  151.8247 H   0  0  0  0  0  0  0  0  0  0  0  0  # atno 10167 bound_to 10162
  157.5876  130.9031  149.9544 H   0  0  0  0  0  0  0  0  0  0  0  0  # atno 10718 bound_to 10713
  154.7568  135.4940  153.9390 H   0  0  0  0  0  0  0  0  0  0  0  0  # atno 10763 bound_to 10752
  153.1205  135.6730  153.9352 H   0  0  0  0  0  0  0  0  0  0  0  0  # atno 10764 bound_to 10752
  153.9085  135.3101  155.3427 H   0  0  0  0  0  0  0  0  0  0  0  0  # atno 10765 bound_to 10752
  141.1451  133.6680  156.5971 H   0  0  0  0  0  0  0  0  0  0  0  0  # atno 11005 bound_to 11000
  144.8113  140.6390  143.6413 LP  0  0  0  0  0  0  0  0  0  0  0  0  # atno 17320 bound_to 7965
  145.4430  139.1533  143.3960 LP  0  0  0  0  0  0  0  0  0  0  0  0  # atno 17321 bound_to 7965
  139.4815  144.4926  151.9166 LP  0  0  0  0  0  0  0  0  0  0  0  0  # atno 17342 bound_to 10162
  140.4011  144.2492  150.5893 LP  0  0  0  0  0  0  0  0  0  0  0  0  # atno 17343 bound_to 10162
  156.0927  130.3662  150.0365 LP  0  0  0  0  0  0  0  0  0  0  0  0  # atno 17370 bound_to 10713
  156.8493  130.9453  151.3626 LP  0  0  0  0  0  0  0  0  0  0  0  0  # atno 17371 bound_to 10713
  140.3717  134.7600  157.4603 LP  0  0  0  0  0  0  0  0  0  0  0  0  # atno 17394 bound_to 11000
  140.0705  134.5869  155.8647 LP  0  0  0  0  0  0  0  0  0  0  0  0  # atno 17395 bound_to 11000

$$$$
