AV-unprocessed.smi:271|AV-procd|sdf|2049|dock2
  -GOLD-   2262021283D 1   1.00000     0.00000
 Structure written by MMmdl.
 58 60  0  0  0  0  0  0  0  0  1 V2000
  152.2650  143.9835  160.9489 C   0  0  0  0  0  0  0  0  0  0  0  0
  152.2931  143.9384  159.4134 C   0  0  0  0  0  0  0  0  0  0  0  0
  151.4294  145.0687  158.8279 C   0  0  0  0  0  0  0  0  0  0  0  0
  151.8645  142.5494  158.9011 C   0  0  0  0  0  0  0  0  0  0  0  0
  152.9674  141.4764  159.0230 C   0  0  0  0  0  0  0  0  0  0  0  0
  152.5168  140.1268  158.6819 N   0  0  0  0  0  0  0  0  0  0  0  0
  153.4631  139.0641  159.0152 C   0  0  0  0  0  0  0  0  0  0  0  0
  152.8506  137.6560  158.9426 C   0  0  0  0  0  0  0  0  0  0  0  0
  153.4752  136.8290  157.9000 C   0  0  0  0  0  0  0  0  0  0  0  0
  153.9669  136.1780  157.0796 N   0  0  0  0  0  0  0  0  0  0  0  0
  152.0283  140.0210  157.4251 C   0  0  0  0  0  0  0  0  0  0  0  0
  152.8202  139.4231  156.5014 N   0  0  0  0  0  0  0  0  0  0  0  0
  152.3880  139.2811  155.2452 C   0  0  0  0  0  0  0  0  0  0  0  0
  151.2213  139.6562  154.7168 N   0  0  0  0  0  0  0  0  0  0  0  0
  150.4213  140.2553  155.6446 C   0  0  0  0  0  0  0  0  0  0  0  0
  150.7478  140.4842  157.0106 C   0  0  0  0  0  0  0  0  0  0  0  0
  149.6977  141.1327  157.6479 N   0  0  0  0  0  0  0  0  0  0  0  0
  148.8001  141.2765  156.7121 C   0  0  0  0  0  0  0  0  0  0  0  0
  149.1412  140.7587  155.4820 N   0  0  0  0  0  0  0  0  0  0  0  0
  148.3216  140.7727  154.2784 C   0  0  0  0  0  0  0  0  0  0  0  0
  147.8879  139.3650  153.7821 C   0  0  2  0  0  0  0  0  0  0  0  0
  147.0719  139.4262  152.4684 C   0  0  0  0  0  0  0  0  0  0  0  0
  147.3042  138.2833  151.6715 O   0  0  0  0  0  0  0  0  0  0  0  0
  147.1329  138.5654  154.8764 C   0  0  2  0  0  0  0  0  0  0  0  0
  146.7954  137.1330  154.4952 C   0  0  0  0  0  0  0  0  0  0  0  0
  145.7233  136.7728  155.5170 C   0  0  0  0  0  0  0  0  0  0  0  0
  145.0220  137.9836  155.7756 O   0  0  0  0  0  0  0  0  0  0  0  0
  145.7294  139.0831  155.2111 C   0  0  0  0  0  0  0  0  0  0  0  0
  151.2584  143.8124  161.3323 H   0  0  0  0  0  0  0  0  0  0  0  0
  152.6024  144.9513  161.3210 H   0  0  0  0  0  0  0  0  0  0  0  0
  152.9181  143.2231  161.3781 H   0  0  0  0  0  0  0  0  0  0  0  0
  153.3249  144.1101  159.1038 H   0  0  0  0  0  0  0  0  0  0  0  0
  150.3755  144.9288  159.0699 H   0  0  0  0  0  0  0  0  0  0  0  0
  151.5180  145.1238  157.7432 H   0  0  0  0  0  0  0  0  0  0  0  0
  151.7343  146.0379  159.2232 H   0  0  0  0  0  0  0  0  0  0  0  0
  150.9960  142.2128  159.4693 H   0  0  0  0  0  0  0  0  0  0  0  0
  151.5320  142.6418  157.8663 H   0  0  0  0  0  0  0  0  0  0  0  0
  153.8225  141.7361  158.3995 H   0  0  0  0  0  0  0  0  0  0  0  0
  153.3333  141.4637  160.0503 H   0  0  0  0  0  0  0  0  0  0  0  0
  154.3323  139.1263  158.3594 H   0  0  0  0  0  0  0  0  0  0  0  0
  153.8308  139.2359  160.0274 H   0  0  0  0  0  0  0  0  0  0  0  0
  152.9694  137.1383  159.8947 H   0  0  0  0  0  0  0  0  0  0  0  0
  151.7832  137.6989  158.7244 H   0  0  0  0  0  0  0  0  0  0  0  0
  153.0736  138.7958  154.5663 H   0  0  0  0  0  0  0  0  0  0  0  0
  147.8515  141.7586  156.8982 H   0  0  0  0  0  0  0  0  0  0  0  0
  147.4390  141.3786  154.4853 H   0  0  0  0  0  0  0  0  0  0  0  0
  148.8612  141.3093  153.4981 H   0  0  0  0  0  0  0  0  0  0  0  0
  148.8032  138.8138  153.5602 H   0  0  0  0  0  0  0  0  0  0  0  0
  146.0025  139.4543  152.6758 H   0  0  0  0  0  0  0  0  0  0  0  0
  147.3017  140.3251  151.8965 H   0  0  0  0  0  0  0  0  0  0  0  0
  147.6068  137.5837  152.2306 H   0  0  0  0  0  0  0  0  0  0  0  0
  147.7169  138.5591  155.7979 H   0  0  0  0  0  0  0  0  0  0  0  0
  146.3768  137.0953  153.4885 H   0  0  0  0  0  0  0  0  0  0  0  0
  147.6449  136.4527  154.5306 H   0  0  0  0  0  0  0  0  0  0  0  0
  145.0533  135.9895  155.1617 H   0  0  0  0  0  0  0  0  0  0  0  0
  146.1829  136.4316  156.4455 H   0  0  0  0  0  0  0  0  0  0  0  0
  145.7482  139.9272  155.9009 H   0  0  0  0  0  0  0  0  0  0  0  0
  145.2069  139.3974  154.3064 H   0  0  0  0  0  0  0  0  0  0  0  0
  1  2  1  0  0  0  0
  1 29  1  0  0  0  0
  1 30  1  0  0  0  0
  1 31  1  0  0  0  0
  2  3  1  0  0  0  0
  2  4  1  0  0  0  0
  2 32  1  0  0  0  0
  3 33  1  0  0  0  0
  3 34  1  0  0  0  0
  3 35  1  0  0  0  0
  4  5  1  0  0  0  0
  4 36  1  0  0  0  0
  4 37  1  0  0  0  0
  5  6  1  0  0  0  0
  5 38  1  0  0  0  0
  5 39  1  0  0  0  0
  6  7  1  0  0  0  0
  6 11  1  0  0  0  0
  7  8  1  0  0  0  0
  7 40  1  0  0  0  0
  7 41  1  0  0  0  0
  8  9  1  0  0  0  0
  8 42  1  0  0  0  0
  8 43  1  0  0  0  0
  9 10  3  0  0  0  0
 11 16  1  0  0  0  0
 11 12  2  0  0  0  0
 12 13  1  0  0  0  0
 13 14  2  0  0  0  0
 13 44  1  0  0  0  0
 14 15  1  0  0  0  0
 15 19  1  0  0  0  0
 15 16  2  0  0  0  0
 16 17  1  0  0  0  0
 17 18  2  0  0  0  0
 18 19  1  0  0  0  0
 18 45  1  0  0  0  0
 19 20  1  0  0  0  0
 20 21  1  0  0  0  0
 20 46  1  0  0  0  0
 20 47  1  0  0  0  0
 21 22  1  0  0  0  0
 21 24  1  0  0  0  0
 21 48  1  0  0  0  0
 22 23  1  0  0  0  0
 22 49  1  0  0  0  0
 22 50  1  0  0  0  0
 23 51  1  0  0  0  0
 24 28  1  0  0  0  0
 24 25  1  0  0  0  0
 24 52  1  0  0  0  0
 25 26  1  0  0  0  0
 25 53  1  0  0  0  0
 25 54  1  0  0  0  0
 26 27  1  0  0  0  0
 26 55  1  0  0  0  0
 26 56  1  0  0  0  0
 27 28  1  0  0  0  0
 28 57  1  0  0  0  0
 28 58  1  0  0  0  0
M  END
> <s_m_source_file>
AV-unprocessed.smi

> <i_m_source_file_index>
271

> <i_lp_mmshare_version>
43012

> <i_f3d_flags>
0

> <s_epik_input>
W0NIM11bQ0hdKFtDSDNdKVtDSDJdW0NIMl1OKFtDSDJdW0NIMl1DI04pYyhuW2NIXW4xKWMoYzEyKW5bY0hdbjJbQ0gyXVtDQEhdKFtDSDJdW09IXSlbQ0BASF0zW0NIMl1bQ0gyXU9bQ0gyXTM=

> <s_epik_cmdline>
J2VwaWtfcHl0aG9uJywgJy1waCcsICc3LjAnLCAnLXRuJywgJzgnLCAnLW1hJywgJzIwMCcsICctbWV0YWxfYmluZGluZycsICctaW1hZScsICc8aW5maWxlLm1hZT4nLCAnLW9tYWUnLCAnPG91dGZpbGUubWFlPic=

> <r_lp_tautomer_probability>
1

> <r_epik_Ionization_Penalty>
0.000825874

> <r_epik_Ionization_Penalty_Charging>
0

> <r_epik_Ionization_Penalty_Neutral>
0.000825874

> <r_epik_State_Penalty>
0.000396768

> <r_epik_Charging_Adjusted_Penalty>
0.000396768

> <i_epik_Tot_Q>
0

> <i_epik_Tot_abs_Q>
0

> <r_epik_Metal_State_Penalty>
-0

> <b_epik_Metal_Only>
0

> <s_lp_Force_Field>
OPLS_2005

> <r_lp_Energy>
34.7872

> <b_lp_Chiralities_Consistent>
1

> <s_lp_Variant>
AV-unprocessed.smi:271-1

> <Gold.Version>
5.8.1

> <Gold.Id.Protein>
6NUR|6NUR_protein|mol2

> <Gold.PLP.Fitness>
57.1241

> <Gold.PLP.PLP>
-45.8898

> <Gold.PLP.part.hbond>
-6.0000

> <Gold.PLP.part.metal>
0.0000

> <Gold.PLP.part.buried>
-4.3677

> <Gold.PLP.part.nonpolar>
-36.1585

> <Gold.PLP.part.repulsive>
0.1499

> <Gold.PLP.ligand.clash>
0.0000

> <Gold.PLP.ligand.torsion>
1.6273

> <Gold.PLP.Chemscore.Hbond>
4.6400

> <Gold.PLP.Chemscore.CHOScore>
0.0000

> <Gold.PLP.Chemscore.Metal>
0.0000

> <Gold.Chemscore.Hbonds>
donor molecule, donor type, donor heavy atom, donor atom, acceptor molecule, acceptor atom, score
      L1  H    23    51       P1  7948  0.54
      P1  H  7954  7966       L1    23  1.00
      P1  H  7989  7998       L1    14  1.00
      P1  H  7997  8010       L1    12  1.00
      P1  H 10752 10765       L1    10  1.00

> <Gold.PLP.Chemscore.Internal.Correction>
0.5689

> <Gold.Rescore>
     Score         DG    S(hbond)    S(metal)    S(lipo)     H(rot)  DE(clash)    DE(int)     intcor
     13.16     -18.34       3.31        0.00      97.73       3.77       1.32       3.86       ----

> <Gold.Chemscore.Fitness>
13.1577

> <Gold.Chemscore.DG>
-18.3388

> <Gold.Chemscore.ZeroCoef>
-5.4800

> <Gold.Chemscore.Hbond>
3.3147

> <Gold.Chemscore.Metal>
0.0000

> <Gold.Chemscore.Lipo>
97.7298

> <Gold.Chemscore.Internal_Hbond>
0.0000

> <Gold.Chemscore.DEClash>
1.3166

> <Gold.Chemscore.DEInternal>
3.8645

> <Gold.Chemscore.Rot>
3.7683

> <Gold.Chemscore.Internal.Correction>
   9.000000E+99

> <Gold.Chemscore.Hbonds>
donor molecule, donor type, donor heavy atom, donor atom, acceptor molecule, acceptor atom, score
      L1  H    23    51       P1  7948  0.54
      P1  H  7954  7966       L1    23  0.38
      P1  H  7989  7998       L1    14  0.33
      P1  H  7997  8010       L1    12  0.44
      P1  H 10752 10765       L1    10  0.98

> <Gold.Chemscore.Hbond.Weighted>
-11.0712

> <Gold.Chemscore.Metal.Weighted>
-0.0000

> <Gold.Chemscore.Lipo.Weighted>
-11.4344

> <Gold.Chemscore.Internal_Hbond.Weighted>
0.0000

> <Gold.Chemscore.DEClash.Weighted>
1.3166

> <Gold.Chemscore.DEInternal.Weighted>
3.8645

> <Gold.Chemscore.Rot.Weighted>
9.6468

> <Gold.Chemscore.Internal.Correction.Weighted>
   9.000000E+99

> <Gold.Protein.RotatedTorsions>
[ 6907 6896 6895 6894 ] final   45.71 input  -60.11 | X-H torsion
[ 7974 7965 7964 7962 ] final   -4.59 input  175.53 | X-H torsion
[ 8008 7997 7996 7995 ] final   76.87 input   59.86 | X-H torsion
[ 10167 10162 10161 10158 ] final  168.76 input  -65.29 | X-H torsion
[ 10718 10713 10712 10709 ] final   73.20 input   66.30 | X-H torsion
[ 10763 10752 10751 10750 ] final  -89.21 input  -60.55 | X-H torsion
[ 11005 11000 10999 10996 ] final  -64.71 input  -57.11 | X-H torsion

> <Gold.Protein.ActiveResidues>
 VAL166  LYS551  ARG553  GLY616  TRP617  ASP618  TYR619  PRO620  LYS621  CYS622 
 ASP623  PHE694  ASN695  SER759  ASP760  ASP761  ALA762  ILE779  LEU786  VAL792 
 PHE793  MET794  SER795  GLU796  ALA797  LYS798  CYS799  TRP800  GLU811  SER814 

> <Gold.Protein.RotatedAtoms>
  152.2477  134.8164  160.0450 H   0  0  0  0  0  0  0  0  0  0  0  0  # atno 6907 bound_to 6896
  151.8856  133.3499  159.3789 H   0  0  0  0  0  0  0  0  0  0  0  0  # atno 6908 bound_to 6896
  150.7074  134.4902  159.5556 H   0  0  0  0  0  0  0  0  0  0  0  0  # atno 6909 bound_to 6896
  146.2369  140.1894  142.8332 H   0  0  0  0  0  0  0  0  0  0  0  0  # atno 7974 bound_to 7965
  155.8334  140.3465  155.5587 H   0  0  0  0  0  0  0  0  0  0  0  0  # atno 8008 bound_to 7997
  155.8217  140.0914  157.1864 H   0  0  0  0  0  0  0  0  0  0  0  0  # atno 8009 bound_to 7997
  154.4004  140.1429  156.3496 H   0  0  0  0  0  0  0  0  0  0  0  0  # atno 8010 bound_to 7997
  139.4976  144.3779  151.9654 H   0  0  0  0  0  0  0  0  0  0  0  0  # atno 10167 bound_to 10162
  157.6537  130.9617  150.1036 H   0  0  0  0  0  0  0  0  0  0  0  0  # atno 10718 bound_to 10713
  154.6529  135.5349  153.7923 H   0  0  0  0  0  0  0  0  0  0  0  0  # atno 10763 bound_to 10752
  153.0396  135.6487  154.0990 H   0  0  0  0  0  0  0  0  0  0  0  0  # atno 10764 bound_to 10752
  154.0906  135.2940  155.3252 H   0  0  0  0  0  0  0  0  0  0  0  0  # atno 10765 bound_to 10752
  141.1433  133.6670  156.5875 H   0  0  0  0  0  0  0  0  0  0  0  0  # atno 11005 bound_to 11000
  144.9870  140.8512  143.5362 LP  0  0  0  0  0  0  0  0  0  0  0  0  # atno 17320 bound_to 7965
  145.1894  139.2309  143.5250 LP  0  0  0  0  0  0  0  0  0  0  0  0  # atno 17321 bound_to 7965
  140.3215  144.3422  150.6008 LP  0  0  0  0  0  0  0  0  0  0  0  0  # atno 17342 bound_to 10162
  140.5718  143.2180  151.7585 LP  0  0  0  0  0  0  0  0  0  0  0  0  # atno 17343 bound_to 10162
  156.1952  130.3657  149.8859 LP  0  0  0  0  0  0  0  0  0  0  0  0  # atno 17370 bound_to 10713
  156.6777  130.8845  151.3571 LP  0  0  0  0  0  0  0  0  0  0  0  0  # atno 17371 bound_to 10713
  140.3789  134.7540  157.4648 LP  0  0  0  0  0  0  0  0  0  0  0  0  # atno 17394 bound_to 11000
  140.0653  134.5939  155.8703 LP  0  0  0  0  0  0  0  0  0  0  0  0  # atno 17395 bound_to 11000

$$$$
