#       Name:                AV-unprocessed.smi:3212
#       Creating user name   scv26
#       Creation time:       Fri Mar 27 18:11:27 2020


#       File generated by GOLD software.
#

@<TRIPOS>MOLECULE
AV-unprocessed.smi:3212
    43    43     1
SMALL
NO_CHARGES


@<TRIPOS>ATOM
      1 ****        -1.1395  -0.5694  -2.1366 C.3            1 S1                 0.0000
      2 ****        -0.4433  -0.0822  -0.8569 C.3            1 S1                 0.0000
      3 ****         1.0233  -0.2250  -1.0031 N.4            1 S1                 1.0000
      4 ****         1.8348   0.5375  -0.0283 C.3            1 S1                 0.0000
      5 ****         3.3371   0.4260  -0.3340 C.3            1 S1                 0.0000
      6 ****         3.7047   1.1235  -1.5535 N.pl3          1 S1                 0.0000
      7 ****         4.2408   2.3870  -1.6889 C.2            1 S1                 0.0000
      8 ****         4.4132   2.6142  -3.0242 C.2            1 S1                 0.0000
      9 ****         3.9491   1.4157  -3.6343 C.2            1 S1                 0.0000
     10 ****         3.5247   0.5257  -2.7514 N.2            1 S1                 0.0000
     11 ****        -0.9788  -0.8522   0.3584 C.2            1 S1                 0.0000
     12 ****        -0.4226  -1.8868   0.7276 O.2            1 S1                 0.0000
     13 ****        -2.0668  -0.3317   0.9539 N.am           1 S1                 0.0000
     14 ****        -2.7982  -0.8371   2.1218 C.3            1 S1                 0.0000
     15 ****        -3.9512   0.1472   2.3861 C.3            1 S1                 0.0000
     16 ****        -1.8822  -0.8810   3.3629 C.3            1 S1                 0.0000
     17 ****        -3.3876  -2.2335   1.8323 C.3            1 S1                 0.0000
     18 ****        -2.2220  -0.4509  -2.0715 H              1 S1                 0.0000
     19 ****        -0.9315  -1.6227  -2.3299 H              1 S1                 0.0000
     20 ****        -0.8025  -0.0014  -3.0043 H              1 S1                 0.0000
     21 ****        -0.6702   0.9782  -0.7326 H              1 S1                 0.0000
     22 ****         1.2602  -1.2048  -0.9370 H              1 S1                 0.0000
     23 ****         1.5321   1.5855  -0.0324 H              1 S1                 0.0000
     24 ****         1.6423   0.1550   0.9745 H              1 S1                 0.0000
     25 ****         3.9114   0.8564   0.4874 H              1 S1                 0.0000
     26 ****         3.6424  -0.6185  -0.4125 H              1 S1                 0.0000
     27 ****         4.4522   3.0129  -0.8342 H              1 S1                 0.0000
     28 ****         4.8112   3.5014  -3.4941 H              1 S1                 0.0000
     29 ****         3.9070   1.1683  -4.6848 H              1 S1                 0.0000
     30 ****        -2.4380   0.5163   0.5502 H              1 S1                 0.0000
     31 ****        -4.5470  -0.1601   3.2464 H              1 S1                 0.0000
     32 ****        -4.6237   0.2126   1.5297 H              1 S1                 0.0000
     33 ****        -3.5788   1.1521   2.5891 H              1 S1                 0.0000
     34 ****        -1.4248   0.0904   3.5546 H              1 S1                 0.0000
     35 ****        -1.0782  -1.6088   3.2553 H              1 S1                 0.0000
     36 ****        -2.4448  -1.1589   4.2549 H              1 S1                 0.0000
     37 ****        -4.0110  -2.5745   2.6595 H              1 S1                 0.0000
     38 ****        -2.6116  -2.9854   1.6881 H              1 S1                 0.0000
     39 ****        -4.0093  -2.2248   0.9362 H              1 S1                 0.0000
     40 ****         1.2764   0.1031  -1.9245 H              1 S1                 0.0000
     41 ****         3.1538  -0.3854  -2.9309 LP             1 S1                 0.0000
     42 ****         0.3790  -2.2265   0.2356 LP             1 S1                 0.0000
     43 ****        -0.7725  -2.3874   1.5194 LP             1 S1                 0.0000
@<TRIPOS>BOND
    1    1    2 1     
    2    1   18 1     
    3    1   19 1     
    4    1   20 1     
    5    2    3 1     
    6    2   11 1     
    7    2   21 1     
    8    3    4 1     
    9    3   22 1     
   10    3   40 1     
   11    4    5 1     
   12    4   23 1     
   13    4   24 1     
   14    5    6 1     
   15    5   25 1     
   16    5   26 1     
   17    6   10 1     
   18    6    7 1     
   19    7    8 2     
   20    7   27 1     
   21    8    9 1     
   22    8   28 1     
   23    9   10 2     
   24    9   29 1     
   25   11   12 2     
   26   11   13 am    
   27   13   14 1     
   28   13   30 1     
   29   14   15 1     
   30   14   16 1     
   31   14   17 1     
   32   15   31 1     
   33   15   32 1     
   34   15   33 1     
   35   16   34 1     
   36   16   35 1     
   37   16   36 1     
   38   17   37 1     
   39   17   38 1     
   40   17   39 1     
   41   10   41 1     
   42   12   42 1     
   43   12   43 1     
@<TRIPOS>SUBSTRUCTURE
      1 S1             1
@<TRIPOS>SET
LONE_PAIRS      STATIC     ATOMS    <user>   **** ""
3 41 42 43
DONOR_HYDROGENS      STATIC     ATOMS    <user>   **** ""
3 22 40 30
ATOM$BLUE        STATIC     ATOMS    COLORGROUP SYSTEM
3 41 42 43
ATOM$RED        STATIC     ATOMS    COLORGROUP SYSTEM
3 22 40 30
