#       Name:                AV-unprocessed.smi:3091
#       Creating user name   scv26
#       Creation time:       Fri Mar 27 17:16:08 2020


#       File generated by GOLD software.
#

@<TRIPOS>MOLECULE
AV-unprocessed.smi:3091
    34    35     1
SMALL
NO_CHARGES


@<TRIPOS>ATOM
      1 ****        -4.3335   1.3324   0.7041 N.4            1 S1                 1.0000
      2 ****        -3.7349   0.0040   0.9103 C.3            1 S1                 0.0000
      3 ****        -2.2277   0.1067   1.0208 C.ar           1 S1                 0.0000
      4 ****        -1.6086   0.2865   2.2741 C.ar           1 S1                 0.0000
      5 ****        -0.2038   0.3802   2.3194 C.ar           1 S1                 0.0000
      6 ****         0.5782   0.3090   1.2217 N.ar           1 S1                 0.0000
      7 ****        -0.0174   0.1356   0.0156 C.ar           1 S1                 0.0000
      8 ****         0.7676   0.0614  -1.1180 O.3            1 S1                 0.0000
      9 ****         2.1893   0.1192  -0.9930 C.3            1 S1                 0.0000
     10 ****         2.7650  -1.2006  -0.4831 C.3            1 S1                 0.0000
     11 ****         3.9496  -1.4522  -1.4062 C.3            1 S1                 0.0000
     12 ****         3.4825  -0.9545  -2.6470 O.3            1 S1                 0.0000
     13 ****         2.8213   0.2753  -2.3836 C.3            1 S1                 0.0000
     14 ****        -1.4162   0.0322  -0.1297 C.ar           1 S1                 0.0000
     15 ****        -5.3369   1.2440   0.6312 H              1 S1                 0.0000
     16 ****        -3.9673   1.7363  -0.1461 H              1 S1                 0.0000
     17 ****        -4.1467  -0.4416   1.8164 H              1 S1                 0.0000
     18 ****        -4.0044  -0.6475   0.0783 H              1 S1                 0.0000
     19 ****        -2.1908   0.3499   3.1818 H              1 S1                 0.0000
     20 ****         0.3048   0.5173   3.2621 H              1 S1                 0.0000
     21 ****         2.5021   0.9623  -0.3744 H              1 S1                 0.0000
     22 ****         3.0504  -1.1643   0.5686 H              1 S1                 0.0000
     23 ****         2.0357  -2.0025  -0.6062 H              1 S1                 0.0000
     24 ****         4.8257  -0.8859  -1.0858 H              1 S1                 0.0000
     25 ****         4.2202  -2.5064  -1.4690 H              1 S1                 0.0000
     26 ****         2.0912   0.5007  -3.1615 H              1 S1                 0.0000
     27 ****         3.5605   1.0777  -2.3765 H              1 S1                 0.0000
     28 ****        -1.8529  -0.1040  -1.1084 H              1 S1                 0.0000
     29 ****        -4.1026   1.9292   1.4855 H              1 S1                 0.0000
     30 ****         1.5727   0.3823   1.2958 LP             1 S1                 0.0000
     31 ****         0.4964   0.8203  -1.7100 LP             1 S1                 0.0000
     32 ****         0.5499  -0.8055  -1.5666 LP             1 S1                 0.0000
     33 ****         2.8446  -1.6052  -3.0591 LP             1 S1                 0.0000
     34 ****         4.2521  -0.8038  -3.2675 LP             1 S1                 0.0000
@<TRIPOS>BOND
    1    1    2 1     
    2    1   15 1     
    3    1   16 1     
    4    1   29 1     
    5    2    3 1     
    6    2   17 1     
    7    2   18 1     
    8    3   14 ar    
    9    3    4 ar    
   10    4    5 ar    
   11    4   19 1     
   12    5    6 ar    
   13    5   20 1     
   14    6    7 ar    
   15    7    8 1     
   16    7   14 ar    
   17    8    9 1     
   18    9   13 1     
   19    9   10 1     
   20    9   21 1     
   21   10   11 1     
   22   10   22 1     
   23   10   23 1     
   24   11   12 1     
   25   11   24 1     
   26   11   25 1     
   27   12   13 1     
   28   13   26 1     
   29   13   27 1     
   30   14   28 1     
   31    6   30 1     
   32    8   31 1     
   33    8   32 1     
   34   12   33 1     
   35   12   34 1     
@<TRIPOS>SUBSTRUCTURE
      1 S1             1
@<TRIPOS>SET
LONE_PAIRS      STATIC     ATOMS    <user>   **** ""
5 30 31 32 33 34
DONOR_HYDROGENS      STATIC     ATOMS    <user>   **** ""
3 15 16 29
ATOM$BLUE        STATIC     ATOMS    COLORGROUP SYSTEM
5 30 31 32 33 34
ATOM$RED        STATIC     ATOMS    COLORGROUP SYSTEM
3 15 16 29
