#       Name:                AV-unprocessed.smi:1565
#       Creating user name   scv26
#       Creation time:       Fri Mar 27 06:49:55 2020


#       File generated by GOLD software.
#

@<TRIPOS>MOLECULE
AV-unprocessed.smi:1565
    46    47     1
SMALL
NO_CHARGES


@<TRIPOS>ATOM
      1 ****        -4.7715  -1.7142  -1.0738 C.3            1 S1                 0.0000
      2 ****        -3.9747  -0.7972  -0.1399 C.3            1 S1                 0.0000
      3 ****        -2.4717  -0.8084  -0.4715 C.3            1 S1                 0.0000
      4 ****        -1.7638   0.1699   0.3476 N.3            1 S1                 0.0000
      5 ****        -0.3595   0.0346   0.3842 C.ar           1 S1                 0.0000
      6 ****         0.2255  -1.2039   0.7380 C.ar           1 S1                 0.0000
      7 ****         1.6285  -1.3193   0.7634 C.ar           1 S1                 0.0000
      8 ****         2.4173  -0.1988   0.4293 C.ar           1 S1                 0.0000
      9 ****         3.9161  -0.2798   0.4666 C.2            1 S1                 0.0000
     10 ****         4.4857  -1.0700   1.2194 O.2            1 S1                 0.0000
     11 ****         4.5626   0.5110  -0.4048 N.am           1 S1                 0.0000
     12 ****         6.0103   0.5578  -0.5824 C.3            1 S1                 0.0000
     13 ****         6.4945  -0.4543  -1.6345 C.3            1 S1                 0.0000
     14 ****         7.8109  -0.3238  -1.7926 F              1 S1                 0.0000
     15 ****         6.2348  -1.7036  -1.2495 F              1 S1                 0.0000
     16 ****         5.8992  -0.2227  -2.8047 F              1 S1                 0.0000
     17 ****         1.7441   1.0008   0.1074 C.ar           1 S1                 0.0000
     18 ****         0.3997   1.1164   0.0821 N.ar           1 S1                 0.0000
     19 ****        -2.3228   1.5162   0.2465 C.3            1 S1                 0.0000
     20 ****        -3.8373   1.5092   0.5313 C.3            1 S1                 0.0000
     21 ****        -4.1794   1.3505   2.0237 C.3            1 S1                 0.0000
     22 ****        -4.4869   0.5275  -0.2794 O.3            1 S1                 0.0000
     23 ****        -4.4264  -2.7457  -0.9992 H              1 S1                 0.0000
     24 ****        -4.6716  -1.4014  -2.1136 H              1 S1                 0.0000
     25 ****        -5.8322  -1.6996  -0.8217 H              1 S1                 0.0000
     26 ****        -4.1264  -1.1449   0.8822 H              1 S1                 0.0000
     27 ****        -2.0820  -1.8151  -0.3266 H              1 S1                 0.0000
     28 ****        -2.3171  -0.5587  -1.5221 H              1 S1                 0.0000
     29 ****        -0.3815  -2.0569   1.0028 H              1 S1                 0.0000
     30 ****         2.0848  -2.2601   1.0354 H              1 S1                 0.0000
     31 ****         4.0116   1.1093  -1.0029 H              1 S1                 0.0000
     32 ****         6.2751   1.5678  -0.8971 H              1 S1                 0.0000
     33 ****         6.5194   0.3910   0.3684 H              1 S1                 0.0000
     34 ****         2.2905   1.9005  -0.1352 H              1 S1                 0.0000
     35 ****        -1.8228   2.1934   0.9405 H              1 S1                 0.0000
     36 ****        -2.1419   1.8955  -0.7604 H              1 S1                 0.0000
     37 ****        -4.2370   2.4742   0.2185 H              1 S1                 0.0000
     38 ****        -3.7858   2.1877   2.6003 H              1 S1                 0.0000
     39 ****        -3.7593   0.4401   2.4503 H              1 S1                 0.0000
     40 ****        -5.2587   1.3251   2.1746 H              1 S1                 0.0000
     41 ****        -1.9637  -0.0734   1.2967 LP             1 S1                 0.0000
     42 ****         3.9495  -1.6676   1.8155 LP             1 S1                 0.0000
     43 ****         5.4846  -1.1143   1.2348 LP             1 S1                 0.0000
     44 ****        -0.0302   1.9873  -0.1560 LP             1 S1                 0.0000
     45 ****        -5.4564   0.5137  -0.0345 LP             1 S1                 0.0000
     46 ****        -4.3887   0.7999  -1.2366 LP             1 S1                 0.0000
@<TRIPOS>BOND
    1    1    2 1     
    2    1   23 1     
    3    1   24 1     
    4    1   25 1     
    5    2   22 1     
    6    2    3 1     
    7    2   26 1     
    8    3    4 1     
    9    3   27 1     
   10    3   28 1     
   11    4    5 1     
   12    4   19 1     
   13    5   18 ar    
   14    5    6 ar    
   15    6    7 ar    
   16    6   29 1     
   17    7    8 ar    
   18    7   30 1     
   19    8    9 1     
   20    8   17 ar    
   21    9   10 2     
   22    9   11 am    
   23   11   12 1     
   24   11   31 1     
   25   12   13 1     
   26   12   32 1     
   27   12   33 1     
   28   13   14 1     
   29   13   15 1     
   30   13   16 1     
   31   17   18 ar    
   32   17   34 1     
   33   19   20 1     
   34   19   35 1     
   35   19   36 1     
   36   20   21 1     
   37   20   22 1     
   38   20   37 1     
   39   21   38 1     
   40   21   39 1     
   41   21   40 1     
   42    4   41 1     
   43   10   42 1     
   44   10   43 1     
   45   18   44 1     
   46   22   45 1     
   47   22   46 1     
@<TRIPOS>SUBSTRUCTURE
      1 S1             1
@<TRIPOS>SET
LONE_PAIRS      STATIC     ATOMS    <user>   **** ""
6 41 42 43 44 45 46
DONOR_HYDROGENS      STATIC     ATOMS    <user>   **** ""
1 31
ATOM$BLUE        STATIC     ATOMS    COLORGROUP SYSTEM
6 41 42 43 44 45 46
ATOM$RED        STATIC     ATOMS    COLORGROUP SYSTEM
1 31
