AV-unprocessed.smi:2917|AV-procd|sdf|11190|dock3
  -GOLD-   2272016 83D 1   1.00000     0.00000
 Structure written by MMmdl.
 34 35  0  0  0  0  0  0  0  0  1 V2000
  148.9449  139.7907  154.2427 C   0  0  0  0  0  0  0  0  0  0  0  0
  148.1618  141.0355  154.7129 C   0  0  0  0  0  0  0  0  0  0  0  0
  149.0605  141.9465  155.4388 N   0  0  0  0  0  0  0  0  0  0  0  0
  149.8328  141.6853  156.5069 C   0  0  0  0  0  0  0  0  0  0  0  0
  149.8946  140.5885  157.0610 O   0  0  0  0  0  0  0  0  0  0  0  0
  150.5058  142.7834  156.8909 N   0  0  0  0  0  0  0  0  0  0  0  0
  151.4188  142.9284  157.9704 C   0  0  0  0  0  0  0  0  0  0  0  0
  151.9980  141.8452  158.6749 C   0  0  0  0  0  0  0  0  0  0  0  0
  152.9057  142.1193  159.7160 C   0  0  0  0  0  0  0  0  0  0  0  0
  153.2068  143.4633  160.0099 C   0  0  0  0  0  0  0  0  0  0  0  0
  152.6734  144.5049  159.3377 N   0  0  0  0  0  0  0  0  0  0  0  0
  151.8048  144.2344  158.3400 C   0  0  0  0  0  0  0  0  0  0  0  0
  147.4752  141.7370  153.5151 C   0  0  0  0  0  0  0  0  0  0  0  0
  146.5076  142.8437  153.9720 C   0  0  0  0  0  0  0  0  0  0  0  0
  145.5294  142.2988  154.8498 O   0  0  0  0  0  0  0  0  0  0  0  0
  146.0931  141.7546  156.0371 C   0  0  0  0  0  0  0  0  0  0  0  0
  147.0463  140.5963  155.6865 C   0  0  0  0  0  0  0  0  0  0  0  0
  148.2811  139.0548  153.7877 H   0  0  0  0  0  0  0  0  0  0  0  0
  149.4511  139.3021  155.0762 H   0  0  0  0  0  0  0  0  0  0  0  0
  149.7001  140.0392  153.4974 H   0  0  0  0  0  0  0  0  0  0  0  0
  149.0943  142.8898  155.0811 H   0  0  0  0  0  0  0  0  0  0  0  0
  150.2918  143.6328  156.3891 H   0  0  0  0  0  0  0  0  0  0  0  0
  151.7779  140.8176  158.4314 H   0  0  0  0  0  0  0  0  0  0  0  0
  153.3648  141.3165  160.2734 H   0  0  0  0  0  0  0  0  0  0  0  0
  153.8994  143.7075  160.8019 H   0  0  0  0  0  0  0  0  0  0  0  0
  151.4003  145.0923  157.8225 H   0  0  0  0  0  0  0  0  0  0  0  0
  148.2063  142.1465  152.8186 H   0  0  0  0  0  0  0  0  0  0  0  0
  146.9077  141.0004  152.9446 H   0  0  0  0  0  0  0  0  0  0  0  0
  147.0419  143.6586  154.4627 H   0  0  0  0  0  0  0  0  0  0  0  0
  146.0006  143.2744  153.1084 H   0  0  0  0  0  0  0  0  0  0  0  0
  146.6081  142.5354  156.5987 H   0  0  0  0  0  0  0  0  0  0  0  0
  145.2852  141.3924  156.6729 H   0  0  0  0  0  0  0  0  0  0  0  0
  146.4601  139.7949  155.2342 H   0  0  0  0  0  0  0  0  0  0  0  0
  147.4762  140.1793  156.5985 H   0  0  0  0  0  0  0  0  0  0  0  0
  1  2  1  0  0  0  0
  1 18  1  0  0  0  0
  1 19  1  0  0  0  0
  1 20  1  0  0  0  0
  2 17  1  0  0  0  0
  2  3  1  0  0  0  0
  2 13  1  0  0  0  0
  3  4  1  0  0  0  0
  3 21  1  0  0  0  0
  4  5  2  0  0  0  0
  4  6  1  0  0  0  0
  6  7  1  0  0  0  0
  6 22  1  0  0  0  0
  7 12  1  0  0  0  0
  7  8  2  0  0  0  0
  8  9  1  0  0  0  0
  8 23  1  0  0  0  0
  9 10  2  0  0  0  0
  9 24  1  0  0  0  0
 10 11  1  0  0  0  0
 10 25  1  0  0  0  0
 11 12  2  0  0  0  0
 12 26  1  0  0  0  0
 13 14  1  0  0  0  0
 13 27  1  0  0  0  0
 13 28  1  0  0  0  0
 14 15  1  0  0  0  0
 14 29  1  0  0  0  0
 14 30  1  0  0  0  0
 15 16  1  0  0  0  0
 16 17  1  0  0  0  0
 16 31  1  0  0  0  0
 16 32  1  0  0  0  0
 17 33  1  0  0  0  0
 17 34  1  0  0  0  0
M  END
> <s_m_source_file>
AV-unprocessed.smi

> <i_m_source_file_index>
2917

> <i_lp_mmshare_version>
43012

> <i_f3d_flags>
0

> <s_epik_input>
W0NIMl0xW0NIMl1PW0NIMl1bQ0gyXUMxKFtDSDNdKVtOSF1DKD1PKVtOSF1jMltjSF1bY0hdW2NIXW5bY0hdMg==

> <s_epik_cmdline>
J2VwaWtfcHl0aG9uJywgJy1waCcsICc3LjAnLCAnLXRuJywgJzgnLCAnLW1hJywgJzIwMCcsICctbWV0YWxfYmluZGluZycsICctaW1hZScsICc8aW5maWxlLm1hZT4nLCAnLW9tYWUnLCAnPG91dGZpbGUubWFlPic=

> <r_epik_Ionization_Penalty>
0.00491607

> <r_epik_Ionization_Penalty_Charging>
0

> <r_epik_Ionization_Penalty_Neutral>
0.00491607

> <r_epik_State_Penalty>
0.00354213

> <r_epik_Charging_Adjusted_Penalty>
0.00354213

> <i_epik_Tot_Q>
0

> <i_epik_Tot_abs_Q>
0

> <r_epik_Metal_State_Penalty>
-0

> <b_epik_Metal_Only>
0

> <s_lp_Force_Field>
OPLS_2005

> <r_lp_Energy>
13.2781

> <b_lp_Chiralities_Consistent>
1

> <s_lp_Variant>
AV-unprocessed.smi:2917-1

> <Gold.Version>
5.8.1

> <Gold.Id.Protein>
6NUR|6NUR_protein|mol2

> <Gold.PLP.Fitness>
38.2018

> <Gold.PLP.PLP>
-32.3777

> <Gold.PLP.part.hbond>
-2.0000

> <Gold.PLP.part.metal>
0.0000

> <Gold.PLP.part.buried>
-4.9618

> <Gold.PLP.part.nonpolar>
-25.3657

> <Gold.PLP.part.repulsive>
0.3729

> <Gold.PLP.ligand.clash>
0.0000

> <Gold.PLP.ligand.torsion>
0.0553

> <Gold.PLP.Chemscore.Hbond>
1.9760

> <Gold.PLP.Chemscore.CHOScore>
0.0000

> <Gold.PLP.Chemscore.Metal>
0.0000

> <Gold.Chemscore.Hbonds>
donor molecule, donor type, donor heavy atom, donor atom, acceptor molecule, acceptor atom, score
      L1  H     3    21       P1  8028  0.83
      L1  H     6    22       P1  8028  0.93

> <Gold.PLP.Chemscore.Internal.Correction>
0.0068

> <Gold.Rescore>
     Score         DG    S(hbond)    S(metal)    S(lipo)     H(rot)  DE(clash)    DE(int)     intcor
     17.32     -19.73       1.97        0.00      87.41       1.00       0.17       2.24       ----

> <Gold.Chemscore.Fitness>
17.3185

> <Gold.Chemscore.DG>
-19.7299

> <Gold.Chemscore.ZeroCoef>
-5.4800

> <Gold.Chemscore.Hbond>
1.9709

> <Gold.Chemscore.Metal>
0.0000

> <Gold.Chemscore.Lipo>
87.4104

> <Gold.Chemscore.Internal_Hbond>
0.0000

> <Gold.Chemscore.DEClash>
0.1685

> <Gold.Chemscore.DEInternal>
2.2429

> <Gold.Chemscore.Rot>
1.0000

> <Gold.Chemscore.Internal.Correction>
   9.000000E+99

> <Gold.Chemscore.Hbonds>
donor molecule, donor type, donor heavy atom, donor atom, acceptor molecule, acceptor atom, score
      L1  H     3    21       P1  8028  0.83
      L1  H     6    22       P1  8028  0.89

> <Gold.Chemscore.Hbond.Weighted>
-6.5828

> <Gold.Chemscore.Metal.Weighted>
-0.0000

> <Gold.Chemscore.Lipo.Weighted>
-10.2270

> <Gold.Chemscore.Internal_Hbond.Weighted>
0.0000

> <Gold.Chemscore.DEClash.Weighted>
0.1685

> <Gold.Chemscore.DEInternal.Weighted>
2.2429

> <Gold.Chemscore.Rot.Weighted>
2.5600

> <Gold.Chemscore.Internal.Correction.Weighted>
   9.000000E+99

> <Gold.Protein.RotatedTorsions>
[ 6907 6896 6895 6894 ] final -157.17 input  -60.11 | X-H torsion
[ 7974 7965 7964 7962 ] final  -37.43 input  175.53 | X-H torsion
[ 8008 7997 7996 7995 ] final -174.88 input   59.86 | X-H torsion
[ 10167 10162 10161 10158 ] final   63.55 input  -65.29 | X-H torsion
[ 10718 10713 10712 10709 ] final  -76.57 input   66.30 | X-H torsion
[ 10763 10752 10751 10750 ] final   29.07 input  -60.55 | X-H torsion
[ 11005 11000 10999 10996 ] final  153.08 input  -57.11 | X-H torsion

> <Gold.Protein.ActiveResidues>
 VAL166  LYS551  ARG553  GLY616  TRP617  ASP618  TYR619  PRO620  LYS621  CYS622 
 ASP623  PHE694  ASN695  SER759  ASP760  ASP761  ALA762  ILE779  LEU786  VAL792 
 PHE793  MET794  SER795  GLU796  ALA797  LYS798  CYS799  TRP800  GLU811  SER814 

> <Gold.Protein.RotatedAtoms>
  151.2988  133.4132  159.2637 H   0  0  0  0  0  0  0  0  0  0  0  0  # atno 6907 bound_to 6896
  151.0213  134.9472  159.8071 H   0  0  0  0  0  0  0  0  0  0  0  0  # atno 6908 bound_to 6896
  152.5325  134.2951  159.9110 H   0  0  0  0  0  0  0  0  0  0  0  0  # atno 6909 bound_to 6896
  146.0575  140.6395  142.9012 H   0  0  0  0  0  0  0  0  0  0  0  0  # atno 7974 bound_to 7965
  155.9756  140.1171  157.0773 H   0  0  0  0  0  0  0  0  0  0  0  0  # atno 8008 bound_to 7997
  154.4168  140.1154  156.5433 H   0  0  0  0  0  0  0  0  0  0  0  0  # atno 8009 bound_to 7997
  155.6539  140.3473  155.4760 H   0  0  0  0  0  0  0  0  0  0  0  0  # atno 8010 bound_to 7997
  140.1318  144.4636  150.6860 H   0  0  0  0  0  0  0  0  0  0  0  0  # atno 10167 bound_to 10162
  156.0171  130.4469  150.3213 H   0  0  0  0  0  0  0  0  0  0  0  0  # atno 10718 bound_to 10713
  153.0453  135.6498  154.0834 H   0  0  0  0  0  0  0  0  0  0  0  0  # atno 10763 bound_to 10752
  154.0533  135.2894  155.3338 H   0  0  0  0  0  0  0  0  0  0  0  0  # atno 10764 bound_to 10752
  154.6706  135.5357  153.8199 H   0  0  0  0  0  0  0  0  0  0  0  0  # atno 10765 bound_to 10752
  140.1366  134.8767  157.2275 H   0  0  0  0  0  0  0  0  0  0  0  0  # atno 11005 bound_to 11000
  144.7156  140.4198  143.7047 LP  0  0  0  0  0  0  0  0  0  0  0  0  # atno 17320 bound_to 7965
  145.6617  139.1582  143.2804 LP  0  0  0  0  0  0  0  0  0  0  0  0  # atno 17321 bound_to 7965
  140.6812  143.2328  151.5378 LP  0  0  0  0  0  0  0  0  0  0  0  0  # atno 17342 bound_to 10162
  139.5516  144.2381  152.1540 LP  0  0  0  0  0  0  0  0  0  0  0  0  # atno 17343 bound_to 10162
  157.1313  131.0272  151.2968 LP  0  0  0  0  0  0  0  0  0  0  0  0  # atno 17370 bound_to 10713
  157.4548  130.7619  149.7183 LP  0  0  0  0  0  0  0  0  0  0  0  0  # atno 17371 bound_to 10713
  140.2775  134.3389  155.7353 LP  0  0  0  0  0  0  0  0  0  0  0  0  # atno 17394 bound_to 11000
  141.2179  133.7459  156.9314 LP  0  0  0  0  0  0  0  0  0  0  0  0  # atno 17395 bound_to 11000

$$$$
