AV-unprocessed.smi:2999|AV-procd|sdf|11426|dock5
  -GOLD-   2272016353D 1   1.00000     0.00000
 Structure written by MMmdl.
 37 39  0  0  0  0  0  0  0  0  3 V2000
  144.9497  136.7846  159.3047 O   0  0  0  0  0  0  0  0  0  0  0  0
  145.2426  137.8383  159.8739 C   0  0  0  0  0  0  0  0  0  0  0  0
  144.8912  139.0129  159.3336 N   0  0  0  0  0  0  0  0  0  0  0  0
  144.2159  139.2049  158.0533 C   0  0  0  0  0  0  0  0  0  0  0  0
  144.9414  140.2084  157.1321 C   0  0  1  0  0  0  0  0  0  0  0  0
  144.6037  140.0349  155.6314 C   0  0  0  0  0  0  0  0  0  0  0  0
  145.2736  141.0624  154.8003 N   0  3  2  0  0  0  0  0  0  0  0  0
  146.7125  140.7923  154.5742 C   0  0  0  0  0  0  0  0  0  0  0  0
  147.4663  141.9701  154.0023 C   0  0  0  0  0  0  0  0  0  0  0  0
  147.1068  140.7986  153.1159 C   0  0  0  0  0  0  0  0  0  0  0  0
  145.0028  142.4233  155.3205 C   0  0  0  0  0  0  0  0  0  0  0  0
  145.3382  142.5256  156.8190 C   0  0  0  0  0  0  0  0  0  0  0  0
  144.6195  141.5343  157.5403 O   0  0  0  0  0  0  0  0  0  0  0  0
  145.9202  137.9611  161.0370 N   0  5  0  0  0  0  0  0  0  0  0  0
  146.3827  136.8666  161.6631 C   0  0  0  0  0  0  0  0  0  0  0  0
  147.5508  136.8397  162.3149 N   0  0  0  0  0  0  0  0  0  0  0  0
  147.8328  135.6026  162.8975 C   0  0  0  0  0  0  0  0  0  0  0  0
  146.8533  134.6680  162.6901 C   0  0  0  0  0  0  0  0  0  0  0  0
  145.5388  135.3181  161.7525 S   0  0  0  0  0  0  0  0  0  0  0  0
  145.1424  139.8460  159.8455 H   0  0  0  0  0  0  0  0  0  0  0  0
  144.0759  138.2492  157.5458 H   0  0  0  0  0  0  0  0  0  0  0  0
  143.2163  139.5799  158.2733 H   0  0  0  0  0  0  0  0  0  0  0  0
  146.0123  140.0632  157.2818 H   0  0  0  0  0  0  0  0  0  0  0  0
  144.8719  139.0358  155.2863 H   0  0  0  0  0  0  0  0  0  0  0  0
  143.5300  140.1399  155.4713 H   0  0  0  0  0  0  0  0  0  0  0  0
  147.2022  140.1147  155.2707 H   0  0  0  0  0  0  0  0  0  0  0  0
  146.9257  142.9020  153.8468 H   0  0  0  0  0  0  0  0  0  0  0  0
  148.5120  142.0807  154.2819 H   0  0  0  0  0  0  0  0  0  0  0  0
  147.9149  140.1363  152.8120 H   0  0  0  0  0  0  0  0  0  0  0  0
  146.3275  140.9532  152.3715 H   0  0  0  0  0  0  0  0  0  0  0  0
  145.5590  143.1661  154.7475 H   0  0  0  0  0  0  0  0  0  0  0  0
  143.9449  142.6441  155.1723 H   0  0  0  0  0  0  0  0  0  0  0  0
  146.4093  142.4182  156.9955 H   0  0  0  0  0  0  0  0  0  0  0  0
  145.0540  143.5073  157.1982 H   0  0  0  0  0  0  0  0  0  0  0  0
  148.7557  135.4762  163.4435 H   0  0  0  0  0  0  0  0  0  0  0  0
  146.8233  133.6440  163.0300 H   0  0  0  0  0  0  0  0  0  0  0  0
  144.8439  141.0146  153.8874 H   0  0  0  0  0  0  0  0  0  0  0  0
  1  2  2  0  0  0  0
  2  3  1  0  0  0  0
  2 14  1  0  0  0  0
  3  4  1  0  0  0  0
  3 20  1  0  0  0  0
  4  5  1  0  0  0  0
  4 21  1  0  0  0  0
  4 22  1  0  0  0  0
  5 13  1  0  0  0  0
  5  6  1  0  0  0  0
  5 23  1  0  0  0  0
  6  7  1  0  0  0  0
  6 24  1  0  0  0  0
  6 25  1  0  0  0  0
  7  8  1  0  0  0  0
  7 11  1  0  0  0  0
  7 37  1  0  0  0  0
  8 10  1  0  0  0  0
  8  9  1  0  0  0  0
  8 26  1  0  0  0  0
  9 10  1  0  0  0  0
  9 27  1  0  0  0  0
  9 28  1  0  0  0  0
 10 29  1  0  0  0  0
 10 30  1  0  0  0  0
 11 12  1  0  0  0  0
 11 31  1  0  0  0  0
 11 32  1  0  0  0  0
 12 13  1  0  0  0  0
 12 33  1  0  0  0  0
 12 34  1  0  0  0  0
 14 15  1  0  0  0  0
 15 19  1  0  0  0  0
 15 16  2  0  0  0  0
 16 17  1  0  0  0  0
 17 18  2  0  0  0  0
 17 35  1  0  0  0  0
 18 19  1  0  0  0  0
 18 36  1  0  0  0  0
M  CHG  1   7   1
M  CHG  1  14  -1
M  END
> <s_m_source_file>
AV-unprocessed.smi

> <i_m_source_file_index>
2999

> <i_lp_mmshare_version>
43012

> <i_f3d_flags>
0

> <s_epik_input>
czFbY0hdW2NIXW5jMVtOSF1DKD1PKVtOSF1bQ0gyXVtDQEBIXTJbQ0gyXU4oW0NIMl1bQ0gyXU8yKVtDSF0zW0NIMl1bQ0gyXTM=

> <s_epik_cmdline>
J2VwaWtfcHl0aG9uJywgJy1waCcsICc3LjAnLCAnLXRuJywgJzgnLCAnLW1hJywgJzIwMCcsICctbWV0YWxfYmluZGluZycsICctaW1hZScsICc8aW5maWxlLm1hZT4nLCAnLW9tYWUnLCAnPG91dGZpbGUubWFlPic=

> <r_lp_tautomer_probability>
0.999

> <r_epik_Ionization_Penalty>
7.79196

> <r_epik_Ionization_Penalty_Charging>
6.93299

> <r_epik_Ionization_Penalty_Neutral>
0.858963

> <r_epik_State_Penalty>
7.05108

> <r_epik_Charging_Adjusted_Penalty>
13.9841

> <i_epik_Tot_Q>
0

> <i_epik_Tot_abs_Q>
2

> <r_epik_Metal_State_Penalty>
3.05936

> <b_epik_Metal_Only>
1

> <s_lp_Force_Field>
OPLS_2005

> <r_lp_Energy>
16.0159

> <b_lp_Chiralities_Consistent>
1

> <s_lp_Variant>
AV-unprocessed.smi:2999-10

> <Gold.Version>
5.8.1

> <Gold.Id.Protein>
6NUR|6NUR_protein|mol2

> <Gold.PLP.Fitness>
38.5006

> <Gold.PLP.PLP>
-25.5887

> <Gold.PLP.part.hbond>
-2.9942

> <Gold.PLP.part.metal>
0.0000

> <Gold.PLP.part.buried>
-4.0077

> <Gold.PLP.part.nonpolar>
-18.6563

> <Gold.PLP.part.repulsive>
0.1067

> <Gold.PLP.ligand.clash>
0.0000

> <Gold.PLP.ligand.torsion>
1.3409

> <Gold.PLP.Chemscore.Hbond>
4.7756

> <Gold.PLP.Chemscore.CHOScore>
0.0000

> <Gold.PLP.Chemscore.Metal>
0.0000

> <Gold.Chemscore.Hbonds>
donor molecule, donor type, donor heavy atom, donor atom, acceptor molecule, acceptor atom, score
      L1  H     7    37       P1 10175  2.00
      P1  H  6931  6943       L1    16  0.88
      P1  H  6934  6947       L1    14  1.95

> <Gold.PLP.Chemscore.Internal.Correction>
1.2670

> <Gold.Rescore>
     Score         DG    S(hbond)    S(metal)    S(lipo)     H(rot)  DE(clash)    DE(int)     intcor
     13.28     -16.38       2.61        0.00      52.48       1.55       0.44       2.66       ----

> <Gold.Chemscore.Fitness>
13.2778

> <Gold.Chemscore.DG>
-16.3833

> <Gold.Chemscore.ZeroCoef>
-5.4800

> <Gold.Chemscore.Hbond>
2.6145

> <Gold.Chemscore.Metal>
0.0000

> <Gold.Chemscore.Lipo>
52.4789

> <Gold.Chemscore.Internal_Hbond>
0.0000

> <Gold.Chemscore.DEClash>
0.4434

> <Gold.Chemscore.DEInternal>
2.6621

> <Gold.Chemscore.Rot>
1.5504

> <Gold.Chemscore.Internal.Correction>
   9.000000E+99

> <Gold.Chemscore.Hbonds>
donor molecule, donor type, donor heavy atom, donor atom, acceptor molecule, acceptor atom, score
      L1  H     7    37       P1 10175  0.82
      P1  H  6931  6943       L1    16  0.79
      P1  H  6934  6947       L1    14  0.50

> <Gold.Chemscore.Hbond.Weighted>
-8.7323

> <Gold.Chemscore.Metal.Weighted>
-0.0000

> <Gold.Chemscore.Lipo.Weighted>
-6.1400

> <Gold.Chemscore.Internal_Hbond.Weighted>
0.0000

> <Gold.Chemscore.DEClash.Weighted>
0.4434

> <Gold.Chemscore.DEInternal.Weighted>
2.6621

> <Gold.Chemscore.Rot.Weighted>
3.9690

> <Gold.Chemscore.Internal.Correction.Weighted>
   9.000000E+99

> <Gold.Protein.RotatedTorsions>
[ 6907 6896 6895 6894 ] final  -11.14 input  -60.11 | X-H torsion
[ 7974 7965 7964 7962 ] final  -35.36 input  175.53 | X-H torsion
[ 8008 7997 7996 7995 ] final   23.09 input   59.86 | X-H torsion
[ 10167 10162 10161 10158 ] final -105.56 input  -65.29 | X-H torsion
[ 10718 10713 10712 10709 ] final  144.97 input   66.30 | X-H torsion
[ 10763 10752 10751 10750 ] final -109.86 input  -60.55 | X-H torsion
[ 11005 11000 10999 10996 ] final   40.23 input  -57.11 | X-H torsion

> <Gold.Protein.ActiveResidues>
 VAL166  LYS551  ARG553  GLY616  TRP617  ASP618  TYR619  PRO620  LYS621  CYS622 
 ASP623  PHE694  ASN695  SER759  ASP760  ASP761  ALA762  ILE779  LEU786  VAL792 
 PHE793  MET794  SER795  GLU796  ALA797  LYS798  CYS799  TRP800  GLU811  SER814 

> <Gold.Protein.RotatedAtoms>
  151.3908  135.0955  159.9525 H   0  0  0  0  0  0  0  0  0  0  0  0  # atno 6907 bound_to 6896
  152.5080  133.8981  159.7438 H   0  0  0  0  0  0  0  0  0  0  0  0  # atno 6908 bound_to 6896
  150.9434  133.6574  159.2815 H   0  0  0  0  0  0  0  0  0  0  0  0  # atno 6909 bound_to 6896
  146.0752  140.6150  142.8934 H   0  0  0  0  0  0  0  0  0  0  0  0  # atno 7974 bound_to 7965
  154.9756  140.3095  155.4969 H   0  0  0  0  0  0  0  0  0  0  0  0  # atno 8008 bound_to 7997
  156.2960  140.2276  156.4791 H   0  0  0  0  0  0  0  0  0  0  0  0  # atno 8009 bound_to 7997
  154.7836  140.0444  157.1135 H   0  0  0  0  0  0  0  0  0  0  0  0  # atno 8010 bound_to 7997
  140.1972  143.3846  152.1159 H   0  0  0  0  0  0  0  0  0  0  0  0  # atno 10167 bound_to 10162
  157.3508  131.0950  151.1002 H   0  0  0  0  0  0  0  0  0  0  0  0  # atno 10718 bound_to 10713
  154.8216  135.4585  154.0797 H   0  0  0  0  0  0  0  0  0  0  0  0  # atno 10763 bound_to 10752
  153.2145  135.6886  153.8080 H   0  0  0  0  0  0  0  0  0  0  0  0  # atno 10764 bound_to 10752
  153.7519  135.3297  155.3299 H   0  0  0  0  0  0  0  0  0  0  0  0  # atno 10765 bound_to 10752
  140.1951  134.3939  155.8125 H   0  0  0  0  0  0  0  0  0  0  0  0  # atno 11005 bound_to 11000
  144.7257  140.4517  143.6975 LP  0  0  0  0  0  0  0  0  0  0  0  0  # atno 17320 bound_to 7965
  145.6318  139.1537  143.2965 LP  0  0  0  0  0  0  0  0  0  0  0  0  # atno 17321 bound_to 7965
  139.5232  144.7068  151.5329 LP  0  0  0  0  0  0  0  0  0  0  0  0  # atno 17342 bound_to 10162
  140.6415  143.8879  150.6696 LP  0  0  0  0  0  0  0  0  0  0  0  0  # atno 17343 bound_to 10162
  157.2178  130.6467  149.5799 LP  0  0  0  0  0  0  0  0  0  0  0  0  # atno 17370 bound_to 10713
  155.9721  130.4639  150.6198 LP  0  0  0  0  0  0  0  0  0  0  0  0  # atno 17371 bound_to 10713
  141.2227  133.7066  156.8162 LP  0  0  0  0  0  0  0  0  0  0  0  0  # atno 17394 bound_to 11000
  140.2116  134.8823  157.3281 LP  0  0  0  0  0  0  0  0  0  0  0  0  # atno 17395 bound_to 11000

$$$$
