AV-unprocessed.smi:37|AV-procd|sdf|323|dock1
  -GOLD-   2262016143D 1   1.00000     0.00000
 Structure written by MMmdl.
 43 44  0  0  0  0  0  0  0  0  2 V2000
  145.0836  143.7914  162.1972 C   0  0  0  0  0  0  0  0  0  0  0  0
  145.7592  144.1509  160.8656 C   0  0  0  0  0  0  0  0  0  0  0  0
  145.8962  142.9653  159.9079 C   0  0  0  0  0  0  0  0  0  0  0  0
  145.5769  141.8180  160.2246 O   0  0  0  0  0  0  0  0  0  0  0  0
  146.3941  143.3377  158.7208 O   0  0  0  0  0  0  0  0  0  0  0  0
  146.5020  142.3884  157.6729 C   0  0  0  0  0  0  0  0  0  0  0  0
  147.8447  141.6583  157.7912 C   0  0  2  0  0  0  0  0  0  0  0  0
  148.8253  142.3808  157.0406 O   0  0  0  0  0  0  0  0  0  0  0  0
  149.5590  141.5162  156.2238 C   0  0  1  0  0  0  0  0  0  0  0  0
  150.8089  141.0343  156.9466 N   0  0  0  0  0  0  0  0  0  0  0  0
  151.1334  141.4726  158.2218 C   0  0  0  0  0  0  0  0  0  0  0  0
  152.2331  141.0242  158.8603 C   0  0  0  0  0  0  0  0  0  0  0  0
  152.5137  141.4649  160.0988 F   0  0  0  0  0  0  0  0  0  0  0  0
  153.1149  140.0672  158.1967 C   0  0  0  0  0  0  0  0  0  0  0  0
  154.1033  139.6428  158.7931 O   0  0  0  0  0  0  0  0  0  0  0  0
  152.7992  139.6868  156.9255 N   0  5  0  0  0  0  0  0  0  0  0  0
  151.6911  140.1441  156.2726 C   0  0  0  0  0  0  0  0  0  0  0  0
  151.4141  139.8226  155.1168 O   0  0  0  0  0  0  0  0  0  0  0  0
  148.6099  140.3506  155.9217 C   0  0  2  0  0  0  0  0  0  0  0  0
  147.3910  140.8686  154.4340 Br  0  0  0  0  0  0  0  0  0  0  0  0
  147.8119  140.2333  157.2080 C   0  0  1  0  0  0  0  0  0  0  0  0
  148.4874  139.3348  158.0797 O   0  0  0  0  0  0  0  0  0  0  0  0
  148.6451  138.0415  157.7504 C   0  0  0  0  0  0  0  0  0  0  0  0
  148.2107  137.4955  156.7360 O   0  0  0  0  0  0  0  0  0  0  0  0
  149.4169  137.2572  158.8102 C   0  0  0  0  0  0  0  0  0  0  0  0
  150.8616  137.7505  158.9752 C   0  0  0  0  0  0  0  0  0  0  0  0
  145.0091  144.6695  162.8384 H   0  0  0  0  0  0  0  0  0  0  0  0
  145.6509  143.0343  162.7398 H   0  0  0  0  0  0  0  0  0  0  0  0
  144.0733  143.4114  162.0413 H   0  0  0  0  0  0  0  0  0  0  0  0
  145.1904  144.9351  160.3653 H   0  0  0  0  0  0  0  0  0  0  0  0
  146.7531  144.5565  161.0564 H   0  0  0  0  0  0  0  0  0  0  0  0
  145.6741  141.6798  157.7133 H   0  0  0  0  0  0  0  0  0  0  0  0
  146.4445  142.9060  156.7145 H   0  0  0  0  0  0  0  0  0  0  0  0
  148.1425  141.6446  158.8404 H   0  0  0  0  0  0  0  0  0  0  0  0
  149.9323  142.0352  155.3394 H   0  0  0  0  0  0  0  0  0  0  0  0
  150.5108  142.1887  158.7336 H   0  0  0  0  0  0  0  0  0  0  0  0
  149.1225  139.4337  155.6305 H   0  0  0  0  0  0  0  0  0  0  0  0
  146.8009  139.8756  157.0060 H   0  0  0  0  0  0  0  0  0  0  0  0
  148.8862  137.3328  159.7596 H   0  0  0  0  0  0  0  0  0  0  0  0
  149.4183  136.2030  158.5319 H   0  0  0  0  0  0  0  0  0  0  0  0
  151.4055  137.1172  159.6761 H   0  0  0  0  0  0  0  0  0  0  0  0
  150.8947  138.7697  159.3628 H   0  0  0  0  0  0  0  0  0  0  0  0
  151.3998  137.7317  158.0269 H   0  0  0  0  0  0  0  0  0  0  0  0
  1  2  1  0  0  0  0
  1 27  1  0  0  0  0
  1 28  1  0  0  0  0
  1 29  1  0  0  0  0
  2  3  1  0  0  0  0
  2 30  1  0  0  0  0
  2 31  1  0  0  0  0
  3  4  2  0  0  0  0
  3  5  1  0  0  0  0
  5  6  1  0  0  0  0
  6  7  1  0  0  0  0
  6 32  1  0  0  0  0
  6 33  1  0  0  0  0
  7 21  1  0  0  0  0
  7  8  1  0  0  0  0
  7 34  1  0  0  0  0
  8  9  1  0  0  0  0
  9 10  1  0  0  0  0
  9 19  1  0  0  0  0
  9 35  1  0  0  0  0
 10 17  1  0  0  0  0
 10 11  1  0  0  0  0
 11 12  2  0  0  0  0
 11 36  1  0  0  0  0
 12 13  1  0  0  0  0
 12 14  1  0  0  0  0
 14 15  2  0  0  0  0
 14 16  1  0  0  0  0
 16 17  1  0  0  0  0
 17 18  2  0  0  0  0
 19 20  1  0  0  0  0
 19 21  1  0  0  0  0
 19 37  1  0  0  0  0
 21 22  1  0  0  0  0
 21 38  1  0  0  0  0
 22 23  1  0  0  0  0
 23 24  2  0  0  0  0
 23 25  1  0  0  0  0
 25 26  1  0  0  0  0
 25 39  1  0  0  0  0
 25 40  1  0  0  0  0
 26 41  1  0  0  0  0
 26 42  1  0  0  0  0
 26 43  1  0  0  0  0
M  CHG  1  16  -1
M  END
> <s_m_source_file>
AV-unprocessed.smi

> <i_m_source_file_index>
37

> <i_lp_mmshare_version>
43012

> <i_f3d_flags>
0

> <s_epik_input>
W0NIM11bQ0gyXUMoPU8pT1tDSDJdW0NAQEhdMU9bQ0BASF0objJbY0hdYyhGKWMoPU8pW25IXWMyPU8pW0NAQEhdKEJyKVtDQEhdMU9DKD1PKVtDSDJdW0NIM10=

> <s_epik_cmdline>
J2VwaWtfcHl0aG9uJywgJy1waCcsICc3LjAnLCAnLXRuJywgJzgnLCAnLW1hJywgJzIwMCcsICctbWV0YWxfYmluZGluZycsICctaW1hZScsICc8aW5maWxlLm1hZT4nLCAnLW9tYWUnLCAnPG91dGZpbGUubWFlPic=

> <r_epik_Ionization_Penalty>
1.08158

> <r_epik_Ionization_Penalty_Charging>
9.05154e-09

> <r_epik_Ionization_Penalty_Neutral>
1.08158

> <r_epik_State_Penalty>
1.13706

> <r_epik_Charging_Adjusted_Penalty>
1.13706

> <i_epik_Tot_Q>
-1

> <i_epik_Tot_abs_Q>
1

> <r_epik_Metal_State_Penalty>
0.00343535

> <b_epik_Metal_Only>
0

> <s_epik_Chemistry_Notes>
This compound has an ester and may undergo hydrolysis at high or low pH. This compound contains an acetal/aminal-like group ( X-CH(R)-Y where X, Y are N, S, or O) that may be acid/base labile, releasing an aldehyde.

> <s_lp_Force_Field>
OPLS_2005

> <r_lp_Energy>
30.4092

> <b_lp_Chiralities_Consistent>
1

> <s_lp_Variant>
AV-unprocessed.smi:37-21

> <Gold.Version>
5.8.1

> <Gold.Id.Protein>
6NUR|6NUR_protein|mol2

> <Gold.PLP.Fitness>
41.7839

> <Gold.PLP.PLP>
-31.9172

> <Gold.PLP.part.hbond>
-4.5943

> <Gold.PLP.part.metal>
0.0000

> <Gold.PLP.part.buried>
-5.2757

> <Gold.PLP.part.nonpolar>
-24.3026

> <Gold.PLP.part.repulsive>
2.9891

> <Gold.PLP.ligand.clash>
0.0000

> <Gold.PLP.ligand.torsion>
0.5887

> <Gold.PLP.Chemscore.Hbond>
3.5974

> <Gold.PLP.Chemscore.CHOScore>
0.0000

> <Gold.PLP.Chemscore.Metal>
0.0000

> <Gold.Chemscore.Hbonds>
donor molecule, donor type, donor heavy atom, donor atom, acceptor molecule, acceptor atom, score
      P1  H  6934  6946       L1     4  1.00
      P1  H  7989  7998       L1    18  1.00
      P1  H  7997  8008       L1    16  1.09
      P1  H  7997  8010       L1    15  0.46

> <Gold.PLP.Chemscore.Internal.Correction>
0.2520

> <Gold.Rescore>
     Score         DG    S(hbond)    S(metal)    S(lipo)     H(rot)  DE(clash)    DE(int)     intcor
      5.31      -9.93       2.26        0.00      44.89       3.27       1.86       2.77       ----

> <Gold.Chemscore.Fitness>
5.3099

> <Gold.Chemscore.DG>
-9.9333

> <Gold.Chemscore.ZeroCoef>
-5.4800

> <Gold.Chemscore.Hbond>
2.2648

> <Gold.Chemscore.Metal>
0.0000

> <Gold.Chemscore.Lipo>
44.8904

> <Gold.Chemscore.Internal_Hbond>
0.0000

> <Gold.Chemscore.DEClash>
1.8572

> <Gold.Chemscore.DEInternal>
2.7661

> <Gold.Chemscore.Rot>
3.2669

> <Gold.Chemscore.Internal.Correction>
   9.000000E+99

> <Gold.Chemscore.Hbonds>
donor molecule, donor type, donor heavy atom, donor atom, acceptor molecule, acceptor atom, score
      P1  H  6934  6946       L1     4  0.88
      P1  H  7989  7998       L1    18  0.99
      P1  H  7997  8008       L1    16  0.11
      P1  H  7997  8010       L1    15  0.07

> <Gold.Chemscore.Hbond.Weighted>
-7.5644

> <Gold.Chemscore.Metal.Weighted>
-0.0000

> <Gold.Chemscore.Lipo.Weighted>
-5.2522

> <Gold.Chemscore.Internal_Hbond.Weighted>
0.0000

> <Gold.Chemscore.DEClash.Weighted>
1.8572

> <Gold.Chemscore.DEInternal.Weighted>
2.7661

> <Gold.Chemscore.Rot.Weighted>
8.3634

> <Gold.Chemscore.Internal.Correction.Weighted>
   9.000000E+99

> <Gold.Protein.RotatedTorsions>
[ 6907 6896 6895 6894 ] final  139.38 input  -60.11 | X-H torsion
[ 7974 7965 7964 7962 ] final   88.85 input  175.53 | X-H torsion
[ 8008 7997 7996 7995 ] final  -20.92 input   59.86 | X-H torsion
[ 10167 10162 10161 10158 ] final   89.50 input  -65.29 | X-H torsion
[ 10718 10713 10712 10709 ] final  175.62 input   66.30 | X-H torsion
[ 10763 10752 10751 10750 ] final   81.22 input  -60.55 | X-H torsion
[ 11005 11000 10999 10996 ] final -178.20 input  -57.11 | X-H torsion

> <Gold.Protein.ActiveResidues>
 VAL166  LYS551  ARG553  GLY616  TRP617  ASP618  TYR619  PRO620  LYS621  CYS622 
 ASP623  PHE694  ASN695  SER759  ASP760  ASP761  ALA762  ILE779  LEU786  VAL792 
 PHE793  MET794  SER795  GLU796  ALA797  LYS798  CYS799  TRP800  GLU811  SER814 

> <Gold.Protein.RotatedAtoms>
  152.2555  133.5252  159.5350 H   0  0  0  0  0  0  0  0  0  0  0  0  # atno 6907 bound_to 6896
  150.7107  134.0901  159.3937 H   0  0  0  0  0  0  0  0  0  0  0  0  # atno 6908 bound_to 6896
  151.8820  135.0450  160.0540 H   0  0  0  0  0  0  0  0  0  0  0  0  # atno 6909 bound_to 6896
  145.5402  139.2288  143.2570 H   0  0  0  0  0  0  0  0  0  0  0  0  # atno 7974 bound_to 7965
  154.4739  140.2049  155.9927 H   0  0  0  0  0  0  0  0  0  0  0  0  # atno 8008 bound_to 7997
  156.1056  140.3237  155.7972 H   0  0  0  0  0  0  0  0  0  0  0  0  # atno 8009 bound_to 7997
  155.4723  140.0532  157.2969 H   0  0  0  0  0  0  0  0  0  0  0  0  # atno 8010 bound_to 7997
  139.8566  144.6566  150.9106 H   0  0  0  0  0  0  0  0  0  0  0  0  # atno 10167 bound_to 10162
  156.9321  130.9974  151.2985 H   0  0  0  0  0  0  0  0  0  0  0  0  # atno 10718 bound_to 10713
  153.1099  135.4773  154.9016 H   0  0  0  0  0  0  0  0  0  0  0  0  # atno 10763 bound_to 10752
  154.7469  135.3096  154.8630 H   0  0  0  0  0  0  0  0  0  0  0  0  # atno 10764 bound_to 10752
  153.9222  135.6853  153.4801 H   0  0  0  0  0  0  0  0  0  0  0  0  # atno 10765 bound_to 10752
  140.4324  134.6507  157.4718 H   0  0  0  0  0  0  0  0  0  0  0  0  # atno 11005 bound_to 11000
  146.1986  140.6222  142.9113 LP  0  0  0  0  0  0  0  0  0  0  0  0  # atno 17320 bound_to 7965
  144.7581  140.5355  143.6755 LP  0  0  0  0  0  0  0  0  0  0  0  0  # atno 17321 bound_to 7965
  140.7780  143.3780  151.1528 LP  0  0  0  0  0  0  0  0  0  0  0  0  # atno 17342 bound_to 10162
  139.7413  143.8919  152.3051 LP  0  0  0  0  0  0  0  0  0  0  0  0  # atno 17343 bound_to 10162
  157.5840  130.8396  149.8563 LP  0  0  0  0  0  0  0  0  0  0  0  0  # atno 17370 bound_to 10713
  156.0442  130.3731  150.1358 LP  0  0  0  0  0  0  0  0  0  0  0  0  # atno 17371 bound_to 10713
  140.0125  134.6668  155.9359 LP  0  0  0  0  0  0  0  0  0  0  0  0  # atno 17394 bound_to 11000
  141.1740  133.6539  156.4758 LP  0  0  0  0  0  0  0  0  0  0  0  0  # atno 17395 bound_to 11000

$$$$
