AV-unprocessed.smi:2525|AV-procd|sdf|9928|dock5
  -GOLD-   2272013573D 1   1.00000     0.00000
 Structure written by MMmdl.
 44 45  0  0  0  0  0  0  0  0  1 V2000
  147.0065  141.3568  153.7877 C   0  0  0  0  0  0  0  0  0  0  0  0
  148.4837  141.1127  154.1484 C   0  0  0  0  0  0  0  0  0  0  0  0
  148.7825  139.9438  155.1325 C   0  0  0  0  0  0  0  0  0  0  0  0
  147.8766  140.0622  156.3735 C   0  0  0  0  0  0  0  0  0  0  0  0
  147.9877  141.3994  157.1225 C   0  0  0  0  0  0  0  0  0  0  0  0
  148.8940  138.5104  154.5391 C   0  0  1  0  0  0  0  0  0  0  0  0
  148.1662  138.2840  153.2955 N   0  0  0  0  0  0  0  0  0  0  0  0
  146.8327  138.3487  153.1732 C   0  0  0  0  0  0  0  0  0  0  0  0
  146.0828  138.6168  154.1132 O   0  0  0  0  0  0  0  0  0  0  0  0
  146.2789  138.0866  151.7678 C   0  0  0  0  0  0  0  0  0  0  0  0
  145.5354  136.8408  151.6834 N   0  0  0  0  0  0  0  0  0  0  0  0
  145.6600  135.8252  150.7574 C   0  0  0  0  0  0  0  0  0  0  0  0
  144.7298  134.9110  151.1620 C   0  0  0  0  0  0  0  0  0  0  0  0
  144.0861  135.4006  152.2972 N   0  0  0  0  0  0  0  0  0  0  0  0
  144.5786  136.5603  152.6011 N   0  0  0  0  0  0  0  0  0  0  0  0
  150.3926  138.7310  154.3062 C   0  0  2  0  0  0  0  0  0  0  0  0
  151.3332  137.5383  154.4185 C   0  0  0  0  0  0  0  0  0  0  0  0
  150.2864  139.7384  155.4612 C   0  0  1  0  0  0  0  0  0  0  0  0
  151.0543  140.9220  155.3008 O   0  0  0  0  0  0  0  0  0  0  0  0
  150.9763  141.7953  156.4130 C   0  0  0  0  0  0  0  0  0  0  0  0
  146.9287  142.1264  153.0195 H   0  0  0  0  0  0  0  0  0  0  0  0
  146.4320  141.7072  154.6445 H   0  0  0  0  0  0  0  0  0  0  0  0
  146.5182  140.4656  153.4002 H   0  0  0  0  0  0  0  0  0  0  0  0
  149.0272  140.9620  153.2158 H   0  0  0  0  0  0  0  0  0  0  0  0
  148.8842  142.0451  154.5465 H   0  0  0  0  0  0  0  0  0  0  0  0
  146.8355  139.8685  156.1171 H   0  0  0  0  0  0  0  0  0  0  0  0
  148.1310  139.2727  157.0814 H   0  0  0  0  0  0  0  0  0  0  0  0
  147.3894  141.3784  158.0335 H   0  0  0  0  0  0  0  0  0  0  0  0
  147.6304  142.2337  156.5194 H   0  0  0  0  0  0  0  0  0  0  0  0
  149.0181  141.6092  157.4100 H   0  0  0  0  0  0  0  0  0  0  0  0
  148.7297  137.7356  155.2926 H   0  0  0  0  0  0  0  0  0  0  0  0
  148.7133  138.0663  152.4751 H   0  0  0  0  0  0  0  0  0  0  0  0
  145.6311  138.9146  151.4756 H   0  0  0  0  0  0  0  0  0  0  0  0
  147.0974  138.0482  151.0475 H   0  0  0  0  0  0  0  0  0  0  0  0
  146.3646  135.8406  149.9392 H   0  0  0  0  0  0  0  0  0  0  0  0
  144.4728  133.9521  150.7365 H   0  0  0  0  0  0  0  0  0  0  0  0
  150.5568  139.2633  153.3675 H   0  0  0  0  0  0  0  0  0  0  0  0
  151.2452  137.0511  155.3899 H   0  0  0  0  0  0  0  0  0  0  0  0
  152.3735  137.8358  154.2912 H   0  0  0  0  0  0  0  0  0  0  0  0
  151.1106  136.7923  153.6553 H   0  0  0  0  0  0  0  0  0  0  0  0
  150.4303  139.2722  156.4393 H   0  0  0  0  0  0  0  0  0  0  0  0
  151.5509  142.6980  156.2066 H   0  0  0  0  0  0  0  0  0  0  0  0
  151.3902  141.3352  157.3097 H   0  0  0  0  0  0  0  0  0  0  0  0
  149.9455  142.0915  156.6125 H   0  0  0  0  0  0  0  0  0  0  0  0
  1  2  1  0  0  0  0
  1 21  1  0  0  0  0
  1 22  1  0  0  0  0
  1 23  1  0  0  0  0
  2  3  1  0  0  0  0
  2 24  1  0  0  0  0
  2 25  1  0  0  0  0
  3 18  1  0  0  0  0
  3  4  1  0  0  0  0
  3  6  1  0  0  0  0
  4  5  1  0  0  0  0
  4 26  1  0  0  0  0
  4 27  1  0  0  0  0
  5 28  1  0  0  0  0
  5 29  1  0  0  0  0
  5 30  1  0  0  0  0
  6  7  1  0  0  0  0
  6 16  1  0  0  0  0
  6 31  1  0  0  0  0
  7  8  1  0  0  0  0
  7 32  1  0  0  0  0
  8  9  2  0  0  0  0
  8 10  1  0  0  0  0
 10 11  1  0  0  0  0
 10 33  1  0  0  0  0
 10 34  1  0  0  0  0
 11 15  1  0  0  0  0
 11 12  1  0  0  0  0
 12 13  2  0  0  0  0
 12 35  1  0  0  0  0
 13 14  1  0  0  0  0
 13 36  1  0  0  0  0
 14 15  2  0  0  0  0
 16 17  1  0  0  0  0
 16 18  1  0  0  0  0
 16 37  1  0  0  0  0
 17 38  1  0  0  0  0
 17 39  1  0  0  0  0
 17 40  1  0  0  0  0
 18 19  1  0  0  0  0
 18 41  1  0  0  0  0
 19 20  1  0  0  0  0
 20 42  1  0  0  0  0
 20 43  1  0  0  0  0
 20 44  1  0  0  0  0
M  END
> <s_m_source_file>
AV-unprocessed.smi

> <i_m_source_file_index>
2525

> <i_lp_mmshare_version>
43012

> <i_f3d_flags>
0

> <s_epik_input>
W0NIM11PW0NAQEhdMVtDQEhdKFtDSDNdKVtDQEBIXShDMShbQ0gyXVtDSDNdKVtDSDJdW0NIM10pW05IXUMoPU8pW0NIMl1uMltjSF1bY0hdbm4y

> <s_epik_cmdline>
J2VwaWtfcHl0aG9uJywgJy1waCcsICc3LjAnLCAnLXRuJywgJzgnLCAnLW1hJywgJzIwMCcsICctbWV0YWxfYmluZGluZycsICctaW1hZScsICc8aW5maWxlLm1hZT4nLCAnLW9tYWUnLCAnPG91dGZpbGUubWFlPic=

> <r_lp_tautomer_probability>
1

> <r_epik_Ionization_Penalty>
1.18045e-06

> <r_epik_Ionization_Penalty_Charging>
0

> <r_epik_Ionization_Penalty_Neutral>
1.18045e-06

> <r_epik_State_Penalty>
-0

> <r_epik_Charging_Adjusted_Penalty>
0

> <i_epik_Tot_Q>
0

> <i_epik_Tot_abs_Q>
0

> <r_epik_Metal_State_Penalty>
-0

> <b_epik_Metal_Only>
0

> <s_lp_Force_Field>
OPLS_2005

> <r_lp_Energy>
27.7257

> <b_lp_Chiralities_Consistent>
1

> <s_lp_Variant>
AV-unprocessed.smi:2525-3

> <Gold.Version>
5.8.1

> <Gold.Id.Protein>
6NUR|6NUR_protein|mol2

> <Gold.PLP.Fitness>
39.9140

> <Gold.PLP.PLP>
-33.8373

> <Gold.PLP.part.hbond>
-2.7365

> <Gold.PLP.part.metal>
0.0000

> <Gold.PLP.part.buried>
-2.3240

> <Gold.PLP.part.nonpolar>
-30.9013

> <Gold.PLP.part.repulsive>
0.4949

> <Gold.PLP.ligand.clash>
0.0000

> <Gold.PLP.ligand.torsion>
0.6320

> <Gold.PLP.Chemscore.Hbond>
1.2480

> <Gold.PLP.Chemscore.CHOScore>
0.9981

> <Gold.PLP.Chemscore.Metal>
0.0000

> <Gold.Chemscore.Hbonds>
donor molecule, donor type, donor heavy atom, donor atom, acceptor molecule, acceptor atom, score
      L1  H     7    32       P1  7948  0.46
      P1  H  7989  7998       L1    19  0.72
      L1  C    12    35       P1  7921  0.99

> <Gold.PLP.Chemscore.Internal.Correction>
0.6025

> <Gold.Rescore>
     Score         DG    S(hbond)    S(metal)    S(lipo)     H(rot)  DE(clash)    DE(int)     intcor
     12.23     -13.96       1.52        0.00      72.39       1.98       0.15       1.57       ----

> <Gold.Chemscore.Fitness>
12.2346

> <Gold.Chemscore.DG>
-13.9605

> <Gold.Chemscore.ZeroCoef>
-5.4800

> <Gold.Chemscore.Hbond>
1.5222

> <Gold.Chemscore.Metal>
0.0000

> <Gold.Chemscore.Lipo>
72.3876

> <Gold.Chemscore.Internal_Hbond>
0.0000

> <Gold.Chemscore.DEClash>
0.1541

> <Gold.Chemscore.DEInternal>
1.5719

> <Gold.Chemscore.Rot>
1.9817

> <Gold.Chemscore.Internal.Correction>
   9.000000E+99

> <Gold.Chemscore.Hbonds>
donor molecule, donor type, donor heavy atom, donor atom, acceptor molecule, acceptor atom, score
      L1  H     7    32       P1  7948  0.46
      P1  H  7989  7998       L1    19  0.40

> <Gold.Chemscore.Hbond.Weighted>
-5.0843

> <Gold.Chemscore.Metal.Weighted>
-0.0000

> <Gold.Chemscore.Lipo.Weighted>
-8.4693

> <Gold.Chemscore.Internal_Hbond.Weighted>
0.0000

> <Gold.Chemscore.DEClash.Weighted>
0.1541

> <Gold.Chemscore.DEInternal.Weighted>
1.5719

> <Gold.Chemscore.Rot.Weighted>
5.0731

> <Gold.Chemscore.Internal.Correction.Weighted>
   9.000000E+99

> <Gold.Protein.RotatedTorsions>
[ 6907 6896 6895 6894 ] final -118.70 input  -60.11 | X-H torsion
[ 7974 7965 7964 7962 ] final   34.15 input  175.53 | X-H torsion
[ 8008 7997 7996 7995 ] final -137.71 input   59.86 | X-H torsion
[ 10167 10162 10161 10158 ] final -169.53 input  -65.29 | X-H torsion
[ 10718 10713 10712 10709 ] final  -47.29 input   66.30 | X-H torsion
[ 10763 10752 10751 10750 ] final  -96.61 input  -60.55 | X-H torsion
[ 11005 11000 10999 10996 ] final -110.52 input  -57.11 | X-H torsion

> <Gold.Protein.ActiveResidues>
 VAL166  LYS551  ARG553  GLY616  TRP617  ASP618  TYR619  PRO620  LYS621  CYS622 
 ASP623  PHE694  ASN695  SER759  ASP760  ASP761  ALA762  ILE779  LEU786  VAL792 
 PHE793  MET794  SER795  GLU796  ALA797  LYS798  CYS799  TRP800  GLU811  SER814 

> <Gold.Protein.RotatedAtoms>
  150.8242  133.8201  159.3125 H   0  0  0  0  0  0  0  0  0  0  0  0  # atno 6907 bound_to 6896
  151.5950  135.1049  160.0057 H   0  0  0  0  0  0  0  0  0  0  0  0  # atno 6908 bound_to 6896
  152.4328  133.7267  159.6620 H   0  0  0  0  0  0  0  0  0  0  0  0  # atno 6909 bound_to 6896
  146.1372  139.6306  142.9187 H   0  0  0  0  0  0  0  0  0  0  0  0  # atno 7974 bound_to 7965
  155.4164  140.0515  157.3028 H   0  0  0  0  0  0  0  0  0  0  0  0  # atno 8008 bound_to 7997
  154.4923  140.2125  155.9482 H   0  0  0  0  0  0  0  0  0  0  0  0  # atno 8009 bound_to 7997
  156.1358  140.3163  155.8424 H   0  0  0  0  0  0  0  0  0  0  0  0  # atno 8010 bound_to 7997
  139.5917  144.1199  152.1642 H   0  0  0  0  0  0  0  0  0  0  0  0  # atno 10167 bound_to 10162
  156.2099  130.4160  149.9129 H   0  0  0  0  0  0  0  0  0  0  0  0  # atno 10718 bound_to 10713
  154.7255  135.5077  153.8880 H   0  0  0  0  0  0  0  0  0  0  0  0  # atno 10763 bound_to 10752
  153.0901  135.6657  153.9880 H   0  0  0  0  0  0  0  0  0  0  0  0  # atno 10764 bound_to 10752
  153.9693  135.3040  155.3408 H   0  0  0  0  0  0  0  0  0  0  0  0  # atno 10765 bound_to 10752
  141.0787  133.9257  157.2335 H   0  0  0  0  0  0  0  0  0  0  0  0  # atno 11005 bound_to 11000
  145.5128  141.0435  143.2478 LP  0  0  0  0  0  0  0  0  0  0  0  0  # atno 17320 bound_to 7965
  144.7753  139.6644  143.7177 LP  0  0  0  0  0  0  0  0  0  0  0  0  # atno 17321 bound_to 7965
  140.0775  144.5728  150.7146 LP  0  0  0  0  0  0  0  0  0  0  0  0  # atno 17342 bound_to 10162
  140.7178  143.2561  151.4377 LP  0  0  0  0  0  0  0  0  0  0  0  0  # atno 17343 bound_to 10162
  156.6810  130.8858  151.3576 LP  0  0  0  0  0  0  0  0  0  0  0  0  # atno 17370 bound_to 10713
  157.7033  130.9356  150.0851 LP  0  0  0  0  0  0  0  0  0  0  0  0  # atno 17371 bound_to 10713
  139.9600  135.0156  156.9234 LP  0  0  0  0  0  0  0  0  0  0  0  0  # atno 17394 bound_to 11000
  140.5516  134.0621  155.7371 LP  0  0  0  0  0  0  0  0  0  0  0  0  # atno 17395 bound_to 11000

$$$$
