#       Name:                AV-unprocessed.smi:276
#       Creating user name   scv26
#       Creation time:       Thu Mar 26 21:35:47 2020


#       File generated by GOLD software.
#

@<TRIPOS>MOLECULE
AV-unprocessed.smi:276
    67    71     1
SMALL
NO_CHARGES


@<TRIPOS>ATOM
      1 ****        -6.5299  -1.1054  -3.4775 C.3            1 S1                 0.0000
      2 ****        -5.1550  -0.7669  -3.5266 O.3            1 S1                 0.0000
      3 ****        -4.5146  -0.9024  -2.2679 C.3            1 S1                 0.0000
      4 ****        -4.7853   0.2477  -1.2908 C.3            1 S1                 0.0000
      5 ****        -3.3213   0.1083  -0.8522 C.3            1 S1                 0.0000
      6 ****        -2.6932   1.3898  -0.5214 N.3            1 S1                 0.0000
      7 ****        -3.2515   2.1019   0.6212 C.3            1 S1                 0.0000
      8 ****        -1.3424   1.3901  -0.4527 C.ar           1 S1                 0.0000
      9 ****        -0.6977   2.4217  -1.0535 N.ar           1 S1                 0.0000
     10 ****         0.6371   2.4804  -1.0346 C.ar           1 S1                 0.0000
     11 ****         1.5026   1.6331  -0.4739 N.ar           1 S1                 0.0000
     12 ****         0.8563   0.6074   0.1511 C.ar           1 S1                 0.0000
     13 ****        -0.5522   0.4115   0.2172 C.ar           1 S1                 0.0000
     14 ****        -0.8335  -0.7328   0.9554 N.2            1 S1                 0.0000
     15 ****         0.3399  -1.1940   1.2923 C.2            1 S1                 0.0000
     16 ****         1.4092  -0.4504   0.8490 N.pl3          1 S1                 0.0000
     17 ****         2.8162  -0.7263   1.0765 C.3            1 S1                 0.0000
     18 ****         3.4037   0.1215   2.2207 C.3            1 S1                 0.0000
     19 ****         2.7079  -0.1229   3.4290 O.3            1 S1                 0.0000
     20 ****         4.9197  -0.0977   2.4023 C.3            1 S1                 0.0000
     21 ****         5.5890   0.6318   3.5712 C.3            1 S1                 0.0000
     22 ****         6.7897  -0.2471   3.8986 C.3            1 S1                 0.0000
     23 ****         6.5998  -1.4992   3.0362 C.3            1 S1                 0.0000
     24 ****         5.2420  -1.4614   2.6230 O.3            1 S1                 0.0000
     25 ****        -3.0380  -0.4614  -2.2683 C.3            1 S1                 0.0000
     26 ****        -1.9209  -1.4815  -2.5239 C.3            1 S1                 0.0000
     27 ****        -1.1749  -0.4247  -3.3453 C.3            1 S1                 0.0000
     28 ****        -2.4699   0.3909  -3.4217 C.3            1 S1                 0.0000
     29 ****        -6.9692  -0.9959  -4.4690 H              1 S1                 0.0000
     30 ****        -7.0756  -0.4532  -2.7945 H              1 S1                 0.0000
     31 ****        -6.6693  -2.1397  -3.1600 H              1 S1                 0.0000
     32 ****        -4.6458  -1.8876  -1.8142 H              1 S1                 0.0000
     33 ****        -5.0026   1.1909  -1.7963 H              1 S1                 0.0000
     34 ****        -5.5189   0.0243  -0.5159 H              1 S1                 0.0000
     35 ****        -3.2258  -0.6517  -0.0754 H              1 S1                 0.0000
     36 ****        -3.0882   1.5415   1.5427 H              1 S1                 0.0000
     37 ****        -4.3245   2.2492   0.4989 H              1 S1                 0.0000
     38 ****        -2.7956   3.0869   0.7325 H              1 S1                 0.0000
     39 ****         1.0742   3.3270  -1.5432 H              1 S1                 0.0000
     40 ****         0.4587  -2.0917   1.8816 H              1 S1                 0.0000
     41 ****         2.9319  -1.7902   1.2882 H              1 S1                 0.0000
     42 ****         3.3554  -0.5325   0.1485 H              1 S1                 0.0000
     43 ****         3.2488   1.1749   1.9833 H              1 S1                 0.0000
     44 ****         3.0704   0.4333   4.1013 H              1 S1                 0.0000
     45 ****         5.4206   0.2018   1.4794 H              1 S1                 0.0000
     46 ****         5.8723   1.6516   3.3095 H              1 S1                 0.0000
     47 ****         4.9356   0.6822   4.4423 H              1 S1                 0.0000
     48 ****         7.7339   0.2475   3.6685 H              1 S1                 0.0000
     49 ****         6.7958  -0.5003   4.9594 H              1 S1                 0.0000
     50 ****         7.2417  -1.4576   2.1549 H              1 S1                 0.0000
     51 ****         6.8246  -2.4191   3.5762 H              1 S1                 0.0000
     52 ****        -1.3920  -1.8152  -1.6314 H              1 S1                 0.0000
     53 ****        -2.2543  -2.3241  -3.1312 H              1 S1                 0.0000
     54 ****        -0.3871   0.0739  -2.7809 H              1 S1                 0.0000
     55 ****        -0.8102  -0.7796  -4.3093 H              1 S1                 0.0000
     56 ****        -2.9882   0.2376  -4.3687 H              1 S1                 0.0000
     57 ****        -2.3509   1.4531  -3.2100 H              1 S1                 0.0000
     58 ****        -5.0694   0.1825  -3.8290 LP             1 S1                 0.0000
     59 ****        -4.7003  -1.3682  -4.1837 LP             1 S1                 0.0000
     60 ****        -2.9441   1.9080  -1.3390 LP             1 S1                 0.0000
     61 ****        -1.2224   3.1394  -1.5113 LP             1 S1                 0.0000
     62 ****         2.4967   1.7369  -0.5077 LP             1 S1                 0.0000
     63 ****        -1.7304  -1.1151   1.1775 LP             1 S1                 0.0000
     64 ****         2.8139  -1.0821   3.6912 LP             1 S1                 0.0000
     65 ****         1.7372   0.0840   3.3071 LP             1 S1                 0.0000
     66 ****         5.1242  -1.9842   1.7787 LP             1 S1                 0.0000
     67 ****         4.6542  -1.8432   3.3362 LP             1 S1                 0.0000
@<TRIPOS>BOND
    1    1    2 1     
    2    1   29 1     
    3    1   30 1     
    4    1   31 1     
    5    2    3 1     
    6    3   25 1     
    7    3    4 1     
    8    3   32 1     
    9    4    5 1     
   10    4   33 1     
   11    4   34 1     
   12    5    6 1     
   13    5   25 1     
   14    5   35 1     
   15    6    7 1     
   16    6    8 1     
   17    7   36 1     
   18    7   37 1     
   19    7   38 1     
   20    8   13 ar    
   21    8    9 ar    
   22    9   10 ar    
   23   10   11 ar    
   24   10   39 1     
   25   11   12 ar    
   26   12   16 1     
   27   12   13 ar    
   28   13   14 1     
   29   14   15 2     
   30   15   16 1     
   31   15   40 1     
   32   16   17 1     
   33   17   18 1     
   34   17   41 1     
   35   17   42 1     
   36   18   19 1     
   37   18   20 1     
   38   18   43 1     
   39   19   44 1     
   40   20   24 1     
   41   20   21 1     
   42   20   45 1     
   43   21   22 1     
   44   21   46 1     
   45   21   47 1     
   46   22   23 1     
   47   22   48 1     
   48   22   49 1     
   49   23   24 1     
   50   23   50 1     
   51   23   51 1     
   52   25   28 1     
   53   25   26 1     
   54   26   27 1     
   55   26   52 1     
   56   26   53 1     
   57   27   28 1     
   58   27   54 1     
   59   27   55 1     
   60   28   56 1     
   61   28   57 1     
   62    2   58 1     
   63    2   59 1     
   64    6   60 1     
   65    9   61 1     
   66   11   62 1     
   67   14   63 1     
   68   19   64 1     
   69   19   65 1     
   70   24   66 1     
   71   24   67 1     
@<TRIPOS>SUBSTRUCTURE
      1 S1             1
@<TRIPOS>SET
LONE_PAIRS      STATIC     ATOMS    <user>   **** ""
10 58 59 60 61 62 63 64 65 66 67
DONOR_HYDROGENS      STATIC     ATOMS    <user>   **** ""
1 44
ATOM$BLUE        STATIC     ATOMS    COLORGROUP SYSTEM
10 58 59 60 61 62 63 64 65 66 67
ATOM$RED        STATIC     ATOMS    COLORGROUP SYSTEM
1 44
