#       Name:                AV-unprocessed.smi:1546
#       Creating user name   scv26
#       Creation time:       Fri Mar 27 06:39:22 2020


#       File generated by GOLD software.
#

@<TRIPOS>MOLECULE
AV-unprocessed.smi:1546
    34    35     1
SMALL
NO_CHARGES


@<TRIPOS>ATOM
      1 ****         0.3417   1.4773  -0.2576 O.2            1 S1                 0.0000
      2 ****        -0.4481   0.5339  -0.2067 C.2            1 S1                 0.0000
      3 ****         0.0714  -0.9048  -0.1979 C.3            1 S1                 0.0000
      4 ****         1.4911  -0.9037  -0.1845 O.3            1 S1                 0.0000
      5 ****         2.0352  -2.2112  -0.1530 C.3            1 S1                 0.0000
      6 ****         3.5459  -2.1181  -0.1446 C.3            1 S1                 0.0000
      7 ****         4.3795  -3.2488   0.4146 C.3            1 S1                 0.0000
      8 ****         4.2996  -1.9368   1.1534 C.3            1 S1                 0.0000
      9 ****        -1.7873   0.6549  -0.1749 N.am           1 S1                 0.0000
     10 ****        -2.5813   1.8362  -0.1743 C.ar           1 S1                 0.0000
     11 ****        -2.1069   3.1011   0.2561 C.ar           1 S1                 0.0000
     12 ****        -2.8668   4.2174   0.2751 N.ar           1 S1                 0.0000
     13 ****        -4.1486   4.1158  -0.1333 C.ar           1 S1                 0.0000
     14 ****        -4.7295   2.9084  -0.5654 C.ar           1 S1                 0.0000
     15 ****        -3.9336   1.7465  -0.5817 C.ar           1 S1                 0.0000
     16 ****        -4.4804   0.5615  -0.9911 O.co2          1 S1                -1.0000
     17 ****        -0.3149  -1.4203   0.6829 H              1 S1                 0.0000
     18 ****        -0.2983  -1.4253  -1.0828 H              1 S1                 0.0000
     19 ****         1.6931  -2.7458   0.7347 H              1 S1                 0.0000
     20 ****         1.7192  -2.7771  -1.0304 H              1 S1                 0.0000
     21 ****         3.9589  -1.6062  -1.0119 H              1 S1                 0.0000
     22 ****         3.8574  -4.1000   0.8475 H              1 S1                 0.0000
     23 ****         5.3116  -3.4843  -0.0951 H              1 S1                 0.0000
     24 ****         5.1776  -1.2942   1.1365 H              1 S1                 0.0000
     25 ****         3.7230  -1.9137   2.0761 H              1 S1                 0.0000
     26 ****        -2.3128  -0.2062  -0.2264 H              1 S1                 0.0000
     27 ****        -1.1010   3.2402   0.6195 H              1 S1                 0.0000
     28 ****        -4.7318   5.0244  -0.1090 H              1 S1                 0.0000
     29 ****        -5.7637   2.8775  -0.8754 H              1 S1                 0.0000
     30 ****         1.3259   1.3041  -0.2933 LP             1 S1                 0.0000
     31 ****        -0.0012   2.4167  -0.2632 LP             1 S1                 0.0000
     32 ****         1.8036  -0.4068   0.6251 LP             1 S1                 0.0000
     33 ****         1.8190  -0.4397  -1.0075 LP             1 S1                 0.0000
     34 ****        -2.4912   5.0918   0.5822 LP             1 S1                 0.0000
@<TRIPOS>BOND
    1    1    2 2     
    2    2    3 1     
    3    2    9 am    
    4    3    4 1     
    5    3   17 1     
    6    3   18 1     
    7    4    5 1     
    8    5    6 1     
    9    5   19 1     
   10    5   20 1     
   11    6    8 1     
   12    6    7 1     
   13    6   21 1     
   14    7    8 1     
   15    7   22 1     
   16    7   23 1     
   17    8   24 1     
   18    8   25 1     
   19    9   26 1     
   20    9   10 1     
   21   10   15 ar    
   22   10   11 ar    
   23   11   27 1     
   24   11   12 ar    
   25   12   13 ar    
   26   13   28 1     
   27   13   14 ar    
   28   14   15 ar    
   29   14   29 1     
   30   15   16 ar    
   31    1   30 1     
   32    1   31 1     
   33    4   32 1     
   34    4   33 1     
   35   12   34 1     
@<TRIPOS>SUBSTRUCTURE
      1 S1             1
@<TRIPOS>SET
LONE_PAIRS      STATIC     ATOMS    <user>   **** ""
6 30 31 32 33 34 16
DONOR_HYDROGENS      STATIC     ATOMS    <user>   **** ""
1 26
ATOM$BLUE        STATIC     ATOMS    COLORGROUP SYSTEM
6 30 31 32 33 34 16
ATOM$RED        STATIC     ATOMS    COLORGROUP SYSTEM
1 26
