AV-unprocessed.smi:1795|AV-procd|sdf|7249|dock6
  -GOLD-   22720 8503D 1   1.00000     0.00000
 Structure written by MMmdl.
 48 49  0  0  0  0  0  0  0  0  2 V2000
  150.2443  132.6548  155.1734 C   0  0  0  0  0  0  0  0  0  0  0  0
  149.5579  133.9041  154.6097 C   0  0  2  0  0  0  0  0  0  0  0  0
  150.2220  135.2033  155.1002 C   0  0  0  0  0  0  0  0  0  0  0  0
  149.5024  136.4004  154.5869 N   0  3  2  0  0  0  0  0  0  0  0  0
  150.1932  137.6829  154.9449 C   0  0  1  0  0  0  0  0  0  0  0  0
  151.6912  137.5898  154.5739 C   0  0  0  0  0  0  0  0  0  0  0  0
  149.5424  138.9442  154.3105 C   0  0  0  0  0  0  0  0  0  0  0  0
  150.1789  140.1864  154.7412 N   0  0  0  0  0  0  0  0  0  0  0  0
  150.4172  140.5392  156.0140 C   0  0  0  0  0  0  0  0  0  0  0  0
  150.1445  139.8214  156.9768 O   0  0  0  0  0  0  0  0  0  0  0  0
  151.0660  141.9140  156.2239 C   0  0  0  0  0  0  0  0  0  0  0  0
  151.4472  142.1573  157.6252 N   0  0  0  0  0  0  0  0  0  0  0  0
  151.0224  143.3684  158.2074 C   0  0  0  0  0  0  0  0  0  0  0  0
  151.3171  143.6871  159.4777 C   0  0  0  0  0  0  0  0  0  0  0  0
  152.0922  142.7490  160.2547 C   0  0  0  0  0  0  0  0  0  0  0  0
  152.5067  141.5892  159.7069 C   0  0  0  0  0  0  0  0  0  0  0  0
  152.1890  141.2379  158.3179 C   0  0  0  0  0  0  0  0  0  0  0  0
  152.5668  140.1823  157.8075 O   0  0  0  0  0  0  0  0  0  0  0  0
  148.0636  136.3065  154.9579 C   0  0  0  0  0  0  0  0  0  0  0  0
  147.4558  134.9706  154.4871 C   0  0  2  0  0  0  0  0  0  0  0  0
  145.9966  134.8126  154.9292 C   0  0  0  0  0  0  0  0  0  0  0  0
  148.2022  133.8932  155.0366 O   0  0  0  0  0  0  0  0  0  0  0  0
  151.2921  132.6134  154.8747 H   0  0  0  0  0  0  0  0  0  0  0  0
  149.7606  131.7472  154.8111 H   0  0  0  0  0  0  0  0  0  0  0  0
  150.2059  132.6395  156.2631 H   0  0  0  0  0  0  0  0  0  0  0  0
  149.5961  133.8585  153.5197 H   0  0  0  0  0  0  0  0  0  0  0  0
  150.2307  135.2270  156.1913 H   0  0  0  0  0  0  0  0  0  0  0  0
  151.2620  135.2050  154.7790 H   0  0  0  0  0  0  0  0  0  0  0  0
  150.1189  137.8045  156.0270 H   0  0  0  0  0  0  0  0  0  0  0  0
  152.2478  138.4603  154.9192 H   0  0  0  0  0  0  0  0  0  0  0  0
  151.8235  137.5217  153.4937 H   0  0  0  0  0  0  0  0  0  0  0  0
  152.1846  136.7282  155.0195 H   0  0  0  0  0  0  0  0  0  0  0  0
  149.5407  138.8656  153.2219 H   0  0  0  0  0  0  0  0  0  0  0  0
  148.5006  139.0323  154.6176 H   0  0  0  0  0  0  0  0  0  0  0  0
  150.4434  140.8372  154.0156 H   0  0  0  0  0  0  0  0  0  0  0  0
  151.9341  141.9824  155.5668 H   0  0  0  0  0  0  0  0  0  0  0  0
  150.3877  142.6999  155.8854 H   0  0  0  0  0  0  0  0  0  0  0  0
  150.4527  144.0180  157.5587 H   0  0  0  0  0  0  0  0  0  0  0  0
  150.9859  144.6215  159.9063 H   0  0  0  0  0  0  0  0  0  0  0  0
  152.3421  142.9793  161.2801 H   0  0  0  0  0  0  0  0  0  0  0  0
  153.0862  140.9002  160.3036 H   0  0  0  0  0  0  0  0  0  0  0  0
  147.9583  136.4117  156.0391 H   0  0  0  0  0  0  0  0  0  0  0  0
  147.4905  137.1071  154.4913 H   0  0  0  0  0  0  0  0  0  0  0  0
  147.4939  134.9141  153.3977 H   0  0  0  0  0  0  0  0  0  0  0  0
  145.3728  135.6067  154.5179 H   0  0  0  0  0  0  0  0  0  0  0  0
  145.9068  134.8449  156.0155 H   0  0  0  0  0  0  0  0  0  0  0  0
  145.5877  133.8605  154.5898 H   0  0  0  0  0  0  0  0  0  0  0  0
  149.5253  136.3465  153.5784 H   0  0  0  0  0  0  0  0  0  0  0  0
  1  2  1  0  0  0  0
  1 23  1  0  0  0  0
  1 24  1  0  0  0  0
  1 25  1  0  0  0  0
  2 22  1  0  0  0  0
  2  3  1  0  0  0  0
  2 26  1  0  0  0  0
  3  4  1  0  0  0  0
  3 27  1  0  0  0  0
  3 28  1  0  0  0  0
  4  5  1  0  0  0  0
  4 19  1  0  0  0  0
  4 48  1  0  0  0  0
  5  6  1  0  0  0  0
  5  7  1  0  0  0  0
  5 29  1  0  0  0  0
  6 30  1  0  0  0  0
  6 31  1  0  0  0  0
  6 32  1  0  0  0  0
  7  8  1  0  0  0  0
  7 33  1  0  0  0  0
  7 34  1  0  0  0  0
  8  9  1  0  0  0  0
  8 35  1  0  0  0  0
  9 10  2  0  0  0  0
  9 11  1  0  0  0  0
 11 12  1  0  0  0  0
 11 36  1  0  0  0  0
 11 37  1  0  0  0  0
 12 17  1  0  0  0  0
 12 13  1  0  0  0  0
 13 14  2  0  0  0  0
 13 38  1  0  0  0  0
 14 15  1  0  0  0  0
 14 39  1  0  0  0  0
 15 16  2  0  0  0  0
 15 40  1  0  0  0  0
 16 17  1  0  0  0  0
 16 41  1  0  0  0  0
 17 18  2  0  0  0  0
 19 20  1  0  0  0  0
 19 42  1  0  0  0  0
 19 43  1  0  0  0  0
 20 21  1  0  0  0  0
 20 22  1  0  0  0  0
 20 44  1  0  0  0  0
 21 45  1  0  0  0  0
 21 46  1  0  0  0  0
 21 47  1  0  0  0  0
M  CHG  1   4   1
M  END
> <s_m_source_file>
AV-unprocessed.smi

> <i_m_source_file_index>
1795

> <i_lp_mmshare_version>
43012

> <i_f3d_flags>
0

> <s_epik_input>
W0NIM11bQ0BASF0xW0NIMl1OKFtDSDJdW0NASF0oTzEpW0NIM10pW0NASF0oW0NIM10pW0NIMl1bTkhdQyg9TylbQ0gyXW4yW2NIXVtjSF1bY0hdW2NIXWMyPU8=

> <s_epik_cmdline>
J2VwaWtfcHl0aG9uJywgJy1waCcsICc3LjAnLCAnLXRuJywgJzgnLCAnLW1hJywgJzIwMCcsICctbWV0YWxfYmluZGluZycsICctaW1hZScsICc8aW5maWxlLm1hZT4nLCAnLW9tYWUnLCAnPG91dGZpbGUubWFlPic=

> <r_lp_tautomer_probability>
1

> <r_epik_Ionization_Penalty>
0.656654

> <r_epik_Ionization_Penalty_Charging>
0.656654

> <r_epik_Ionization_Penalty_Neutral>
8.90321e-08

> <r_epik_State_Penalty>
0.675641

> <r_epik_Charging_Adjusted_Penalty>
1.33229

> <i_epik_Tot_Q>
1

> <i_epik_Tot_abs_Q>
1

> <r_epik_Metal_State_Penalty>
0.675691

> <b_epik_Metal_Only>
0

> <s_lp_Force_Field>
OPLS_2005

> <r_lp_Energy>
27.2799

> <b_lp_Chiralities_Consistent>
1

> <s_lp_Variant>
AV-unprocessed.smi:1795-13

> <Gold.Version>
5.8.1

> <Gold.Id.Protein>
6NUR|6NUR_protein|mol2

> <Gold.PLP.Fitness>
48.1304

> <Gold.PLP.PLP>
-36.5090

> <Gold.PLP.part.hbond>
-2.0000

> <Gold.PLP.part.metal>
0.0000

> <Gold.PLP.part.buried>
-5.8162

> <Gold.PLP.part.nonpolar>
-28.9907

> <Gold.PLP.part.repulsive>
0.9398

> <Gold.PLP.ligand.clash>
0.0000

> <Gold.PLP.ligand.torsion>
0.2134

> <Gold.PLP.Chemscore.Hbond>
2.9920

> <Gold.PLP.Chemscore.CHOScore>
0.9988

> <Gold.PLP.Chemscore.Metal>
0.0000

> <Gold.Chemscore.Hbonds>
donor molecule, donor type, donor heavy atom, donor atom, acceptor molecule, acceptor atom, score
      L1  H     4    48       P1  7948  2.00
      P1  H  7997  8010       L1    18  0.76
      L1  C    13    38       P1  8028  0.99

> <Gold.PLP.Chemscore.Internal.Correction>
0.0758

> <Gold.Rescore>
     Score         DG    S(hbond)    S(metal)    S(lipo)     H(rot)  DE(clash)    DE(int)     intcor
     11.41     -17.12       1.88        0.00      87.07       1.89       0.03       5.67       ----

> <Gold.Chemscore.Fitness>
11.4144

> <Gold.Chemscore.DG>
-17.1201

> <Gold.Chemscore.ZeroCoef>
-5.4800

> <Gold.Chemscore.Hbond>
1.8812

> <Gold.Chemscore.Metal>
0.0000

> <Gold.Chemscore.Lipo>
87.0737

> <Gold.Chemscore.Internal_Hbond>
0.0000

> <Gold.Chemscore.DEClash>
0.0331

> <Gold.Chemscore.DEInternal>
5.6726

> <Gold.Chemscore.Rot>
1.8870

> <Gold.Chemscore.Internal.Correction>
   9.000000E+99

> <Gold.Chemscore.Hbonds>
donor molecule, donor type, donor heavy atom, donor atom, acceptor molecule, acceptor atom, score
      L1  H     4    48       P1  7948  0.60
      P1  H  7997  8010       L1    18  0.69

> <Gold.Chemscore.Hbond.Weighted>
-6.2832

> <Gold.Chemscore.Metal.Weighted>
-0.0000

> <Gold.Chemscore.Lipo.Weighted>
-10.1876

> <Gold.Chemscore.Internal_Hbond.Weighted>
0.0000

> <Gold.Chemscore.DEClash.Weighted>
0.0331

> <Gold.Chemscore.DEInternal.Weighted>
5.6726

> <Gold.Chemscore.Rot.Weighted>
4.8308

> <Gold.Chemscore.Internal.Correction.Weighted>
   9.000000E+99

> <Gold.Protein.RotatedTorsions>
[ 6907 6896 6895 6894 ] final -171.85 input  -60.11 | X-H torsion
[ 7974 7965 7964 7962 ] final  124.08 input  175.53 | X-H torsion
[ 8008 7997 7996 7995 ] final   53.64 input   59.86 | X-H torsion
[ 10167 10162 10161 10158 ] final -101.35 input  -65.29 | X-H torsion
[ 10718 10713 10712 10709 ] final -161.53 input   66.30 | X-H torsion
[ 10763 10752 10751 10750 ] final  -89.46 input  -60.55 | X-H torsion
[ 11005 11000 10999 10996 ] final  -40.11 input  -57.11 | X-H torsion

> <Gold.Protein.ActiveResidues>
 VAL166  LYS551  ARG553  GLY616  TRP617  ASP618  TYR619  PRO620  LYS621  CYS622 
 ASP623  PHE694  ASN695  SER759  ASP760  ASP761  ALA762  ILE779  LEU786  VAL792 
 PHE793  MET794  SER795  GLU796  ALA797  LYS798  CYS799  TRP800  GLU811  SER814 

> <Gold.Protein.RotatedAtoms>
  151.5304  133.3450  159.2916 H   0  0  0  0  0  0  0  0  0  0  0  0  # atno 6907 bound_to 6896
  150.8597  134.7948  159.7084 H   0  0  0  0  0  0  0  0  0  0  0  0  # atno 6908 bound_to 6896
  152.4620  134.5171  159.9823 H   0  0  0  0  0  0  0  0  0  0  0  0  # atno 6909 bound_to 6896
  145.0885  139.3604  143.4873 H   0  0  0  0  0  0  0  0  0  0  0  0  # atno 7974 bound_to 7965
  155.4716  140.3465  155.4326 H   0  0  0  0  0  0  0  0  0  0  0  0  # atno 8008 bound_to 7997
  156.1096  140.1457  156.9385 H   0  0  0  0  0  0  0  0  0  0  0  0  # atno 8009 bound_to 7997
  154.4748  140.0889  156.7212 H   0  0  0  0  0  0  0  0  0  0  0  0  # atno 8010 bound_to 7997
  140.2422  143.3531  152.0791 H   0  0  0  0  0  0  0  0  0  0  0  0  # atno 10167 bound_to 10162
  156.5976  130.8797  151.2906 H   0  0  0  0  0  0  0  0  0  0  0  0  # atno 10718 bound_to 10713
  154.6555  135.5340  153.7953 H   0  0  0  0  0  0  0  0  0  0  0  0  # atno 10763 bound_to 10752
  153.0411  135.6493  154.0952 H   0  0  0  0  0  0  0  0  0  0  0  0  # atno 10764 bound_to 10752
  154.0865  135.2943  155.3260 H   0  0  0  0  0  0  0  0  0  0  0  0  # atno 10765 bound_to 10752
  141.0151  133.6889  156.2277 H   0  0  0  0  0  0  0  0  0  0  0  0  # atno 11005 bound_to 11000
  146.3531  140.0708  142.8623 LP  0  0  0  0  0  0  0  0  0  0  0  0  # atno 17320 bound_to 7965
  145.1094  140.9396  143.4665 LP  0  0  0  0  0  0  0  0  0  0  0  0  # atno 17321 bound_to 7965
  139.5073  144.6830  151.5959 LP  0  0  0  0  0  0  0  0  0  0  0  0  # atno 17342 bound_to 10162
  140.6105  143.9445  150.6449 LP  0  0  0  0  0  0  0  0  0  0  0  0  # atno 17343 bound_to 10162
  157.7288  130.9662  150.1757 LP  0  0  0  0  0  0  0  0  0  0  0  0  # atno 17370 bound_to 10713
  156.2496  130.3699  149.8246 LP  0  0  0  0  0  0  0  0  0  0  0  0  # atno 17371 bound_to 10713
  140.6668  134.4909  157.5586 LP  0  0  0  0  0  0  0  0  0  0  0  0  # atno 17394 bound_to 11000
  139.9112  134.8341  156.1522 LP  0  0  0  0  0  0  0  0  0  0  0  0  # atno 17395 bound_to 11000

$$$$
