#       Name:                AV-unprocessed.smi:63
#       Creating user name   scv26
#       Creation time:       Thu Mar 26 16:50:21 2020


#       File generated by GOLD software.
#

@<TRIPOS>MOLECULE
AV-unprocessed.smi:63
    34    35     1
SMALL
NO_CHARGES


@<TRIPOS>ATOM
      1 ****        -4.7612  -0.0260  -0.2111 C.3            1 S1                 0.0000
      2 ****        -3.2507  -0.1160  -0.2677 C.ar           1 S1                 0.0000
      3 ****        -2.6135  -0.9160  -1.2336 C.ar           1 S1                 0.0000
      4 ****        -1.2086  -0.9451  -1.2209 C.ar           1 S1                 0.0000
      5 ****        -0.5374  -0.1734  -0.2452 C.ar           1 S1                 0.0000
      6 ****         0.8725  -0.1673  -0.1949 N.3            1 S1                 0.0000
      7 ****         1.5787  -0.0536  -1.4672 C.3            1 S1                 0.0000
      8 ****         2.7946   0.8433  -1.2080 C.3            1 S1                 0.0000
      9 ****         3.0289   0.7145   0.2940 C.3            1 S1                 0.0000
     10 ****         1.6034   0.5668   0.8372 C.3            1 S1                 0.0000
     11 ****         1.4994  -0.0556   2.2481 C.3            1 S1                 0.0000
     12 ****         2.1659  -1.2995   2.3268 O.3            1 S1                 0.0000
     13 ****        -1.2265   0.5750   0.6541 N.ar           1 S1                 0.0000
     14 ****        -2.5633   0.6058   0.6458 N.ar           1 S1                 0.0000
     15 ****        -5.2009  -1.0236  -0.2211 H              1 S1                 0.0000
     16 ****        -5.1370   0.5242  -1.0740 H              1 S1                 0.0000
     17 ****        -5.0976   0.4836   0.6928 H              1 S1                 0.0000
     18 ****        -3.1786  -1.4866  -1.9557 H              1 S1                 0.0000
     19 ****        -0.6689  -1.5483  -1.9361 H              1 S1                 0.0000
     20 ****         1.8984  -1.0498  -1.7742 H              1 S1                 0.0000
     21 ****         0.9536   0.3600  -2.2601 H              1 S1                 0.0000
     22 ****         3.6641   0.5598  -1.8013 H              1 S1                 0.0000
     23 ****         2.5452   1.8771  -1.4504 H              1 S1                 0.0000
     24 ****         3.6232  -0.1789   0.4887 H              1 S1                 0.0000
     25 ****         3.5565   1.5698   0.7168 H              1 S1                 0.0000
     26 ****         1.1713   1.5678   0.8811 H              1 S1                 0.0000
     27 ****         1.9559   0.6157   2.9756 H              1 S1                 0.0000
     28 ****         0.4633  -0.1889   2.5570 H              1 S1                 0.0000
     29 ****         2.0706  -1.6357   3.2047 H              1 S1                 0.0000
     30 ****         0.8982  -1.1108   0.1354 LP             1 S1                 0.0000
     31 ****         3.1356  -1.1765   2.1161 LP             1 S1                 0.0000
     32 ****         1.7617  -1.9406   1.6743 LP             1 S1                 0.0000
     33 ****        -0.7263   1.1118   1.3335 LP             1 S1                 0.0000
     34 ****        -3.0547   1.1628   1.3153 LP             1 S1                 0.0000
@<TRIPOS>BOND
    1    1    2 1     
    2    1   15 1     
    3    1   16 1     
    4    1   17 1     
    5    2   14 ar    
    6    2    3 ar    
    7    3    4 ar    
    8    3   18 1     
    9    4    5 ar    
   10    4   19 1     
   11    5    6 1     
   12    5   13 ar    
   13    6   10 1     
   14    6    7 1     
   15    7    8 1     
   16    7   20 1     
   17    7   21 1     
   18    8    9 1     
   19    8   22 1     
   20    8   23 1     
   21    9   10 1     
   22    9   24 1     
   23    9   25 1     
   24   10   11 1     
   25   10   26 1     
   26   11   12 1     
   27   11   27 1     
   28   11   28 1     
   29   12   29 1     
   30   13   14 ar    
   31    6   30 1     
   32   12   31 1     
   33   12   32 1     
   34   13   33 1     
   35   14   34 1     
@<TRIPOS>SUBSTRUCTURE
      1 S1             1
@<TRIPOS>SET
LONE_PAIRS      STATIC     ATOMS    <user>   **** ""
5 30 31 32 33 34
DONOR_HYDROGENS      STATIC     ATOMS    <user>   **** ""
1 29
ATOM$BLUE        STATIC     ATOMS    COLORGROUP SYSTEM
5 30 31 32 33 34
ATOM$RED        STATIC     ATOMS    COLORGROUP SYSTEM
1 29
