AV-unprocessed.smi:798|AV-procd|sdf|3770|dock5
  -GOLD-   22720 1203D 1   1.00000     0.00000
 Structure written by MMmdl.
 34 36  0  0  0  0  0  0  0  0  1 V2000
  146.1308  138.1083  154.6171 O   0  0  0  0  0  0  0  0  0  0  0  0
  146.9196  137.5634  153.8446 C   0  0  0  0  0  0  0  0  0  0  0  0
  148.1500  138.0125  153.5420 N   0  0  0  0  0  0  0  0  0  0  0  0
  148.8235  139.1524  154.0543 C   0  0  0  0  0  0  0  0  0  0  0  0
  150.1113  139.1496  154.4325 N   0  0  0  0  0  0  0  0  0  0  0  0
  150.5210  140.3958  154.8895 N   0  0  0  0  0  0  0  0  0  0  0  0
  149.5276  141.2877  154.8375 C   0  0  0  0  0  0  0  0  0  0  0  0
  147.9947  140.6933  154.2234 S   0  0  0  0  0  0  0  0  0  0  0  0
  146.6502  136.4214  153.1956 N   0  0  0  0  0  0  0  0  0  0  0  0
  145.3992  135.6667  153.2853 C   0  0  1  0  0  0  0  0  0  0  0  0
  144.3454  136.2782  152.3372 C   0  0  2  0  0  0  0  0  0  0  0  0
  142.9537  135.7366  152.7115 C   0  0  0  0  0  0  0  0  0  0  0  0
  143.0228  134.2754  152.2285 C   0  0  0  0  0  0  0  0  0  0  0  0
  144.4468  134.1732  151.6462 C   0  0  1  0  0  0  0  0  0  0  0  0
  144.6180  135.5531  151.0245 C   0  0  0  0  0  0  0  0  0  0  0  0
  145.4773  134.1854  152.8025 C   0  0  1  0  0  0  0  0  0  0  0  0
  146.8746  133.6746  152.3828 C   0  0  0  0  0  0  0  0  0  0  0  0
  147.8574  134.1163  153.2951 O   0  0  0  0  0  0  0  0  0  0  0  0
  148.6743  137.4652  152.8755 H   0  0  0  0  0  0  0  0  0  0  0  0
  149.6989  142.3034  155.1619 H   0  0  0  0  0  0  0  0  0  0  0  0
  147.3591  136.0463  152.5824 H   0  0  0  0  0  0  0  0  0  0  0  0
  145.0363  135.7128  154.3139 H   0  0  0  0  0  0  0  0  0  0  0  0
  144.3794  137.3670  152.2785 H   0  0  0  0  0  0  0  0  0  0  0  0
  142.7481  135.8146  153.7797 H   0  0  0  0  0  0  0  0  0  0  0  0
  142.1701  136.2782  152.1800 H   0  0  0  0  0  0  0  0  0  0  0  0
  142.8490  133.5602  153.0334 H   0  0  0  0  0  0  0  0  0  0  0  0
  142.2744  134.0941  151.4560 H   0  0  0  0  0  0  0  0  0  0  0  0
  144.5634  133.3417  150.9507 H   0  0  0  0  0  0  0  0  0  0  0  0
  143.8823  135.7725  150.2485 H   0  0  0  0  0  0  0  0  0  0  0  0
  145.6177  135.7325  150.6263 H   0  0  0  0  0  0  0  0  0  0  0  0
  145.1267  133.5368  153.6074 H   0  0  0  0  0  0  0  0  0  0  0  0
  146.9041  132.5864  152.3248 H   0  0  0  0  0  0  0  0  0  0  0  0
  147.1437  134.0621  151.4002 H   0  0  0  0  0  0  0  0  0  0  0  0
  148.3556  134.8086  152.8879 H   0  0  0  0  0  0  0  0  0  0  0  0
  1  2  2  0  0  0  0
  2  3  1  0  0  0  0
  2  9  1  0  0  0  0
  3  4  1  0  0  0  0
  3 19  1  0  0  0  0
  4  8  1  0  0  0  0
  4  5  2  0  0  0  0
  5  6  1  0  0  0  0
  6  7  2  0  0  0  0
  7  8  1  0  0  0  0
  7 20  1  0  0  0  0
  9 10  1  0  0  0  0
  9 21  1  0  0  0  0
 10 16  1  0  0  0  0
 10 11  1  0  0  0  0
 10 22  1  0  0  0  0
 11 15  1  0  0  0  0
 11 12  1  0  0  0  0
 11 23  1  0  0  0  0
 12 13  1  0  0  0  0
 12 24  1  0  0  0  0
 12 25  1  0  0  0  0
 13 14  1  0  0  0  0
 13 26  1  0  0  0  0
 13 27  1  0  0  0  0
 14 15  1  0  0  0  0
 14 16  1  0  0  0  0
 14 28  1  0  0  0  0
 15 29  1  0  0  0  0
 15 30  1  0  0  0  0
 16 17  1  0  0  0  0
 16 31  1  0  0  0  0
 17 18  1  0  0  0  0
 17 32  1  0  0  0  0
 17 33  1  0  0  0  0
 18 34  1  0  0  0  0
M  END
> <s_m_source_file>
AV-unprocessed.smi

> <i_m_source_file_index>
798

> <i_lp_mmshare_version>
43012

> <i_f3d_flags>
0

> <s_epik_input>
W0NIMl0xW0NIMl1bQ0BASF0oW0NIMl0yKVtDQEBIXShbQ0gyXVtPSF0pW0NAQEhdKFtDQEhdMTIpW05IXUMoPU8pW05IXWMzbm5bY0hdczM=

> <s_epik_cmdline>
J2VwaWtfcHl0aG9uJywgJy1waCcsICc3LjAnLCAnLXRuJywgJzgnLCAnLW1hJywgJzIwMCcsICctbWV0YWxfYmluZGluZycsICctaW1hZScsICc8aW5maWxlLm1hZT4nLCAnLW9tYWUnLCAnPG91dGZpbGUubWFlPic=

> <r_lp_tautomer_probability>
1

> <r_epik_Ionization_Penalty>
0.000329046

> <r_epik_Ionization_Penalty_Charging>
0

> <r_epik_Ionization_Penalty_Neutral>
0.000329046

> <r_epik_State_Penalty>
-0

> <r_epik_Charging_Adjusted_Penalty>
0

> <i_epik_Tot_Q>
0

> <i_epik_Tot_abs_Q>
0

> <r_epik_Metal_State_Penalty>
0.173433

> <b_epik_Metal_Only>
0

> <s_lp_Force_Field>
OPLS_2005

> <r_lp_Energy>
49.2939

> <b_lp_Chiralities_Consistent>
1

> <s_lp_Variant>
AV-unprocessed.smi:798-2

> <Gold.Version>
5.8.1

> <Gold.Id.Protein>
6NUR|6NUR_protein|mol2

> <Gold.PLP.Fitness>
39.5080

> <Gold.PLP.PLP>
-26.1905

> <Gold.PLP.part.hbond>
-4.0000

> <Gold.PLP.part.metal>
0.0000

> <Gold.PLP.part.buried>
-3.3320

> <Gold.PLP.part.nonpolar>
-19.1188

> <Gold.PLP.part.repulsive>
0.3551

> <Gold.PLP.ligand.clash>
0.0000

> <Gold.PLP.ligand.torsion>
0.8121

> <Gold.PLP.Chemscore.Hbond>
3.9760

> <Gold.PLP.Chemscore.CHOScore>
1.0000

> <Gold.PLP.Chemscore.Metal>
0.0000

> <Gold.Chemscore.Hbonds>
donor molecule, donor type, donor heavy atom, donor atom, acceptor molecule, acceptor atom, score
      L1  H     3    19       P1  7948  1.00
      L1  H     9    21       P1  7948  0.98
      L1  H    18    34       P1  7948  1.00
      P1  H  7989  7998       L1     6  1.00
      L1  C     7    20       P1  8028  0.85

> <Gold.PLP.Chemscore.Internal.Correction>
0.0136

> <Gold.Rescore>
     Score         DG    S(hbond)    S(metal)    S(lipo)     H(rot)  DE(clash)    DE(int)     intcor
     13.58     -16.08       2.96        0.00      48.57       1.94       0.07       2.42       ----

> <Gold.Chemscore.Fitness>
13.5811

> <Gold.Chemscore.DG>
-16.0784

> <Gold.Chemscore.ZeroCoef>
-5.4800

> <Gold.Chemscore.Hbond>
2.9618

> <Gold.Chemscore.Metal>
0.0000

> <Gold.Chemscore.Lipo>
48.5744

> <Gold.Chemscore.Internal_Hbond>
0.0000

> <Gold.Chemscore.DEClash>
0.0741

> <Gold.Chemscore.DEInternal>
2.4232

> <Gold.Chemscore.Rot>
1.9442

> <Gold.Chemscore.Internal.Correction>
   9.000000E+99

> <Gold.Chemscore.Hbonds>
donor molecule, donor type, donor heavy atom, donor atom, acceptor molecule, acceptor atom, score
      L1  H     3    19       P1  7948  0.98
      L1  H     9    21       P1  7948  0.93
      L1  H    18    34       P1  7948  0.60
      P1  H  7989  7998       L1     6  0.11

> <Gold.Chemscore.Hbond.Weighted>
-9.8923

> <Gold.Chemscore.Metal.Weighted>
-0.0000

> <Gold.Chemscore.Lipo.Weighted>
-5.6832

> <Gold.Chemscore.Internal_Hbond.Weighted>
0.0000

> <Gold.Chemscore.DEClash.Weighted>
0.0741

> <Gold.Chemscore.DEInternal.Weighted>
2.4232

> <Gold.Chemscore.Rot.Weighted>
4.9771

> <Gold.Chemscore.Internal.Correction.Weighted>
   9.000000E+99

> <Gold.Protein.RotatedTorsions>
[ 6907 6896 6895 6894 ] final  158.57 input  -60.11 | X-H torsion
[ 7974 7965 7964 7962 ] final  122.78 input  175.53 | X-H torsion
[ 8008 7997 7996 7995 ] final  109.30 input   59.86 | X-H torsion
[ 10167 10162 10161 10158 ] final -166.99 input  -65.29 | X-H torsion
[ 10718 10713 10712 10709 ] final  148.79 input   66.30 | X-H torsion
[ 10763 10752 10751 10750 ] final   63.80 input  -60.55 | X-H torsion
[ 11005 11000 10999 10996 ] final   74.37 input  -57.11 | X-H torsion

> <Gold.Protein.ActiveResidues>
 VAL166  LYS551  ARG553  GLY616  TRP617  ASP618  TYR619  PRO620  LYS621  CYS622 
 ASP623  PHE694  ASN695  SER759  ASP760  ASP761  ALA762  ILE779  LEU786  VAL792 
 PHE793  MET794  SER795  GLU796  ALA797  LYS798  CYS799  TRP800  GLU811  SER814 

> <Gold.Protein.RotatedAtoms>
  151.9985  133.3816  159.4171 H   0  0  0  0  0  0  0  0  0  0  0  0  # atno 6907 bound_to 6896
  150.6913  134.3860  159.5064 H   0  0  0  0  0  0  0  0  0  0  0  0  # atno 6908 bound_to 6896
  152.1604  134.8917  160.0592 H   0  0  0  0  0  0  0  0  0  0  0  0  # atno 6909 bound_to 6896
  145.1035  139.3502  143.4800 H   0  0  0  0  0  0  0  0  0  0  0  0  # atno 7974 bound_to 7965
  156.1969  140.3060  155.9445 H   0  0  0  0  0  0  0  0  0  0  0  0  # atno 8008 bound_to 7997
  155.3046  140.0448  157.3048 H   0  0  0  0  0  0  0  0  0  0  0  0  # atno 8009 bound_to 7997
  154.5521  140.2294  155.8478 H   0  0  0  0  0  0  0  0  0  0  0  0  # atno 8010 bound_to 7997
  139.6078  144.0877  152.1811 H   0  0  0  0  0  0  0  0  0  0  0  0  # atno 10167 bound_to 10162
  157.3042  131.0876  151.1367 H   0  0  0  0  0  0  0  0  0  0  0  0  # atno 10718 bound_to 10713
  153.0031  135.5416  154.6410 H   0  0  0  0  0  0  0  0  0  0  0  0  # atno 10763 bound_to 10752
  154.5665  135.2838  155.0871 H   0  0  0  0  0  0  0  0  0  0  0  0  # atno 10764 bound_to 10752
  154.2053  135.6477  153.5151 H   0  0  0  0  0  0  0  0  0  0  0  0  # atno 10765 bound_to 10752
  139.9394  134.7427  156.1140 H   0  0  0  0  0  0  0  0  0  0  0  0  # atno 11005 bound_to 11000
  146.3529  140.0923  142.8612 LP  0  0  0  0  0  0  0  0  0  0  0  0  # atno 17320 bound_to 7965
  145.0928  140.9295  143.4759 LP  0  0  0  0  0  0  0  0  0  0  0  0  # atno 17321 bound_to 7965
  140.0488  144.5949  150.7352 LP  0  0  0  0  0  0  0  0  0  0  0  0  # atno 17342 bound_to 10162
  140.7297  143.2676  151.3994 LP  0  0  0  0  0  0  0  0  0  0  0  0  # atno 17343 bound_to 10162
  157.2714  130.6706  149.6021 LP  0  0  0  0  0  0  0  0  0  0  0  0  # atno 17370 bound_to 10713
  155.9673  130.4478  150.5594 LP  0  0  0  0  0  0  0  0  0  0  0  0  # atno 17371 bound_to 10713
  141.1022  133.6673  156.2781 LP  0  0  0  0  0  0  0  0  0  0  0  0  # atno 17394 bound_to 11000
  140.5991  134.5573  157.5514 LP  0  0  0  0  0  0  0  0  0  0  0  0  # atno 17395 bound_to 11000

$$$$
