AV-unprocessed.smi:3241|AV-procd|sdf|12392|dock3
  -GOLD-   2272018263D 1   1.00000     0.00000
 Structure written by MMmdl.
 43 44  0  0  0  0  0  0  0  0  1 V2000
  147.2352  141.9093  154.3189 C   0  0  0  0  0  0  0  0  0  0  0  0
  148.2459  140.7608  154.4708 C   0  0  1  0  0  0  0  0  0  0  0  0
  149.3988  141.1748  155.4076 C   0  0  0  0  0  0  0  0  0  0  0  0
  150.4247  140.0457  155.5829 C   0  0  0  0  0  0  0  0  0  0  0  0
  149.7495  138.7661  156.0936 C   0  0  0  0  0  0  0  0  0  0  0  0
  148.6091  138.3353  155.1598 C   0  0  0  0  0  0  0  0  0  0  0  0
  147.5700  139.4623  154.9697 C   0  0  2  0  0  0  0  0  0  0  0  0
  146.6085  139.0774  153.9940 O   0  0  0  0  0  0  0  0  0  0  0  0
  147.1523  138.5867  152.7772 C   0  0  0  0  0  0  0  0  0  0  0  0
  145.9987  138.1744  151.8571 C   0  0  0  0  0  0  0  0  0  0  0  0
  146.4047  137.0933  150.9659 N   0  0  0  0  0  0  0  0  0  0  0  0
  145.4768  135.9668  150.9463 C   0  0  0  0  0  0  0  0  0  0  0  0
  146.2199  134.6220  150.8889 C   0  0  0  0  0  0  0  0  0  0  0  0
  145.3450  133.5255  150.5130 N   0  0  0  0  0  0  0  0  0  0  0  0
  145.6640  132.1927  150.3586 C   0  0  0  0  0  0  0  0  0  0  0  0
  144.5187  131.5386  150.0057 C   0  0  0  0  0  0  0  0  0  0  0  0
  143.5382  132.5696  149.9705 C   0  0  0  0  0  0  0  0  0  0  0  0
  144.0365  133.7583  150.2700 N   0  0  0  0  0  0  0  0  0  0  0  0
  146.7584  142.1465  155.2705 H   0  0  0  0  0  0  0  0  0  0  0  0
  146.4493  141.6563  153.6070 H   0  0  0  0  0  0  0  0  0  0  0  0
  147.7227  142.8146  153.9565 H   0  0  0  0  0  0  0  0  0  0  0  0
  148.6719  140.5626  153.4859 H   0  0  0  0  0  0  0  0  0  0  0  0
  149.8983  142.0609  155.0144 H   0  0  0  0  0  0  0  0  0  0  0  0
  148.9986  141.4547  156.3832 H   0  0  0  0  0  0  0  0  0  0  0  0
  150.9174  139.8457  154.6305 H   0  0  0  0  0  0  0  0  0  0  0  0
  151.2060  140.3565  156.2770 H   0  0  0  0  0  0  0  0  0  0  0  0
  150.4849  137.9656  156.1770 H   0  0  0  0  0  0  0  0  0  0  0  0
  149.3578  138.9332  157.0979 H   0  0  0  0  0  0  0  0  0  0  0  0
  149.0211  138.0520  154.1903 H   0  0  0  0  0  0  0  0  0  0  0  0
  148.1397  137.4408  155.5676 H   0  0  0  0  0  0  0  0  0  0  0  0
  147.0750  139.6706  155.9203 H   0  0  0  0  0  0  0  0  0  0  0  0
  147.7825  139.3272  152.2846 H   0  0  0  0  0  0  0  0  0  0  0  0
  147.7753  137.7163  152.9867 H   0  0  0  0  0  0  0  0  0  0  0  0
  145.1596  137.8438  152.4700 H   0  0  0  0  0  0  0  0  0  0  0  0
  145.6501  139.0347  151.2844 H   0  0  0  0  0  0  0  0  0  0  0  0
  147.3361  136.7724  151.2102 H   0  0  0  0  0  0  0  0  0  0  0  0
  144.8561  135.9903  151.8426 H   0  0  0  0  0  0  0  0  0  0  0  0
  144.7979  136.0507  150.0967 H   0  0  0  0  0  0  0  0  0  0  0  0
  147.0605  134.6713  150.1945 H   0  0  0  0  0  0  0  0  0  0  0  0
  146.6400  134.3937  151.8689 H   0  0  0  0  0  0  0  0  0  0  0  0
  146.6680  131.8255  150.5126 H   0  0  0  0  0  0  0  0  0  0  0  0
  144.3989  130.4842  149.8054 H   0  0  0  0  0  0  0  0  0  0  0  0
  142.4871  132.4902  149.7351 H   0  0  0  0  0  0  0  0  0  0  0  0
  1  2  1  0  0  0  0
  1 19  1  0  0  0  0
  1 20  1  0  0  0  0
  1 21  1  0  0  0  0
  2  7  1  0  0  0  0
  2  3  1  0  0  0  0
  2 22  1  0  0  0  0
  3  4  1  0  0  0  0
  3 23  1  0  0  0  0
  3 24  1  0  0  0  0
  4  5  1  0  0  0  0
  4 25  1  0  0  0  0
  4 26  1  0  0  0  0
  5  6  1  0  0  0  0
  5 27  1  0  0  0  0
  5 28  1  0  0  0  0
  6  7  1  0  0  0  0
  6 29  1  0  0  0  0
  6 30  1  0  0  0  0
  7  8  1  0  0  0  0
  7 31  1  0  0  0  0
  8  9  1  0  0  0  0
  9 10  1  0  0  0  0
  9 32  1  0  0  0  0
  9 33  1  0  0  0  0
 10 11  1  0  0  0  0
 10 34  1  0  0  0  0
 10 35  1  0  0  0  0
 11 12  1  0  0  0  0
 11 36  1  0  0  0  0
 12 13  1  0  0  0  0
 12 37  1  0  0  0  0
 12 38  1  0  0  0  0
 13 14  1  0  0  0  0
 13 39  1  0  0  0  0
 13 40  1  0  0  0  0
 14 18  1  0  0  0  0
 14 15  1  0  0  0  0
 15 16  2  0  0  0  0
 15 41  1  0  0  0  0
 16 17  1  0  0  0  0
 16 42  1  0  0  0  0
 17 18  2  0  0  0  0
 17 43  1  0  0  0  0
M  END
> <s_m_source_file>
AV-unprocessed.smi

> <i_m_source_file_index>
3241

> <i_lp_mmshare_version>
43012

> <i_f3d_flags>
0

> <s_epik_input>
W0NIM11bQ0BASF0xW0NIMl1bQ0gyXVtDSDJdW0NIMl1bQ0BIXTFPW0NIMl1bQ0gyXVtOSF1bQ0gyXVtDSDJdbjJbY0hdW2NIXVtjSF1uMg==

> <s_epik_cmdline>
J2VwaWtfcHl0aG9uJywgJy1waCcsICc3LjAnLCAnLXRuJywgJzgnLCAnLW1hJywgJzIwMCcsICctbWV0YWxfYmluZGluZycsICctaW1hZScsICc8aW5maWxlLm1hZT4nLCAnLW9tYWUnLCAnPG91dGZpbGUubWFlPic=

> <r_lp_tautomer_probability>
1

> <r_epik_Ionization_Penalty>
2.47055

> <r_epik_Ionization_Penalty_Charging>
0

> <r_epik_Ionization_Penalty_Neutral>
2.47055

> <r_epik_State_Penalty>
2.6322

> <r_epik_Charging_Adjusted_Penalty>
2.6322

> <i_epik_Tot_Q>
0

> <i_epik_Tot_abs_Q>
0

> <r_epik_Metal_State_Penalty>
2.63108

> <b_epik_Metal_Only>
0

> <s_lp_Force_Field>
OPLS_2005

> <r_lp_Energy>
16.4595

> <b_lp_Chiralities_Consistent>
1

> <s_lp_Variant>
AV-unprocessed.smi:3241-8

> <Gold.Version>
5.8.1

> <Gold.Id.Protein>
6NUR|6NUR_protein|mol2

> <Gold.PLP.Fitness>
41.7783

> <Gold.PLP.PLP>
-33.6737

> <Gold.PLP.part.hbond>
-1.9706

> <Gold.PLP.part.metal>
0.0000

> <Gold.PLP.part.buried>
-0.3847

> <Gold.PLP.part.nonpolar>
-32.7935

> <Gold.PLP.part.repulsive>
0.3355

> <Gold.PLP.ligand.clash>
0.0000

> <Gold.PLP.ligand.torsion>
0.9189

> <Gold.PLP.Chemscore.Hbond>
1.0000

> <Gold.PLP.Chemscore.CHOScore>
2.3008

> <Gold.PLP.Chemscore.Metal>
0.0000

> <Gold.Chemscore.Hbonds>
donor molecule, donor type, donor heavy atom, donor atom, acceptor molecule, acceptor atom, score
      L1  H    11    36       P1  7948  1.00
      L1  C    15    41       P1 10747  1.00
      L1  C    17    43       P1 10186  0.88
      L1  C    17    43       P1 10952  0.55

> <Gold.PLP.Chemscore.Internal.Correction>
0.0402

> <Gold.Rescore>
     Score         DG    S(hbond)    S(metal)    S(lipo)     H(rot)  DE(clash)    DE(int)     intcor
     14.33     -15.59       1.00        0.00      97.17       1.79       0.38       0.88       ----

> <Gold.Chemscore.Fitness>
14.3271

> <Gold.Chemscore.DG>
-15.5907

> <Gold.Chemscore.ZeroCoef>
-5.4800

> <Gold.Chemscore.Hbond>
0.9953

> <Gold.Chemscore.Metal>
0.0000

> <Gold.Chemscore.Lipo>
97.1713

> <Gold.Chemscore.Internal_Hbond>
0.0000

> <Gold.Chemscore.DEClash>
0.3801

> <Gold.Chemscore.DEInternal>
0.8835

> <Gold.Chemscore.Rot>
1.7901

> <Gold.Chemscore.Internal.Correction>
   9.000000E+99

> <Gold.Chemscore.Hbonds>
donor molecule, donor type, donor heavy atom, donor atom, acceptor molecule, acceptor atom, score
      L1  H    11    36       P1  7948  1.00

> <Gold.Chemscore.Hbond.Weighted>
-3.3244

> <Gold.Chemscore.Metal.Weighted>
-0.0000

> <Gold.Chemscore.Lipo.Weighted>
-11.3690

> <Gold.Chemscore.Internal_Hbond.Weighted>
0.0000

> <Gold.Chemscore.DEClash.Weighted>
0.3801

> <Gold.Chemscore.DEInternal.Weighted>
0.8835

> <Gold.Chemscore.Rot.Weighted>
4.5827

> <Gold.Chemscore.Internal.Correction.Weighted>
   9.000000E+99

> <Gold.Protein.RotatedTorsions>
[ 6907 6896 6895 6894 ] final   27.82 input  -60.11 | X-H torsion
[ 7974 7965 7964 7962 ] final  -11.80 input  175.53 | X-H torsion
[ 8008 7997 7996 7995 ] final  -69.70 input   59.86 | X-H torsion
[ 10167 10162 10161 10158 ] final  -74.88 input  -65.29 | X-H torsion
[ 10718 10713 10712 10709 ] final  -13.03 input   66.30 | X-H torsion
[ 10763 10752 10751 10750 ] final -155.72 input  -60.55 | X-H torsion
[ 11005 11000 10999 10996 ] final   47.36 input  -57.11 | X-H torsion

> <Gold.Protein.ActiveResidues>
 VAL166  LYS551  ARG553  GLY616  TRP617  ASP618  TYR619  PRO620  LYS621  CYS622 
 ASP623  PHE694  ASN695  SER759  ASP760  ASP761  ALA762  ILE779  LEU786  VAL792 
 PHE793  MET794  SER795  GLU796  ALA797  LYS798  CYS799  TRP800  GLU811  SER814 

> <Gold.Protein.RotatedAtoms>
  152.0079  134.9892  160.0566 H   0  0  0  0  0  0  0  0  0  0  0  0  # atno 6907 bound_to 6896
  152.1457  133.4486  159.4797 H   0  0  0  0  0  0  0  0  0  0  0  0  # atno 6908 bound_to 6896
  150.6870  134.2169  159.4424 H   0  0  0  0  0  0  0  0  0  0  0  0  # atno 6909 bound_to 6896
  146.2175  140.2964  142.8372 H   0  0  0  0  0  0  0  0  0  0  0  0  # atno 7974 bound_to 7965
  154.4958  140.0848  156.7693 H   0  0  0  0  0  0  0  0  0  0  0  0  # atno 8008 bound_to 7997
  155.4120  140.3442  155.4246 H   0  0  0  0  0  0  0  0  0  0  0  0  # atno 8009 bound_to 7997
  156.1391  140.1524  156.8936 H   0  0  0  0  0  0  0  0  0  0  0  0  # atno 8010 bound_to 7997
  140.4989  143.2365  151.7784 H   0  0  0  0  0  0  0  0  0  0  0  0  # atno 10167 bound_to 10162
  156.6361  130.4915  149.6112 H   0  0  0  0  0  0  0  0  0  0  0  0  # atno 10718 bound_to 10713
  154.7766  135.3161  154.8078 H   0  0  0  0  0  0  0  0  0  0  0  0  # atno 10763 bound_to 10752
  153.8800  135.6836  153.4772 H   0  0  0  0  0  0  0  0  0  0  0  0  # atno 10764 bound_to 10752
  153.1392  135.4746  154.9405 H   0  0  0  0  0  0  0  0  0  0  0  0  # atno 10765 bound_to 10752
  140.1286  134.4735  155.8539 H   0  0  0  0  0  0  0  0  0  0  0  0  # atno 11005 bound_to 11000
  144.9089  140.7733  143.5820 LP  0  0  0  0  0  0  0  0  0  0  0  0  # atno 17320 bound_to 7965
  145.2894  139.1889  143.4748 LP  0  0  0  0  0  0  0  0  0  0  0  0  # atno 17321 bound_to 7965
  139.4867  144.4548  151.9611 LP  0  0  0  0  0  0  0  0  0  0  0  0  # atno 17342 bound_to 10162
  140.3637  144.2941  150.5929 LP  0  0  0  0  0  0  0  0  0  0  0  0  # atno 17343 bound_to 10162
  156.2196  130.6729  151.1355 LP  0  0  0  0  0  0  0  0  0  0  0  0  # atno 17370 bound_to 10713
  157.7185  131.0695  150.6230 LP  0  0  0  0  0  0  0  0  0  0  0  0  # atno 17371 bound_to 10713
  141.2166  133.6787  156.7026 LP  0  0  0  0  0  0  0  0  0  0  0  0  # atno 17394 bound_to 11000
  140.2871  134.8270  157.3984 LP  0  0  0  0  0  0  0  0  0  0  0  0  # atno 17395 bound_to 11000

$$$$
