AV-unprocessed.smi:1100|AV-procd|sdf|4762|dock5
  -GOLD-   22720 3303D 1   1.00000     0.00000
 Structure written by MMmdl.
 44 45  0  0  0  0  0  0  0  0  2 V2000
  146.7459  132.9971  151.7652 C   0  0  0  0  0  0  0  0  0  0  0  0
  147.9983  132.4680  152.5073 C   0  0  1  0  0  0  0  0  0  0  0  0
  148.0859  133.1037  153.9230 C   0  0  0  0  0  0  0  0  0  0  0  0
  148.7019  134.4280  153.9249 N   0  0  0  0  0  0  0  0  0  0  0  0
  149.4159  134.9417  154.9368 C   0  0  0  0  0  0  0  0  0  0  0  0
  149.6101  134.3395  155.9924 O   0  0  0  0  0  0  0  0  0  0  0  0
  149.8719  136.1705  154.6289 N   0  0  0  0  0  0  0  0  0  0  0  0
  150.7054  137.0217  155.3704 C   0  0  0  0  0  0  0  0  0  0  0  0
  151.3518  138.1093  154.6670 C   0  0  0  0  0  0  0  0  0  0  0  0
  152.1764  138.9622  155.3055 C   0  0  0  0  0  0  0  0  0  0  0  0
  152.4576  138.8291  156.7367 C   0  0  0  0  0  0  0  0  0  0  0  0
  153.2044  139.6045  157.3347 O   0  0  0  0  0  0  0  0  0  0  0  0
  151.8379  137.7880  157.3641 N   0  0  0  0  0  0  0  0  0  0  0  0
  152.0625  137.5651  158.7948 C   0  0  0  0  0  0  0  0  0  0  0  0
  150.9769  136.9011  156.6889 C   0  0  0  0  0  0  0  0  0  0  0  0
  148.0449  130.9703  152.5894 N   0  3  0  0  0  0  0  0  0  0  0  0
  149.0540  130.4242  153.5402 C   0  0  0  0  0  0  0  0  0  0  0  0
  149.0423  128.8858  153.5491 C   0  0  0  0  0  0  0  0  0  0  0  0
  147.7419  128.4134  153.8650 O   0  0  0  0  0  0  0  0  0  0  0  0
  146.7910  128.8301  152.8976 C   0  0  0  0  0  0  0  0  0  0  0  0
  146.7151  130.3656  152.8801 C   0  0  0  0  0  0  0  0  0  0  0  0
  146.7048  134.0860  151.7586 H   0  0  0  0  0  0  0  0  0  0  0  0
  145.8271  132.6392  152.2308 H   0  0  0  0  0  0  0  0  0  0  0  0
  146.7361  132.7020  150.7161 H   0  0  0  0  0  0  0  0  0  0  0  0
  148.8657  132.7840  151.9254 H   0  0  0  0  0  0  0  0  0  0  0  0
  147.0848  133.2015  154.3441 H   0  0  0  0  0  0  0  0  0  0  0  0
  148.6489  132.4841  154.6194 H   0  0  0  0  0  0  0  0  0  0  0  0
  148.5842  134.9879  153.0930 H   0  0  0  0  0  0  0  0  0  0  0  0
  149.5871  136.5391  153.7333 H   0  0  0  0  0  0  0  0  0  0  0  0
  151.1728  138.2444  153.6103 H   0  0  0  0  0  0  0  0  0  0  0  0
  152.6424  139.7631  154.7505 H   0  0  0  0  0  0  0  0  0  0  0  0
  151.5557  136.6755  159.1699 H   0  0  0  0  0  0  0  0  0  0  0  0
  151.6999  138.4151  159.3745 H   0  0  0  0  0  0  0  0  0  0  0  0
  153.1263  137.4404  159.0025 H   0  0  0  0  0  0  0  0  0  0  0  0
  150.5750  136.1279  157.3236 H   0  0  0  0  0  0  0  0  0  0  0  0
  150.0602  130.7366  153.2639 H   0  0  0  0  0  0  0  0  0  0  0  0
  148.8550  130.8064  154.5428 H   0  0  0  0  0  0  0  0  0  0  0  0
  149.3639  128.4883  152.5850 H   0  0  0  0  0  0  0  0  0  0  0  0
  149.7430  128.5112  154.2957 H   0  0  0  0  0  0  0  0  0  0  0  0
  147.0541  128.4393  151.9131 H   0  0  0  0  0  0  0  0  0  0  0  0
  145.8190  128.4096  153.1566 H   0  0  0  0  0  0  0  0  0  0  0  0
  146.3529  130.7273  153.8439 H   0  0  0  0  0  0  0  0  0  0  0  0
  145.9748  130.6549  152.1375 H   0  0  0  0  0  0  0  0  0  0  0  0
  148.3222  130.6446  151.6745 H   0  0  0  0  0  0  0  0  0  0  0  0
  1  2  1  0  0  0  0
  1 22  1  0  0  0  0
  1 23  1  0  0  0  0
  1 24  1  0  0  0  0
  2  3  1  0  0  0  0
  2 16  1  0  0  0  0
  2 25  1  0  0  0  0
  3  4  1  0  0  0  0
  3 26  1  0  0  0  0
  3 27  1  0  0  0  0
  4  5  1  0  0  0  0
  4 28  1  0  0  0  0
  5  6  2  0  0  0  0
  5  7  1  0  0  0  0
  7  8  1  0  0  0  0
  7 29  1  0  0  0  0
  8 15  2  0  0  0  0
  8  9  1  0  0  0  0
  9 10  2  0  0  0  0
  9 30  1  0  0  0  0
 10 11  1  0  0  0  0
 10 31  1  0  0  0  0
 11 12  2  0  0  0  0
 11 13  1  0  0  0  0
 13 14  1  0  0  0  0
 13 15  1  0  0  0  0
 14 32  1  0  0  0  0
 14 33  1  0  0  0  0
 14 34  1  0  0  0  0
 15 35  1  0  0  0  0
 16 21  1  0  0  0  0
 16 17  1  0  0  0  0
 16 44  1  0  0  0  0
 17 18  1  0  0  0  0
 17 36  1  0  0  0  0
 17 37  1  0  0  0  0
 18 19  1  0  0  0  0
 18 38  1  0  0  0  0
 18 39  1  0  0  0  0
 19 20  1  0  0  0  0
 20 21  1  0  0  0  0
 20 40  1  0  0  0  0
 20 41  1  0  0  0  0
 21 42  1  0  0  0  0
 21 43  1  0  0  0  0
M  CHG  1  16   1
M  END
> <s_m_source_file>
AV-unprocessed.smi

> <i_m_source_file_index>
1100

> <i_lp_mmshare_version>
43012

> <i_f3d_flags>
0

> <s_epik_input>
W0NIMl0xW0NIMl1PW0NIMl1bQ0gyXU4xW0NASF0oW0NIM10pW0NIMl1bTkhdQyg9TylbTkhdYzJbY0hdW2NIXWMoPU8pbihbQ0gzXSlbY0hdMg==

> <s_epik_cmdline>
J2VwaWtfcHl0aG9uJywgJy1waCcsICc3LjAnLCAnLXRuJywgJzgnLCAnLW1hJywgJzIwMCcsICctbWV0YWxfYmluZGluZycsICctaW1hZScsICc8aW5maWxlLm1hZT4nLCAnLW9tYWUnLCAnPG91dGZpbGUubWFlPic=

> <r_lp_tautomer_probability>
1

> <r_epik_Ionization_Penalty>
0.602556

> <r_epik_Ionization_Penalty_Charging>
0.602536

> <r_epik_Ionization_Penalty_Neutral>
1.99507e-05

> <r_epik_State_Penalty>
0.617039

> <r_epik_Charging_Adjusted_Penalty>
1.21958

> <i_epik_Tot_Q>
1

> <i_epik_Tot_abs_Q>
1

> <r_epik_Metal_State_Penalty>
0.619464

> <b_epik_Metal_Only>
0

> <s_lp_Force_Field>
OPLS_2005

> <r_lp_Energy>
33.6123

> <b_lp_Chiralities_Consistent>
1

> <s_lp_Variant>
AV-unprocessed.smi:1100-4

> <Gold.Version>
5.8.1

> <Gold.Id.Protein>
6NUR|6NUR_protein|mol2

> <Gold.PLP.Fitness>
41.0282

> <Gold.PLP.PLP>
-30.7483

> <Gold.PLP.part.hbond>
-3.9398

> <Gold.PLP.part.metal>
0.0000

> <Gold.PLP.part.buried>
-2.1901

> <Gold.PLP.part.nonpolar>
-24.6244

> <Gold.PLP.part.repulsive>
0.1294

> <Gold.PLP.ligand.clash>
0.0000

> <Gold.PLP.ligand.torsion>
0.8684

> <Gold.PLP.Chemscore.Hbond>
3.9920

> <Gold.PLP.Chemscore.CHOScore>
0.0000

> <Gold.PLP.Chemscore.Metal>
0.0000

> <Gold.Chemscore.Hbonds>
donor molecule, donor type, donor heavy atom, donor atom, acceptor molecule, acceptor atom, score
      L1  H     4    28       P1  7948  1.00
      L1  H     7    29       P1  7948  0.99
      L1  H    16    44       P1 10747  1.00
      P1  H  7997  8008       L1    12  0.80

> <Gold.PLP.Chemscore.Internal.Correction>
0.0407

> <Gold.Rescore>
     Score         DG    S(hbond)    S(metal)    S(lipo)     H(rot)  DE(clash)    DE(int)     intcor
     19.75     -21.70       3.62        0.00      68.97       1.54       0.03       1.92       ----

> <Gold.Chemscore.Fitness>
19.7547

> <Gold.Chemscore.DG>
-21.7009

> <Gold.Chemscore.ZeroCoef>
-5.4800

> <Gold.Chemscore.Hbond>
3.6209

> <Gold.Chemscore.Metal>
0.0000

> <Gold.Chemscore.Lipo>
68.9656

> <Gold.Chemscore.Internal_Hbond>
0.0000

> <Gold.Chemscore.DEClash>
0.0309

> <Gold.Chemscore.DEInternal>
1.9152

> <Gold.Chemscore.Rot>
1.5398

> <Gold.Chemscore.Internal.Correction>
   9.000000E+99

> <Gold.Chemscore.Hbonds>
donor molecule, donor type, donor heavy atom, donor atom, acceptor molecule, acceptor atom, score
      L1  H     4    28       P1  7948  0.60
      L1  H     7    29       P1  7948  0.64
      L1  H    16    44       P1 10747  0.91
      P1  H  7997  8008       L1    12  0.74

> <Gold.Chemscore.Hbond.Weighted>
-12.0939

> <Gold.Chemscore.Metal.Weighted>
-0.0000

> <Gold.Chemscore.Lipo.Weighted>
-8.0690

> <Gold.Chemscore.Internal_Hbond.Weighted>
0.0000

> <Gold.Chemscore.DEClash.Weighted>
0.0309

> <Gold.Chemscore.DEInternal.Weighted>
1.9152

> <Gold.Chemscore.Rot.Weighted>
3.9420

> <Gold.Chemscore.Internal.Correction.Weighted>
   9.000000E+99

> <Gold.Protein.RotatedTorsions>
[ 6907 6896 6895 6894 ] final   81.74 input  -60.11 | X-H torsion
[ 7974 7965 7964 7962 ] final   18.62 input  175.53 | X-H torsion
[ 8008 7997 7996 7995 ] final  -58.32 input   59.86 | X-H torsion
[ 10167 10162 10161 10158 ] final  -85.16 input  -65.29 | X-H torsion
[ 10718 10713 10712 10709 ] final  165.67 input   66.30 | X-H torsion
[ 10763 10752 10751 10750 ] final -107.31 input  -60.55 | X-H torsion
[ 11005 11000 10999 10996 ] final  -40.35 input  -57.11 | X-H torsion

> <Gold.Protein.ActiveResidues>
 VAL166  LYS551  ARG553  GLY616  TRP617  ASP618  TYR619  PRO620  LYS621  CYS622 
 ASP623  PHE694  ASN695  SER759  ASP760  ASP761  ALA762  ILE779  LEU786  VAL792 
 PHE793  MET794  SER795  GLU796  ALA797  LYS798  CYS799  TRP800  GLU811  SER814 

> <Gold.Protein.RotatedAtoms>
  152.5278  134.3157  159.9129 H   0  0  0  0  0  0  0  0  0  0  0  0  # atno 6907 bound_to 6896
  151.3106  133.4076  159.2654 H   0  0  0  0  0  0  0  0  0  0  0  0  # atno 6908 bound_to 6896
  151.0042  134.9362  159.8028 H   0  0  0  0  0  0  0  0  0  0  0  0  # atno 6909 bound_to 6896
  146.2178  139.8431  142.8637 H   0  0  0  0  0  0  0  0  0  0  0  0  # atno 7974 bound_to 7965
  154.4304  140.1086  156.5939 H   0  0  0  0  0  0  0  0  0  0  0  0  # atno 8008 bound_to 7997
  155.5983  140.3493  155.4567 H   0  0  0  0  0  0  0  0  0  0  0  0  # atno 8009 bound_to 7997
  156.0193  140.1236  157.0363 H   0  0  0  0  0  0  0  0  0  0  0  0  # atno 8010 bound_to 7997
  140.4064  143.2641  151.9075 H   0  0  0  0  0  0  0  0  0  0  0  0  # atno 10167 bound_to 10162
  157.0768  131.0381  151.2590 H   0  0  0  0  0  0  0  0  0  0  0  0  # atno 10718 bound_to 10713
  154.8067  135.4680  154.0410 H   0  0  0  0  0  0  0  0  0  0  0  0  # atno 10763 bound_to 10752
  153.1873  135.6850  153.8405 H   0  0  0  0  0  0  0  0  0  0  0  0  # atno 10764 bound_to 10752
  153.7934  135.3240  155.3359 H   0  0  0  0  0  0  0  0  0  0  0  0  # atno 10765 bound_to 10752
  141.0168  133.6881  156.2309 H   0  0  0  0  0  0  0  0  0  0  0  0  # atno 11005 bound_to 11000
  145.2878  141.0158  143.3680 LP  0  0  0  0  0  0  0  0  0  0  0  0  # atno 17320 bound_to 7965
  144.9100  139.4540  143.6591 LP  0  0  0  0  0  0  0  0  0  0  0  0  # atno 17321 bound_to 7965
  139.4783  144.5581  151.8281 LP  0  0  0  0  0  0  0  0  0  0  0  0  # atno 17342 bound_to 10162
  140.4685  144.1621  150.5915 LP  0  0  0  0  0  0  0  0  0  0  0  0  # atno 17343 bound_to 10162
  157.4833  130.7778  149.7435 LP  0  0  0  0  0  0  0  0  0  0  0  0  # atno 17370 bound_to 10713
  155.9935  130.3924  150.2899 LP  0  0  0  0  0  0  0  0  0  0  0  0  # atno 17371 bound_to 10713
  140.6641  134.4937  157.5584 LP  0  0  0  0  0  0  0  0  0  0  0  0  # atno 17394 bound_to 11000
  139.9122  134.8321  156.1489 LP  0  0  0  0  0  0  0  0  0  0  0  0  # atno 17395 bound_to 11000

$$$$
