AV-unprocessed.smi:290|AV-procd|sdf|2221|dock6
  -GOLD-   2262022 63D 1   1.00000     0.00000
 Structure written by MMmdl.
 59 62  0  0  0  0  0  0  0  0  2 V2000
  152.0956  143.1035  161.2981 C   0  0  0  0  0  0  0  0  0  0  0  0
  152.4864  143.3253  159.8271 C   0  0  2  0  0  0  0  0  0  0  0  0
  152.4908  144.7198  159.5232 O   0  0  0  0  0  0  0  0  0  0  0  0
  151.5749  144.9920  158.4733 C   0  0  0  0  0  0  0  0  0  0  0  0
  151.5383  143.6988  157.6704 C   0  0  0  0  0  0  0  0  0  0  0  0
  151.6046  142.6347  158.7558 C   0  0  2  0  0  0  0  0  0  0  0  0
  150.2879  142.4186  159.2395 O   0  0  0  0  0  0  0  0  0  0  0  0
  152.1623  141.2898  158.2312 C   0  0  0  0  0  0  0  0  0  0  0  0
  151.1317  140.3728  157.7695 N   0  0  0  0  0  0  0  0  0  0  0  0
  150.5165  139.3846  158.5062 C   0  0  0  0  0  0  0  0  0  0  0  0
  149.6145  138.6904  157.8665 N   0  0  0  0  0  0  0  0  0  0  0  0
  149.6062  139.2457  156.5942 C   0  0  0  0  0  0  0  0  0  0  0  0
  148.8690  138.9840  155.4108 C   0  0  0  0  0  0  0  0  0  0  0  0
  147.9295  138.0126  155.3601 N   0  0  0  0  0  0  0  0  0  0  0  0
  148.4038  136.7064  155.7750 C   0  0  0  0  0  0  0  0  0  0  0  0
  147.3848  135.7036  155.2313 C   0  0  0  0  0  0  0  0  0  0  0  0
  146.5007  136.4830  154.2346 C   0  0  2  0  0  0  0  0  0  0  0  0
  146.2821  135.6995  152.9770 N   0  3  1  0  0  0  0  0  0  0  0  0
  145.6982  134.3657  153.2755 C   0  0  0  0  0  0  0  0  0  0  0  0
  145.5411  136.4146  151.8987 C   0  0  0  0  0  0  0  0  0  0  0  0
  145.3224  135.5782  150.6234 C   0  0  0  0  0  0  0  0  0  0  0  0
  145.1074  136.4234  149.5127 O   0  0  0  0  0  0  0  0  0  0  0  0
  147.2329  137.8392  154.0909 C   0  0  1  0  0  0  0  0  0  0  0  0
  146.3005  139.0451  153.8378 C   0  0  0  0  0  0  0  0  0  0  0  0
  149.1253  139.7496  154.3171 N   0  0  0  0  0  0  0  0  0  0  0  0
  150.0473  140.7153  154.3818 C   0  0  0  0  0  0  0  0  0  0  0  0
  150.8061  141.0772  155.4190 N   0  0  0  0  0  0  0  0  0  0  0  0
  150.5503  140.3066  156.5152 C   0  0  0  0  0  0  0  0  0  0  0  0
  145.5328  136.6702  154.7043 H   0  0  0  0  0  0  0  0  0  0  0  0
  147.9738  137.7657  153.2933 H   0  0  0  0  0  0  0  0  0  0  0  0
  152.0716  142.0430  161.5481 H   0  0  0  0  0  0  0  0  0  0  0  0
  151.1154  143.5253  161.5209 H   0  0  0  0  0  0  0  0  0  0  0  0
  152.8154  143.5822  161.9622 H   0  0  0  0  0  0  0  0  0  0  0  0
  153.5191  143.0028  159.6951 H   0  0  0  0  0  0  0  0  0  0  0  0
  150.5947  145.2102  158.8998 H   0  0  0  0  0  0  0  0  0  0  0  0
  151.8887  145.8502  157.8788 H   0  0  0  0  0  0  0  0  0  0  0  0
  150.6615  143.6178  157.0265 H   0  0  0  0  0  0  0  0  0  0  0  0
  152.4240  143.6490  157.0352 H   0  0  0  0  0  0  0  0  0  0  0  0
  149.6880  142.9251  158.7140 H   0  0  0  0  0  0  0  0  0  0  0  0
  152.8586  141.4630  157.4095 H   0  0  0  0  0  0  0  0  0  0  0  0
  152.7359  140.7899  159.0127 H   0  0  0  0  0  0  0  0  0  0  0  0
  150.7625  139.1916  159.5402 H   0  0  0  0  0  0  0  0  0  0  0  0
  149.3935  136.5020  155.3629 H   0  0  0  0  0  0  0  0  0  0  0  0
  148.4750  136.6513  156.8619 H   0  0  0  0  0  0  0  0  0  0  0  0
  147.9095  134.8704  154.7615 H   0  0  0  0  0  0  0  0  0  0  0  0
  146.7758  135.2919  156.0370 H   0  0  0  0  0  0  0  0  0  0  0  0
  144.6446  134.4537  153.5432 H   0  0  0  0  0  0  0  0  0  0  0  0
  146.2104  133.8739  154.1021 H   0  0  0  0  0  0  0  0  0  0  0  0
  145.7834  133.6910  152.4250 H   0  0  0  0  0  0  0  0  0  0  0  0
  144.5791  136.7504  152.2881 H   0  0  0  0  0  0  0  0  0  0  0  0
  146.0906  137.3024  151.5909 H   0  0  0  0  0  0  0  0  0  0  0  0
  146.1482  134.8970  150.4227 H   0  0  0  0  0  0  0  0  0  0  0  0
  144.4383  134.9519  150.7454 H   0  0  0  0  0  0  0  0  0  0  0  0
  145.4411  135.9972  148.7373 H   0  0  0  0  0  0  0  0  0  0  0  0
  145.7110  138.9474  152.9293 H   0  0  0  0  0  0  0  0  0  0  0  0
  146.8710  139.9698  153.7449 H   0  0  0  0  0  0  0  0  0  0  0  0
  145.5996  139.1769  154.6630 H   0  0  0  0  0  0  0  0  0  0  0  0
  150.1983  141.2798  153.4734 H   0  0  0  0  0  0  0  0  0  0  0  0
  147.2040  135.5305  152.5997 H   0  0  0  0  0  0  0  0  0  0  0  0
  1  2  1  0  0  0  0
  1 31  1  0  0  0  0
  1 32  1  0  0  0  0
  1 33  1  0  0  0  0
  2  6  1  0  0  0  0
  2  3  1  0  0  0  0
  2 34  1  0  0  0  0
  3  4  1  0  0  0  0
  4  5  1  0  0  0  0
  4 35  1  0  0  0  0
  4 36  1  0  0  0  0
  5  6  1  0  0  0  0
  5 37  1  0  0  0  0
  5 38  1  0  0  0  0
  6  7  1  0  0  0  0
  6  8  1  0  0  0  0
  7 39  1  0  0  0  0
  8  9  1  0  0  0  0
  8 40  1  0  0  0  0
  8 41  1  0  0  0  0
  9 28  1  0  0  0  0
  9 10  1  0  0  0  0
 10 11  2  0  0  0  0
 10 42  1  0  0  0  0
 11 12  1  0  0  0  0
 12 28  2  0  0  0  0
 12 13  1  0  0  0  0
 13 14  1  0  0  0  0
 13 25  2  0  0  0  0
 14 23  1  0  0  0  0
 14 15  1  0  0  0  0
 15 16  1  0  0  0  0
 15 43  1  0  0  0  0
 15 44  1  0  0  0  0
 16 17  1  0  0  0  0
 16 45  1  0  0  0  0
 16 46  1  0  0  0  0
 17 29  1  0  0  0  0
 17 18  1  0  0  0  0
 17 23  1  0  0  0  0
 18 19  1  0  0  0  0
 18 20  1  0  0  0  0
 18 59  1  0  0  0  0
 19 47  1  0  0  0  0
 19 48  1  0  0  0  0
 19 49  1  0  0  0  0
 20 21  1  0  0  0  0
 20 50  1  0  0  0  0
 20 51  1  0  0  0  0
 21 22  1  0  0  0  0
 21 52  1  0  0  0  0
 21 53  1  0  0  0  0
 22 54  1  0  0  0  0
 23 30  1  0  0  0  0
 23 24  1  0  0  0  0
 24 55  1  0  0  0  0
 24 56  1  0  0  0  0
 24 57  1  0  0  0  0
 25 26  1  0  0  0  0
 26 27  2  0  0  0  0
 26 58  1  0  0  0  0
 27 28  1  0  0  0  0
M  CHG  1  18   1
M  END
> <s_m_source_file>
AV-unprocessed.smi

> <i_m_source_file_index>
290

> <i_lp_mmshare_version>
43012

> <i_f3d_flags>
0

> <s_epik_input>
W0NIMl0xW0NIMl1PW0NAQEhdKFtDSDNdKVtDQEBdMShbT0hdKVtDSDJdbihbY0hdbjIpYyhjMjMpbltjSF1uYzNONFtDSDJdW0NIMl1bQ0BIXShbQ0BIXTRbQ0gzXSlOKFtDSDNdKVtDSDJdW0NIMl1bT0hd

> <s_epik_cmdline>
J2VwaWtfcHl0aG9uJywgJy1waCcsICc3LjAnLCAnLXRuJywgJzgnLCAnLW1hJywgJzIwMCcsICctbWV0YWxfYmluZGluZycsICctaW1hZScsICc8aW5maWxlLm1hZT4nLCAnLW9tYWUnLCAnPG91dGZpbGUubWFlPic=

> <r_lp_tautomer_probability>
1

> <r_epik_Ionization_Penalty>
0.0036983

> <r_epik_Ionization_Penalty_Charging>
0.0032725

> <r_epik_Ionization_Penalty_Neutral>
0.000425798

> <r_epik_State_Penalty>
-0

> <r_epik_Charging_Adjusted_Penalty>
0.0032725

> <i_epik_Tot_Q>
1

> <i_epik_Tot_abs_Q>
1

> <r_epik_Metal_State_Penalty>
-0

> <b_epik_Metal_Only>
0

> <s_lp_Force_Field>
OPLS_2005

> <r_lp_Energy>
65.2566

> <b_lp_Chiralities_Consistent>
1

> <s_lp_Variant>
AV-unprocessed.smi:290-7

> <Gold.Version>
5.8.1

> <Gold.Id.Protein>
6NUR|6NUR_protein|mol2

> <Gold.PLP.Fitness>
46.5723

> <Gold.PLP.PLP>
-38.1098

> <Gold.PLP.part.hbond>
-5.0000

> <Gold.PLP.part.metal>
0.0000

> <Gold.PLP.part.buried>
-1.9958

> <Gold.PLP.part.nonpolar>
-30.2320

> <Gold.PLP.part.repulsive>
0.2740

> <Gold.PLP.ligand.clash>
0.0000

> <Gold.PLP.ligand.torsion>
1.1482

> <Gold.PLP.Chemscore.Hbond>
3.0000

> <Gold.PLP.Chemscore.CHOScore>
0.4963

> <Gold.PLP.Chemscore.Metal>
0.0000

> <Gold.Chemscore.Hbonds>
donor molecule, donor type, donor heavy atom, donor atom, acceptor molecule, acceptor atom, score
      L1  H    18    59       P1  7948  2.00
      L1  H    22    54       P1  7921  1.00
      L1  C    26    58       P1  7957  0.48

> <Gold.PLP.Chemscore.Internal.Correction>
0.2698

> <Gold.Rescore>
     Score         DG    S(hbond)    S(metal)    S(lipo)     H(rot)  DE(clash)    DE(int)     intcor
     10.13     -13.85       1.98        0.00      95.16       3.67       1.45       2.27       ----

> <Gold.Chemscore.Fitness>
10.1251

> <Gold.Chemscore.DG>
-13.8514

> <Gold.Chemscore.ZeroCoef>
-5.4800

> <Gold.Chemscore.Hbond>
1.9827

> <Gold.Chemscore.Metal>
0.0000

> <Gold.Chemscore.Lipo>
95.1599

> <Gold.Chemscore.Internal_Hbond>
0.0000

> <Gold.Chemscore.DEClash>
1.4521

> <Gold.Chemscore.DEInternal>
2.2742

> <Gold.Chemscore.Rot>
3.6658

> <Gold.Chemscore.Internal.Correction>
   9.000000E+99

> <Gold.Chemscore.Hbonds>
donor molecule, donor type, donor heavy atom, donor atom, acceptor molecule, acceptor atom, score
      L1  H    18    59       P1  7948  0.92
      L1  H    22    54       P1  7921  1.00

> <Gold.Chemscore.Hbond.Weighted>
-6.6221

> <Gold.Chemscore.Metal.Weighted>
-0.0000

> <Gold.Chemscore.Lipo.Weighted>
-11.1337

> <Gold.Chemscore.Internal_Hbond.Weighted>
0.0000

> <Gold.Chemscore.DEClash.Weighted>
1.4521

> <Gold.Chemscore.DEInternal.Weighted>
2.2742

> <Gold.Chemscore.Rot.Weighted>
9.3844

> <Gold.Chemscore.Internal.Correction.Weighted>
   9.000000E+99

> <Gold.Protein.RotatedTorsions>
[ 6907 6896 6895 6894 ] final -148.17 input  -60.11 | X-H torsion
[ 7974 7965 7964 7962 ] final -114.52 input  175.53 | X-H torsion
[ 8008 7997 7996 7995 ] final -129.99 input   59.86 | X-H torsion
[ 10167 10162 10161 10158 ] final  145.15 input  -65.29 | X-H torsion
[ 10718 10713 10712 10709 ] final -119.02 input   66.30 | X-H torsion
[ 10763 10752 10751 10750 ] final -103.32 input  -60.55 | X-H torsion
[ 11005 11000 10999 10996 ] final   -8.33 input  -57.11 | X-H torsion

> <Gold.Protein.ActiveResidues>
 VAL166  LYS551  ARG553  GLY616  TRP617  ASP618  TYR619  PRO620  LYS621  CYS622 
 ASP623  PHE694  ASN695  SER759  ASP760  ASP761  ALA762  ILE779  LEU786  VAL792 
 PHE793  MET794  SER795  GLU796  ALA797  LYS798  CYS799  TRP800  GLU811  SER814 

> <Gold.Protein.RotatedAtoms>
  151.1660  133.4814  159.2593 H   0  0  0  0  0  0  0  0  0  0  0  0  # atno 6907 bound_to 6896
  151.1405  135.0177  159.8633 H   0  0  0  0  0  0  0  0  0  0  0  0  # atno 6908 bound_to 6896
  152.5462  134.1554  159.8589 H   0  0  0  0  0  0  0  0  0  0  0  0  # atno 6909 bound_to 6896
  145.1192  140.8659  143.3824 H   0  0  0  0  0  0  0  0  0  0  0  0  # atno 7974 bound_to 7965
  155.2883  140.0447  157.3021 H   0  0  0  0  0  0  0  0  0  0  0  0  # atno 8008 bound_to 7997
  154.5556  140.2331  155.8383 H   0  0  0  0  0  0  0  0  0  0  0  0  # atno 8009 bound_to 7997
  156.2004  140.3027  155.9523 H   0  0  0  0  0  0  0  0  0  0  0  0  # atno 8010 bound_to 7997
  139.4932  144.5922  151.6658 H   0  0  0  0  0  0  0  0  0  0  0  0  # atno 10167 bound_to 10162
  156.1149  130.6278  150.9364 H   0  0  0  0  0  0  0  0  0  0  0  0  # atno 10718 bound_to 10713
  154.7798  135.4828  153.9821 H   0  0  0  0  0  0  0  0  0  0  0  0  # atno 10763 bound_to 10752
  153.1478  135.6785  153.8935 H   0  0  0  0  0  0  0  0  0  0  0  0  # atno 10764 bound_to 10752
  153.8588  135.3158  155.3415 H   0  0  0  0  0  0  0  0  0  0  0  0  # atno 10765 bound_to 10752
  140.7223  133.8818  155.8830 H   0  0  0  0  0  0  0  0  0  0  0  0  # atno 11005 bound_to 11000
  145.0759  139.2996  143.5808 LP  0  0  0  0  0  0  0  0  0  0  0  0  # atno 17320 bound_to 7965
  146.3522  140.0250  142.8655 LP  0  0  0  0  0  0  0  0  0  0  0  0  # atno 17321 bound_to 7965
  140.5551  144.0361  150.6144 LP  0  0  0  0  0  0  0  0  0  0  0  0  # atno 17342 bound_to 10162
  140.3428  143.3009  152.0570 LP  0  0  0  0  0  0  0  0  0  0  0  0  # atno 17343 bound_to 10162
  157.6332  131.0919  150.8399 LP  0  0  0  0  0  0  0  0  0  0  0  0  # atno 17370 bound_to 10713
  156.8504  130.5078  149.5312 LP  0  0  0  0  0  0  0  0  0  0  0  0  # atno 17371 bound_to 10713
  140.9992  134.1173  157.4333 LP  0  0  0  0  0  0  0  0  0  0  0  0  # atno 17394 bound_to 11000
  139.8845  135.0063  156.6374 LP  0  0  0  0  0  0  0  0  0  0  0  0  # atno 17395 bound_to 11000

$$$$
