AV-unprocessed.smi:465|AV-procd|sdf|2639|dock2
  -GOLD-   2262023 43D 1   1.00000     0.00000
 Structure written by MMmdl.
 42 44  0  0  0  0  0  0  0  0  1 V2000
  153.9828  142.9326  163.3377 C   0  0  0  0  0  0  0  0  0  0  0  0
  153.4751  142.6095  161.9476 C   0  0  0  0  0  0  0  0  0  0  0  0
  152.5140  143.4328  161.3287 C   0  0  0  0  0  0  0  0  0  0  0  0
  152.0508  143.1271  160.0345 C   0  0  0  0  0  0  0  0  0  0  0  0
  152.5380  142.0014  159.3390 C   0  0  0  0  0  0  0  0  0  0  0  0
  152.0335  141.7794  158.0755 O   0  0  0  0  0  0  0  0  0  0  0  0
  150.7144  142.2240  157.7921 C   0  0  0  0  0  0  0  0  0  0  0  0
  150.5976  142.4882  156.2864 C   0  0  0  0  0  0  0  0  0  0  0  0
  150.1693  141.2977  155.5683 N   0  0  0  0  0  0  0  0  0  0  0  0
  148.9456  141.0137  155.0528 C   0  0  0  0  0  0  0  0  0  0  0  0
  147.7836  141.9597  155.1481 C   0  0  0  0  0  0  0  0  0  0  0  0
  146.9591  142.0421  153.8534 C   0  0  0  0  0  0  0  0  0  0  0  0
  146.3739  140.7943  153.5463 O   0  0  0  0  0  0  0  0  0  0  0  0
  148.8349  139.8322  154.4437 N   0  0  0  0  0  0  0  0  0  0  0  0
  150.1011  139.2979  154.5806 C   0  0  0  0  0  0  0  0  0  0  0  0
  150.6273  138.0596  154.1475 C   0  0  0  0  0  0  0  0  0  0  0  0
  151.9719  137.7247  154.4097 C   0  0  0  0  0  0  0  0  0  0  0  0
  152.8076  138.6207  155.1073 C   0  0  0  0  0  0  0  0  0  0  0  0
  152.3033  139.8598  155.5471 C   0  0  0  0  0  0  0  0  0  0  0  0
  150.9606  140.1898  155.2817 C   0  0  0  0  0  0  0  0  0  0  0  0
  153.5039  141.1763  159.9688 C   0  0  0  0  0  0  0  0  0  0  0  0
  153.9678  141.4814  161.2632 C   0  0  0  0  0  0  0  0  0  0  0  0
  153.3582  143.6829  163.8234 H   0  0  0  0  0  0  0  0  0  0  0  0
  155.0016  143.3168  163.2855 H   0  0  0  0  0  0  0  0  0  0  0  0
  153.9842  142.0379  163.9608 H   0  0  0  0  0  0  0  0  0  0  0  0
  152.1290  144.3018  161.8419 H   0  0  0  0  0  0  0  0  0  0  0  0
  151.3142  143.7654  159.5690 H   0  0  0  0  0  0  0  0  0  0  0  0
  149.9888  141.4642  158.0872 H   0  0  0  0  0  0  0  0  0  0  0  0
  150.4976  143.1372  158.3484 H   0  0  0  0  0  0  0  0  0  0  0  0
  149.9045  143.3052  156.0899 H   0  0  0  0  0  0  0  0  0  0  0  0
  151.5613  142.8060  155.8876 H   0  0  0  0  0  0  0  0  0  0  0  0
  147.1372  141.6032  155.9509 H   0  0  0  0  0  0  0  0  0  0  0  0
  148.1133  142.9501  155.4611 H   0  0  0  0  0  0  0  0  0  0  0  0
  146.1867  142.8085  153.9270 H   0  0  0  0  0  0  0  0  0  0  0  0
  147.6074  142.3187  153.0216 H   0  0  0  0  0  0  0  0  0  0  0  0
  145.4423  140.9153  153.4436 H   0  0  0  0  0  0  0  0  0  0  0  0
  149.9948  137.3657  153.6137 H   0  0  0  0  0  0  0  0  0  0  0  0
  152.3637  136.7756  154.0746 H   0  0  0  0  0  0  0  0  0  0  0  0
  153.8362  138.3559  155.3048 H   0  0  0  0  0  0  0  0  0  0  0  0
  152.9407  140.5476  156.0827 H   0  0  0  0  0  0  0  0  0  0  0  0
  153.9064  140.3025  159.4796 H   0  0  0  0  0  0  0  0  0  0  0  0
  154.7058  140.8454  161.7298 H   0  0  0  0  0  0  0  0  0  0  0  0
  1  2  1  0  0  0  0
  1 23  1  0  0  0  0
  1 24  1  0  0  0  0
  1 25  1  0  0  0  0
  2 22  1  0  0  0  0
  2  3  2  0  0  0  0
  3  4  1  0  0  0  0
  3 26  1  0  0  0  0
  4  5  2  0  0  0  0
  4 27  1  0  0  0  0
  5  6  1  0  0  0  0
  5 21  1  0  0  0  0
  6  7  1  0  0  0  0
  7  8  1  0  0  0  0
  7 28  1  0  0  0  0
  7 29  1  0  0  0  0
  8  9  1  0  0  0  0
  8 30  1  0  0  0  0
  8 31  1  0  0  0  0
  9 20  1  0  0  0  0
  9 10  1  0  0  0  0
 10 11  1  0  0  0  0
 10 14  2  0  0  0  0
 11 12  1  0  0  0  0
 11 32  1  0  0  0  0
 11 33  1  0  0  0  0
 12 13  1  0  0  0  0
 12 34  1  0  0  0  0
 12 35  1  0  0  0  0
 13 36  1  0  0  0  0
 14 15  1  0  0  0  0
 15 20  2  0  0  0  0
 15 16  1  0  0  0  0
 16 17  2  0  0  0  0
 16 37  1  0  0  0  0
 17 18  1  0  0  0  0
 17 38  1  0  0  0  0
 18 19  2  0  0  0  0
 18 39  1  0  0  0  0
 19 20  1  0  0  0  0
 19 40  1  0  0  0  0
 21 22  2  0  0  0  0
 21 41  1  0  0  0  0
 22 42  1  0  0  0  0
M  END
> <s_m_source_file>
AV-unprocessed.smi

> <i_m_source_file_index>
465

> <i_lp_mmshare_version>
43012

> <i_f3d_flags>
0

> <s_epik_input>
W0NIM11jMVtjSF1bY0hdYyhbY0hdW2NIXTEpT1tDSDJdW0NIMl1uKGMobjIpW0NIMl1bQ0gyXVtPSF0pYyhjMjMpW2NIXVtjSF1bY0hdW2NIXTM=

> <s_epik_cmdline>
J2VwaWtfcHl0aG9uJywgJy1waCcsICc3LjAnLCAnLXRuJywgJzgnLCAnLW1hJywgJzIwMCcsICctbWV0YWxfYmluZGluZycsICctaW1hZScsICc8aW5maWxlLm1hZT4nLCAnLW9tYWUnLCAnPG91dGZpbGUubWFlPic=

> <r_lp_tautomer_probability>
1

> <r_epik_Ionization_Penalty>
0.207749

> <r_epik_Ionization_Penalty_Charging>
0

> <r_epik_Ionization_Penalty_Neutral>
0.207749

> <r_epik_State_Penalty>
0.197758

> <r_epik_Charging_Adjusted_Penalty>
0.197758

> <i_epik_Tot_Q>
0

> <i_epik_Tot_abs_Q>
0

> <r_epik_Metal_State_Penalty>
0.000234715

> <b_epik_Metal_Only>
0

> <s_lp_Force_Field>
OPLS_2005

> <r_lp_Energy>
16.7212

> <b_lp_Chiralities_Consistent>
1

> <s_lp_Variant>
AV-unprocessed.smi:465-1

> <Gold.Version>
5.8.1

> <Gold.Id.Protein>
6NUR|6NUR_protein|mol2

> <Gold.PLP.Fitness>
55.9111

> <Gold.PLP.PLP>
-55.1934

> <Gold.PLP.part.hbond>
-1.0000

> <Gold.PLP.part.metal>
0.0000

> <Gold.PLP.part.buried>
0.9524

> <Gold.PLP.part.nonpolar>
-53.4697

> <Gold.PLP.part.repulsive>
0.1199

> <Gold.PLP.ligand.clash>
0.0000

> <Gold.PLP.ligand.torsion>
1.1671

> <Gold.PLP.Chemscore.Hbond>
1.0000

> <Gold.PLP.Chemscore.CHOScore>
0.0000

> <Gold.PLP.Chemscore.Metal>
0.0000

> <Gold.Chemscore.Hbonds>
donor molecule, donor type, donor heavy atom, donor atom, acceptor molecule, acceptor atom, score
      L1  H    13    36       P1 10175  0.96

> <Gold.PLP.Chemscore.Internal.Correction>
0.0519

> <Gold.Rescore>
     Score         DG    S(hbond)    S(metal)    S(lipo)     H(rot)  DE(clash)    DE(int)     intcor
     15.98     -19.54       0.98        0.00     142.21       2.28       1.23       2.33       ----

> <Gold.Chemscore.Fitness>
15.9774

> <Gold.Chemscore.DG>
-19.5355

> <Gold.Chemscore.ZeroCoef>
-5.4800

> <Gold.Chemscore.Hbond>
0.9756

> <Gold.Chemscore.Metal>
0.0000

> <Gold.Chemscore.Lipo>
142.2130

> <Gold.Chemscore.Internal_Hbond>
0.0000

> <Gold.Chemscore.DEClash>
1.2268

> <Gold.Chemscore.DEInternal>
2.3313

> <Gold.Chemscore.Rot>
2.2821

> <Gold.Chemscore.Internal.Correction>
   9.000000E+99

> <Gold.Chemscore.Hbonds>
donor molecule, donor type, donor heavy atom, donor atom, acceptor molecule, acceptor atom, score
      L1  H    13    36       P1 10175  0.61

> <Gold.Chemscore.Hbond.Weighted>
-3.2586

> <Gold.Chemscore.Metal.Weighted>
-0.0000

> <Gold.Chemscore.Lipo.Weighted>
-16.6389

> <Gold.Chemscore.Internal_Hbond.Weighted>
0.0000

> <Gold.Chemscore.DEClash.Weighted>
1.2268

> <Gold.Chemscore.DEInternal.Weighted>
2.3313

> <Gold.Chemscore.Rot.Weighted>
5.8421

> <Gold.Chemscore.Internal.Correction.Weighted>
   9.000000E+99

> <Gold.Protein.RotatedTorsions>
[ 6907 6896 6895 6894 ] final   -3.35 input  -60.11 | X-H torsion
[ 7974 7965 7964 7962 ] final -124.26 input  175.53 | X-H torsion
[ 8008 7997 7996 7995 ] final   -0.30 input   59.86 | X-H torsion
[ 10167 10162 10161 10158 ] final  -90.12 input  -65.29 | X-H torsion
[ 10718 10713 10712 10709 ] final   -1.78 input   66.30 | X-H torsion
[ 10763 10752 10751 10750 ] final -110.22 input  -60.55 | X-H torsion
[ 11005 11000 10999 10996 ] final -166.66 input  -57.11 | X-H torsion

> <Gold.Protein.ActiveResidues>
 VAL166  LYS551  ARG553  GLY616  TRP617  ASP618  TYR619  PRO620  LYS621  CYS622 
 ASP623  PHE694  ASN695  SER759  ASP760  ASP761  ALA762  ILE779  LEU786  VAL792 
 PHE793  MET794  SER795  GLU796  ALA797  LYS798  CYS799  TRP800  GLU811  SER814 

> <Gold.Protein.RotatedAtoms>
  151.5153  135.1066  159.9864 H   0  0  0  0  0  0  0  0  0  0  0  0  # atno 6907 bound_to 6896
  152.4644  133.7887  159.6901 H   0  0  0  0  0  0  0  0  0  0  0  0  # atno 6908 bound_to 6896
  150.8621  133.7564  159.3014 H   0  0  0  0  0  0  0  0  0  0  0  0  # atno 6909 bound_to 6896
  145.0099  140.7897  143.4444 H   0  0  0  0  0  0  0  0  0  0  0  0  # atno 7974 bound_to 7965
  154.6597  140.2587  155.7122 H   0  0  0  0  0  0  0  0  0  0  0  0  # atno 8008 bound_to 7997
  156.2613  140.2851  156.0985 H   0  0  0  0  0  0  0  0  0  0  0  0  # atno 8009 bound_to 7997
  155.1327  140.0379  157.2769 H   0  0  0  0  0  0  0  0  0  0  0  0  # atno 8010 bound_to 7997
  140.3581  143.2856  151.9647 H   0  0  0  0  0  0  0  0  0  0  0  0  # atno 10167 bound_to 10162
  156.8005  130.5391  149.5722 H   0  0  0  0  0  0  0  0  0  0  0  0  # atno 10718 bound_to 10713
  154.8236  135.4572  154.0852 H   0  0  0  0  0  0  0  0  0  0  0  0  # atno 10763 bound_to 10752
  153.2185  135.6891  153.8035 H   0  0  0  0  0  0  0  0  0  0  0  0  # atno 10764 bound_to 10752
  153.7460  135.3305  155.3289 H   0  0  0  0  0  0  0  0  0  0  0  0  # atno 10765 bound_to 10752
  140.5620  134.5324  157.5145 H   0  0  0  0  0  0  0  0  0  0  0  0  # atno 11005 bound_to 11000
  145.2037  139.2239  143.5179 LP  0  0  0  0  0  0  0  0  0  0  0  0  # atno 17320 bound_to 7965
  146.3468  140.1860  142.8589 LP  0  0  0  0  0  0  0  0  0  0  0  0  # atno 17321 bound_to 7965
  139.4817  144.6017  151.7594 LP  0  0  0  0  0  0  0  0  0  0  0  0  # atno 17342 bound_to 10162
  140.5154  144.0961  150.6007 LP  0  0  0  0  0  0  0  0  0  0  0  0  # atno 17343 bound_to 10162
  156.1104  130.6036  151.0038 LP  0  0  0  0  0  0  0  0  0  0  0  0  # atno 17370 bound_to 10713
  157.6556  131.0890  150.7955 LP  0  0  0  0  0  0  0  0  0  0  0  0  # atno 17371 bound_to 10713
  139.9403  134.7799  156.0695 LP  0  0  0  0  0  0  0  0  0  0  0  0  # atno 17394 bound_to 11000
  141.1109  133.6643  156.2976 LP  0  0  0  0  0  0  0  0  0  0  0  0  # atno 17395 bound_to 11000

$$$$
