AV-unprocessed.smi:1838|AV-procd|sdf|7482|dock1
  -GOLD-   22720 9183D 1   1.00000     0.00000
 Structure written by MMmdl.
 35 36  0  0  0  0  0  0  0  0  1 V2000
  151.8003  138.4277  154.5673 C   0  0  0  0  0  0  0  0  0  0  0  0
  150.4586  138.2709  154.1186 O   0  0  0  0  0  0  0  0  0  0  0  0
  149.6023  139.3519  154.2082 C   0  0  0  0  0  0  0  0  0  0  0  0
  150.0895  140.5226  154.6912 N   0  0  0  0  0  0  0  0  0  0  0  0
  149.2565  141.5802  154.7743 C   0  0  0  0  0  0  0  0  0  0  0  0
  147.9076  141.5314  154.3779 C   0  0  0  0  0  0  0  0  0  0  0  0
  147.3998  140.3183  153.8773 C   0  0  0  0  0  0  0  0  0  0  0  0
  148.2576  139.1945  153.7982 C   0  0  0  0  0  0  0  0  0  0  0  0
  147.8532  137.9290  153.2905 N   0  0  0  0  0  0  0  0  0  0  0  0
  146.6869  137.2873  153.4719 C   0  0  0  0  0  0  0  0  0  0  0  0
  145.7470  137.6966  154.1533 O   0  0  0  0  0  0  0  0  0  0  0  0
  146.6766  136.1126  152.8264 N   0  0  0  0  0  0  0  0  0  0  0  0
  145.5611  135.1688  152.8003 C   0  0  2  0  0  0  0  0  0  0  0  0
  146.0014  133.8112  152.2197 C   0  0  0  0  0  0  0  0  0  0  0  0
  144.7867  132.9031  152.0089 C   0  0  0  0  0  0  0  0  0  0  0  0
  143.7671  133.5775  151.0763 C   0  0  0  0  0  0  0  0  0  0  0  0
  143.5137  134.9788  151.4142 N   0  0  0  0  0  0  0  0  0  0  0  0
  144.3196  135.7836  152.1291 C   0  0  0  0  0  0  0  0  0  0  0  0
  144.0592  136.9760  152.2834 O   0  0  0  0  0  0  0  0  0  0  0  0
  152.3376  137.4891  154.4319 H   0  0  0  0  0  0  0  0  0  0  0  0
  151.8400  138.6807  155.6280 H   0  0  0  0  0  0  0  0  0  0  0  0
  152.3254  139.1945  153.9959 H   0  0  0  0  0  0  0  0  0  0  0  0
  149.6798  142.4947  155.1623 H   0  0  0  0  0  0  0  0  0  0  0  0
  147.2779  142.4057  154.4510 H   0  0  0  0  0  0  0  0  0  0  0  0
  146.3719  140.2800  153.5518 H   0  0  0  0  0  0  0  0  0  0  0  0
  148.5622  137.4251  152.7777 H   0  0  0  0  0  0  0  0  0  0  0  0
  147.4932  135.8580  152.2901 H   0  0  0  0  0  0  0  0  0  0  0  0
  145.2465  134.9937  153.8311 H   0  0  0  0  0  0  0  0  0  0  0  0
  146.5149  133.9591  151.2682 H   0  0  0  0  0  0  0  0  0  0  0  0
  146.7147  133.3268  152.8876 H   0  0  0  0  0  0  0  0  0  0  0  0
  145.0957  131.9419  151.5971 H   0  0  0  0  0  0  0  0  0  0  0  0
  144.3200  132.6932  152.9723 H   0  0  0  0  0  0  0  0  0  0  0  0
  144.1334  133.5458  150.0496 H   0  0  0  0  0  0  0  0  0  0  0  0
  142.8245  133.0295  151.0894 H   0  0  0  0  0  0  0  0  0  0  0  0
  142.6832  135.3930  151.0159 H   0  0  0  0  0  0  0  0  0  0  0  0
  1  2  1  0  0  0  0
  1 20  1  0  0  0  0
  1 21  1  0  0  0  0
  1 22  1  0  0  0  0
  2  3  1  0  0  0  0
  3  8  1  0  0  0  0
  3  4  2  0  0  0  0
  4  5  1  0  0  0  0
  5  6  2  0  0  0  0
  5 23  1  0  0  0  0
  6  7  1  0  0  0  0
  6 24  1  0  0  0  0
  7  8  2  0  0  0  0
  7 25  1  0  0  0  0
  8  9  1  0  0  0  0
  9 10  1  0  0  0  0
  9 26  1  0  0  0  0
 10 11  2  0  0  0  0
 10 12  1  0  0  0  0
 12 13  1  0  0  0  0
 12 27  1  0  0  0  0
 13 18  1  0  0  0  0
 13 14  1  0  0  0  0
 13 28  1  0  0  0  0
 14 15  1  0  0  0  0
 14 29  1  0  0  0  0
 14 30  1  0  0  0  0
 15 16  1  0  0  0  0
 15 31  1  0  0  0  0
 15 32  1  0  0  0  0
 16 17  1  0  0  0  0
 16 33  1  0  0  0  0
 16 34  1  0  0  0  0
 17 18  1  0  0  0  0
 17 35  1  0  0  0  0
 18 19  2  0  0  0  0
M  END
> <s_m_source_file>
AV-unprocessed.smi

> <i_m_source_file_index>
1838

> <i_lp_mmshare_version>
43012

> <i_f3d_flags>
0

> <s_epik_input>
W0NIM11PYzFuW2NIXVtjSF1bY0hdYzFbTkhdQyg9TylbTkhdW0NAQEhdMltDSDJdW0NIMl1bQ0gyXVtOSF1DMj1P

> <s_epik_cmdline>
J2VwaWtfcHl0aG9uJywgJy1waCcsICc3LjAnLCAnLXRuJywgJzgnLCAnLW1hJywgJzIwMCcsICctbWV0YWxfYmluZGluZycsICctaW1hZScsICc8aW5maWxlLm1hZT4nLCAnLW9tYWUnLCAnPG91dGZpbGUubWFlPic=

> <r_lp_tautomer_probability>
1

> <r_epik_Ionization_Penalty>
8.30645e-05

> <r_epik_Ionization_Penalty_Charging>
0

> <r_epik_Ionization_Penalty_Neutral>
8.30645e-05

> <r_epik_State_Penalty>
-0

> <r_epik_Charging_Adjusted_Penalty>
0

> <i_epik_Tot_Q>
0

> <i_epik_Tot_abs_Q>
0

> <r_epik_Metal_State_Penalty>
-0

> <b_epik_Metal_Only>
0

> <s_lp_Force_Field>
OPLS_2005

> <r_lp_Energy>
11.8898

> <b_lp_Chiralities_Consistent>
1

> <s_lp_Variant>
AV-unprocessed.smi:1838-1

> <Gold.Version>
5.8.1

> <Gold.Id.Protein>
6NUR|6NUR_protein|mol2

> <Gold.PLP.Fitness>
38.3851

> <Gold.PLP.PLP>
-27.3998

> <Gold.PLP.part.hbond>
-3.0367

> <Gold.PLP.part.metal>
0.0000

> <Gold.PLP.part.buried>
-2.8966

> <Gold.PLP.part.nonpolar>
-22.6307

> <Gold.PLP.part.repulsive>
1.5836

> <Gold.PLP.ligand.clash>
0.0000

> <Gold.PLP.ligand.torsion>
0.3645

> <Gold.PLP.Chemscore.Hbond>
2.8901

> <Gold.PLP.Chemscore.CHOScore>
1.0000

> <Gold.PLP.Chemscore.Metal>
0.0000

> <Gold.Chemscore.Hbonds>
donor molecule, donor type, donor heavy atom, donor atom, acceptor molecule, acceptor atom, score
      L1  H     9    26       P1  7948  1.00
      L1  H    12    27       P1  7948  0.98
      P1  H  7989  7998       L1     4  0.91
      L1  C     5    23       P1  8028  1.00

> <Gold.PLP.Chemscore.Internal.Correction>
0.0439

> <Gold.Rescore>
     Score         DG    S(hbond)    S(metal)    S(lipo)     H(rot)  DE(clash)    DE(int)     intcor
     12.05     -15.65       2.19        0.00      53.54       1.33       0.37       3.22       ----

> <Gold.Chemscore.Fitness>
12.0532

> <Gold.Chemscore.DG>
-15.6482

> <Gold.Chemscore.ZeroCoef>
-5.4800

> <Gold.Chemscore.Hbond>
2.1877

> <Gold.Chemscore.Metal>
0.0000

> <Gold.Chemscore.Lipo>
53.5383

> <Gold.Chemscore.Internal_Hbond>
0.0000

> <Gold.Chemscore.DEClash>
0.3728

> <Gold.Chemscore.DEInternal>
3.2223

> <Gold.Chemscore.Rot>
1.3292

> <Gold.Chemscore.Internal.Correction>
   9.000000E+99

> <Gold.Chemscore.Hbonds>
donor molecule, donor type, donor heavy atom, donor atom, acceptor molecule, acceptor atom, score
      L1  H     9    26       P1  7948  0.89
      L1  H    12    27       P1  7948  0.89
      P1  H  7989  7998       L1     4  0.28

> <Gold.Chemscore.Hbond.Weighted>
-7.3069

> <Gold.Chemscore.Metal.Weighted>
-0.0000

> <Gold.Chemscore.Lipo.Weighted>
-6.2640

> <Gold.Chemscore.Internal_Hbond.Weighted>
0.0000

> <Gold.Chemscore.DEClash.Weighted>
0.3728

> <Gold.Chemscore.DEInternal.Weighted>
3.2223

> <Gold.Chemscore.Rot.Weighted>
3.4027

> <Gold.Chemscore.Internal.Correction.Weighted>
   9.000000E+99

> <Gold.Protein.RotatedTorsions>
[ 6907 6896 6895 6894 ] final -101.36 input  -60.11 | X-H torsion
[ 7974 7965 7964 7962 ] final -103.15 input  175.53 | X-H torsion
[ 8008 7997 7996 7995 ] final  -26.59 input   59.86 | X-H torsion
[ 10167 10162 10161 10158 ] final  -98.60 input  -65.29 | X-H torsion
[ 10718 10713 10712 10709 ] final   71.57 input   66.30 | X-H torsion
[ 10763 10752 10751 10750 ] final   75.25 input  -60.55 | X-H torsion
[ 11005 11000 10999 10996 ] final -160.87 input  -57.11 | X-H torsion

> <Gold.Protein.ActiveResidues>
 VAL166  LYS551  ARG553  GLY616  TRP617  ASP618  TYR619  PRO620  LYS621  CYS622 
 ASP623  PHE694  ASN695  SER759  ASP760  ASP761  ALA762  ILE779  LEU786  VAL792 
 PHE793  MET794  SER795  GLU796  ALA797  LYS798  CYS799  TRP800  GLU811  SER814 

> <Gold.Protein.RotatedAtoms>
  150.7151  134.0746  159.3876 H   0  0  0  0  0  0  0  0  0  0  0  0  # atno 6907 bound_to 6896
  151.8729  135.0480  160.0490 H   0  0  0  0  0  0  0  0  0  0  0  0  # atno 6908 bound_to 6896
  152.2629  133.5278  159.5429 H   0  0  0  0  0  0  0  0  0  0  0  0  # atno 6909 bound_to 6896
  145.2596  140.9265  143.3048 H   0  0  0  0  0  0  0  0  0  0  0  0  # atno 7974 bound_to 7965
  154.4418  140.1895  156.0799 H   0  0  0  0  0  0  0  0  0  0  0  0  # atno 8008 bound_to 7997
  156.0447  140.3315  155.7256 H   0  0  0  0  0  0  0  0  0  0  0  0  # atno 8009 bound_to 7997
  155.5647  140.0607  157.2811 H   0  0  0  0  0  0  0  0  0  0  0  0  # atno 8010 bound_to 7997
  140.2713  143.3342  152.0532 H   0  0  0  0  0  0  0  0  0  0  0  0  # atno 10167 bound_to 10162
  157.6458  130.9535  150.0807 H   0  0  0  0  0  0  0  0  0  0  0  0  # atno 10718 bound_to 10713
  153.0642  135.4995  154.8161 H   0  0  0  0  0  0  0  0  0  0  0  0  # atno 10763 bound_to 10752
  154.6928  135.2987  154.9457 H   0  0  0  0  0  0  0  0  0  0  0  0  # atno 10764 bound_to 10752
  154.0206  135.6742  153.4825 H   0  0  0  0  0  0  0  0  0  0  0  0  # atno 10765 bound_to 10752
  140.6267  134.4694  157.5227 H   0  0  0  0  0  0  0  0  0  0  0  0  # atno 11005 bound_to 11000
  144.9430  139.4168  143.6440 LP  0  0  0  0  0  0  0  0  0  0  0  0  # atno 17320 bound_to 7965
  146.3279  139.8399  142.8892 LP  0  0  0  0  0  0  0  0  0  0  0  0  # atno 17321 bound_to 7965
  139.4988  144.6654  151.6367 LP  0  0  0  0  0  0  0  0  0  0  0  0  # atno 17342 bound_to 10162
  140.5887  143.9817  150.6311 LP  0  0  0  0  0  0  0  0  0  0  0  0  # atno 17343 bound_to 10162
  156.1784  130.3649  149.9069 LP  0  0  0  0  0  0  0  0  0  0  0  0  # atno 17370 bound_to 10713
  156.7027  130.8939  151.3601 LP  0  0  0  0  0  0  0  0  0  0  0  0  # atno 17371 bound_to 10713
  139.9132  134.8301  156.1456 LP  0  0  0  0  0  0  0  0  0  0  0  0  # atno 17394 bound_to 11000
  141.0704  133.6799  156.2129 LP  0  0  0  0  0  0  0  0  0  0  0  0  # atno 17395 bound_to 11000

$$$$
