AV-unprocessed.smi:568|AV-procd|sdf|2957|dock2
  -GOLD-   2262023463D 1   1.00000     0.00000
 Structure written by MMmdl.
 35 36  0  0  0  0  0  0  0  0  1 V2000
  150.1211  135.4119  156.5820 C   0  0  0  0  0  0  0  0  0  0  0  0
  150.1489  133.9192  156.4197 C   0  0  0  0  0  0  0  0  0  0  0  0
  150.5574  133.1642  157.4255 N   0  0  0  0  0  0  0  0  0  0  0  0
  150.4692  131.8440  156.9743 O   0  0  0  0  0  0  0  0  0  0  0  0
  150.0041  131.8554  155.6995 C   0  0  0  0  0  0  0  0  0  0  0  0
  149.8402  130.5287  155.0381 C   0  0  0  0  0  0  0  0  0  0  0  0
  149.7788  133.1401  155.2855 C   0  0  0  0  0  0  0  0  0  0  0  0
  149.2672  133.6269  153.9530 C   0  0  0  0  0  0  0  0  0  0  0  0
  147.7719  133.3313  153.8345 C   0  0  0  0  0  0  0  0  0  0  0  0
  147.2554  132.4618  154.5356 O   0  0  0  0  0  0  0  0  0  0  0  0
  147.0891  134.0687  152.9475 N   0  0  0  0  0  0  0  0  0  0  0  0
  145.6528  133.9864  152.7236 C   0  0  0  0  0  0  0  0  0  0  0  0
  145.3554  133.4985  151.2964 C   0  0  2  0  0  0  0  0  0  0  0  0
  143.8811  133.4101  150.9510 C   0  0  0  0  0  0  0  0  0  0  0  0
  143.8967  132.4805  149.7414 C   0  0  0  0  0  0  0  0  0  0  0  0
  145.0131  131.6142  149.9273 O   0  0  0  0  0  0  0  0  0  0  0  0
  145.8078  132.0655  151.0202 C   0  0  0  0  0  0  0  0  0  0  0  0
  150.2368  135.9167  155.6230 H   0  0  0  0  0  0  0  0  0  0  0  0
  150.9255  135.7578  157.2319 H   0  0  0  0  0  0  0  0  0  0  0  0
  149.1767  135.7384  157.0175 H   0  0  0  0  0  0  0  0  0  0  0  0
  149.9859  130.6075  153.9609 H   0  0  0  0  0  0  0  0  0  0  0  0
  148.8407  130.1320  155.2159 H   0  0  0  0  0  0  0  0  0  0  0  0
  150.5643  129.8097  155.4215 H   0  0  0  0  0  0  0  0  0  0  0  0
  149.4272  134.6986  153.8302 H   0  0  0  0  0  0  0  0  0  0  0  0
  149.7942  133.1468  153.1276 H   0  0  0  0  0  0  0  0  0  0  0  0
  147.5966  134.7586  152.4131 H   0  0  0  0  0  0  0  0  0  0  0  0
  145.2167  133.3024  153.4528 H   0  0  0  0  0  0  0  0  0  0  0  0
  145.1976  134.9648  152.8882 H   0  0  0  0  0  0  0  0  0  0  0  0
  145.8429  134.1595  150.5774 H   0  0  0  0  0  0  0  0  0  0  0  0
  143.3250  132.9507  151.7695 H   0  0  0  0  0  0  0  0  0  0  0  0
  143.4292  134.3784  150.7335 H   0  0  0  0  0  0  0  0  0  0  0  0
  142.9684  131.9187  149.6367 H   0  0  0  0  0  0  0  0  0  0  0  0
  144.0513  133.0522  148.8256 H   0  0  0  0  0  0  0  0  0  0  0  0
  146.8720  132.0000  150.7921 H   0  0  0  0  0  0  0  0  0  0  0  0
  145.6065  131.4229  151.8787 H   0  0  0  0  0  0  0  0  0  0  0  0
  1  2  1  0  0  0  0
  1 18  1  0  0  0  0
  1 19  1  0  0  0  0
  1 20  1  0  0  0  0
  2  7  1  0  0  0  0
  2  3  2  0  0  0  0
  3  4  1  0  0  0  0
  4  5  1  0  0  0  0
  5  6  1  0  0  0  0
  5  7  2  0  0  0  0
  6 21  1  0  0  0  0
  6 22  1  0  0  0  0
  6 23  1  0  0  0  0
  7  8  1  0  0  0  0
  8  9  1  0  0  0  0
  8 24  1  0  0  0  0
  8 25  1  0  0  0  0
  9 10  2  0  0  0  0
  9 11  1  0  0  0  0
 11 12  1  0  0  0  0
 11 26  1  0  0  0  0
 12 13  1  0  0  0  0
 12 27  1  0  0  0  0
 12 28  1  0  0  0  0
 13 17  1  0  0  0  0
 13 14  1  0  0  0  0
 13 29  1  0  0  0  0
 14 15  1  0  0  0  0
 14 30  1  0  0  0  0
 14 31  1  0  0  0  0
 15 16  1  0  0  0  0
 15 32  1  0  0  0  0
 15 33  1  0  0  0  0
 16 17  1  0  0  0  0
 17 34  1  0  0  0  0
 17 35  1  0  0  0  0
M  END
> <s_m_source_file>
AV-unprocessed.smi

> <i_m_source_file_index>
568

> <i_lp_mmshare_version>
43012

> <i_f3d_flags>
0

> <s_epik_input>
W0NIM11jMW5vYyhbQ0gzXSljMVtDSDJdQyg9TylbTkhdW0NIMl1bQ0BASF0yW0NIMl1bQ0gyXU9bQ0gyXTI=

> <s_epik_cmdline>
J2VwaWtfcHl0aG9uJywgJy1waCcsICc3LjAnLCAnLXRuJywgJzgnLCAnLW1hJywgJzIwMCcsICctbWV0YWxfYmluZGluZycsICctaW1hZScsICc8aW5maWxlLm1hZT4nLCAnLW9tYWUnLCAnPG91dGZpbGUubWFlPic=

> <r_lp_tautomer_probability>
1

> <r_epik_Ionization_Penalty>
2.07075e-08

> <r_epik_Ionization_Penalty_Charging>
0

> <r_epik_Ionization_Penalty_Neutral>
2.07075e-08

> <r_epik_State_Penalty>
-0

> <r_epik_Charging_Adjusted_Penalty>
0

> <i_epik_Tot_Q>
0

> <i_epik_Tot_abs_Q>
0

> <r_epik_Metal_State_Penalty>
-0

> <b_epik_Metal_Only>
0

> <s_lp_Force_Field>
OPLS_2005

> <r_lp_Energy>
12.0647

> <b_lp_Chiralities_Consistent>
1

> <s_lp_Variant>
AV-unprocessed.smi:568-1

> <Gold.Version>
5.8.1

> <Gold.Id.Protein>
6NUR|6NUR_protein|mol2

> <Gold.PLP.Fitness>
34.2553

> <Gold.PLP.PLP>
-29.2184

> <Gold.PLP.part.hbond>
-2.0524

> <Gold.PLP.part.metal>
0.0000

> <Gold.PLP.part.buried>
-5.4474

> <Gold.PLP.part.nonpolar>
-22.8389

> <Gold.PLP.part.repulsive>
0.1590

> <Gold.PLP.ligand.clash>
0.0000

> <Gold.PLP.ligand.torsion>
0.4739

> <Gold.PLP.Chemscore.Hbond>
1.9913

> <Gold.PLP.Chemscore.CHOScore>
0.0000

> <Gold.PLP.Chemscore.Metal>
0.0000

> <Gold.Chemscore.Hbonds>
donor molecule, donor type, donor heavy atom, donor atom, acceptor molecule, acceptor atom, score
      L1  H    11    26       P1  7948  0.98
      P1  H  6896  6908       L1     3  0.98

> <Gold.PLP.Chemscore.Internal.Correction>
0.0111

> <Gold.Rescore>
     Score         DG    S(hbond)    S(metal)    S(lipo)     H(rot)  DE(clash)    DE(int)     intcor
     14.92     -15.52       1.90        0.00      65.56       1.56       0.00       0.60       ----

> <Gold.Chemscore.Fitness>
14.9182

> <Gold.Chemscore.DG>
-15.5232

> <Gold.Chemscore.ZeroCoef>
-5.4800

> <Gold.Chemscore.Hbond>
1.9024

> <Gold.Chemscore.Metal>
0.0000

> <Gold.Chemscore.Lipo>
65.5578

> <Gold.Chemscore.Internal_Hbond>
0.0000

> <Gold.Chemscore.DEClash>
0.0015

> <Gold.Chemscore.DEInternal>
0.6035

> <Gold.Chemscore.Rot>
1.5551

> <Gold.Chemscore.Internal.Correction>
   9.000000E+99

> <Gold.Chemscore.Hbonds>
donor molecule, donor type, donor heavy atom, donor atom, acceptor molecule, acceptor atom, score
      L1  H    11    26       P1  7948  0.81
      P1  H  6896  6908       L1     3  0.88

> <Gold.Chemscore.Hbond.Weighted>
-6.3539

> <Gold.Chemscore.Metal.Weighted>
-0.0000

> <Gold.Chemscore.Lipo.Weighted>
-7.6703

> <Gold.Chemscore.Internal_Hbond.Weighted>
0.0000

> <Gold.Chemscore.DEClash.Weighted>
0.0015

> <Gold.Chemscore.DEInternal.Weighted>
0.6035

> <Gold.Chemscore.Rot.Weighted>
3.9809

> <Gold.Chemscore.Internal.Correction.Weighted>
   9.000000E+99

> <Gold.Protein.RotatedTorsions>
[ 6907 6896 6895 6894 ] final   88.27 input  -60.11 | X-H torsion
[ 7974 7965 7964 7962 ] final  147.18 input  175.53 | X-H torsion
[ 8008 7997 7996 7995 ] final  135.93 input   59.86 | X-H torsion
[ 10167 10162 10161 10158 ] final   34.99 input  -65.29 | X-H torsion
[ 10718 10713 10712 10709 ] final   82.30 input   66.30 | X-H torsion
[ 10763 10752 10751 10750 ] final -117.68 input  -60.55 | X-H torsion
[ 11005 11000 10999 10996 ] final  -68.03 input  -57.11 | X-H torsion

> <Gold.Protein.ActiveResidues>
 VAL166  LYS551  ARG553  GLY616  TRP617  ASP618  TYR619  PRO620  LYS621  CYS622 
 ASP623  PHE694  ASN695  SER759  ASP760  ASP761  ALA762  ILE779  LEU786  VAL792 
 PHE793  MET794  SER795  GLU796  ALA797  LYS798  CYS799  TRP800  GLU811  SER814 

> <Gold.Protein.RotatedAtoms>
  152.5423  134.2147  159.8763 H   0  0  0  0  0  0  0  0  0  0  0  0  # atno 6907 bound_to 6896
  151.2127  133.4540  159.2606 H   0  0  0  0  0  0  0  0  0  0  0  0  # atno 6908 bound_to 6896
  151.0881  134.9912  159.8445 H   0  0  0  0  0  0  0  0  0  0  0  0  # atno 6909 bound_to 6896
  144.8612  139.5997  143.5930 H   0  0  0  0  0  0  0  0  0  0  0  0  # atno 7974 bound_to 7965
  156.3004  140.2458  156.3663 H   0  0  0  0  0  0  0  0  0  0  0  0  # atno 8008 bound_to 7997
  154.8830  140.0412  157.1813 H   0  0  0  0  0  0  0  0  0  0  0  0  # atno 8009 bound_to 7997
  154.8676  140.2930  155.5505 H   0  0  0  0  0  0  0  0  0  0  0  0  # atno 8010 bound_to 7997
  140.4264  144.1387  150.6154 H   0  0  0  0  0  0  0  0  0  0  0  0  # atno 10167 bound_to 10162
  157.6854  131.0042  150.2354 H   0  0  0  0  0  0  0  0  0  0  0  0  # atno 10718 bound_to 10713
  154.8563  135.4301  154.2019 H   0  0  0  0  0  0  0  0  0  0  0  0  # atno 10763 bound_to 10752
  153.3064  135.6972  153.7162 H   0  0  0  0  0  0  0  0  0  0  0  0  # atno 10764 bound_to 10752
  153.6272  135.3491  155.3004 H   0  0  0  0  0  0  0  0  0  0  0  0  # atno 10765 bound_to 10752
  141.1522  133.6732  156.6384 H   0  0  0  0  0  0  0  0  0  0  0  0  # atno 11005 bound_to 11000
  146.2862  139.7010  142.9194 LP  0  0  0  0  0  0  0  0  0  0  0  0  # atno 17320 bound_to 7965
  145.4309  141.0415  143.2911 LP  0  0  0  0  0  0  0  0  0  0  0  0  # atno 17321 bound_to 7965
  140.4477  143.2500  151.9390 LP  0  0  0  0  0  0  0  0  0  0  0  0  # atno 17342 bound_to 10162
  139.4783  144.5593  151.8264 LP  0  0  0  0  0  0  0  0  0  0  0  0  # atno 17343 bound_to 10162
  156.2979  130.3754  149.7779 LP  0  0  0  0  0  0  0  0  0  0  0  0  # atno 17370 bound_to 10713
  156.5418  130.8303  151.3271 LP  0  0  0  0  0  0  0  0  0  0  0  0  # atno 17371 bound_to 10713
  140.3413  134.7847  157.4399 LP  0  0  0  0  0  0  0  0  0  0  0  0  # atno 17394 bound_to 11000
  140.0936  134.5568  155.8420 LP  0  0  0  0  0  0  0  0  0  0  0  0  # atno 17395 bound_to 11000

$$$$
