AV-unprocessed.smi:2223|AV-procd|sdf|8990|dock8
  -GOLD-   2272012203D 1   1.00000     0.00000
 Structure written by MMmdl.
 46 47  0  0  0  0  0  0  0  0  1 V2000
  141.5779  135.1553  153.4544 C   0  0  0  0  0  0  0  0  0  0  0  0
  142.8269  134.6337  152.7751 C   0  0  0  0  0  0  0  0  0  0  0  0
  142.7418  133.6433  151.7782 C   0  0  0  0  0  0  0  0  0  0  0  0
  143.9365  133.1997  151.1780 C   0  0  0  0  0  0  0  0  0  0  0  0
  143.9182  132.1378  150.0986 C   0  0  0  0  0  0  0  0  0  0  0  0
  145.1521  133.6829  151.5120 N   0  0  0  0  0  0  0  0  0  0  0  0
  145.2464  134.6392  152.4691 C   0  0  0  0  0  0  0  0  0  0  0  0
  146.4758  135.2118  152.8917 N   0  0  0  0  0  0  0  0  0  0  0  0
  146.8525  135.5414  154.1400 C   0  0  0  0  0  0  0  0  0  0  0  0
  146.1707  135.3901  155.1541 O   0  0  0  0  0  0  0  0  0  0  0  0
  148.0890  136.0600  154.1547 N   0  0  0  0  0  0  0  0  0  0  0  0
  148.7920  136.5007  155.3568 C   0  0  1  0  0  0  0  0  0  0  0  0
  149.9880  135.6074  155.6992 C   0  0  0  0  0  0  0  0  0  0  0  0
  151.1002  136.5965  156.0007 C   0  0  0  0  0  0  0  0  0  0  0  0
  152.1880  136.2267  156.4408 O   0  0  0  0  0  0  0  0  0  0  0  0
  150.7355  137.8635  155.7245 N   0  0  0  0  0  0  0  0  0  0  0  0
  151.5756  139.0829  155.8622 C   0  0  0  0  0  0  0  0  0  0  0  0
  152.0232  139.2541  157.3313 C   0  0  0  0  0  0  0  0  0  0  0  0
  150.8086  140.3631  155.4531 C   0  0  0  0  0  0  0  0  0  0  0  0
  152.8163  138.9683  154.9484 C   0  0  0  0  0  0  0  0  0  0  0  0
  149.3811  137.9075  155.1725 C   0  0  0  0  0  0  0  0  0  0  0  0
  144.0970  135.1363  153.1236 C   0  0  0  0  0  0  0  0  0  0  0  0
  140.7886  134.4029  153.4487 H   0  0  0  0  0  0  0  0  0  0  0  0
  141.2119  136.0423  152.9373 H   0  0  0  0  0  0  0  0  0  0  0  0
  141.7839  135.4215  154.4914 H   0  0  0  0  0  0  0  0  0  0  0  0
  141.7862  133.2360  151.4809 H   0  0  0  0  0  0  0  0  0  0  0  0
  142.9405  131.6603  150.0319 H   0  0  0  0  0  0  0  0  0  0  0  0
  144.6589  131.3656  150.3087 H   0  0  0  0  0  0  0  0  0  0  0  0
  144.1494  132.5820  149.1302 H   0  0  0  0  0  0  0  0  0  0  0  0
  147.1485  135.3833  152.1594 H   0  0  0  0  0  0  0  0  0  0  0  0
  148.5811  136.1503  153.2780 H   0  0  0  0  0  0  0  0  0  0  0  0
  148.1022  136.5161  156.2033 H   0  0  0  0  0  0  0  0  0  0  0  0
  149.7854  134.9649  156.5567 H   0  0  0  0  0  0  0  0  0  0  0  0
  150.2906  134.9794  154.8599 H   0  0  0  0  0  0  0  0  0  0  0  0
  152.5833  140.1800  157.4667 H   0  0  0  0  0  0  0  0  0  0  0  0
  152.6710  138.4449  157.6675 H   0  0  0  0  0  0  0  0  0  0  0  0
  151.1653  139.2910  158.0037 H   0  0  0  0  0  0  0  0  0  0  0  0
  149.9412  140.5393  156.0900 H   0  0  0  0  0  0  0  0  0  0  0  0
  150.4683  140.3232  154.4177 H   0  0  0  0  0  0  0  0  0  0  0  0
  151.4444  141.2449  155.5411 H   0  0  0  0  0  0  0  0  0  0  0  0
  153.4194  139.8760  154.9866 H   0  0  0  0  0  0  0  0  0  0  0  0
  152.5272  138.8122  153.9085 H   0  0  0  0  0  0  0  0  0  0  0  0
  153.4697  138.1448  155.2355 H   0  0  0  0  0  0  0  0  0  0  0  0
  149.4395  138.1820  154.1176 H   0  0  0  0  0  0  0  0  0  0  0  0
  148.7552  138.6414  155.6806 H   0  0  0  0  0  0  0  0  0  0  0  0
  144.1857  135.8987  153.8842 H   0  0  0  0  0  0  0  0  0  0  0  0
  1  2  1  0  0  0  0
  1 23  1  0  0  0  0
  1 24  1  0  0  0  0
  1 25  1  0  0  0  0
  2 22  1  0  0  0  0
  2  3  2  0  0  0  0
  3  4  1  0  0  0  0
  3 26  1  0  0  0  0
  4  5  1  0  0  0  0
  4  6  2  0  0  0  0
  5 27  1  0  0  0  0
  5 28  1  0  0  0  0
  5 29  1  0  0  0  0
  6  7  1  0  0  0  0
  7  8  1  0  0  0  0
  7 22  2  0  0  0  0
  8  9  1  0  0  0  0
  8 30  1  0  0  0  0
  9 10  2  0  0  0  0
  9 11  1  0  0  0  0
 11 12  1  0  0  0  0
 11 31  1  0  0  0  0
 12 21  1  0  0  0  0
 12 13  1  0  0  0  0
 12 32  1  0  0  0  0
 13 14  1  0  0  0  0
 13 33  1  0  0  0  0
 13 34  1  0  0  0  0
 14 15  2  0  0  0  0
 14 16  1  0  0  0  0
 16 17  1  0  0  0  0
 16 21  1  0  0  0  0
 17 18  1  0  0  0  0
 17 19  1  0  0  0  0
 17 20  1  0  0  0  0
 18 35  1  0  0  0  0
 18 36  1  0  0  0  0
 18 37  1  0  0  0  0
 19 38  1  0  0  0  0
 19 39  1  0  0  0  0
 19 40  1  0  0  0  0
 20 41  1  0  0  0  0
 20 42  1  0  0  0  0
 20 43  1  0  0  0  0
 21 44  1  0  0  0  0
 21 45  1  0  0  0  0
 22 46  1  0  0  0  0
M  END
> <s_m_source_file>
AV-unprocessed.smi

> <i_m_source_file_index>
2223

> <i_lp_mmshare_version>
43012

> <i_f3d_flags>
0

> <s_epik_input>
W0NIM11jMVtjSF1jKFtDSDNdKW5jKFtjSF0xKVtOSF1DKD1PKVtOSF1bQ0BASF0yW0NIMl1DKD1PKU4oW0NIMl0yKUMoW0NIM10pKFtDSDNdKVtDSDNd

> <s_epik_cmdline>
J2VwaWtfcHl0aG9uJywgJy1waCcsICc3LjAnLCAnLXRuJywgJzgnLCAnLW1hJywgJzIwMCcsICctbWV0YWxfYmluZGluZycsICctaW1hZScsICc8aW5maWxlLm1hZT4nLCAnLW9tYWUnLCAnPG91dGZpbGUubWFlPic=

> <r_lp_tautomer_probability>
1

> <r_epik_Ionization_Penalty>
0.000228403

> <r_epik_Ionization_Penalty_Charging>
0

> <r_epik_Ionization_Penalty_Neutral>
0.000228403

> <r_epik_State_Penalty>
-0

> <r_epik_Charging_Adjusted_Penalty>
0

> <i_epik_Tot_Q>
0

> <i_epik_Tot_abs_Q>
0

> <r_epik_Metal_State_Penalty>
-0

> <b_epik_Metal_Only>
0

> <s_lp_Force_Field>
OPLS_2005

> <r_lp_Energy>
29.0753

> <b_lp_Chiralities_Consistent>
1

> <s_lp_Variant>
AV-unprocessed.smi:2223-2

> <Gold.Version>
5.8.1

> <Gold.Id.Protein>
6NUR|6NUR_protein|mol2

> <Gold.PLP.Fitness>
39.7038

> <Gold.PLP.PLP>
-32.2862

> <Gold.PLP.part.hbond>
-2.7950

> <Gold.PLP.part.metal>
0.0000

> <Gold.PLP.part.buried>
-2.0480

> <Gold.PLP.part.nonpolar>
-27.5190

> <Gold.PLP.part.repulsive>
0.1349

> <Gold.PLP.ligand.clash>
0.0000

> <Gold.PLP.ligand.torsion>
0.4173

> <Gold.PLP.Chemscore.Hbond>
2.7415

> <Gold.PLP.Chemscore.CHOScore>
0.0000

> <Gold.PLP.Chemscore.Metal>
0.0000

> <Gold.Chemscore.Hbonds>
donor molecule, donor type, donor heavy atom, donor atom, acceptor molecule, acceptor atom, score
      L1  H     8    30       P1  7948  0.85
      L1  H    11    31       P1  7948  0.81
      P1  H 10752 10765       L1    15  1.00

> <Gold.PLP.Chemscore.Internal.Correction>
0.0277

> <Gold.Rescore>
     Score         DG    S(hbond)    S(metal)    S(lipo)     H(rot)  DE(clash)    DE(int)     intcor
     18.55     -20.27       2.76        0.00      74.03       1.21       0.04       1.68       ----

> <Gold.Chemscore.Fitness>
18.5496

> <Gold.Chemscore.DG>
-20.2698

> <Gold.Chemscore.ZeroCoef>
-5.4800

> <Gold.Chemscore.Hbond>
2.7588

> <Gold.Chemscore.Metal>
0.0000

> <Gold.Chemscore.Lipo>
74.0308

> <Gold.Chemscore.Internal_Hbond>
0.0000

> <Gold.Chemscore.DEClash>
0.0394

> <Gold.Chemscore.DEInternal>
1.6808

> <Gold.Chemscore.Rot>
1.2055

> <Gold.Chemscore.Internal.Correction>
   9.000000E+99

> <Gold.Chemscore.Hbonds>
donor molecule, donor type, donor heavy atom, donor atom, acceptor molecule, acceptor atom, score
      L1  H     8    30       P1  7948  0.81
      L1  H    11    31       P1  7948  0.80
      P1  H 10752 10765       L1    15  0.82

> <Gold.Chemscore.Hbond.Weighted>
-9.2143

> <Gold.Chemscore.Metal.Weighted>
-0.0000

> <Gold.Chemscore.Lipo.Weighted>
-8.6616

> <Gold.Chemscore.Internal_Hbond.Weighted>
0.0000

> <Gold.Chemscore.DEClash.Weighted>
0.0394

> <Gold.Chemscore.DEInternal.Weighted>
1.6808

> <Gold.Chemscore.Rot.Weighted>
3.0861

> <Gold.Chemscore.Internal.Correction.Weighted>
   9.000000E+99

> <Gold.Protein.RotatedTorsions>
[ 6907 6896 6895 6894 ] final  -36.82 input  -60.11 | X-H torsion
[ 7974 7965 7964 7962 ] final  -68.84 input  175.53 | X-H torsion
[ 8008 7997 7996 7995 ] final  -47.86 input   59.86 | X-H torsion
[ 10167 10162 10161 10158 ] final  149.21 input  -65.29 | X-H torsion
[ 10718 10713 10712 10709 ] final  -14.02 input   66.30 | X-H torsion
[ 10763 10752 10751 10750 ] final -143.70 input  -60.55 | X-H torsion
[ 11005 11000 10999 10996 ] final -150.45 input  -57.11 | X-H torsion

> <Gold.Protein.ActiveResidues>
 VAL166  LYS551  ARG553  GLY616  TRP617  ASP618  TYR619  PRO620  LYS621  CYS622 
 ASP623  PHE694  ASN695  SER759  ASP760  ASP761  ALA762  ILE779  LEU786  VAL792 
 PHE793  MET794  SER795  GLU796  ALA797  LYS798  CYS799  TRP800  GLU811  SER814 

> <Gold.Protein.RotatedAtoms>
  151.0224  134.9479  159.8066 H   0  0  0  0  0  0  0  0  0  0  0  0  # atno 6907 bound_to 6896
  152.5328  134.2886  159.9044 H   0  0  0  0  0  0  0  0  0  0  0  0  # atno 6908 bound_to 6896
  151.2894  133.4130  159.2666 H   0  0  0  0  0  0  0  0  0  0  0  0  # atno 6909 bound_to 6896
  145.7114  140.9077  143.0678 H   0  0  0  0  0  0  0  0  0  0  0  0  # atno 7974 bound_to 7965
  154.4022  140.1336  156.4245 H   0  0  0  0  0  0  0  0  0  0  0  0  # atno 8008 bound_to 7997
  155.7610  140.3486  155.5178 H   0  0  0  0  0  0  0  0  0  0  0  0  # atno 8009 bound_to 7997
  155.8858  140.0995  157.1443 H   0  0  0  0  0  0  0  0  0  0  0  0  # atno 8010 bound_to 7997
  139.4864  144.5619  151.7215 H   0  0  0  0  0  0  0  0  0  0  0  0  # atno 10167 bound_to 10162
  156.6220  130.4878  149.6161 H   0  0  0  0  0  0  0  0  0  0  0  0  # atno 10718 bound_to 10713
  154.8459  135.3461  154.6228 H   0  0  0  0  0  0  0  0  0  0  0  0  # atno 10763 bound_to 10752
  153.6837  135.6978  153.5115 H   0  0  0  0  0  0  0  0  0  0  0  0  # atno 10764 bound_to 10752
  153.2648  135.4311  155.0886 H   0  0  0  0  0  0  0  0  0  0  0  0  # atno 10765 bound_to 10752
  140.7401  134.3524  157.5149 H   0  0  0  0  0  0  0  0  0  0  0  0  # atno 11005 bound_to 11000
  144.6941  139.9079  143.7462 LP  0  0  0  0  0  0  0  0  0  0  0  0  # atno 17320 bound_to 7965
  146.0709  139.3698  143.0523 LP  0  0  0  0  0  0  0  0  0  0  0  0  # atno 17321 bound_to 7965
  140.5190  144.0908  150.6017 LP  0  0  0  0  0  0  0  0  0  0  0  0  # atno 17342 bound_to 10162
  140.3859  143.2778  152.0116 LP  0  0  0  0  0  0  0  0  0  0  0  0  # atno 17343 bound_to 10162
  156.2304  130.6791  151.1458 LP  0  0  0  0  0  0  0  0  0  0  0  0  # atno 17370 bound_to 10713
  157.7225  131.0672  150.6075 LP  0  0  0  0  0  0  0  0  0  0  0  0  # atno 17371 bound_to 10713
  139.8808  134.9075  156.2946 LP  0  0  0  0  0  0  0  0  0  0  0  0  # atno 17394 bound_to 11000
  140.9844  133.7247  156.0720 LP  0  0  0  0  0  0  0  0  0  0  0  0  # atno 17395 bound_to 11000

$$$$
