AV-unprocessed.smi:254|AV-procd|sdf|1947|dock4
  -GOLD-   2262021 83D 1   1.00000     0.00000
 Structure written by MMmdl.
 50 53  0  0  0  0  0  0  0  0  1 V2000
  148.8385  132.8094  153.8836 O   0  0  0  0  0  0  0  0  0  0  0  0
  149.6097  133.2930  154.7106 C   0  0  0  0  0  0  0  0  0  0  0  0
  150.1798  134.6930  154.5970 C   0  0  0  0  0  0  0  0  0  0  0  0
  151.0135  134.8003  155.7926 N   0  0  0  0  0  0  0  0  0  0  0  0
  150.8895  135.9696  156.4585 C   0  0  0  0  0  0  0  0  0  0  0  0
  150.3623  135.9881  157.7111 N   0  0  0  0  0  0  0  0  0  0  0  0
  150.2297  137.1488  158.3607 C   0  0  0  0  0  0  0  0  0  0  0  0
  150.5504  138.3778  157.9488 N   0  0  0  0  0  0  0  0  0  0  0  0
  151.0712  138.3586  156.6879 C   0  0  0  0  0  0  0  0  0  0  0  0
  151.2712  137.2066  155.8781 C   0  0  0  0  0  0  0  0  0  0  0  0
  151.8202  137.5699  154.6554 N   0  0  0  0  0  0  0  0  0  0  0  0
  151.9433  138.8669  154.7386 C   0  0  0  0  0  0  0  0  0  0  0  0
  151.5031  139.4253  155.9186 N   0  0  0  0  0  0  0  0  0  0  0  0
  151.5361  140.8317  156.2801 C   0  0  0  0  0  0  0  0  0  0  0  0
  150.4796  141.2539  157.3344 C   0  0  2  0  0  0  0  0  0  0  0  0
  149.1651  141.5824  156.5847 C   0  0  0  0  0  0  0  0  0  0  0  0
  149.3969  142.3421  155.4166 O   0  0  0  0  0  0  0  0  0  0  0  0
  150.9576  142.4369  158.2321 C   0  0  1  0  0  0  0  0  0  0  0  0
  152.2586  142.2044  158.9848 C   0  0  0  0  0  0  0  0  0  0  0  0
  152.6647  143.6175  159.3746 C   0  0  0  0  0  0  0  0  0  0  0  0
  152.3138  144.4054  158.2483 O   0  0  0  0  0  0  0  0  0  0  0  0
  151.2968  143.7460  157.4992 C   0  0  0  0  0  0  0  0  0  0  0  0
  150.9285  133.5751  156.5897 C   0  0  0  0  0  0  0  0  0  0  0  0
  150.0605  132.7017  155.8186 N   0  0  0  0  0  0  0  0  0  0  0  0
  149.7257  131.3613  156.2951 C   0  0  0  0  0  0  0  0  0  0  0  0
  150.2706  130.2564  155.3727 C   0  0  0  0  0  0  0  0  0  0  0  0
  151.5742  130.4551  155.1829 F   0  0  0  0  0  0  0  0  0  0  0  0
  150.1017  129.0497  155.9128 F   0  0  0  0  0  0  0  0  0  0  0  0
  149.6582  130.2966  154.1892 F   0  0  0  0  0  0  0  0  0  0  0  0
  150.7880  134.7879  153.6974 H   0  0  0  0  0  0  0  0  0  0  0  0
  149.3750  135.4297  154.5598 H   0  0  0  0  0  0  0  0  0  0  0  0
  149.8050  137.0839  159.3515 H   0  0  0  0  0  0  0  0  0  0  0  0
  152.3550  139.4574  153.9329 H   0  0  0  0  0  0  0  0  0  0  0  0
  152.5363  141.0857  156.6327 H   0  0  0  0  0  0  0  0  0  0  0  0
  151.3895  141.3920  155.3560 H   0  0  0  0  0  0  0  0  0  0  0  0
  150.2844  140.3893  157.9705 H   0  0  0  0  0  0  0  0  0  0  0  0
  148.6219  140.6715  156.3319 H   0  0  0  0  0  0  0  0  0  0  0  0
  148.5003  142.1793  157.2095 H   0  0  0  0  0  0  0  0  0  0  0  0
  149.1500  143.2383  155.5866 H   0  0  0  0  0  0  0  0  0  0  0  0
  150.1842  142.6509  158.9717 H   0  0  0  0  0  0  0  0  0  0  0  0
  152.1442  141.5543  159.8524 H   0  0  0  0  0  0  0  0  0  0  0  0
  153.0120  141.7718  158.3251 H   0  0  0  0  0  0  0  0  0  0  0  0
  152.0917  143.9569  160.2385 H   0  0  0  0  0  0  0  0  0  0  0  0
  153.7254  143.7028  159.6111 H   0  0  0  0  0  0  0  0  0  0  0  0
  151.6892  143.5509  156.5009 H   0  0  0  0  0  0  0  0  0  0  0  0
  150.4295  144.3977  157.4026 H   0  0  0  0  0  0  0  0  0  0  0  0
  151.9195  133.1308  156.6883 H   0  0  0  0  0  0  0  0  0  0  0  0
  150.5230  133.7274  157.5912 H   0  0  0  0  0  0  0  0  0  0  0  0
  150.1301  131.2311  157.2999 H   0  0  0  0  0  0  0  0  0  0  0  0
  148.6427  131.2685  156.3903 H   0  0  0  0  0  0  0  0  0  0  0  0
  1  2  2  0  0  0  0
  2 24  1  0  0  0  0
  2  3  1  0  0  0  0
  3  4  1  0  0  0  0
  3 30  1  0  0  0  0
  3 31  1  0  0  0  0
  4  5  1  0  0  0  0
  4 23  1  0  0  0  0
  5 10  1  0  0  0  0
  5  6  2  0  0  0  0
  6  7  1  0  0  0  0
  7  8  2  0  0  0  0
  7 32  1  0  0  0  0
  8  9  1  0  0  0  0
  9 13  1  0  0  0  0
  9 10  2  0  0  0  0
 10 11  1  0  0  0  0
 11 12  2  0  0  0  0
 12 13  1  0  0  0  0
 12 33  1  0  0  0  0
 13 14  1  0  0  0  0
 14 15  1  0  0  0  0
 14 34  1  0  0  0  0
 14 35  1  0  0  0  0
 15 16  1  0  0  0  0
 15 18  1  0  0  0  0
 15 36  1  0  0  0  0
 16 17  1  0  0  0  0
 16 37  1  0  0  0  0
 16 38  1  0  0  0  0
 17 39  1  0  0  0  0
 18 22  1  0  0  0  0
 18 19  1  0  0  0  0
 18 40  1  0  0  0  0
 19 20  1  0  0  0  0
 19 41  1  0  0  0  0
 19 42  1  0  0  0  0
 20 21  1  0  0  0  0
 20 43  1  0  0  0  0
 20 44  1  0  0  0  0
 21 22  1  0  0  0  0
 22 45  1  0  0  0  0
 22 46  1  0  0  0  0
 23 24  1  0  0  0  0
 23 47  1  0  0  0  0
 23 48  1  0  0  0  0
 24 25  1  0  0  0  0
 25 26  1  0  0  0  0
 25 49  1  0  0  0  0
 25 50  1  0  0  0  0
 26 27  1  0  0  0  0
 26 28  1  0  0  0  0
 26 29  1  0  0  0  0
M  END
> <s_m_source_file>
AV-unprocessed.smi

> <i_m_source_file_index>
254

> <i_lp_mmshare_version>
43012

> <i_f3d_flags>
0

> <s_epik_input>
RkMoRikoRilbQ0gyXU4xW0NIMl1OKFtDSDJdQzE9TyljKG5bY0hdbjIpYyhjMjMpbltjSF1uM1tDSDJdW0NASF0oW0NIMl1bT0hdKVtDQEBIXTRbQ0gyXVtDSDJdT1tDSDJdNA==

> <s_epik_cmdline>
J2VwaWtfcHl0aG9uJywgJy1waCcsICc3LjAnLCAnLXRuJywgJzgnLCAnLW1hJywgJzIwMCcsICctbWV0YWxfYmluZGluZycsICctaW1hZScsICc8aW5maWxlLm1hZT4nLCAnLW9tYWUnLCAnPG91dGZpbGUubWFlPic=

> <r_lp_tautomer_probability>
1

> <r_epik_Ionization_Penalty>
0.000292924

> <r_epik_Ionization_Penalty_Charging>
0

> <r_epik_Ionization_Penalty_Neutral>
0.000292924

> <r_epik_State_Penalty>
-0

> <r_epik_Charging_Adjusted_Penalty>
0

> <i_epik_Tot_Q>
0

> <i_epik_Tot_abs_Q>
0

> <r_epik_Metal_State_Penalty>
-0

> <b_epik_Metal_Only>
0

> <s_epik_Chemistry_Notes>
This compound contains an acetal/aminal-like group ( X-CH(R)-Y where X, Y are N, S, or O) that may be acid/base labile, releasing an aldehyde.

> <s_lp_Force_Field>
OPLS_2005

> <r_lp_Energy>
43.3232

> <b_lp_Chiralities_Consistent>
1

> <s_lp_Variant>
AV-unprocessed.smi:254-3

> <Gold.Version>
5.8.1

> <Gold.Id.Protein>
6NUR|6NUR_protein|mol2

> <Gold.PLP.Fitness>
50.3894

> <Gold.PLP.PLP>
-46.3925

> <Gold.PLP.part.hbond>
-3.2063

> <Gold.PLP.part.metal>
0.0000

> <Gold.PLP.part.buried>
-8.8604

> <Gold.PLP.part.nonpolar>
-35.6023

> <Gold.PLP.part.repulsive>
0.3388

> <Gold.PLP.ligand.clash>
0.0000

> <Gold.PLP.ligand.torsion>
1.1886

> <Gold.PLP.Chemscore.Hbond>
1.9516

> <Gold.PLP.Chemscore.CHOScore>
0.0000

> <Gold.PLP.Chemscore.Metal>
0.0000

> <Gold.Chemscore.Hbonds>
donor molecule, donor type, donor heavy atom, donor atom, acceptor molecule, acceptor atom, score
      L1  H    17    39       P1  8028  0.93
      P1  H 10752 10765       L1    11  0.38

> <Gold.PLP.Chemscore.Internal.Correction>
0.5193

> <Gold.Rescore>
     Score         DG    S(hbond)    S(metal)    S(lipo)     H(rot)  DE(clash)    DE(int)     intcor
      5.03      -9.62       1.66        0.00      70.88       3.78       0.01       4.58       ----

> <Gold.Chemscore.Fitness>
5.0271

> <Gold.Chemscore.DG>
-9.6180

> <Gold.Chemscore.ZeroCoef>
-5.4800

> <Gold.Chemscore.Hbond>
1.6562

> <Gold.Chemscore.Metal>
0.0000

> <Gold.Chemscore.Lipo>
70.8834

> <Gold.Chemscore.Internal_Hbond>
0.0000

> <Gold.Chemscore.DEClash>
0.0135

> <Gold.Chemscore.DEInternal>
4.5774

> <Gold.Chemscore.Rot>
3.7840

> <Gold.Chemscore.Internal.Correction>
   9.000000E+99

> <Gold.Chemscore.Hbonds>
donor molecule, donor type, donor heavy atom, donor atom, acceptor molecule, acceptor atom, score
      L1  H    17    39       P1  8028  0.89
      P1  H 10752 10765       L1    11  0.09

> <Gold.Chemscore.Hbond.Weighted>
-5.5317

> <Gold.Chemscore.Metal.Weighted>
-0.0000

> <Gold.Chemscore.Lipo.Weighted>
-8.2934

> <Gold.Chemscore.Internal_Hbond.Weighted>
0.0000

> <Gold.Chemscore.DEClash.Weighted>
0.0135

> <Gold.Chemscore.DEInternal.Weighted>
4.5774

> <Gold.Chemscore.Rot.Weighted>
9.6871

> <Gold.Chemscore.Internal.Correction.Weighted>
   9.000000E+99

> <Gold.Protein.RotatedTorsions>
[ 6907 6896 6895 6894 ] final    5.89 input  -60.11 | X-H torsion
[ 7974 7965 7964 7962 ] final -113.12 input  175.53 | X-H torsion
[ 8008 7997 7996 7995 ] final -112.19 input   59.86 | X-H torsion
[ 10167 10162 10161 10158 ] final   36.59 input  -65.29 | X-H torsion
[ 10718 10713 10712 10709 ] final -102.08 input   66.30 | X-H torsion
[ 10763 10752 10751 10750 ] final  156.52 input  -60.55 | X-H torsion
[ 11005 11000 10999 10996 ] final -146.02 input  -57.11 | X-H torsion

> <Gold.Protein.ActiveResidues>
 VAL166  LYS551  ARG553  GLY616  TRP617  ASP618  TYR619  PRO620  LYS621  CYS622 
 ASP623  PHE694  ASN695  SER759  ASP760  ASP761  ALA762  ILE779  LEU786  VAL792 
 PHE793  MET794  SER795  GLU796  ALA797  LYS798  CYS799  TRP800  GLU811  SER814 

> <Gold.Protein.RotatedAtoms>
  151.6648  135.0984  160.0186 H   0  0  0  0  0  0  0  0  0  0  0  0  # atno 6907 bound_to 6896
  152.3925  133.6696  159.6258 H   0  0  0  0  0  0  0  0  0  0  0  0  # atno 6908 bound_to 6896
  150.7838  133.8846  159.3337 H   0  0  0  0  0  0  0  0  0  0  0  0  # atno 6909 bound_to 6896
  145.1358  140.8750  143.3731 H   0  0  0  0  0  0  0  0  0  0  0  0  # atno 7974 bound_to 7965
  155.0014  140.0394  157.2361 H   0  0  0  0  0  0  0  0  0  0  0  0  # atno 8008 bound_to 7997
  154.7541  140.2772  155.6245 H   0  0  0  0  0  0  0  0  0  0  0  0  # atno 8009 bound_to 7997
  156.2891  140.2641  156.2302 H   0  0  0  0  0  0  0  0  0  0  0  0  # atno 8010 bound_to 7997
  140.4113  144.1588  150.6139 H   0  0  0  0  0  0  0  0  0  0  0  0  # atno 10167 bound_to 10162
  156.0216  130.5403  150.7056 H   0  0  0  0  0  0  0  0  0  0  0  0  # atno 10718 bound_to 10713
  154.1856  135.2797  155.3038 H   0  0  0  0  0  0  0  0  0  0  0  0  # atno 10763 bound_to 10752
  154.5969  135.5542  153.7338 H   0  0  0  0  0  0  0  0  0  0  0  0  # atno 10764 bound_to 10752
  153.0126  135.6382  154.1995 H   0  0  0  0  0  0  0  0  0  0  0  0  # atno 10765 bound_to 10752
  140.7862  134.3021  157.5029 H   0  0  0  0  0  0  0  0  0  0  0  0  # atno 11005 bound_to 11000
  145.0586  139.3124  143.5892 LP  0  0  0  0  0  0  0  0  0  0  0  0  # atno 17320 bound_to 7965
  146.3510  140.0019  142.8675 LP  0  0  0  0  0  0  0  0  0  0  0  0  # atno 17321 bound_to 7965
  140.4634  143.2440  151.9188 LP  0  0  0  0  0  0  0  0  0  0  0  0  # atno 17342 bound_to 10162
  139.4782  144.5444  151.8480 LP  0  0  0  0  0  0  0  0  0  0  0  0  # atno 17343 bound_to 10162
  157.4706  131.0892  151.0647 LP  0  0  0  0  0  0  0  0  0  0  0  0  # atno 17370 bound_to 10713
  157.1108  130.6021  149.5481 LP  0  0  0  0  0  0  0  0  0  0  0  0  # atno 17371 bound_to 10713
  139.8736  134.9348  156.3616 LP  0  0  0  0  0  0  0  0  0  0  0  0  # atno 17394 bound_to 11000
  140.9434  133.7499  156.0176 LP  0  0  0  0  0  0  0  0  0  0  0  0  # atno 17395 bound_to 11000

$$$$
