#       Name:                AV-unprocessed.smi:3215
#       Creating user name   scv26
#       Creation time:       Fri Mar 27 18:12:31 2020


#       File generated by GOLD software.
#

@<TRIPOS>MOLECULE
AV-unprocessed.smi:3215
    41    42     1
SMALL
NO_CHARGES


@<TRIPOS>ATOM
      1 ****        -5.0127   2.7896  -0.0319 C.3            1 S1                 0.0000
      2 ****        -4.2425   1.7082  -0.7336 C.2            1 S1                 0.0000
      3 ****        -3.5518   1.7904  -1.9760 C.2            1 S1                 0.0000
      4 ****        -2.9689   0.6523  -2.3156 N.2            1 S1                 0.0000
      5 ****        -3.2604  -0.1923  -1.3038 N.pl3          1 S1                 0.0000
      6 ****        -2.7766  -1.5616  -1.3404 C.3            1 S1                 0.0000
      7 ****        -1.2417  -1.6466  -1.3986 C.3            1 S1                 0.0000
      8 ****        -0.6214  -1.0018  -0.2240 N.4            1 S1                 1.0000
      9 ****         0.8551  -1.0348  -0.2200 C.3            1 S1                 0.0000
     10 ****         1.4486  -0.3111   0.9972 C.2            1 S1                 0.0000
     11 ****         0.6963   0.1708   1.8459 O.2            1 S1                 0.0000
     12 ****         2.7910  -0.2250   1.0972 N.am           1 S1                 0.0000
     13 ****         3.4763   0.4520   2.1966 C.3            1 S1                 0.0000
     14 ****         4.9448   0.5339   1.7804 C.3            1 S1                 0.0000
     15 ****         5.1228  -0.6320   0.8181 C.3            1 S1                 0.0000
     16 ****         3.7566  -0.7746   0.1459 C.3            1 S1                 0.0000
     17 ****        -4.0381   0.4158  -0.3411 C.2            1 S1                 0.0000
     18 ****        -4.9935   3.7275  -0.5874 H              1 S1                 0.0000
     19 ****        -4.6061   2.9950   0.9585 H              1 S1                 0.0000
     20 ****        -6.0595   2.5162   0.1004 H              1 S1                 0.0000
     21 ****        -3.4572   2.6393  -2.6370 H              1 S1                 0.0000
     22 ****        -3.1506  -2.0890  -0.4617 H              1 S1                 0.0000
     23 ****        -3.2126  -2.0545  -2.2102 H              1 S1                 0.0000
     24 ****        -0.9349  -2.6925  -1.4344 H              1 S1                 0.0000
     25 ****        -0.8701  -1.1762  -2.3102 H              1 S1                 0.0000
     26 ****        -0.9148  -0.0352  -0.1993 H              1 S1                 0.0000
     27 ****         1.1861  -2.0740  -0.2212 H              1 S1                 0.0000
     28 ****         1.2249  -0.5654  -1.1326 H              1 S1                 0.0000
     29 ****         3.0639   1.4434   2.3911 H              1 S1                 0.0000
     30 ****         3.3679  -0.1446   3.1035 H              1 S1                 0.0000
     31 ****         5.1233   1.4719   1.2529 H              1 S1                 0.0000
     32 ****         5.6286   0.4927   2.6287 H              1 S1                 0.0000
     33 ****         5.9319  -0.4727   0.1047 H              1 S1                 0.0000
     34 ****         5.3486  -1.5375   1.3831 H              1 S1                 0.0000
     35 ****         3.5524  -1.8168  -0.1026 H              1 S1                 0.0000
     36 ****         3.7227  -0.1899  -0.7746 H              1 S1                 0.0000
     37 ****        -4.3751  -0.1133   0.5385 H              1 S1                 0.0000
     38 ****        -0.9535  -1.4580   0.6138 H              1 S1                 0.0000
     39 ****        -2.4326   0.4607  -3.1376 LP             1 S1                 0.0000
     40 ****        -0.2947   0.0894   1.7397 LP             1 S1                 0.0000
     41 ****         1.0768   0.6433   2.6408 LP             1 S1                 0.0000
@<TRIPOS>BOND
    1    1    2 1     
    2    1   18 1     
    3    1   19 1     
    4    1   20 1     
    5    2   17 2     
    6    2    3 1     
    7    3    4 2     
    8    3   21 1     
    9    4    5 1     
   10    5    6 1     
   11    5   17 1     
   12    6    7 1     
   13    6   22 1     
   14    6   23 1     
   15    7    8 1     
   16    7   24 1     
   17    7   25 1     
   18    8    9 1     
   19    8   26 1     
   20    8   38 1     
   21    9   10 1     
   22    9   27 1     
   23    9   28 1     
   24   10   11 2     
   25   10   12 am    
   26   12   16 1     
   27   12   13 1     
   28   13   14 1     
   29   13   29 1     
   30   13   30 1     
   31   14   15 1     
   32   14   31 1     
   33   14   32 1     
   34   15   16 1     
   35   15   33 1     
   36   15   34 1     
   37   16   35 1     
   38   16   36 1     
   39   17   37 1     
   40    4   39 1     
   41   11   40 1     
   42   11   41 1     
@<TRIPOS>SUBSTRUCTURE
      1 S1             1
@<TRIPOS>SET
LONE_PAIRS      STATIC     ATOMS    <user>   **** ""
3 39 40 41
DONOR_HYDROGENS      STATIC     ATOMS    <user>   **** ""
2 26 38
ATOM$BLUE        STATIC     ATOMS    COLORGROUP SYSTEM
3 39 40 41
ATOM$RED        STATIC     ATOMS    COLORGROUP SYSTEM
2 26 38
