AV-unprocessed.smi:612|AV-procd|sdf|3063|dock3
  -GOLD-   2262023583D 1   1.00000     0.00000
 Structure written by MMmdl.
 50 52  0  0  0  0  0  0  0  0  2 V2000
  154.5610  141.0316  160.8450 C   0  0  0  0  0  0  0  0  0  0  0  0
  153.5031  141.7089  160.0907 N   0  0  0  0  0  0  0  0  0  0  0  0
  153.0909  142.9737  160.5426 C   0  0  0  0  0  0  0  0  0  0  0  0
  152.1282  143.6644  159.9167 C   0  0  0  0  0  0  0  0  0  0  0  0
  151.5103  143.0793  158.7511 C   0  0  0  0  0  0  0  0  0  0  0  0
  151.8966  141.8612  158.2933 C   0  0  0  0  0  0  0  0  0  0  0  0
  151.3485  141.2111  157.1726 N   0  0  0  0  0  0  0  0  0  0  0  0
  150.0887  141.2275  156.6984 C   0  0  0  0  0  0  0  0  0  0  0  0
  149.1459  141.8590  157.1741 O   0  0  0  0  0  0  0  0  0  0  0  0
  149.9830  140.4613  155.6026 N   0  0  0  0  0  0  0  0  0  0  0  0
  148.7680  140.2589  154.8167 C   0  0  2  0  0  0  0  0  0  0  0  0
  148.4769  141.5023  153.9582 C   0  0  0  0  0  0  0  0  0  0  0  0
  147.1290  141.3670  153.2229 C   0  0  0  0  0  0  0  0  0  0  0  0
  146.0025  141.1024  154.1612 N   0  3  2  0  0  0  0  0  0  0  0  0
  145.5782  142.2861  154.9680 C   0  0  0  0  0  0  0  0  0  0  0  0
  144.2503  142.0836  155.7109 C   0  0  0  0  0  0  0  0  0  0  0  0
  143.7631  143.4965  156.0433 C   0  0  0  0  0  0  0  0  0  0  0  0
  144.3875  144.4199  154.9888 C   0  0  0  0  0  0  0  0  0  0  0  0
  145.2864  143.5327  154.1201 C   0  0  0  0  0  0  0  0  0  0  0  0
  146.2641  139.8710  154.9573 C   0  0  0  0  0  0  0  0  0  0  0  0
  147.5814  139.9654  155.7502 C   0  0  0  0  0  0  0  0  0  0  0  0
  152.9537  141.1057  158.9946 C   0  0  0  0  0  0  0  0  0  0  0  0
  153.3310  139.9910  158.6240 O   0  0  0  0  0  0  0  0  0  0  0  0
  154.9335  141.6288  161.6781 H   0  0  0  0  0  0  0  0  0  0  0  0
  155.4123  140.8109  160.1994 H   0  0  0  0  0  0  0  0  0  0  0  0
  154.1934  140.0909  161.2576 H   0  0  0  0  0  0  0  0  0  0  0  0
  153.5997  143.3430  161.4211 H   0  0  0  0  0  0  0  0  0  0  0  0
  151.8211  144.6354  160.2761 H   0  0  0  0  0  0  0  0  0  0  0  0
  150.7279  143.6489  158.2781 H   0  0  0  0  0  0  0  0  0  0  0  0
  152.0176  140.6761  156.6381 H   0  0  0  0  0  0  0  0  0  0  0  0
  150.8125  139.9812  155.2847 H   0  0  0  0  0  0  0  0  0  0  0  0
  148.8850  139.4045  154.1476 H   0  0  0  0  0  0  0  0  0  0  0  0
  148.4729  142.3982  154.5803 H   0  0  0  0  0  0  0  0  0  0  0  0
  149.2766  141.6431  153.2301 H   0  0  0  0  0  0  0  0  0  0  0  0
  146.9371  142.2475  152.6110 H   0  0  0  0  0  0  0  0  0  0  0  0
  147.1887  140.5340  152.5212 H   0  0  0  0  0  0  0  0  0  0  0  0
  146.3478  142.5355  155.6991 H   0  0  0  0  0  0  0  0  0  0  0  0
  143.5260  141.5946  155.0574 H   0  0  0  0  0  0  0  0  0  0  0  0
  144.3543  141.4742  156.6092 H   0  0  0  0  0  0  0  0  0  0  0  0
  142.6742  143.5560  156.0500 H   0  0  0  0  0  0  0  0  0  0  0  0
  144.1111  143.7854  157.0359 H   0  0  0  0  0  0  0  0  0  0  0  0
  143.6277  144.9185  154.3860 H   0  0  0  0  0  0  0  0  0  0  0  0
  144.9760  145.1968  155.4782 H   0  0  0  0  0  0  0  0  0  0  0  0
  146.1921  144.0566  153.8129 H   0  0  0  0  0  0  0  0  0  0  0  0
  144.7447  143.2500  153.2161 H   0  0  0  0  0  0  0  0  0  0  0  0
  145.4321  139.6422  155.6218 H   0  0  0  0  0  0  0  0  0  0  0  0
  146.3231  139.0277  154.2678 H   0  0  0  0  0  0  0  0  0  0  0  0
  147.7543  139.0297  156.2833 H   0  0  0  0  0  0  0  0  0  0  0  0
  147.5009  140.7395  156.5142 H   0  0  0  0  0  0  0  0  0  0  0  0
  145.2059  140.8866  153.5786 H   0  0  0  0  0  0  0  0  0  0  0  0
  1  2  1  0  0  0  0
  1 24  1  0  0  0  0
  1 25  1  0  0  0  0
  1 26  1  0  0  0  0
  2 22  1  0  0  0  0
  2  3  1  0  0  0  0
  3  4  2  0  0  0  0
  3 27  1  0  0  0  0
  4  5  1  0  0  0  0
  4 28  1  0  0  0  0
  5  6  2  0  0  0  0
  5 29  1  0  0  0  0
  6  7  1  0  0  0  0
  6 22  1  0  0  0  0
  7  8  1  0  0  0  0
  7 30  1  0  0  0  0
  8  9  2  0  0  0  0
  8 10  1  0  0  0  0
 10 11  1  0  0  0  0
 10 31  1  0  0  0  0
 11 21  1  0  0  0  0
 11 12  1  0  0  0  0
 11 32  1  0  0  0  0
 12 13  1  0  0  0  0
 12 33  1  0  0  0  0
 12 34  1  0  0  0  0
 13 14  1  0  0  0  0
 13 35  1  0  0  0  0
 13 36  1  0  0  0  0
 14 15  1  0  0  0  0
 14 20  1  0  0  0  0
 14 50  1  0  0  0  0
 15 19  1  0  0  0  0
 15 16  1  0  0  0  0
 15 37  1  0  0  0  0
 16 17  1  0  0  0  0
 16 38  1  0  0  0  0
 16 39  1  0  0  0  0
 17 18  1  0  0  0  0
 17 40  1  0  0  0  0
 17 41  1  0  0  0  0
 18 19  1  0  0  0  0
 18 42  1  0  0  0  0
 18 43  1  0  0  0  0
 19 44  1  0  0  0  0
 19 45  1  0  0  0  0
 20 21  1  0  0  0  0
 20 46  1  0  0  0  0
 20 47  1  0  0  0  0
 21 48  1  0  0  0  0
 21 49  1  0  0  0  0
 22 23  2  0  0  0  0
M  CHG  1  14   1
M  END
> <s_m_source_file>
AV-unprocessed.smi

> <i_m_source_file_index>
612

> <i_lp_mmshare_version>
43012

> <i_f3d_flags>
0

> <s_epik_input>
W0NIM11uMVtjSF1bY0hdW2NIXWMoYzE9TylbTkhdQyg9TylbTkhdW0NIXTJbQ0gyXVtDSDJdTihbQ0gyXVtDSDJdMilbQ0hdM1tDSDJdW0NIMl1bQ0gyXVtDSDJdMw==

> <s_epik_cmdline>
J2VwaWtfcHl0aG9uJywgJy1waCcsICc3LjAnLCAnLXRuJywgJzgnLCAnLW1hJywgJzIwMCcsICctbWV0YWxfYmluZGluZycsICctaW1hZScsICc8aW5maWxlLm1hZT4nLCAnLW9tYWUnLCAnPG91dGZpbGUubWFlPic=

> <r_lp_tautomer_probability>
1

> <r_epik_Ionization_Penalty>
0.00200366

> <r_epik_Ionization_Penalty_Charging>
0.00198522

> <r_epik_Ionization_Penalty_Neutral>
1.84356e-05

> <r_epik_State_Penalty>
0.00135242

> <r_epik_Charging_Adjusted_Penalty>
0.00333764

> <i_epik_Tot_Q>
1

> <i_epik_Tot_abs_Q>
1

> <r_epik_Metal_State_Penalty>
-0

> <b_epik_Metal_Only>
0

> <s_lp_Force_Field>
OPLS_2005

> <r_lp_Energy>
52.136

> <b_lp_Chiralities_Consistent>
1

> <s_lp_Variant>
AV-unprocessed.smi:612-2

> <Gold.Version>
5.8.1

> <Gold.Id.Protein>
6NUR|6NUR_protein|mol2

> <Gold.PLP.Fitness>
48.9010

> <Gold.PLP.PLP>
-40.7758

> <Gold.PLP.part.hbond>
-2.0000

> <Gold.PLP.part.metal>
0.0000

> <Gold.PLP.part.buried>
-5.3999

> <Gold.PLP.part.nonpolar>
-33.4217

> <Gold.PLP.part.repulsive>
0.3104

> <Gold.PLP.ligand.clash>
0.0000

> <Gold.PLP.ligand.torsion>
0.4662

> <Gold.PLP.Chemscore.Hbond>
3.0000

> <Gold.PLP.Chemscore.CHOScore>
0.0000

> <Gold.PLP.Chemscore.Metal>
0.0000

> <Gold.Chemscore.Hbonds>
donor molecule, donor type, donor heavy atom, donor atom, acceptor molecule, acceptor atom, score
      L1  H    14    50       P1 10175  2.00
      P1  H  7997  8010       L1    23  1.00

> <Gold.PLP.Chemscore.Internal.Correction>
0.0575

> <Gold.Rescore>
     Score         DG    S(hbond)    S(metal)    S(lipo)     H(rot)  DE(clash)    DE(int)     intcor
     17.90     -19.83       1.85        0.00      96.33       1.21       0.08       1.85       ----

> <Gold.Chemscore.Fitness>
17.9010

> <Gold.Chemscore.DG>
-19.8346

> <Gold.Chemscore.ZeroCoef>
-5.4800

> <Gold.Chemscore.Hbond>
1.8473

> <Gold.Chemscore.Metal>
0.0000

> <Gold.Chemscore.Lipo>
96.3331

> <Gold.Chemscore.Internal_Hbond>
0.0000

> <Gold.Chemscore.DEClash>
0.0836

> <Gold.Chemscore.DEInternal>
1.8500

> <Gold.Chemscore.Rot>
1.2056

> <Gold.Chemscore.Internal.Correction>
   9.000000E+99

> <Gold.Chemscore.Hbonds>
donor molecule, donor type, donor heavy atom, donor atom, acceptor molecule, acceptor atom, score
      L1  H    14    50       P1 10175  0.82
      P1  H  7997  8010       L1    23  0.79

> <Gold.Chemscore.Hbond.Weighted>
-6.1699

> <Gold.Chemscore.Metal.Weighted>
-0.0000

> <Gold.Chemscore.Lipo.Weighted>
-11.2710

> <Gold.Chemscore.Internal_Hbond.Weighted>
0.0000

> <Gold.Chemscore.DEClash.Weighted>
0.0836

> <Gold.Chemscore.DEInternal.Weighted>
1.8500

> <Gold.Chemscore.Rot.Weighted>
3.0862

> <Gold.Chemscore.Internal.Correction.Weighted>
   9.000000E+99

> <Gold.Protein.RotatedTorsions>
[ 6907 6896 6895 6894 ] final  123.31 input  -60.11 | X-H torsion
[ 7974 7965 7964 7962 ] final  125.86 input  175.53 | X-H torsion
[ 8008 7997 7996 7995 ] final   23.11 input   59.86 | X-H torsion
[ 10167 10162 10161 10158 ] final -162.49 input  -65.29 | X-H torsion
[ 10718 10713 10712 10709 ] final   88.54 input   66.30 | X-H torsion
[ 10763 10752 10751 10750 ] final -108.96 input  -60.55 | X-H torsion
[ 11005 11000 10999 10996 ] final   50.28 input  -57.11 | X-H torsion

> <Gold.Protein.ActiveResidues>
 VAL166  LYS551  ARG553  GLY616  TRP617  ASP618  TYR619  PRO620  LYS621  CYS622 
 ASP623  PHE694  ASN695  SER759  ASP760  ASP761  ALA762  ILE779  LEU786  VAL792 
 PHE793  MET794  SER795  GLU796  ALA797  LYS798  CYS799  TRP800  GLU811  SER814 

> <Gold.Protein.RotatedAtoms>
  152.4172  133.7057  159.6449 H   0  0  0  0  0  0  0  0  0  0  0  0  # atno 6907 bound_to 6896
  150.8049  133.8518  159.3216 H   0  0  0  0  0  0  0  0  0  0  0  0  # atno 6908 bound_to 6896
  151.6245  135.1031  160.0160 H   0  0  0  0  0  0  0  0  0  0  0  0  # atno 6909 bound_to 6896
  145.0682  139.3751  143.4971 H   0  0  0  0  0  0  0  0  0  0  0  0  # atno 7974 bound_to 7965
  154.9759  140.3096  155.4967 H   0  0  0  0  0  0  0  0  0  0  0  0  # atno 8008 bound_to 7997
  156.2960  140.2275  156.4794 H   0  0  0  0  0  0  0  0  0  0  0  0  # atno 8009 bound_to 7997
  154.7834  140.0444  157.1133 H   0  0  0  0  0  0  0  0  0  0  0  0  # atno 8010 bound_to 7997
  139.6388  144.0298  152.2076 H   0  0  0  0  0  0  0  0  0  0  0  0  # atno 10167 bound_to 10162
  157.6950  131.0299  150.3290 H   0  0  0  0  0  0  0  0  0  0  0  0  # atno 10718 bound_to 10713
  154.8166  135.4618  154.0660 H   0  0  0  0  0  0  0  0  0  0  0  0  # atno 10763 bound_to 10752
  153.2048  135.6874  153.8193 H   0  0  0  0  0  0  0  0  0  0  0  0  # atno 10764 bound_to 10752
  153.7665  135.3276  155.3322 H   0  0  0  0  0  0  0  0  0  0  0  0  # atno 10765 bound_to 10752
  140.1031  134.5055  155.8745 H   0  0  0  0  0  0  0  0  0  0  0  0  # atno 11005 bound_to 11000
  146.3527  140.0414  142.8642 LP  0  0  0  0  0  0  0  0  0  0  0  0  # atno 17320 bound_to 7965
  145.1325  140.9526  143.4536 LP  0  0  0  0  0  0  0  0  0  0  0  0  # atno 17321 bound_to 7965
  139.9983  144.6312  150.7753 LP  0  0  0  0  0  0  0  0  0  0  0  0  # atno 17342 bound_to 10162
  140.7480  143.2915  151.3318 LP  0  0  0  0  0  0  0  0  0  0  0  0  # atno 17343 bound_to 10162
  156.3767  130.3873  149.7133 LP  0  0  0  0  0  0  0  0  0  0  0  0  # atno 17370 bound_to 10713
  156.4529  130.7915  151.2936 LP  0  0  0  0  0  0  0  0  0  0  0  0  # atno 17371 bound_to 10713
  141.2111  133.6702  156.6556 LP  0  0  0  0  0  0  0  0  0  0  0  0  # atno 17394 bound_to 11000
  140.3193  134.8021  157.4240 LP  0  0  0  0  0  0  0  0  0  0  0  0  # atno 17395 bound_to 11000

$$$$
