AV-unprocessed.smi:2171|AV-procd|sdf|8832|dock10
  -GOLD-   2272012 23D 1   1.00000     0.00000
 Structure written by MMmdl.
 39 41  0  0  0  0  0  0  0  0  2 V2000
  150.8170  140.8820  159.1225 O   0  0  0  0  0  0  0  0  0  0  0  0
  151.9938  140.9613  158.7684 C   0  0  0  0  0  0  0  0  0  0  0  0
  152.9724  141.8802  159.5066 C   0  0  0  0  0  0  0  0  0  0  0  0
  152.5502  143.2701  159.4680 N   0  0  0  0  0  0  0  0  0  0  0  0
  152.4019  144.0912  158.3692 C   0  0  0  0  0  0  0  0  0  0  0  0
  151.9824  145.3082  158.8244 C   0  0  0  0  0  0  0  0  0  0  0  0
  151.9020  145.1321  160.2341 C   0  0  0  0  0  0  0  0  0  0  0  0
  152.2404  143.9112  160.6162 N   0  0  0  0  0  0  0  0  0  0  0  0
  152.4908  140.2778  157.7260 N   0  0  0  0  0  0  0  0  0  0  0  0
  151.7221  139.3568  156.8927 C   0  0  2  0  0  0  0  0  0  0  0  0
  152.4832  138.8714  155.6658 C   0  0  0  0  0  0  0  0  0  0  0  0
  151.3691  138.3450  154.7546 C   0  0  0  0  0  0  0  0  0  0  0  0
  150.1342  139.0859  155.1126 N   0  3  2  0  0  0  0  0  0  0  0  0
  149.4856  139.7732  153.9636 C   0  0  0  0  0  0  0  0  0  0  0  0
  148.4817  140.8291  154.4494 C   0  0  0  0  0  0  0  0  0  0  0  0
  149.1774  141.9321  155.2696 C   0  0  0  0  0  0  0  0  0  0  0  0
  150.4935  141.4492  155.9093 C   0  0  0  0  0  0  0  0  0  0  0  0
  150.4328  139.9493  156.2907 C   0  0  2  0  0  0  0  0  0  0  0  0
  153.0647  141.5792  160.5513 H   0  0  0  0  0  0  0  0  0  0  0  0
  153.9619  141.7875  159.0565 H   0  0  0  0  0  0  0  0  0  0  0  0
  152.6050  143.7447  157.3665 H   0  0  0  0  0  0  0  0  0  0  0  0
  151.7656  146.1899  158.2398 H   0  0  0  0  0  0  0  0  0  0  0  0
  151.6084  145.8498  160.9860 H   0  0  0  0  0  0  0  0  0  0  0  0
  153.4668  140.4009  157.4973 H   0  0  0  0  0  0  0  0  0  0  0  0
  151.4598  138.4796  157.4882 H   0  0  0  0  0  0  0  0  0  0  0  0
  152.9930  139.7055  155.1810 H   0  0  0  0  0  0  0  0  0  0  0  0
  153.2296  138.1118  155.9006 H   0  0  0  0  0  0  0  0  0  0  0  0
  151.6365  138.4373  153.7011 H   0  0  0  0  0  0  0  0  0  0  0  0
  151.1933  137.2871  154.9522 H   0  0  0  0  0  0  0  0  0  0  0  0
  150.2389  140.2579  153.3400 H   0  0  0  0  0  0  0  0  0  0  0  0
  148.9899  139.0293  153.3391 H   0  0  0  0  0  0  0  0  0  0  0  0
  147.9505  141.2709  153.6057 H   0  0  0  0  0  0  0  0  0  0  0  0
  147.7241  140.3406  155.0639 H   0  0  0  0  0  0  0  0  0  0  0  0
  149.3888  142.7941  154.6359 H   0  0  0  0  0  0  0  0  0  0  0  0
  148.4927  142.2857  156.0415 H   0  0  0  0  0  0  0  0  0  0  0  0
  151.3150  141.6095  155.2096 H   0  0  0  0  0  0  0  0  0  0  0  0
  150.7114  142.0698  156.7786 H   0  0  0  0  0  0  0  0  0  0  0  0
  149.6216  139.8273  157.0101 H   0  0  0  0  0  0  0  0  0  0  0  0
  149.4761  138.3942  155.4425 H   0  0  0  0  0  0  0  0  0  0  0  0
  1  2  2  0  0  0  0
  2  3  1  0  0  0  0
  2  9  1  0  0  0  0
  3  4  1  0  0  0  0
  3 19  1  0  0  0  0
  3 20  1  0  0  0  0
  4  8  1  0  0  0  0
  4  5  1  0  0  0  0
  5  6  2  0  0  0  0
  5 21  1  0  0  0  0
  6  7  1  0  0  0  0
  6 22  1  0  0  0  0
  7  8  2  0  0  0  0
  7 23  1  0  0  0  0
  9 10  1  0  0  0  0
  9 24  1  0  0  0  0
 10 18  1  0  0  0  0
 10 11  1  0  0  0  0
 10 25  1  0  0  0  0
 11 12  1  0  0  0  0
 11 26  1  0  0  0  0
 11 27  1  0  0  0  0
 12 13  1  0  0  0  0
 12 28  1  0  0  0  0
 12 29  1  0  0  0  0
 13 18  1  0  0  0  0
 13 14  1  0  0  0  0
 13 39  1  0  0  0  0
 14 15  1  0  0  0  0
 14 30  1  0  0  0  0
 14 31  1  0  0  0  0
 15 16  1  0  0  0  0
 15 32  1  0  0  0  0
 15 33  1  0  0  0  0
 16 17  1  0  0  0  0
 16 34  1  0  0  0  0
 16 35  1  0  0  0  0
 17 18  1  0  0  0  0
 17 36  1  0  0  0  0
 17 37  1  0  0  0  0
 18 38  1  0  0  0  0
M  CHG  1  13   1
M  END
> <s_m_source_file>
AV-unprocessed.smi

> <i_m_source_file_index>
2171

> <i_lp_mmshare_version>
43012

> <i_f3d_flags>
0

> <s_epik_input>
bjFbY0hdW2NIXVtjSF1uMVtDSDJdQyg9TylbTkhdW0NASF0oW0NIMl1bQ0gyXTIpW0NAQEhdKE4yMylbQ0gyXVtDSDJdW0NIMl1bQ0gyXTM=

> <s_epik_cmdline>
J2VwaWtfcHl0aG9uJywgJy1waCcsICc3LjAnLCAnLXRuJywgJzgnLCAnLW1hJywgJzIwMCcsICctbWV0YWxfYmluZGluZycsICctaW1hZScsICc8aW5maWxlLm1hZT4nLCAnLW9tYWUnLCAnPG91dGZpbGUubWFlPic=

> <r_lp_tautomer_probability>
1

> <r_epik_Ionization_Penalty>
0.00204179

> <r_epik_Ionization_Penalty_Charging>
0.00203239

> <r_epik_Ionization_Penalty_Neutral>
9.40205e-06

> <r_epik_State_Penalty>
0.00138983

> <r_epik_Charging_Adjusted_Penalty>
0.00342221

> <i_epik_Tot_Q>
1

> <i_epik_Tot_abs_Q>
1

> <r_epik_Metal_State_Penalty>
-0

> <b_epik_Metal_Only>
0

> <s_lp_Force_Field>
OPLS_2005

> <r_lp_Energy>
41.0306

> <b_lp_Chiralities_Consistent>
1

> <s_lp_Variant>
AV-unprocessed.smi:2171-7

> <Gold.Version>
5.8.1

> <Gold.Id.Protein>
6NUR|6NUR_protein|mol2

> <Gold.PLP.Fitness>
38.9947

> <Gold.PLP.PLP>
-39.1155

> <Gold.PLP.part.hbond>
-0.4539

> <Gold.PLP.part.metal>
0.0000

> <Gold.PLP.part.buried>
0.1786

> <Gold.PLP.part.nonpolar>
-40.0815

> <Gold.PLP.part.repulsive>
0.7816

> <Gold.PLP.ligand.clash>
0.0000

> <Gold.PLP.ligand.torsion>
0.0620

> <Gold.PLP.Chemscore.Hbond>
0.0000

> <Gold.PLP.Chemscore.CHOScore>
0.0000

> <Gold.PLP.Chemscore.Metal>
0.0000

> <Gold.PLP.Chemscore.Internal.Correction>
0.0031

> <Gold.Rescore>
     Score         DG    S(hbond)    S(metal)    S(lipo)     H(rot)  DE(clash)    DE(int)     intcor
     13.39     -13.85       0.00        0.00     103.04       1.44       0.34       0.11       ----

> <Gold.Chemscore.Fitness>
13.3902

> <Gold.Chemscore.DG>
-13.8471

> <Gold.Chemscore.ZeroCoef>
-5.4800

> <Gold.Chemscore.Hbond>
0.0000

> <Gold.Chemscore.Metal>
0.0000

> <Gold.Chemscore.Lipo>
103.0431

> <Gold.Chemscore.Internal_Hbond>
0.0000

> <Gold.Chemscore.DEClash>
0.3439

> <Gold.Chemscore.DEInternal>
0.1130

> <Gold.Chemscore.Rot>
1.4410

> <Gold.Chemscore.Internal.Correction>
   9.000000E+99

> <Gold.Chemscore.Hbond.Weighted>
-0.0000

> <Gold.Chemscore.Metal.Weighted>
-0.0000

> <Gold.Chemscore.Lipo.Weighted>
-12.0560

> <Gold.Chemscore.Internal_Hbond.Weighted>
0.0000

> <Gold.Chemscore.DEClash.Weighted>
0.3439

> <Gold.Chemscore.DEInternal.Weighted>
0.1130

> <Gold.Chemscore.Rot.Weighted>
3.6889

> <Gold.Chemscore.Internal.Correction.Weighted>
   9.000000E+99

> <Gold.Protein.RotatedTorsions>
[ 6907 6896 6895 6894 ] final   14.14 input  -60.11 | X-H torsion
[ 7974 7965 7964 7962 ] final -108.89 input  175.53 | X-H torsion
[ 8008 7997 7996 7995 ] final  -38.25 input   59.86 | X-H torsion
[ 10167 10162 10161 10158 ] final   -6.76 input  -65.29 | X-H torsion
[ 10718 10713 10712 10709 ] final -179.02 input   66.30 | X-H torsion
[ 10763 10752 10751 10750 ] final  111.83 input  -60.55 | X-H torsion
[ 11005 11000 10999 10996 ] final   99.03 input  -57.11 | X-H torsion

> <Gold.Protein.ActiveResidues>
 VAL166  LYS551  ARG553  GLY616  TRP617  ASP618  TYR619  PRO620  LYS621  CYS622 
 ASP623  PHE694  ASN695  SER759  ASP760  ASP761  ALA762  ILE779  LEU786  VAL792 
 PHE793  MET794  SER795  GLU796  ALA797  LYS798  CYS799  TRP800  GLU811  SER814 

> <Gold.Protein.RotatedAtoms>
  151.7974  135.0718  160.0395 H   0  0  0  0  0  0  0  0  0  0  0  0  # atno 6907 bound_to 6896
  152.3113  133.5751  159.5691 H   0  0  0  0  0  0  0  0  0  0  0  0  # atno 6908 bound_to 6896
  150.7321  134.0064  159.3697 H   0  0  0  0  0  0  0  0  0  0  0  0  # atno 6909 bound_to 6896
  145.1872  140.8998  143.3445 H   0  0  0  0  0  0  0  0  0  0  0  0  # atno 7974 bound_to 7965
  154.4040  140.1583  156.2669 H   0  0  0  0  0  0  0  0  0  0  0  0  # atno 8008 bound_to 7997
  155.8987  140.3434  155.5988 H   0  0  0  0  0  0  0  0  0  0  0  0  # atno 8009 bound_to 7997
  155.7473  140.0800  157.2208 H   0  0  0  0  0  0  0  0  0  0  0  0  # atno 8010 bound_to 7997
  140.7007  143.6157  150.8660 H   0  0  0  0  0  0  0  0  0  0  0  0  # atno 10167 bound_to 10162
  156.8530  130.9725  151.3090 H   0  0  0  0  0  0  0  0  0  0  0  0  # atno 10718 bound_to 10713
  153.4691  135.3705  155.2380 H   0  0  0  0  0  0  0  0  0  0  0  0  # atno 10763 bound_to 10752
  154.8757  135.3927  154.3834 H   0  0  0  0  0  0  0  0  0  0  0  0  # atno 10764 bound_to 10752
  153.4419  135.7084  153.6228 H   0  0  0  0  0  0  0  0  0  0  0  0  # atno 10765 bound_to 10752
  139.8771  134.9077  156.4545 H   0  0  0  0  0  0  0  0  0  0  0  0  # atno 11005 bound_to 11000
  145.0077  139.3539  143.6136 LP  0  0  0  0  0  0  0  0  0  0  0  0  # atno 17320 bound_to 7965
  146.3443  139.9326  142.8751 LP  0  0  0  0  0  0  0  0  0  0  0  0  # atno 17321 bound_to 7965
  139.9879  143.5879  152.2920 LP  0  0  0  0  0  0  0  0  0  0  0  0  # atno 17342 bound_to 10162
  139.6523  144.7661  151.2123 LP  0  0  0  0  0  0  0  0  0  0  0  0  # atno 17343 bound_to 10162
  157.6293  130.8716  149.9245 LP  0  0  0  0  0  0  0  0  0  0  0  0  # atno 17370 bound_to 10713
  156.0818  130.3672  150.0566 LP  0  0  0  0  0  0  0  0  0  0  0  0  # atno 17371 bound_to 10713
  140.8908  133.7849  155.9570 LP  0  0  0  0  0  0  0  0  0  0  0  0  # atno 17394 bound_to 11000
  140.8755  134.2674  157.5170 LP  0  0  0  0  0  0  0  0  0  0  0  0  # atno 17395 bound_to 11000

$$$$
