AV-unprocessed.smi:3225|AV-procd|sdf|12311|dock2
  -GOLD-   2272018153D 1   1.00000     0.00000
 Structure written by MMmdl.
 41 42  0  0  0  0  0  0  0  0  2 V2000
  147.1690  142.0002  155.3486 C   0  0  0  0  0  0  0  0  0  0  0  0
  148.4207  141.7019  154.5062 C   0  0  2  0  0  0  0  0  0  0  0  0
  148.5456  140.2027  154.1471 C   0  0  0  0  0  0  0  0  0  0  0  0
  149.5651  139.5164  154.9201 N   0  0  0  0  0  0  0  0  0  0  0  0
  149.4296  138.4091  155.7311 C   0  0  0  0  0  0  0  0  0  0  0  0
  150.6605  138.1379  156.2561 C   0  0  0  0  0  0  0  0  0  0  0  0
  151.4940  139.1516  155.7065 C   0  0  0  0  0  0  0  0  0  0  0  0
  150.8344  139.9775  154.9100 N   0  0  0  0  0  0  0  0  0  0  0  0
  149.6221  142.1765  155.2284 N   0  3  0  0  0  0  0  0  0  0  0  0
  149.6978  141.7854  156.6518 C   0  0  0  0  0  0  0  0  0  0  0  0
  151.0817  142.0980  157.2343 C   0  0  0  0  0  0  0  0  0  0  0  0
  151.0050  143.0396  158.4479 C   0  0  0  0  0  0  0  0  0  0  0  0
  151.9316  142.6394  159.5035 N   0  0  0  0  0  0  0  0  0  0  0  0
  152.8766  141.5562  159.2898 C   0  0  0  0  0  0  0  0  0  0  0  0
  153.5154  141.3100  160.6641 C   0  0  0  0  0  0  0  0  0  0  0  0
  153.1578  142.5345  161.5135 C   0  0  0  0  0  0  0  0  0  0  0  0
  152.0667  143.2150  160.7041 C   0  0  0  0  0  0  0  0  0  0  0  0
  151.4143  144.1677  161.1286 O   0  0  0  0  0  0  0  0  0  0  0  0
  146.2539  141.7519  154.8104 H   0  0  0  0  0  0  0  0  0  0  0  0
  147.1124  143.0587  155.6051 H   0  0  0  0  0  0  0  0  0  0  0  0
  147.1719  141.4318  156.2794 H   0  0  0  0  0  0  0  0  0  0  0  0
  148.3349  142.2818  153.5857 H   0  0  0  0  0  0  0  0  0  0  0  0
  147.6025  139.6807  154.3094 H   0  0  0  0  0  0  0  0  0  0  0  0
  148.7844  140.0896  153.0887 H   0  0  0  0  0  0  0  0  0  0  0  0
  148.4808  137.9103  155.8647 H   0  0  0  0  0  0  0  0  0  0  0  0
  150.9255  137.3386  156.9323 H   0  0  0  0  0  0  0  0  0  0  0  0
  152.5506  139.3123  155.8628 H   0  0  0  0  0  0  0  0  0  0  0  0
  150.4305  141.7816  154.7691 H   0  0  0  0  0  0  0  0  0  0  0  0
  148.9346  142.3118  157.2246 H   0  0  0  0  0  0  0  0  0  0  0  0
  149.4904  140.7182  156.7418 H   0  0  0  0  0  0  0  0  0  0  0  0
  151.5709  141.1661  157.5214 H   0  0  0  0  0  0  0  0  0  0  0  0
  151.7066  142.5510  156.4633 H   0  0  0  0  0  0  0  0  0  0  0  0
  151.2311  144.0617  158.1405 H   0  0  0  0  0  0  0  0  0  0  0  0
  149.9901  143.0571  158.8483 H   0  0  0  0  0  0  0  0  0  0  0  0
  152.3805  140.6632  158.9074 H   0  0  0  0  0  0  0  0  0  0  0  0
  153.6256  141.8708  158.5618 H   0  0  0  0  0  0  0  0  0  0  0  0
  153.0949  140.4109  161.1164 H   0  0  0  0  0  0  0  0  0  0  0  0
  154.5936  141.1649  160.5884 H   0  0  0  0  0  0  0  0  0  0  0  0
  152.8065  142.2595  162.5084 H   0  0  0  0  0  0  0  0  0  0  0  0
  154.0077  143.2099  161.6151 H   0  0  0  0  0  0  0  0  0  0  0  0
  149.6729  143.1825  155.1537 H   0  0  0  0  0  0  0  0  0  0  0  0
  1  2  1  0  0  0  0
  1 19  1  0  0  0  0
  1 20  1  0  0  0  0
  1 21  1  0  0  0  0
  2  3  1  0  0  0  0
  2  9  1  0  0  0  0
  2 22  1  0  0  0  0
  3  4  1  0  0  0  0
  3 23  1  0  0  0  0
  3 24  1  0  0  0  0
  4  8  1  0  0  0  0
  4  5  1  0  0  0  0
  5  6  2  0  0  0  0
  5 25  1  0  0  0  0
  6  7  1  0  0  0  0
  6 26  1  0  0  0  0
  7  8  2  0  0  0  0
  7 27  1  0  0  0  0
  9 10  1  0  0  0  0
  9 28  1  0  0  0  0
  9 41  1  0  0  0  0
 10 11  1  0  0  0  0
 10 29  1  0  0  0  0
 10 30  1  0  0  0  0
 11 12  1  0  0  0  0
 11 31  1  0  0  0  0
 11 32  1  0  0  0  0
 12 13  1  0  0  0  0
 12 33  1  0  0  0  0
 12 34  1  0  0  0  0
 13 17  1  0  0  0  0
 13 14  1  0  0  0  0
 14 15  1  0  0  0  0
 14 35  1  0  0  0  0
 14 36  1  0  0  0  0
 15 16  1  0  0  0  0
 15 37  1  0  0  0  0
 15 38  1  0  0  0  0
 16 17  1  0  0  0  0
 16 39  1  0  0  0  0
 16 40  1  0  0  0  0
 17 18  2  0  0  0  0
M  CHG  1   9   1
M  END
> <s_m_source_file>
AV-unprocessed.smi

> <i_m_source_file_index>
3225

> <i_lp_mmshare_version>
43012

> <i_f3d_flags>
0

> <s_epik_input>
bjFbY0hdW2NIXVtjSF1uMVtDSDJdW0NAQEhdKFtDSDNdKVtOSF1bQ0gyXVtDSDJdW0NIMl1OMltDSDJdW0NIMl1bQ0gyXUMyPU8=

> <s_epik_cmdline>
J2VwaWtfcHl0aG9uJywgJy1waCcsICc3LjAnLCAnLXRuJywgJzgnLCAnLW1hJywgJzIwMCcsICctbWV0YWxfYmluZGluZycsICctaW1hZScsICc8aW5maWxlLm1hZT4nLCAnLW9tYWUnLCAnPG91dGZpbGUubWFlPic=

> <r_lp_tautomer_probability>
1

> <r_epik_Ionization_Penalty>
0.00490443

> <r_epik_Ionization_Penalty_Charging>
0.00490019

> <r_epik_Ionization_Penalty_Neutral>
4.24076e-06

> <r_epik_State_Penalty>
0.00355741

> <r_epik_Charging_Adjusted_Penalty>
0.0084576

> <i_epik_Tot_Q>
1

> <i_epik_Tot_abs_Q>
1

> <r_epik_Metal_State_Penalty>
-0

> <b_epik_Metal_Only>
0

> <s_lp_Force_Field>
OPLS_2005

> <r_lp_Energy>
20.009

> <b_lp_Chiralities_Consistent>
1

> <s_lp_Variant>
AV-unprocessed.smi:3225-1

> <Gold.Version>
5.8.1

> <Gold.Id.Protein>
6NUR|6NUR_protein|mol2

> <Gold.PLP.Fitness>
45.8954

> <Gold.PLP.PLP>
-39.7469

> <Gold.PLP.part.hbond>
-2.2672

> <Gold.PLP.part.metal>
0.0000

> <Gold.PLP.part.buried>
-4.7009

> <Gold.PLP.part.nonpolar>
-32.3716

> <Gold.PLP.part.repulsive>
0.4453

> <Gold.PLP.ligand.clash>
0.0000

> <Gold.PLP.ligand.torsion>
1.4526

> <Gold.PLP.Chemscore.Hbond>
3.0000

> <Gold.PLP.Chemscore.CHOScore>
0.0000

> <Gold.PLP.Chemscore.Metal>
0.0000

> <Gold.Chemscore.Hbonds>
donor molecule, donor type, donor heavy atom, donor atom, acceptor molecule, acceptor atom, score
      L1  H     9    41       P1  8028  1.79
      P1  H  7989  7998       L1     8  1.00

> <Gold.PLP.Chemscore.Internal.Correction>
0.0538

> <Gold.Rescore>
     Score         DG    S(hbond)    S(metal)    S(lipo)     H(rot)  DE(clash)    DE(int)     intcor
     12.35     -16.58       1.96        0.00      86.81       2.19       0.02       4.21       ----

> <Gold.Chemscore.Fitness>
12.3461

> <Gold.Chemscore.DG>
-16.5751

> <Gold.Chemscore.ZeroCoef>
-5.4800

> <Gold.Chemscore.Hbond>
1.9582

> <Gold.Chemscore.Metal>
0.0000

> <Gold.Chemscore.Lipo>
86.8110

> <Gold.Chemscore.Internal_Hbond>
0.0000

> <Gold.Chemscore.DEClash>
0.0164

> <Gold.Chemscore.DEInternal>
4.2126

> <Gold.Chemscore.Rot>
2.1884

> <Gold.Chemscore.Internal.Correction>
   9.000000E+99

> <Gold.Chemscore.Hbonds>
donor molecule, donor type, donor heavy atom, donor atom, acceptor molecule, acceptor atom, score
      L1  H     9    41       P1  8028  0.88
      P1  H  7989  7998       L1     8  0.99

> <Gold.Chemscore.Hbond.Weighted>
-6.5405

> <Gold.Chemscore.Metal.Weighted>
-0.0000

> <Gold.Chemscore.Lipo.Weighted>
-10.1569

> <Gold.Chemscore.Internal_Hbond.Weighted>
0.0000

> <Gold.Chemscore.DEClash.Weighted>
0.0164

> <Gold.Chemscore.DEInternal.Weighted>
4.2126

> <Gold.Chemscore.Rot.Weighted>
5.6023

> <Gold.Chemscore.Internal.Correction.Weighted>
   9.000000E+99

> <Gold.Protein.RotatedTorsions>
[ 6907 6896 6895 6894 ] final   34.09 input  -60.11 | X-H torsion
[ 7974 7965 7964 7962 ] final  165.33 input  175.53 | X-H torsion
[ 8008 7997 7996 7995 ] final  165.49 input   59.86 | X-H torsion
[ 10167 10162 10161 10158 ] final  128.58 input  -65.29 | X-H torsion
[ 10718 10713 10712 10709 ] final  -85.92 input   66.30 | X-H torsion
[ 10763 10752 10751 10750 ] final  -99.84 input  -60.55 | X-H torsion
[ 11005 11000 10999 10996 ] final  111.15 input  -57.11 | X-H torsion

> <Gold.Protein.ActiveResidues>
 VAL166  LYS551  ARG553  GLY616  TRP617  ASP618  TYR619  PRO620  LYS621  CYS622 
 ASP623  PHE694  ASN695  SER759  ASP760  ASP761  ALA762  ILE779  LEU786  VAL792 
 PHE793  MET794  SER795  GLU796  ALA797  LYS798  CYS799  TRP800  GLU811  SER814 

> <Gold.Protein.RotatedAtoms>
  152.0976  134.9364  160.0570 H   0  0  0  0  0  0  0  0  0  0  0  0  # atno 6907 bound_to 6896
  152.0591  133.4049  159.4418 H   0  0  0  0  0  0  0  0  0  0  0  0  # atno 6908 bound_to 6896
  150.6838  134.3141  159.4802 H   0  0  0  0  0  0  0  0  0  0  0  0  # atno 6909 bound_to 6896
  144.7507  139.8455  143.6367 H   0  0  0  0  0  0  0  0  0  0  0  0  # atno 7974 bound_to 7965
  156.1796  140.1668  156.8299 H   0  0  0  0  0  0  0  0  0  0  0  0  # atno 8008 bound_to 7997
  154.5345  140.0749  156.8436 H   0  0  0  0  0  0  0  0  0  0  0  0  # atno 8009 bound_to 7997
  155.3339  140.3380  155.4241 H   0  0  0  0  0  0  0  0  0  0  0  0  # atno 8010 bound_to 7997
  139.5520  144.6820  151.4295 H   0  0  0  0  0  0  0  0  0  0  0  0  # atno 10167 bound_to 10162
  155.9993  130.4747  150.4636 H   0  0  0  0  0  0  0  0  0  0  0  0  # atno 10718 bound_to 10713
  154.7531  135.4957  153.9325 H   0  0  0  0  0  0  0  0  0  0  0  0  # atno 10763 bound_to 10752
  153.1165  135.6722  153.9416 H   0  0  0  0  0  0  0  0  0  0  0  0  # atno 10764 bound_to 10752
  153.9161  135.3093  155.3427 H   0  0  0  0  0  0  0  0  0  0  0  0  # atno 10765 bound_to 10752
  139.8897  134.9501  156.6388 H   0  0  0  0  0  0  0  0  0  0  0  0  # atno 11005 bound_to 11000
  146.1453  139.4520  143.0083 LP  0  0  0  0  0  0  0  0  0  0  0  0  # atno 17320 bound_to 7965
  145.6955  141.0151  143.1532 LP  0  0  0  0  0  0  0  0  0  0  0  0  # atno 17321 bound_to 7965
  140.6785  143.8136  150.7089 LP  0  0  0  0  0  0  0  0  0  0  0  0  # atno 17342 bound_to 10162
  140.1582  143.4298  152.2085 LP  0  0  0  0  0  0  0  0  0  0  0  0  # atno 17343 bound_to 10162
  157.2658  131.0576  151.2291 LP  0  0  0  0  0  0  0  0  0  0  0  0  # atno 17370 bound_to 10713
  157.3390  130.7023  149.6370 LP  0  0  0  0  0  0  0  0  0  0  0  0  # atno 17371 bound_to 10713
  140.7609  133.8818  155.8418 LP  0  0  0  0  0  0  0  0  0  0  0  0  # atno 17394 bound_to 11000
  140.9922  134.1263  157.4397 LP  0  0  0  0  0  0  0  0  0  0  0  0  # atno 17395 bound_to 11000

$$$$
