AV-unprocessed.smi:561|AV-procd|sdf|2937|dock4
  -GOLD-   2262023433D 1   1.00000     0.00000
 Structure written by MMmdl.
 37 38  0  0  0  0  0  0  0  0  2 V2000
  153.3060  139.2201  154.9242 C   0  0  0  0  0  0  0  0  0  0  0  0
  152.0776  140.1250  155.0877 C   0  0  1  0  0  0  0  0  0  0  0  0
  150.7686  139.3342  154.8789 C   0  0  0  0  0  0  0  0  0  0  0  0
  149.5756  140.1864  154.9161 N   0  0  0  0  0  0  0  0  0  0  0  0
  149.2068  141.1367  153.9990 C   0  0  0  0  0  0  0  0  0  0  0  0
  148.0350  141.6843  154.4531 C   0  0  0  0  0  0  0  0  0  0  0  0
  147.7352  141.0420  155.6246 N   0  3  0  0  0  0  0  0  0  0  0  0
  148.6709  140.1282  155.9020 C   0  0  0  0  0  0  0  0  0  0  0  0
  152.1161  140.7363  156.4153 N   0  0  0  0  0  0  0  0  0  0  0  0
  151.3642  141.7725  156.8316 C   0  0  0  0  0  0  0  0  0  0  0  0
  150.5295  142.3266  156.1157 O   0  0  0  0  0  0  0  0  0  0  0  0
  151.5858  142.2140  158.2342 C   0  0  0  0  0  0  0  0  0  0  0  0
  152.6271  141.8012  158.8863 N   0  0  0  0  0  0  0  0  0  0  0  0
  152.8660  142.1708  160.1941 N   0  0  0  0  0  0  0  0  0  0  0  0
  153.9214  141.4127  160.8629 C   0  0  0  0  0  0  0  0  0  0  0  0
  152.2226  143.1737  160.8420 C   0  0  0  0  0  0  0  0  0  0  0  0
  152.4396  143.4809  162.0139 O   0  0  0  0  0  0  0  0  0  0  0  0
  151.1966  143.9653  160.0259 C   0  0  0  0  0  0  0  0  0  0  0  0
  150.5687  143.1196  158.9000 C   0  0  0  0  0  0  0  0  0  0  0  0
  153.3310  138.7679  153.9323 H   0  0  0  0  0  0  0  0  0  0  0  0
  153.3065  138.4130  155.6575 H   0  0  0  0  0  0  0  0  0  0  0  0
  154.2300  139.7855  155.0495 H   0  0  0  0  0  0  0  0  0  0  0  0
  152.1472  140.9011  154.3232 H   0  0  0  0  0  0  0  0  0  0  0  0
  150.7760  138.8422  153.9054 H   0  0  0  0  0  0  0  0  0  0  0  0
  150.6628  138.5478  155.6281 H   0  0  0  0  0  0  0  0  0  0  0  0
  149.7946  141.3516  153.1183 H   0  0  0  0  0  0  0  0  0  0  0  0
  147.4091  142.4627  154.0418 H   0  0  0  0  0  0  0  0  0  0  0  0
  148.6960  139.4799  156.7598 H   0  0  0  0  0  0  0  0  0  0  0  0
  152.7767  140.3471  157.0733 H   0  0  0  0  0  0  0  0  0  0  0  0
  153.5335  140.9182  161.7546 H   0  0  0  0  0  0  0  0  0  0  0  0
  154.7358  142.0727  161.1654 H   0  0  0  0  0  0  0  0  0  0  0  0
  154.3447  140.6415  160.2171 H   0  0  0  0  0  0  0  0  0  0  0  0
  150.4204  144.3616  160.6814 H   0  0  0  0  0  0  0  0  0  0  0  0
  151.7131  144.8241  159.5953 H   0  0  0  0  0  0  0  0  0  0  0  0
  150.1190  143.7951  158.1712 H   0  0  0  0  0  0  0  0  0  0  0  0
  149.7552  142.5133  159.3000 H   0  0  0  0  0  0  0  0  0  0  0  0
  146.9243  141.2306  156.2002 H   0  0  0  0  0  0  0  0  0  0  0  0
  1  2  1  0  0  0  0
  1 20  1  0  0  0  0
  1 21  1  0  0  0  0
  1 22  1  0  0  0  0
  2  3  1  0  0  0  0
  2  9  1  0  0  0  0
  2 23  1  0  0  0  0
  3  4  1  0  0  0  0
  3 24  1  0  0  0  0
  3 25  1  0  0  0  0
  4  8  1  0  0  0  0
  4  5  1  0  0  0  0
  5  6  2  0  0  0  0
  5 26  1  0  0  0  0
  6  7  1  0  0  0  0
  6 27  1  0  0  0  0
  7  8  2  0  0  0  0
  7 37  1  0  0  0  0
  8 28  1  0  0  0  0
  9 10  1  0  0  0  0
  9 29  1  0  0  0  0
 10 11  2  0  0  0  0
 10 12  1  0  0  0  0
 12 19  1  0  0  0  0
 12 13  2  0  0  0  0
 13 14  1  0  0  0  0
 14 15  1  0  0  0  0
 14 16  1  0  0  0  0
 15 30  1  0  0  0  0
 15 31  1  0  0  0  0
 15 32  1  0  0  0  0
 16 17  2  0  0  0  0
 16 18  1  0  0  0  0
 18 19  1  0  0  0  0
 18 33  1  0  0  0  0
 18 34  1  0  0  0  0
 19 35  1  0  0  0  0
 19 36  1  0  0  0  0
M  CHG  1   7   1
M  END
> <s_m_source_file>
AV-unprocessed.smi

> <i_m_source_file_index>
561

> <i_lp_mmshare_version>
43012

> <i_f3d_flags>
0

> <s_epik_input>
W2NIXTFuW2NIXVtjSF1uMVtDSDJdW0NAQEhdKFtDSDNdKVtOSF1DKD1PKUMyPU5OKFtDSDNdKUMoPU8pW0NIMl1bQ0gyXTI=

> <s_epik_cmdline>
J2VwaWtfcHl0aG9uJywgJy1waCcsICc3LjAnLCAnLXRuJywgJzgnLCAnLW1hJywgJzIwMCcsICctbWV0YWxfYmluZGluZycsICctaW1hZScsICc8aW5maWxlLm1hZT4nLCAnLW9tYWUnLCAnPG91dGZpbGUubWFlPic=

> <r_lp_tautomer_probability>
1

> <r_epik_Ionization_Penalty>
0.358595

> <r_epik_Ionization_Penalty_Charging>
0

> <r_epik_Ionization_Penalty_Neutral>
0.358595

> <r_epik_State_Penalty>
0.355181

> <r_epik_Charging_Adjusted_Penalty>
0.355181

> <i_epik_Tot_Q>
1

> <i_epik_Tot_abs_Q>
1

> <r_epik_Metal_State_Penalty>
0.718565

> <b_epik_Metal_Only>
0

> <s_epik_Chemistry_Notes>
This compound has an imine and may undergo hydrolysis.

> <s_lp_Force_Field>
OPLS_2005

> <r_lp_Energy>
19.4288

> <b_lp_Chiralities_Consistent>
1

> <s_lp_Variant>
AV-unprocessed.smi:561-2

> <Gold.Version>
5.8.1

> <Gold.Id.Protein>
6NUR|6NUR_protein|mol2

> <Gold.PLP.Fitness>
38.7733

> <Gold.PLP.PLP>
-36.3494

> <Gold.PLP.part.hbond>
0.0000

> <Gold.PLP.part.metal>
0.0000

> <Gold.PLP.part.buried>
-3.9369

> <Gold.PLP.part.nonpolar>
-32.8601

> <Gold.PLP.part.repulsive>
0.4748

> <Gold.PLP.ligand.clash>
0.0000

> <Gold.PLP.ligand.torsion>
0.2962

> <Gold.PLP.Chemscore.Hbond>
0.0000

> <Gold.PLP.Chemscore.CHOScore>
1.0000

> <Gold.PLP.Chemscore.Metal>
0.0000

> <Gold.Chemscore.Hbonds>
donor molecule, donor type, donor heavy atom, donor atom, acceptor molecule, acceptor atom, score
      L1  C     5    26       P1  7957  0.85

> <Gold.PLP.Chemscore.Internal.Correction>
0.0163

> <Gold.Rescore>
     Score         DG    S(hbond)    S(metal)    S(lipo)     H(rot)  DE(clash)    DE(int)     intcor
      8.16      -9.41       0.00        0.00      72.06       1.76       0.03       1.22       ----

> <Gold.Chemscore.Fitness>
8.1583

> <Gold.Chemscore.DG>
-9.4078

> <Gold.Chemscore.ZeroCoef>
-5.4800

> <Gold.Chemscore.Hbond>
0.0000

> <Gold.Chemscore.Metal>
0.0000

> <Gold.Chemscore.Lipo>
72.0570

> <Gold.Chemscore.Internal_Hbond>
0.0000

> <Gold.Chemscore.DEClash>
0.0332

> <Gold.Chemscore.DEInternal>
1.2163

> <Gold.Chemscore.Rot>
1.7589

> <Gold.Chemscore.Internal.Correction>
   9.000000E+99

> <Gold.Chemscore.Hbond.Weighted>
-0.0000

> <Gold.Chemscore.Metal.Weighted>
-0.0000

> <Gold.Chemscore.Lipo.Weighted>
-8.4307

> <Gold.Chemscore.Internal_Hbond.Weighted>
0.0000

> <Gold.Chemscore.DEClash.Weighted>
0.0332

> <Gold.Chemscore.DEInternal.Weighted>
1.2163

> <Gold.Chemscore.Rot.Weighted>
4.5028

> <Gold.Chemscore.Internal.Correction.Weighted>
   9.000000E+99

> <Gold.Protein.RotatedTorsions>
[ 6907 6896 6895 6894 ] final   42.10 input  -60.11 | X-H torsion
[ 7974 7965 7964 7962 ] final  115.48 input  175.53 | X-H torsion
[ 8008 7997 7996 7995 ] final  -42.41 input   59.86 | X-H torsion
[ 10167 10162 10161 10158 ] final   38.71 input  -65.29 | X-H torsion
[ 10718 10713 10712 10709 ] final  100.52 input   66.30 | X-H torsion
[ 10763 10752 10751 10750 ] final   94.41 input  -60.55 | X-H torsion
[ 11005 11000 10999 10996 ] final -140.86 input  -57.11 | X-H torsion

> <Gold.Protein.ActiveResidues>
 VAL166  LYS551  ARG553  GLY616  TRP617  ASP618  TYR619  PRO620  LYS621  CYS622 
 ASP623  PHE694  ASN695  SER759  ASP760  ASP761  ALA762  ILE779  LEU786  VAL792 
 PHE793  MET794  SER795  GLU796  ALA797  LYS798  CYS799  TRP800  GLU811  SER814 

> <Gold.Protein.RotatedAtoms>
  152.2036  134.8565  160.0504 H   0  0  0  0  0  0  0  0  0  0  0  0  # atno 6907 bound_to 6896
  151.9409  133.3632  159.3973 H   0  0  0  0  0  0  0  0  0  0  0  0  # atno 6908 bound_to 6896
  150.6960  134.4364  159.5316 H   0  0  0  0  0  0  0  0  0  0  0  0  # atno 6909 bound_to 6896
  145.1914  139.2998  143.4366 H   0  0  0  0  0  0  0  0  0  0  0  0  # atno 7974 bound_to 7965
  154.3999  140.1474  156.3350 H   0  0  0  0  0  0  0  0  0  0  0  0  # atno 8008 bound_to 7997
  155.8409  140.3462  155.5610 H   0  0  0  0  0  0  0  0  0  0  0  0  # atno 8009 bound_to 7997
  155.8088  140.0881  157.1906 H   0  0  0  0  0  0  0  0  0  0  0  0  # atno 8010 bound_to 7997
  140.3910  144.1852  150.6131 H   0  0  0  0  0  0  0  0  0  0  0  0  # atno 10167 bound_to 10162
  157.6852  131.0700  150.5112 H   0  0  0  0  0  0  0  0  0  0  0  0  # atno 10718 bound_to 10713
  153.2414  135.4290  155.0701 H   0  0  0  0  0  0  0  0  0  0  0  0  # atno 10763 bound_to 10752
  154.8342  135.3403  154.6644 H   0  0  0  0  0  0  0  0  0  0  0  0  # atno 10764 bound_to 10752
  153.7068  135.7025  153.5105 H   0  0  0  0  0  0  0  0  0  0  0  0  # atno 10765 bound_to 10752
  140.8381  134.2435  157.4824 H   0  0  0  0  0  0  0  0  0  0  0  0  # atno 11005 bound_to 11000
  146.3435  140.2128  142.8590 LP  0  0  0  0  0  0  0  0  0  0  0  0  # atno 17320 bound_to 7965
  145.0037  140.8654  143.5266 LP  0  0  0  0  0  0  0  0  0  0  0  0  # atno 17321 bound_to 7965
  140.4839  143.2370  151.8916 LP  0  0  0  0  0  0  0  0  0  0  0  0  # atno 17342 bound_to 10162
  139.4789  144.5239  151.8762 LP  0  0  0  0  0  0  0  0  0  0  0  0  # atno 17343 bound_to 10162
  156.5429  130.4212  149.6145 LP  0  0  0  0  0  0  0  0  0  0  0  0  # atno 17370 bound_to 10713
  156.2969  130.7155  151.2018 LP  0  0  0  0  0  0  0  0  0  0  0  0  # atno 17371 bound_to 10713
  139.8703  134.9621  156.4419 LP  0  0  0  0  0  0  0  0  0  0  0  0  # atno 17394 bound_to 11000
  140.8925  133.7838  155.9588 LP  0  0  0  0  0  0  0  0  0  0  0  0  # atno 17395 bound_to 11000

$$$$
