AV-unprocessed.smi:249|AV-procd|sdf|1919|dock5
  -GOLD-   2262021 23D 1   1.00000     0.00000
 Structure written by MMmdl.
 64 67  0  0  0  0  0  0  0  0  2 V2000
  147.0190  128.6511  151.8895 C   0  0  0  0  0  0  0  0  0  0  0  0
  145.9630  129.7549  152.0633 C   0  0  0  0  0  0  0  0  0  0  0  0
  146.4128  131.0889  151.5699 N   0  3  1  0  0  0  0  0  0  0  0  0
  145.3582  131.7556  150.7519 C   0  0  0  0  0  0  0  0  0  0  0  0
  145.8283  133.1004  150.1743 C   0  0  0  0  0  0  0  0  0  0  0  0
  146.2671  134.0675  151.2857 C   0  0  1  0  0  0  0  0  0  0  0  0
  145.1383  134.5002  152.1266 N   0  0  0  0  0  0  0  0  0  0  0  0
  143.9144  134.9237  151.4542 C   0  0  0  0  0  0  0  0  0  0  0  0
  145.4296  135.3340  153.1504 C   0  0  0  0  0  0  0  0  0  0  0  0
  145.2079  134.8715  154.4054 N   0  0  0  0  0  0  0  0  0  0  0  0
  145.4942  135.6412  155.4597 C   0  0  0  0  0  0  0  0  0  0  0  0
  146.0021  136.8753  155.4788 N   0  0  0  0  0  0  0  0  0  0  0  0
  146.2163  137.3450  154.2163 C   0  0  0  0  0  0  0  0  0  0  0  0
  145.9508  136.6503  153.0035 C   0  0  0  0  0  0  0  0  0  0  0  0
  146.2845  137.4481  151.9157 N   0  0  0  0  0  0  0  0  0  0  0  0
  146.7386  138.5465  152.4549 C   0  0  0  0  0  0  0  0  0  0  0  0
  146.7489  138.5625  153.8312 N   0  0  0  0  0  0  0  0  0  0  0  0
  147.2267  139.6400  154.6798 C   0  0  0  0  0  0  0  0  0  0  0  0
  148.4397  139.2324  155.5545 C   0  0  1  0  0  0  0  0  0  0  0  0
  149.6508  138.8645  154.6641 C   0  0  0  0  0  0  0  0  0  0  0  0
  150.0613  139.9750  153.8937 O   0  0  0  0  0  0  0  0  0  0  0  0
  148.7633  140.2878  156.6517 C   0  0  2  0  0  0  0  0  0  0  0  0
  149.1175  141.6935  156.1672 C   0  0  0  0  0  0  0  0  0  0  0  0
  150.2581  142.1311  157.0901 C   0  0  0  0  0  0  0  0  0  0  0  0
  150.2392  141.2013  158.1631 O   0  0  0  0  0  0  0  0  0  0  0  0
  149.9080  139.9402  157.6076 C   0  0  0  0  0  0  0  0  0  0  0  0
  147.3873  133.3467  152.0675 C   0  0  0  0  0  0  0  0  0  0  0  0
  146.9354  131.9877  152.6509 C   0  0  2  0  0  0  0  0  0  0  0  0
  148.1176  131.3737  153.4298 C   0  0  0  0  0  0  0  0  0  0  0  0
  146.7079  127.7436  152.4078 H   0  0  0  0  0  0  0  0  0  0  0  0
  147.9798  128.9540  152.3066 H   0  0  0  0  0  0  0  0  0  0  0  0
  147.1691  128.3802  150.8450 H   0  0  0  0  0  0  0  0  0  0  0  0
  145.0313  129.4716  151.5714 H   0  0  0  0  0  0  0  0  0  0  0  0
  145.7493  129.7944  153.1285 H   0  0  0  0  0  0  0  0  0  0  0  0
  145.0714  131.1224  149.9142 H   0  0  0  0  0  0  0  0  0  0  0  0
  144.4620  131.8977  151.3576 H   0  0  0  0  0  0  0  0  0  0  0  0
  146.6661  132.9236  149.4985 H   0  0  0  0  0  0  0  0  0  0  0  0
  145.0459  133.5401  149.5557 H   0  0  0  0  0  0  0  0  0  0  0  0
  146.6860  134.9555  150.8116 H   0  0  0  0  0  0  0  0  0  0  0  0
  143.2428  135.4648  152.1234 H   0  0  0  0  0  0  0  0  0  0  0  0
  143.3692  134.0566  151.0822 H   0  0  0  0  0  0  0  0  0  0  0  0
  144.1451  135.5730  150.6090 H   0  0  0  0  0  0  0  0  0  0  0  0
  145.2926  135.2042  156.4267 H   0  0  0  0  0  0  0  0  0  0  0  0
  147.0937  139.3759  151.8602 H   0  0  0  0  0  0  0  0  0  0  0  0
  147.4839  140.4784  154.0320 H   0  0  0  0  0  0  0  0  0  0  0  0
  146.4052  139.9813  155.3103 H   0  0  0  0  0  0  0  0  0  0  0  0
  148.1554  138.3257  156.0915 H   0  0  0  0  0  0  0  0  0  0  0  0
  150.4955  138.5238  155.2624 H   0  0  0  0  0  0  0  0  0  0  0  0
  149.4118  138.0644  153.9669 H   0  0  0  0  0  0  0  0  0  0  0  0
  149.6972  139.8906  153.0257 H   0  0  0  0  0  0  0  0  0  0  0  0
  147.8924  140.3925  157.2995 H   0  0  0  0  0  0  0  0  0  0  0  0
  149.4344  141.7289  155.1256 H   0  0  0  0  0  0  0  0  0  0  0  0
  148.2584  142.3569  156.2684 H   0  0  0  0  0  0  0  0  0  0  0  0
  151.2159  142.0597  156.5726 H   0  0  0  0  0  0  0  0  0  0  0  0
  150.1399  143.1541  157.4479 H   0  0  0  0  0  0  0  0  0  0  0  0
  149.6070  139.2312  158.3793 H   0  0  0  0  0  0  0  0  0  0  0  0
  150.7838  139.5390  157.0995 H   0  0  0  0  0  0  0  0  0  0  0  0
  148.2301  133.1800  151.3949 H   0  0  0  0  0  0  0  0  0  0  0  0
  147.7830  133.9842  152.8583 H   0  0  0  0  0  0  0  0  0  0  0  0
  146.1255  132.1669  153.3596 H   0  0  0  0  0  0  0  0  0  0  0  0
  148.5737  132.1117  154.0906 H   0  0  0  0  0  0  0  0  0  0  0  0
  148.8956  131.0138  152.7555 H   0  0  0  0  0  0  0  0  0  0  0  0
  147.8117  130.5488  154.0720 H   0  0  0  0  0  0  0  0  0  0  0  0
  147.1916  130.9172  150.9504 H   0  0  0  0  0  0  0  0  0  0  0  0
  1  2  1  0  0  0  0
  1 30  1  0  0  0  0
  1 31  1  0  0  0  0
  1 32  1  0  0  0  0
  2  3  1  0  0  0  0
  2 33  1  0  0  0  0
  2 34  1  0  0  0  0
  3 28  1  0  0  0  0
  3  4  1  0  0  0  0
  3 64  1  0  0  0  0
  4  5  1  0  0  0  0
  4 35  1  0  0  0  0
  4 36  1  0  0  0  0
  5  6  1  0  0  0  0
  5 37  1  0  0  0  0
  5 38  1  0  0  0  0
  6  7  1  0  0  0  0
  6 27  1  0  0  0  0
  6 39  1  0  0  0  0
  7  8  1  0  0  0  0
  7  9  1  0  0  0  0
  8 40  1  0  0  0  0
  8 41  1  0  0  0  0
  8 42  1  0  0  0  0
  9 14  1  0  0  0  0
  9 10  2  0  0  0  0
 10 11  1  0  0  0  0
 11 12  2  0  0  0  0
 11 43  1  0  0  0  0
 12 13  1  0  0  0  0
 13 17  1  0  0  0  0
 13 14  2  0  0  0  0
 14 15  1  0  0  0  0
 15 16  2  0  0  0  0
 16 17  1  0  0  0  0
 16 44  1  0  0  0  0
 17 18  1  0  0  0  0
 18 19  1  0  0  0  0
 18 45  1  0  0  0  0
 18 46  1  0  0  0  0
 19 20  1  0  0  0  0
 19 22  1  0  0  0  0
 19 47  1  0  0  0  0
 20 21  1  0  0  0  0
 20 48  1  0  0  0  0
 20 49  1  0  0  0  0
 21 50  1  0  0  0  0
 22 26  1  0  0  0  0
 22 23  1  0  0  0  0
 22 51  1  0  0  0  0
 23 24  1  0  0  0  0
 23 52  1  0  0  0  0
 23 53  1  0  0  0  0
 24 25  1  0  0  0  0
 24 54  1  0  0  0  0
 24 55  1  0  0  0  0
 25 26  1  0  0  0  0
 26 56  1  0  0  0  0
 26 57  1  0  0  0  0
 27 28  1  0  0  0  0
 27 58  1  0  0  0  0
 27 59  1  0  0  0  0
 28 29  1  0  0  0  0
 28 60  1  0  0  0  0
 29 61  1  0  0  0  0
 29 62  1  0  0  0  0
 29 63  1  0  0  0  0
M  CHG  1   3   1
M  END
> <s_m_source_file>
AV-unprocessed.smi

> <i_m_source_file_index>
249

> <i_lp_mmshare_version>
43012

> <i_f3d_flags>
0

> <s_epik_input>
W0NIM11bQ0gyXU4xW0NIMl1bQ0gyXVtDQEhdKFtDSDJdW0NASF0xW0NIM10pTihbQ0gzXSljKG5bY0hdbjIpYyhjMjMpbltjSF1uM1tDSDJdW0NASF0oW0NIMl1bT0hdKVtDQEBIXTRbQ0gyXVtDSDJdT1tDSDJdNA==

> <s_epik_cmdline>
J2VwaWtfcHl0aG9uJywgJy1waCcsICc3LjAnLCAnLXRuJywgJzgnLCAnLW1hJywgJzIwMCcsICctbWV0YWxfYmluZGluZycsICctaW1hZScsICc8aW5maWxlLm1hZT4nLCAnLW9tYWUnLCAnPG91dGZpbGUubWFlPic=

> <r_lp_tautomer_probability>
1

> <r_epik_Ionization_Penalty>
0.00294688

> <r_epik_Ionization_Penalty_Charging>
0.00169971

> <r_epik_Ionization_Penalty_Neutral>
0.00124717

> <r_epik_State_Penalty>
-0

> <r_epik_Charging_Adjusted_Penalty>
0.00169971

> <i_epik_Tot_Q>
1

> <i_epik_Tot_abs_Q>
1

> <r_epik_Metal_State_Penalty>
-0

> <b_epik_Metal_Only>
0

> <s_lp_Force_Field>
OPLS_2005

> <r_lp_Energy>
56.7339

> <b_lp_Chiralities_Consistent>
1

> <s_lp_Variant>
AV-unprocessed.smi:249-22

> <Gold.Version>
5.8.1

> <Gold.Id.Protein>
6NUR|6NUR_protein|mol2

> <Gold.PLP.Fitness>
47.2397

> <Gold.PLP.PLP>
-36.7474

> <Gold.PLP.part.hbond>
-3.0000

> <Gold.PLP.part.metal>
0.0000

> <Gold.PLP.part.buried>
-3.6430

> <Gold.PLP.part.nonpolar>
-31.8583

> <Gold.PLP.part.repulsive>
2.1555

> <Gold.PLP.ligand.clash>
0.0000

> <Gold.PLP.ligand.torsion>
0.9277

> <Gold.PLP.Chemscore.Hbond>
2.9033

> <Gold.PLP.Chemscore.CHOScore>
0.9811

> <Gold.PLP.Chemscore.Metal>
0.0000

> <Gold.Chemscore.Hbonds>
donor molecule, donor type, donor heavy atom, donor atom, acceptor molecule, acceptor atom, score
      L1  H     3    64       P1 10747  1.00
      L1  H    21    50       P1  7957  1.00
      P1  H  7989  7998       L1    21  0.84
      L1  C    16    44       P1  7957  0.69

> <Gold.PLP.Chemscore.Internal.Correction>
0.6944

> <Gold.Rescore>
     Score         DG    S(hbond)    S(metal)    S(lipo)     H(rot)  DE(clash)    DE(int)     intcor
     16.14     -17.95       2.55        0.00      97.34       2.90       0.91       0.89       ----

> <Gold.Chemscore.Fitness>
16.1429

> <Gold.Chemscore.DG>
-17.9477

> <Gold.Chemscore.ZeroCoef>
-5.4800

> <Gold.Chemscore.Hbond>
2.5463

> <Gold.Chemscore.Metal>
0.0000

> <Gold.Chemscore.Lipo>
97.3377

> <Gold.Chemscore.Internal_Hbond>
0.0000

> <Gold.Chemscore.DEClash>
0.9128

> <Gold.Chemscore.DEInternal>
0.8919

> <Gold.Chemscore.Rot>
2.9006

> <Gold.Chemscore.Internal.Correction>
   9.000000E+99

> <Gold.Chemscore.Hbonds>
donor molecule, donor type, donor heavy atom, donor atom, acceptor molecule, acceptor atom, score
      L1  H     3    64       P1 10747  0.99
      L1  H    21    50       P1  7957  0.99
      P1  H  7989  7998       L1    21  0.19

> <Gold.Chemscore.Hbond.Weighted>
-8.5048

> <Gold.Chemscore.Metal.Weighted>
-0.0000

> <Gold.Chemscore.Lipo.Weighted>
-11.3885

> <Gold.Chemscore.Internal_Hbond.Weighted>
0.0000

> <Gold.Chemscore.DEClash.Weighted>
0.9128

> <Gold.Chemscore.DEInternal.Weighted>
0.8919

> <Gold.Chemscore.Rot.Weighted>
7.4256

> <Gold.Chemscore.Internal.Correction.Weighted>
   9.000000E+99

> <Gold.Protein.RotatedTorsions>
[ 6907 6896 6895 6894 ] final  -44.59 input  -60.11 | X-H torsion
[ 7974 7965 7964 7962 ] final -172.09 input  175.53 | X-H torsion
[ 8008 7997 7996 7995 ] final  -75.39 input   59.86 | X-H torsion
[ 10167 10162 10161 10158 ] final  -40.74 input  -65.29 | X-H torsion
[ 10718 10713 10712 10709 ] final  -51.62 input   66.30 | X-H torsion
[ 10763 10752 10751 10750 ] final -143.13 input  -60.55 | X-H torsion
[ 11005 11000 10999 10996 ] final -142.63 input  -57.11 | X-H torsion

> <Gold.Protein.ActiveResidues>
 VAL166  LYS551  ARG553  GLY616  TRP617  ASP618  TYR619  PRO620  LYS621  CYS622 
 ASP623  PHE694  ASN695  SER759  ASP760  ASP761  ALA762  ILE779  LEU786  VAL792 
 PHE793  MET794  SER795  GLU796  ALA797  LYS798  CYS799  TRP800  GLU811  SER814 

> <Gold.Protein.RotatedAtoms>
  150.9311  134.8726  159.7551 H   0  0  0  0  0  0  0  0  0  0  0  0  # atno 6907 bound_to 6896
  152.5038  134.4077  159.9448 H   0  0  0  0  0  0  0  0  0  0  0  0  # atno 6908 bound_to 6896
  151.4104  133.3689  159.2778 H   0  0  0  0  0  0  0  0  0  0  0  0  # atno 6909 bound_to 6896
  144.7150  140.1824  143.6357 H   0  0  0  0  0  0  0  0  0  0  0  0  # atno 7974 bound_to 7965
  154.5413  140.0745  156.8514 H   0  0  0  0  0  0  0  0  0  0  0  0  # atno 8008 bound_to 7997
  155.3175  140.3394  155.4224 H   0  0  0  0  0  0  0  0  0  0  0  0  # atno 8009 bound_to 7997
  156.1877  140.1675  156.8140 H   0  0  0  0  0  0  0  0  0  0  0  0  # atno 8010 bound_to 7997
  140.7025  143.3135  151.2967 H   0  0  0  0  0  0  0  0  0  0  0  0  # atno 10167 bound_to 10162
  156.1694  130.4149  149.9671 H   0  0  0  0  0  0  0  0  0  0  0  0  # atno 10718 bound_to 10713
  154.8482  135.3476  154.6138 H   0  0  0  0  0  0  0  0  0  0  0  0  # atno 10763 bound_to 10752
  153.6746  135.6983  153.5141 H   0  0  0  0  0  0  0  0  0  0  0  0  # atno 10764 bound_to 10752
  153.2715  135.4291  155.0949 H   0  0  0  0  0  0  0  0  0  0  0  0  # atno 10765 bound_to 10752
  140.8206  134.2636  157.4902 H   0  0  0  0  0  0  0  0  0  0  0  0  # atno 11005 bound_to 11000
  145.8844  139.2341  143.1586 LP  0  0  0  0  0  0  0  0  0  0  0  0  # atno 17320 bound_to 7965
  145.9964  140.8558  143.0041 LP  0  0  0  0  0  0  0  0  0  0  0  0  # atno 17321 bound_to 7965
  139.6566  144.0264  152.2664 LP  0  0  0  0  0  0  0  0  0  0  0  0  # atno 17342 bound_to 10162
  139.9818  144.6423  150.7894 LP  0  0  0  0  0  0  0  0  0  0  0  0  # atno 17343 bound_to 10162
  156.7476  130.9103  151.3635 LP  0  0  0  0  0  0  0  0  0  0  0  0  # atno 17370 bound_to 10713
  157.6791  130.9123  150.0224 LP  0  0  0  0  0  0  0  0  0  0  0  0  # atno 17371 bound_to 10713
  139.8709  134.9533  156.4141 LP  0  0  0  0  0  0  0  0  0  0  0  0  # atno 17394 bound_to 11000
  140.9103  133.7716  155.9784 LP  0  0  0  0  0  0  0  0  0  0  0  0  # atno 17395 bound_to 11000

$$$$
