AV-unprocessed.smi:317|AV-procd|sdf|2327|dock10
  -GOLD-   2262022233D 1   1.00000     0.00000
 Structure written by MMmdl.
 39 40  0  0  0  0  0  0  0  0  1 V2000
  151.5007  145.3175  158.8869 C   0  0  0  0  0  0  0  0  0  0  0  0
  151.9564  143.9550  158.3447 C   0  0  1  0  0  0  0  0  0  0  0  0
  152.0833  142.9128  159.4765 C   0  0  0  0  0  0  0  0  0  0  0  0
  153.1193  143.2701  160.3662 O   0  0  0  0  0  0  0  0  0  0  0  0
  150.9797  143.5098  157.3544 N   0  0  0  0  0  0  0  0  0  0  0  0
  150.8779  142.2639  156.8708 C   0  0  0  0  0  0  0  0  0  0  0  0
  151.6155  141.3373  157.2060 O   0  0  0  0  0  0  0  0  0  0  0  0
  149.8609  142.1660  155.9988 N   0  0  0  0  0  0  0  0  0  0  0  0
  149.4103  141.0070  155.3067 C   0  0  0  0  0  0  0  0  0  0  0  0
  150.2777  139.9171  155.0509 C   0  0  0  0  0  0  0  0  0  0  0  0
  149.8106  138.8252  154.2994 C   0  0  0  0  0  0  0  0  0  0  0  0
  148.4930  138.8678  153.8145 C   0  0  0  0  0  0  0  0  0  0  0  0
  147.6589  139.9030  154.0384 N   0  0  0  0  0  0  0  0  0  0  0  0
  148.0899  140.9574  154.7742 C   0  0  0  0  0  0  0  0  0  0  0  0
  147.1655  142.0051  154.9917 N   0  0  0  0  0  0  0  0  0  0  0  0
  146.6264  142.7610  153.8660 C   0  0  0  0  0  0  0  0  0  0  0  0
  145.4175  143.5014  154.4305 C   0  0  0  0  0  0  0  0  0  0  0  0
  144.8607  142.4976  155.4354 C   0  0  0  0  0  0  0  0  0  0  0  0
  146.1090  141.7930  155.9773 C   0  0  0  0  0  0  0  0  0  0  0  0
  152.2158  145.7116  159.6097 H   0  0  0  0  0  0  0  0  0  0  0  0
  150.5318  145.2457  159.3826 H   0  0  0  0  0  0  0  0  0  0  0  0
  151.4120  146.0501  158.0840 H   0  0  0  0  0  0  0  0  0  0  0  0
  152.9279  144.1114  157.8707 H   0  0  0  0  0  0  0  0  0  0  0  0
  151.1654  142.8733  160.0638 H   0  0  0  0  0  0  0  0  0  0  0  0
  152.2500  141.9075  159.0876 H   0  0  0  0  0  0  0  0  0  0  0  0
  153.5649  144.0285  160.0212 H   0  0  0  0  0  0  0  0  0  0  0  0
  150.3267  144.2027  157.0192 H   0  0  0  0  0  0  0  0  0  0  0  0
  149.2781  142.9841  155.8986 H   0  0  0  0  0  0  0  0  0  0  0  0
  151.2997  139.9123  155.3980 H   0  0  0  0  0  0  0  0  0  0  0  0
  150.4521  137.9825  154.0887 H   0  0  0  0  0  0  0  0  0  0  0  0
  148.0992  138.0526  153.2259 H   0  0  0  0  0  0  0  0  0  0  0  0
  147.3677  143.4476  153.4564 H   0  0  0  0  0  0  0  0  0  0  0  0
  146.3010  142.0911  153.0688 H   0  0  0  0  0  0  0  0  0  0  0  0
  145.7405  144.4065  154.9468 H   0  0  0  0  0  0  0  0  0  0  0  0
  144.6963  143.7850  153.6636 H   0  0  0  0  0  0  0  0  0  0  0  0
  144.2649  142.9652  156.2197 H   0  0  0  0  0  0  0  0  0  0  0  0
  144.2276  141.7757  154.9177 H   0  0  0  0  0  0  0  0  0  0  0  0
  145.9206  140.7332  156.1566 H   0  0  0  0  0  0  0  0  0  0  0  0
  146.4106  142.2473  156.9214 H   0  0  0  0  0  0  0  0  0  0  0  0
  1  2  1  0  0  0  0
  1 20  1  0  0  0  0
  1 21  1  0  0  0  0
  1 22  1  0  0  0  0
  2  3  1  0  0  0  0
  2  5  1  0  0  0  0
  2 23  1  0  0  0  0
  3  4  1  0  0  0  0
  3 24  1  0  0  0  0
  3 25  1  0  0  0  0
  4 26  1  0  0  0  0
  5  6  1  0  0  0  0
  5 27  1  0  0  0  0
  6  7  2  0  0  0  0
  6  8  1  0  0  0  0
  8  9  1  0  0  0  0
  8 28  1  0  0  0  0
  9 14  1  0  0  0  0
  9 10  2  0  0  0  0
 10 11  1  0  0  0  0
 10 29  1  0  0  0  0
 11 12  2  0  0  0  0
 11 30  1  0  0  0  0
 12 13  1  0  0  0  0
 12 31  1  0  0  0  0
 13 14  2  0  0  0  0
 14 15  1  0  0  0  0
 15 19  1  0  0  0  0
 15 16  1  0  0  0  0
 16 17  1  0  0  0  0
 16 32  1  0  0  0  0
 16 33  1  0  0  0  0
 17 18  1  0  0  0  0
 17 34  1  0  0  0  0
 17 35  1  0  0  0  0
 18 19  1  0  0  0  0
 18 36  1  0  0  0  0
 18 37  1  0  0  0  0
 19 38  1  0  0  0  0
 19 39  1  0  0  0  0
M  END
> <s_m_source_file>
AV-unprocessed.smi

> <i_m_source_file_index>
317

> <i_lp_mmshare_version>
43012

> <i_f3d_flags>
0

> <s_epik_input>
W09IXVtDSDJdW0NAQEhdKFtDSDNdKVtOSF1DKD1PKVtOSF1jMVtjSF1bY0hdW2NIXW5jMU4yW0NIMl1bQ0gyXVtDSDJdW0NIMl0y

> <s_epik_cmdline>
J2VwaWtfcHl0aG9uJywgJy1waCcsICc3LjAnLCAnLXRuJywgJzgnLCAnLW1hJywgJzIwMCcsICctbWV0YWxfYmluZGluZycsICctaW1hZScsICc8aW5maWxlLm1hZT4nLCAnLW9tYWUnLCAnPG91dGZpbGUubWFlPic=

> <r_lp_tautomer_probability>
1

> <r_epik_Ionization_Penalty>
0.098371

> <r_epik_Ionization_Penalty_Charging>
0

> <r_epik_Ionization_Penalty_Neutral>
0.098371

> <r_epik_State_Penalty>
0.0879016

> <r_epik_Charging_Adjusted_Penalty>
0.0879016

> <i_epik_Tot_Q>
0

> <i_epik_Tot_abs_Q>
0

> <r_epik_Metal_State_Penalty>
0.0753294

> <b_epik_Metal_Only>
0

> <s_lp_Force_Field>
OPLS_2005

> <r_lp_Energy>
32.3253

> <b_lp_Chiralities_Consistent>
1

> <s_lp_Variant>
AV-unprocessed.smi:317-2

> <Gold.Version>
5.8.1

> <Gold.Id.Protein>
6NUR|6NUR_protein|mol2

> <Gold.PLP.Fitness>
45.7185

> <Gold.PLP.PLP>
-37.5139

> <Gold.PLP.part.hbond>
-2.0000

> <Gold.PLP.part.metal>
0.0000

> <Gold.PLP.part.buried>
-4.6518

> <Gold.PLP.part.nonpolar>
-31.0346

> <Gold.PLP.part.repulsive>
0.4133

> <Gold.PLP.ligand.clash>
0.0000

> <Gold.PLP.ligand.torsion>
0.5479

> <Gold.PLP.Chemscore.Hbond>
1.9920

> <Gold.PLP.Chemscore.CHOScore>
1.0000

> <Gold.PLP.Chemscore.Metal>
0.0000

> <Gold.Chemscore.Hbonds>
donor molecule, donor type, donor heavy atom, donor atom, acceptor molecule, acceptor atom, score
      L1  H     5    27       P1  8028  0.99
      L1  H     8    28       P1  8028  1.00
      L1  C    12    31       P1  7948  1.00

> <Gold.PLP.Chemscore.Internal.Correction>
0.3244

> <Gold.Rescore>
     Score         DG    S(hbond)    S(metal)    S(lipo)     H(rot)  DE(clash)    DE(int)     intcor
     12.83     -16.19       1.95        0.00      81.37       2.08       0.55       2.82       ----

> <Gold.Chemscore.Fitness>
12.8256

> <Gold.Chemscore.DG>
-16.1942

> <Gold.Chemscore.ZeroCoef>
-5.4800

> <Gold.Chemscore.Hbond>
1.9497

> <Gold.Chemscore.Metal>
0.0000

> <Gold.Chemscore.Lipo>
81.3693

> <Gold.Chemscore.Internal_Hbond>
0.0000

> <Gold.Chemscore.DEClash>
0.5461

> <Gold.Chemscore.DEInternal>
2.8226

> <Gold.Chemscore.Rot>
2.0773

> <Gold.Chemscore.Internal.Correction>
   9.000000E+99

> <Gold.Chemscore.Hbonds>
donor molecule, donor type, donor heavy atom, donor atom, acceptor molecule, acceptor atom, score
      L1  H     5    27       P1  8028  0.83
      L1  H     8    28       P1  8028  0.99

> <Gold.Chemscore.Hbond.Weighted>
-6.5118

> <Gold.Chemscore.Metal.Weighted>
-0.0000

> <Gold.Chemscore.Lipo.Weighted>
-9.5202

> <Gold.Chemscore.Internal_Hbond.Weighted>
0.0000

> <Gold.Chemscore.DEClash.Weighted>
0.5461

> <Gold.Chemscore.DEInternal.Weighted>
2.8226

> <Gold.Chemscore.Rot.Weighted>
5.3178

> <Gold.Chemscore.Internal.Correction.Weighted>
   9.000000E+99

> <Gold.Protein.RotatedTorsions>
[ 6907 6896 6895 6894 ] final  117.23 input  -60.11 | X-H torsion
[ 7974 7965 7964 7962 ] final -163.64 input  175.53 | X-H torsion
[ 8008 7997 7996 7995 ] final  101.86 input   59.86 | X-H torsion
[ 10167 10162 10161 10158 ] final   -7.88 input  -65.29 | X-H torsion
[ 10718 10713 10712 10709 ] final  -85.08 input   66.30 | X-H torsion
[ 10763 10752 10751 10750 ] final -152.91 input  -60.55 | X-H torsion
[ 11005 11000 10999 10996 ] final -155.19 input  -57.11 | X-H torsion

> <Gold.Protein.ActiveResidues>
 VAL166  LYS551  ARG553  GLY616  TRP617  ASP618  TYR619  PRO620  LYS621  CYS622 
 ASP623  PHE694  ASN695  SER759  ASP760  ASP761  ALA762  ILE779  LEU786  VAL792 
 PHE793  MET794  SER795  GLU796  ALA797  LYS798  CYS799  TRP800  GLU811  SER814 

> <Gold.Protein.RotatedAtoms>
  152.4625  133.7853  159.6872 H   0  0  0  0  0  0  0  0  0  0  0  0  # atno 6907 bound_to 6896
  150.8575  133.7683  159.3010 H   0  0  0  0  0  0  0  0  0  0  0  0  # atno 6908 bound_to 6896
  151.5258  135.1071  159.9942 H   0  0  0  0  0  0  0  0  0  0  0  0  # atno 6909 bound_to 6896
  144.7320  140.3077  143.6193 H   0  0  0  0  0  0  0  0  0  0  0  0  # atno 7974 bound_to 7965
  156.1339  140.3190  155.8391 H   0  0  0  0  0  0  0  0  0  0  0  0  # atno 8008 bound_to 7997
  155.4280  140.0517  157.3038 H   0  0  0  0  0  0  0  0  0  0  0  0  # atno 8009 bound_to 7997
  154.4921  140.2096  155.9538 H   0  0  0  0  0  0  0  0  0  0  0  0  # atno 8010 bound_to 7997
  140.7042  143.6031  150.8778 H   0  0  0  0  0  0  0  0  0  0  0  0  # atno 10167 bound_to 10162
  156.0000  130.4719  150.4508 H   0  0  0  0  0  0  0  0  0  0  0  0  # atno 10718 bound_to 10713
  154.7963  135.3225  154.7660 H   0  0  0  0  0  0  0  0  0  0  0  0  # atno 10763 bound_to 10752
  153.8337  135.6877  153.4815 H   0  0  0  0  0  0  0  0  0  0  0  0  # atno 10764 bound_to 10752
  153.1656  135.4643  154.9774 H   0  0  0  0  0  0  0  0  0  0  0  0  # atno 10765 bound_to 10752
  140.6892  134.4060  157.5220 H   0  0  0  0  0  0  0  0  0  0  0  0  # atno 11005 bound_to 11000
  145.7696  139.1852  143.2220 LP  0  0  0  0  0  0  0  0  0  0  0  0  # atno 17320 bound_to 7965
  146.0921  140.7643  142.9590 LP  0  0  0  0  0  0  0  0  0  0  0  0  # atno 17321 bound_to 7965
  139.9755  143.6009  152.2960 LP  0  0  0  0  0  0  0  0  0  0  0  0  # atno 17342 bound_to 10162
  139.6611  144.7662  151.1961 LP  0  0  0  0  0  0  0  0  0  0  0  0  # atno 17343 bound_to 10162
  157.2541  131.0552  151.2361 LP  0  0  0  0  0  0  0  0  0  0  0  0  # atno 17370 bound_to 10713
  157.3500  130.7077  149.6434 LP  0  0  0  0  0  0  0  0  0  0  0  0  # atno 17371 bound_to 10713
  139.8928  134.8745  156.2251 LP  0  0  0  0  0  0  0  0  0  0  0  0  # atno 17394 bound_to 11000
  141.0255  133.7017  156.1341 LP  0  0  0  0  0  0  0  0  0  0  0  0  # atno 17395 bound_to 11000

$$$$
