AV-unprocessed.smi:212|AV-procd|sdf|1631|dock4
  -GOLD-   2262019583D 1   1.00000     0.00000
 Structure written by MMmdl.
 65 68  0  0  0  0  0  0  0  0  2 V2000
  143.2134  135.4472  154.0875 C   0  0  0  0  0  0  0  0  0  0  0  0
  144.0931  136.2789  153.1386 C   0  0  2  0  0  0  0  0  0  0  0  0
  143.8632  135.9103  151.6581 C   0  0  0  0  0  0  0  0  0  0  0  0
  144.4445  134.5820  151.3284 N   0  3  1  0  0  0  0  0  0  0  0  0
  144.1331  134.1297  149.9469 C   0  0  0  0  0  0  0  0  0  0  0  0
  144.0570  132.5891  149.8301 C   0  0  0  0  0  0  0  0  0  0  0  0
  145.3550  132.0396  149.2148 C   0  0  0  0  0  0  0  0  0  0  0  0
  143.7836  131.9143  151.1869 C   0  0  0  0  0  0  0  0  0  0  0  0
  143.0121  132.2416  148.9433 O   0  0  0  0  0  0  0  0  0  0  0  0
  145.8898  134.5072  151.6588 C   0  0  0  0  0  0  0  0  0  0  0  0
  146.1389  134.8782  153.1324 C   0  0  0  0  0  0  0  0  0  0  0  0
  145.5148  136.1582  153.4728 N   0  0  0  0  0  0  0  0  0  0  0  0
  146.2514  137.2954  153.3603 C   0  0  0  0  0  0  0  0  0  0  0  0
  145.9447  138.2114  152.4030 N   0  0  0  0  0  0  0  0  0  0  0  0
  146.6542  139.3383  152.2924 C   0  0  0  0  0  0  0  0  0  0  0  0
  147.6950  139.7435  153.0216 N   0  0  0  0  0  0  0  0  0  0  0  0
  148.0144  138.8260  153.9782 C   0  0  0  0  0  0  0  0  0  0  0  0
  147.3529  137.5876  154.2139 C   0  0  0  0  0  0  0  0  0  0  0  0
  147.9692  136.9149  155.2631 N   0  0  0  0  0  0  0  0  0  0  0  0
  148.9360  137.7118  155.6296 C   0  0  0  0  0  0  0  0  0  0  0  0
  149.0362  138.8802  154.9095 N   0  0  0  0  0  0  0  0  0  0  0  0
  150.0154  139.9348  155.1015 C   0  0  0  0  0  0  0  0  0  0  0  0
  151.0310  139.6437  156.2412 C   0  0  1  0  0  0  0  0  0  0  0  0
  152.1863  138.7035  155.8167 C   0  0  0  0  0  0  0  0  0  0  0  0
  153.1117  139.3492  154.9662 O   0  0  0  0  0  0  0  0  0  0  0  0
  151.6060  140.9290  156.8944 C   0  0  1  0  0  0  0  0  0  0  0  0
  150.6078  142.0327  157.2398 C   0  0  0  0  0  0  0  0  0  0  0  0
  151.1731  142.6577  158.5201 C   0  0  0  0  0  0  0  0  0  0  0  0
  152.4582  142.0749  158.6907 O   0  0  0  0  0  0  0  0  0  0  0  0
  152.3865  140.7483  158.1974 C   0  0  0  0  0  0  0  0  0  0  0  0
  142.1562  135.5964  153.8675 H   0  0  0  0  0  0  0  0  0  0  0  0
  143.3762  135.7411  155.1249 H   0  0  0  0  0  0  0  0  0  0  0  0
  143.4170  134.3793  154.0076 H   0  0  0  0  0  0  0  0  0  0  0  0
  143.7736  137.3142  153.2535 H   0  0  0  0  0  0  0  0  0  0  0  0
  142.7967  135.9266  151.4335 H   0  0  0  0  0  0  0  0  0  0  0  0
  144.3259  136.6649  151.0196 H   0  0  0  0  0  0  0  0  0  0  0  0
  143.2063  134.5902  149.6001 H   0  0  0  0  0  0  0  0  0  0  0  0
  144.9050  134.4850  149.2617 H   0  0  0  0  0  0  0  0  0  0  0  0
  146.2165  132.2637  149.8450 H   0  0  0  0  0  0  0  0  0  0  0  0
  145.5459  132.4736  148.2324 H   0  0  0  0  0  0  0  0  0  0  0  0
  145.3121  130.9565  149.0923 H   0  0  0  0  0  0  0  0  0  0  0  0
  144.5595  132.1618  151.9118 H   0  0  0  0  0  0  0  0  0  0  0  0
  143.7588  130.8280  151.0917 H   0  0  0  0  0  0  0  0  0  0  0  0
  142.8268  132.2231  151.6095 H   0  0  0  0  0  0  0  0  0  0  0  0
  142.3048  132.8592  149.0535 H   0  0  0  0  0  0  0  0  0  0  0  0
  146.2590  133.4977  151.4740 H   0  0  0  0  0  0  0  0  0  0  0  0
  146.4447  135.1747  150.9982 H   0  0  0  0  0  0  0  0  0  0  0  0
  145.7182  134.1085  153.7796 H   0  0  0  0  0  0  0  0  0  0  0  0
  147.2079  134.8921  153.3489 H   0  0  0  0  0  0  0  0  0  0  0  0
  146.3433  140.0121  151.5075 H   0  0  0  0  0  0  0  0  0  0  0  0
  149.6122  137.4658  156.4356 H   0  0  0  0  0  0  0  0  0  0  0  0
  150.5282  140.0941  154.1537 H   0  0  0  0  0  0  0  0  0  0  0  0
  149.4601  140.8492  155.3049 H   0  0  0  0  0  0  0  0  0  0  0  0
  150.4817  139.1338  157.0345 H   0  0  0  0  0  0  0  0  0  0  0  0
  152.7051  138.3055  156.6892 H   0  0  0  0  0  0  0  0  0  0  0  0
  151.7997  137.8471  155.2635 H   0  0  0  0  0  0  0  0  0  0  0  0
  152.9934  139.0193  154.0884 H   0  0  0  0  0  0  0  0  0  0  0  0
  152.3163  141.3627  156.1880 H   0  0  0  0  0  0  0  0  0  0  0  0
  150.5462  142.7621  156.4315 H   0  0  0  0  0  0  0  0  0  0  0  0
  149.6002  141.6598  157.4182 H   0  0  0  0  0  0  0  0  0  0  0  0
  151.2404  143.7442  158.4614 H   0  0  0  0  0  0  0  0  0  0  0  0
  150.5483  142.4019  159.3771 H   0  0  0  0  0  0  0  0  0  0  0  0
  151.8586  140.1341  158.9265 H   0  0  0  0  0  0  0  0  0  0  0  0
  153.3782  140.3239  158.0397 H   0  0  0  0  0  0  0  0  0  0  0  0
  143.9909  133.9189  151.9403 H   0  0  0  0  0  0  0  0  0  0  0  0
  1  2  1  0  0  0  0
  1 31  1  0  0  0  0
  1 32  1  0  0  0  0
  1 33  1  0  0  0  0
  2 12  1  0  0  0  0
  2  3  1  0  0  0  0
  2 34  1  0  0  0  0
  3  4  1  0  0  0  0
  3 35  1  0  0  0  0
  3 36  1  0  0  0  0
  4  5  1  0  0  0  0
  4 10  1  0  0  0  0
  4 65  1  0  0  0  0
  5  6  1  0  0  0  0
  5 37  1  0  0  0  0
  5 38  1  0  0  0  0
  6  7  1  0  0  0  0
  6  8  1  0  0  0  0
  6  9  1  0  0  0  0
  7 39  1  0  0  0  0
  7 40  1  0  0  0  0
  7 41  1  0  0  0  0
  8 42  1  0  0  0  0
  8 43  1  0  0  0  0
  8 44  1  0  0  0  0
  9 45  1  0  0  0  0
 10 11  1  0  0  0  0
 10 46  1  0  0  0  0
 10 47  1  0  0  0  0
 11 12  1  0  0  0  0
 11 48  1  0  0  0  0
 11 49  1  0  0  0  0
 12 13  1  0  0  0  0
 13 18  1  0  0  0  0
 13 14  2  0  0  0  0
 14 15  1  0  0  0  0
 15 16  2  0  0  0  0
 15 50  1  0  0  0  0
 16 17  1  0  0  0  0
 17 21  1  0  0  0  0
 17 18  2  0  0  0  0
 18 19  1  0  0  0  0
 19 20  2  0  0  0  0
 20 21  1  0  0  0  0
 20 51  1  0  0  0  0
 21 22  1  0  0  0  0
 22 23  1  0  0  0  0
 22 52  1  0  0  0  0
 22 53  1  0  0  0  0
 23 24  1  0  0  0  0
 23 26  1  0  0  0  0
 23 54  1  0  0  0  0
 24 25  1  0  0  0  0
 24 55  1  0  0  0  0
 24 56  1  0  0  0  0
 25 57  1  0  0  0  0
 26 30  1  0  0  0  0
 26 27  1  0  0  0  0
 26 58  1  0  0  0  0
 27 28  1  0  0  0  0
 27 59  1  0  0  0  0
 27 60  1  0  0  0  0
 28 29  1  0  0  0  0
 28 61  1  0  0  0  0
 28 62  1  0  0  0  0
 29 30  1  0  0  0  0
 30 63  1  0  0  0  0
 30 64  1  0  0  0  0
M  CHG  1   4   1
M  END
> <s_m_source_file>
AV-unprocessed.smi

> <i_m_source_file_index>
212

> <i_lp_mmshare_version>
43012

> <i_f3d_flags>
0

> <s_epik_input>
W0NIM11bQ0BASF0xW0NIMl1OKFtDSDJdQyhbQ0gzXSkoW0NIM10pW09IXSlbQ0gyXVtDSDJdTjFjKG5bY0hdbjIpYyhjMjMpbltjSF1uM1tDSDJdW0NASF0oW0NIMl1bT0hdKVtDQEBIXTRbQ0gyXVtDSDJdT1tDSDJdNA==

> <s_epik_cmdline>
J2VwaWtfcHl0aG9uJywgJy1waCcsICc3LjAnLCAnLXRuJywgJzgnLCAnLW1hJywgJzIwMCcsICctbWV0YWxfYmluZGluZycsICctaW1hZScsICc8aW5maWxlLm1hZT4nLCAnLW9tYWUnLCAnPG91dGZpbGUubWFlPic=

> <r_lp_tautomer_probability>
1

> <r_epik_Ionization_Penalty>
0.00182193

> <r_epik_Ionization_Penalty_Charging>
0.00173996

> <r_epik_Ionization_Penalty_Neutral>
8.19718e-05

> <r_epik_State_Penalty>
-0

> <r_epik_Charging_Adjusted_Penalty>
0.00173996

> <i_epik_Tot_Q>
1

> <i_epik_Tot_abs_Q>
1

> <r_epik_Metal_State_Penalty>
-0

> <b_epik_Metal_Only>
0

> <s_lp_Force_Field>
OPLS_2005

> <r_lp_Energy>
59.1595

> <b_lp_Chiralities_Consistent>
1

> <s_lp_Variant>
AV-unprocessed.smi:212-15

> <Gold.Version>
5.8.1

> <Gold.Id.Protein>
6NUR|6NUR_protein|mol2

> <Gold.PLP.Fitness>
47.8966

> <Gold.PLP.PLP>
-42.3845

> <Gold.PLP.part.hbond>
-4.8103

> <Gold.PLP.part.metal>
0.0000

> <Gold.PLP.part.buried>
-3.8118

> <Gold.PLP.part.nonpolar>
-36.4890

> <Gold.PLP.part.repulsive>
2.5620

> <Gold.PLP.ligand.clash>
0.0000

> <Gold.PLP.ligand.torsion>
2.3892

> <Gold.PLP.Chemscore.Hbond>
2.6413

> <Gold.PLP.Chemscore.CHOScore>
0.4227

> <Gold.PLP.Chemscore.Metal>
0.0000

> <Gold.Chemscore.Hbonds>
donor molecule, donor type, donor heavy atom, donor atom, acceptor molecule, acceptor atom, score
      L1  H     9    45       P1 10186  0.88
      P1  H  7997  8009       L1    25  1.00
      P1  H 10785 10796       L1     9  0.80
      L1  C    15    50       P1 10175  0.08

> <Gold.PLP.Chemscore.Internal.Correction>
1.0987

> <Gold.Rescore>
     Score         DG    S(hbond)    S(metal)    S(lipo)     H(rot)  DE(clash)    DE(int)     intcor
     13.12     -16.27       2.25        0.00     102.46       3.40       0.67       2.48       ----

> <Gold.Chemscore.Fitness>
13.1180

> <Gold.Chemscore.DG>
-16.2675

> <Gold.Chemscore.ZeroCoef>
-5.4800

> <Gold.Chemscore.Hbond>
2.2455

> <Gold.Chemscore.Metal>
0.0000

> <Gold.Chemscore.Lipo>
102.4626

> <Gold.Chemscore.Internal_Hbond>
0.0000

> <Gold.Chemscore.DEClash>
0.6741

> <Gold.Chemscore.DEInternal>
2.4754

> <Gold.Chemscore.Rot>
3.3986

> <Gold.Chemscore.Internal.Correction>
   9.000000E+99

> <Gold.Chemscore.Hbonds>
donor molecule, donor type, donor heavy atom, donor atom, acceptor molecule, acceptor atom, score
      L1  H     9    45       P1 10186  0.86
      P1  H  7997  8009       L1    25  0.70
      P1  H 10785 10796       L1     9  0.34

> <Gold.Chemscore.Hbond.Weighted>
-7.4999

> <Gold.Chemscore.Metal.Weighted>
-0.0000

> <Gold.Chemscore.Lipo.Weighted>
-11.9881

> <Gold.Chemscore.Internal_Hbond.Weighted>
0.0000

> <Gold.Chemscore.DEClash.Weighted>
0.6741

> <Gold.Chemscore.DEInternal.Weighted>
2.4754

> <Gold.Chemscore.Rot.Weighted>
8.7005

> <Gold.Chemscore.Internal.Correction.Weighted>
   9.000000E+99

> <Gold.Protein.RotatedTorsions>
[ 6907 6896 6895 6894 ] final  143.17 input  -60.11 | X-H torsion
[ 7974 7965 7964 7962 ] final   42.98 input  175.53 | X-H torsion
[ 8008 7997 7996 7995 ] final -143.87 input   59.86 | X-H torsion
[ 10167 10162 10161 10158 ] final  -74.46 input  -65.29 | X-H torsion
[ 10718 10713 10712 10709 ] final -109.56 input   66.30 | X-H torsion
[ 10763 10752 10751 10750 ] final -178.44 input  -60.55 | X-H torsion
[ 11005 11000 10999 10996 ] final   38.32 input  -57.11 | X-H torsion

> <Gold.Protein.ActiveResidues>
 VAL166  LYS551  ARG553  GLY616  TRP617  ASP618  TYR619  PRO620  LYS621  CYS622 
 ASP623  PHE694  ASN695  SER759  ASP760  ASP761  ALA762  ILE779  LEU786  VAL792 
 PHE793  MET794  SER795  GLU796  ALA797  LYS798  CYS799  TRP800  GLU811  SER814 

> <Gold.Protein.RotatedAtoms>
  152.2096  133.4901  159.5102 H   0  0  0  0  0  0  0  0  0  0  0  0  # atno 6907 bound_to 6896
  150.6987  134.1485  159.4140 H   0  0  0  0  0  0  0  0  0  0  0  0  # atno 6908 bound_to 6896
  151.9404  135.0216  160.0586 H   0  0  0  0  0  0  0  0  0  0  0  0  # atno 6909 bound_to 6896
  146.0695  139.5239  142.9607 H   0  0  0  0  0  0  0  0  0  0  0  0  # atno 7974 bound_to 7965
  155.5177  140.0589  157.2912 H   0  0  0  0  0  0  0  0  0  0  0  0  # atno 8008 bound_to 7997
  154.4529  140.1958  156.0413 H   0  0  0  0  0  0  0  0  0  0  0  0  # atno 8009 bound_to 7997
  156.0740  140.3256  155.7615 H   0  0  0  0  0  0  0  0  0  0  0  0  # atno 8010 bound_to 7997
  140.5025  143.2358  151.7729 H   0  0  0  0  0  0  0  0  0  0  0  0  # atno 10167 bound_to 10162
  156.0543  130.5770  150.8116 H   0  0  0  0  0  0  0  0  0  0  0  0  # atno 10718 bound_to 10713
  154.5476  135.2810  155.1038 H   0  0  0  0  0  0  0  0  0  0  0  0  # atno 10763 bound_to 10752
  154.2496  135.6342  153.5239 H   0  0  0  0  0  0  0  0  0  0  0  0  # atno 10764 bound_to 10752
  152.9994  135.5579  154.6034 H   0  0  0  0  0  0  0  0  0  0  0  0  # atno 10765 bound_to 10752
  140.2138  134.3723  155.8036 H   0  0  0  0  0  0  0  0  0  0  0  0  # atno 11005 bound_to 11000
  145.6417  141.0283  143.1808 LP  0  0  0  0  0  0  0  0  0  0  0  0  # atno 17320 bound_to 7965
  144.7223  139.7991  143.7377 LP  0  0  0  0  0  0  0  0  0  0  0  0  # atno 17321 bound_to 7965
  139.4875  144.4503  151.9662 LP  0  0  0  0  0  0  0  0  0  0  0  0  # atno 17342 bound_to 10162
  140.3592  144.2994  150.5936 LP  0  0  0  0  0  0  0  0  0  0  0  0  # atno 17343 bound_to 10162
  157.5499  131.0943  150.9710 LP  0  0  0  0  0  0  0  0  0  0  0  0  # atno 17370 bound_to 10713
  156.9972  130.5586  149.5308 LP  0  0  0  0  0  0  0  0  0  0  0  0  # atno 17371 bound_to 10713
  141.2225  133.7157  156.8462 LP  0  0  0  0  0  0  0  0  0  0  0  0  # atno 17394 bound_to 11000
  140.1922  134.8957  157.3073 LP  0  0  0  0  0  0  0  0  0  0  0  0  # atno 17395 bound_to 11000

$$$$
