#       Name:                AV-unprocessed.smi:1545
#       Creating user name   scv26
#       Creation time:       Fri Mar 27 06:39:01 2020


#       File generated by GOLD software.
#

@<TRIPOS>MOLECULE
AV-unprocessed.smi:1545
    46    48     1
SMALL
NO_CHARGES


@<TRIPOS>ATOM
      1 ****        -2.0037  -0.3540   2.3302 O.3            1 S1                 0.0000
      2 ****        -2.5690   0.8872   1.9677 C.3            1 S1                 0.0000
      3 ****        -2.0132   1.3521   0.6136 C.3            1 S1                 0.0000
      4 ****        -0.7669   2.0821   0.7567 N.pl3          1 S1                 0.0000
      5 ****         0.5528   1.6612   0.8750 C.2            1 S1                 0.0000
      6 ****         1.5911   2.4859   0.9972 N.2            1 S1                 0.0000
      7 ****         2.6561   1.6079   1.0703 C.ar           1 S1                 0.0000
      8 ****         4.0412   1.8552   1.2040 C.ar           1 S1                 0.0000
      9 ****         4.9566   0.7835   1.2528 C.ar           1 S1                 0.0000
     10 ****         4.5019  -0.5486   1.1689 C.ar           1 S1                 0.0000
     11 ****         3.1261  -0.8183   1.0372 C.ar           1 S1                 0.0000
     12 ****         2.2156   0.2546   0.9899 C.ar           1 S1                 0.0000
     13 ****         0.8317   0.3364   0.8656 N.pl3          1 S1                 0.0000
     14 ****        -0.0995  -0.7775   0.7426 C.3            1 S1                 0.0000
     15 ****        -0.4967  -1.0558  -0.7208 C.3            1 S1                 0.0000
     16 ****         0.6576  -1.3491  -1.4842 O.3            1 S1                 0.0000
     17 ****        -1.5377  -2.1601  -0.8121 C.ar           1 S1                 0.0000
     18 ****        -1.1721  -3.5099  -0.6129 C.ar           1 S1                 0.0000
     19 ****        -2.1427  -4.5274  -0.6932 C.ar           1 S1                 0.0000
     20 ****        -3.4838  -4.2012  -0.9722 C.ar           1 S1                 0.0000
     21 ****        -3.8546  -2.8570  -1.1678 C.ar           1 S1                 0.0000
     22 ****        -5.1448  -2.5423  -1.4325 F              1 S1                 0.0000
     23 ****        -2.8846  -1.8390  -1.0867 C.ar           1 S1                 0.0000
     24 ****        -2.3769  -0.6259   3.1546 H              1 S1                 0.0000
     25 ****        -3.6463   0.7412   1.8880 H              1 S1                 0.0000
     26 ****        -2.4034   1.6283   2.7505 H              1 S1                 0.0000
     27 ****        -1.8884   0.5141  -0.0732 H              1 S1                 0.0000
     28 ****        -2.7269   2.0327   0.1491 H              1 S1                 0.0000
     29 ****        -0.8927   3.0814   0.8230 H              1 S1                 0.0000
     30 ****         4.4001   2.8717   1.2672 H              1 S1                 0.0000
     31 ****         6.0132   0.9845   1.3536 H              1 S1                 0.0000
     32 ****         5.2103  -1.3633   1.2045 H              1 S1                 0.0000
     33 ****         2.7754  -1.8374   0.9689 H              1 S1                 0.0000
     34 ****         0.3540  -1.6627   1.1902 H              1 S1                 0.0000
     35 ****        -0.9850  -0.5575   1.3403 H              1 S1                 0.0000
     36 ****        -0.9258  -0.1477  -1.1463 H              1 S1                 0.0000
     37 ****         0.4089  -1.4054  -2.3941 H              1 S1                 0.0000
     38 ****        -0.1459  -3.7684  -0.3955 H              1 S1                 0.0000
     39 ****        -1.8583  -5.5582  -0.5401 H              1 S1                 0.0000
     40 ****        -4.2282  -4.9814  -1.0344 H              1 S1                 0.0000
     41 ****        -3.1796  -0.8107  -1.2355 H              1 S1                 0.0000
     42 ****        -1.0127  -0.2583   2.4243 LP             1 S1                 0.0000
     43 ****        -2.2075  -1.0352   1.6271 LP             1 S1                 0.0000
     44 ****         1.5984   3.4854   1.0282 LP             1 S1                 0.0000
     45 ****         1.0466  -2.2208  -1.1862 LP             1 S1                 0.0000
     46 ****         1.3350  -0.6234  -1.3639 LP             1 S1                 0.0000
@<TRIPOS>BOND
    1    1    2 1     
    2    1   24 1     
    3    2    3 1     
    4    2   25 1     
    5    2   26 1     
    6    3    4 1     
    7    3   27 1     
    8    3   28 1     
    9    4    5 1     
   10    4   29 1     
   11    5   13 1     
   12    5    6 2     
   13    6    7 1     
   14    7   12 ar    
   15    7    8 ar    
   16    8    9 ar    
   17    8   30 1     
   18    9   10 ar    
   19    9   31 1     
   20   10   11 ar    
   21   10   32 1     
   22   11   12 ar    
   23   11   33 1     
   24   12   13 1     
   25   13   14 1     
   26   14   15 1     
   27   14   34 1     
   28   14   35 1     
   29   15   16 1     
   30   15   17 1     
   31   15   36 1     
   32   16   37 1     
   33   17   23 ar    
   34   17   18 ar    
   35   18   19 ar    
   36   18   38 1     
   37   19   20 ar    
   38   19   39 1     
   39   20   21 ar    
   40   20   40 1     
   41   21   22 1     
   42   21   23 ar    
   43   23   41 1     
   44    1   42 1     
   45    1   43 1     
   46    6   44 1     
   47   16   45 1     
   48   16   46 1     
@<TRIPOS>SUBSTRUCTURE
      1 S1             1
@<TRIPOS>SET
LONE_PAIRS      STATIC     ATOMS    <user>   **** ""
5 42 43 44 45 46
DONOR_HYDROGENS      STATIC     ATOMS    <user>   **** ""
3 24 29 37
ATOM$BLUE        STATIC     ATOMS    COLORGROUP SYSTEM
5 42 43 44 45 46
ATOM$RED        STATIC     ATOMS    COLORGROUP SYSTEM
3 24 29 37
