AV-unprocessed.smi:1536|AV-procd|sdf|6187|dock1
  -GOLD-   22720 6353D 1   1.00000     0.00000
 Structure written by MMmdl.
 48 49  0  0  0  0  0  0  0  0  2 V2000
  145.7489  133.0025  150.3496 C   0  0  0  0  0  0  0  0  0  0  0  0
  146.1693  133.3234  151.7906 C   0  0  2  0  0  0  0  0  0  0  0  0
  145.9003  134.7963  152.1470 C   0  0  0  0  0  0  0  0  0  0  0  0
  146.3480  135.1164  153.5827 C   0  0  0  0  0  0  0  0  0  0  0  0
  147.7839  134.7770  153.7714 N   0  3  1  0  0  0  0  0  0  0  0  0
  148.4093  135.3247  155.0174 C   0  0  1  0  0  0  0  0  0  0  0  0
  147.6516  134.9436  156.3214 C   0  0  0  0  0  0  0  0  0  0  0  0
  147.8796  135.8949  157.4040 N   0  0  0  0  0  0  0  0  0  0  0  0
  148.3443  135.5962  158.6281 C   0  0  0  0  0  0  0  0  0  0  0  0
  148.6659  134.4594  158.9703 O   0  0  0  0  0  0  0  0  0  0  0  0
  148.4251  136.7454  159.6374 C   0  0  0  0  0  0  0  0  0  0  0  0
  147.5835  136.5137  160.7975 N   0  0  0  0  0  0  0  0  0  0  0  0
  147.6325  135.5744  161.7444 C   0  0  0  0  0  0  0  0  0  0  0  0
  146.6726  135.7363  162.6422 N   0  0  0  0  0  0  0  0  0  0  0  0
  146.0020  136.8601  162.1883 N   0  0  0  0  0  0  0  0  0  0  0  0
  146.5373  137.3254  161.0933 N   0  0  0  0  0  0  0  0  0  0  0  0
  149.9184  134.9453  155.0609 C   0  0  0  0  0  0  0  0  0  0  0  0
  150.1672  133.5289  155.6123 C   0  0  0  0  0  0  0  0  0  0  0  0
  150.7402  135.9526  155.8906 C   0  0  0  0  0  0  0  0  0  0  0  0
  148.0712  133.3482  153.4722 C   0  0  0  0  0  0  0  0  0  0  0  0
  147.6548  133.0024  152.0338 C   0  0  0  0  0  0  0  0  0  0  0  0
  146.3142  133.5948  149.6294 H   0  0  0  0  0  0  0  0  0  0  0  0
  144.6900  133.2109  150.1936 H   0  0  0  0  0  0  0  0  0  0  0  0
  145.9148  131.9500  150.1174 H   0  0  0  0  0  0  0  0  0  0  0  0
  145.5727  132.6983  152.4570 H   0  0  0  0  0  0  0  0  0  0  0  0
  146.4266  135.4484  151.4483 H   0  0  0  0  0  0  0  0  0  0  0  0
  144.8382  135.0192  152.0373 H   0  0  0  0  0  0  0  0  0  0  0  0
  146.1864  136.1773  153.7768 H   0  0  0  0  0  0  0  0  0  0  0  0
  145.7252  134.5663  154.2866 H   0  0  0  0  0  0  0  0  0  0  0  0
  148.3776  136.4129  154.9423 H   0  0  0  0  0  0  0  0  0  0  0  0
  146.5872  134.8233  156.1141 H   0  0  0  0  0  0  0  0  0  0  0  0
  147.9975  133.9800  156.6933 H   0  0  0  0  0  0  0  0  0  0  0  0
  147.6539  136.8608  157.2131 H   0  0  0  0  0  0  0  0  0  0  0  0
  149.4592  136.8737  159.9605 H   0  0  0  0  0  0  0  0  0  0  0  0
  148.1169  137.6795  159.1660 H   0  0  0  0  0  0  0  0  0  0  0  0
  148.3665  134.7828  161.7778 H   0  0  0  0  0  0  0  0  0  0  0  0
  150.3125  134.9629  154.0444 H   0  0  0  0  0  0  0  0  0  0  0  0
  149.7138  133.3997  156.5957 H   0  0  0  0  0  0  0  0  0  0  0  0
  151.2346  133.3292  155.7128 H   0  0  0  0  0  0  0  0  0  0  0  0
  149.7705  132.7583  154.9519 H   0  0  0  0  0  0  0  0  0  0  0  0
  150.3779  136.0084  156.9177 H   0  0  0  0  0  0  0  0  0  0  0  0
  150.7049  136.9574  155.4695 H   0  0  0  0  0  0  0  0  0  0  0  0
  151.7917  135.6657  155.9271 H   0  0  0  0  0  0  0  0  0  0  0  0
  149.1342  133.1435  153.5975 H   0  0  0  0  0  0  0  0  0  0  0  0
  147.5390  132.6998  154.1676 H   0  0  0  0  0  0  0  0  0  0  0  0
  147.8456  131.9459  151.8416 H   0  0  0  0  0  0  0  0  0  0  0  0
  148.2754  133.5608  151.3312 H   0  0  0  0  0  0  0  0  0  0  0  0
  148.2466  135.2903  153.0347 H   0  0  0  0  0  0  0  0  0  0  0  0
  1  2  1  0  0  0  0
  1 22  1  0  0  0  0
  1 23  1  0  0  0  0
  1 24  1  0  0  0  0
  2 21  1  0  0  0  0
  2  3  1  0  0  0  0
  2 25  1  0  0  0  0
  3  4  1  0  0  0  0
  3 26  1  0  0  0  0
  3 27  1  0  0  0  0
  4  5  1  0  0  0  0
  4 28  1  0  0  0  0
  4 29  1  0  0  0  0
  5  6  1  0  0  0  0
  5 20  1  0  0  0  0
  5 48  1  0  0  0  0
  6  7  1  0  0  0  0
  6 17  1  0  0  0  0
  6 30  1  0  0  0  0
  7  8  1  0  0  0  0
  7 31  1  0  0  0  0
  7 32  1  0  0  0  0
  8  9  1  0  0  0  0
  8 33  1  0  0  0  0
  9 10  2  0  0  0  0
  9 11  1  0  0  0  0
 11 12  1  0  0  0  0
 11 34  1  0  0  0  0
 11 35  1  0  0  0  0
 12 16  1  0  0  0  0
 12 13  1  0  0  0  0
 13 14  2  0  0  0  0
 13 36  1  0  0  0  0
 14 15  1  0  0  0  0
 15 16  2  0  0  0  0
 17 18  1  0  0  0  0
 17 19  1  0  0  0  0
 17 37  1  0  0  0  0
 18 38  1  0  0  0  0
 18 39  1  0  0  0  0
 18 40  1  0  0  0  0
 19 41  1  0  0  0  0
 19 42  1  0  0  0  0
 19 43  1  0  0  0  0
 20 21  1  0  0  0  0
 20 44  1  0  0  0  0
 20 45  1  0  0  0  0
 21 46  1  0  0  0  0
 21 47  1  0  0  0  0
M  CHG  1   5   1
M  END
> <s_m_source_file>
AV-unprocessed.smi

> <i_m_source_file_index>
1536

> <i_lp_mmshare_version>
43012

> <i_f3d_flags>
0

> <s_epik_input>
W0NIM11bQ0hdMVtDSDJdW0NIMl1OKFtDSDJdW0NIMl0xKVtDQEBIXShbQ0hdKFtDSDNdKVtDSDNdKVtDSDJdW05IXUMoPU8pW0NIMl1uMltjSF1ubm4y

> <s_epik_cmdline>
J2VwaWtfcHl0aG9uJywgJy1waCcsICc3LjAnLCAnLXRuJywgJzgnLCAnLW1hJywgJzIwMCcsICctbWV0YWxfYmluZGluZycsICctaW1hZScsICc8aW5maWxlLm1hZT4nLCAnLW9tYWUnLCAnPG91dGZpbGUubWFlPic=

> <r_lp_tautomer_probability>
1

> <r_epik_Ionization_Penalty>
0.00109671

> <r_epik_Ionization_Penalty_Charging>
0.00109273

> <r_epik_Ionization_Penalty_Neutral>
3.97951e-06

> <r_epik_State_Penalty>
0.000716588

> <r_epik_Charging_Adjusted_Penalty>
0.00180932

> <i_epik_Tot_Q>
1

> <i_epik_Tot_abs_Q>
1

> <r_epik_Metal_State_Penalty>
-0

> <b_epik_Metal_Only>
0

> <s_lp_Force_Field>
OPLS_2005

> <r_lp_Energy>
35.3262

> <b_lp_Chiralities_Consistent>
1

> <s_lp_Variant>
AV-unprocessed.smi:1536-2

> <Gold.Version>
5.8.1

> <Gold.Id.Protein>
6NUR|6NUR_protein|mol2

> <Gold.PLP.Fitness>
40.7981

> <Gold.PLP.PLP>
-29.7867

> <Gold.PLP.part.hbond>
-3.0000

> <Gold.PLP.part.metal>
0.0000

> <Gold.PLP.part.buried>
-3.8930

> <Gold.PLP.part.nonpolar>
-23.1584

> <Gold.PLP.part.repulsive>
0.0119

> <Gold.PLP.ligand.clash>
0.0000

> <Gold.PLP.ligand.torsion>
0.7861

> <Gold.PLP.Chemscore.Hbond>
4.0000

> <Gold.PLP.Chemscore.CHOScore>
0.0000

> <Gold.PLP.Chemscore.Metal>
0.0000

> <Gold.Chemscore.Hbonds>
donor molecule, donor type, donor heavy atom, donor atom, acceptor molecule, acceptor atom, score
      L1  H     5    48       P1  7948  2.00
      P1  H  6896  6907       L1    10  1.00
      P1  H  6934  6947       L1    16  1.00

> <Gold.PLP.Chemscore.Internal.Correction>
0.5836

> <Gold.Rescore>
     Score         DG    S(hbond)    S(metal)    S(lipo)     H(rot)  DE(clash)    DE(int)     intcor
     12.39     -14.35       2.86        0.00      54.82       2.77       0.10       1.87       ----

> <Gold.Chemscore.Fitness>
12.3878

> <Gold.Chemscore.DG>
-14.3511

> <Gold.Chemscore.ZeroCoef>
-5.4800

> <Gold.Chemscore.Hbond>
2.8594

> <Gold.Chemscore.Metal>
0.0000

> <Gold.Chemscore.Lipo>
54.8219

> <Gold.Chemscore.Internal_Hbond>
0.0000

> <Gold.Chemscore.DEClash>
0.0963

> <Gold.Chemscore.DEInternal>
1.8670

> <Gold.Chemscore.Rot>
2.7709

> <Gold.Chemscore.Internal.Correction>
   9.000000E+99

> <Gold.Chemscore.Hbonds>
donor molecule, donor type, donor heavy atom, donor atom, acceptor molecule, acceptor atom, score
      L1  H     5    48       P1  7948  0.98
      P1  H  6896  6907       L1    10  0.86
      P1  H  6934  6947       L1    16  0.55

> <Gold.Chemscore.Hbond.Weighted>
-9.5504

> <Gold.Chemscore.Metal.Weighted>
-0.0000

> <Gold.Chemscore.Lipo.Weighted>
-6.4142

> <Gold.Chemscore.Internal_Hbond.Weighted>
0.0000

> <Gold.Chemscore.DEClash.Weighted>
0.0963

> <Gold.Chemscore.DEInternal.Weighted>
1.8670

> <Gold.Chemscore.Rot.Weighted>
7.0935

> <Gold.Chemscore.Internal.Correction.Weighted>
   9.000000E+99

> <Gold.Protein.RotatedTorsions>
[ 6907 6896 6895 6894 ] final  -94.58 input  -60.11 | X-H torsion
[ 7974 7965 7964 7962 ] final  -35.35 input  175.53 | X-H torsion
[ 8008 7997 7996 7995 ] final  106.44 input   59.86 | X-H torsion
[ 10167 10162 10161 10158 ] final  -26.15 input  -65.29 | X-H torsion
[ 10718 10713 10712 10709 ] final   14.17 input   66.30 | X-H torsion
[ 10763 10752 10751 10750 ] final -147.52 input  -60.55 | X-H torsion
[ 11005 11000 10999 10996 ] final  171.97 input  -57.11 | X-H torsion

> <Gold.Protein.ActiveResidues>
 VAL166  LYS551  ARG553  GLY616  TRP617  ASP618  TYR619  PRO620  LYS621  CYS622 
 ASP623  PHE694  ASN695  SER759  ASP760  ASP761  ALA762  ILE779  LEU786  VAL792 
 PHE793  MET794  SER795  GLU796  ALA797  LYS798  CYS799  TRP800  GLU811  SER814 

> <Gold.Protein.RotatedAtoms>
  150.6945  134.1791  159.4241 H   0  0  0  0  0  0  0  0  0  0  0  0  # atno 6907 bound_to 6896
  151.9766  135.0047  160.0564 H   0  0  0  0  0  0  0  0  0  0  0  0  # atno 6908 bound_to 6896
  152.1793  133.4661  159.4987 H   0  0  0  0  0  0  0  0  0  0  0  0  # atno 6909 bound_to 6896
  146.0754  140.6148  142.8933 H   0  0  0  0  0  0  0  0  0  0  0  0  # atno 7974 bound_to 7965
  156.1743  140.3113  155.9030 H   0  0  0  0  0  0  0  0  0  0  0  0  # atno 8008 bound_to 7997
  155.3521  140.0471  157.3063 H   0  0  0  0  0  0  0  0  0  0  0  0  # atno 8009 bound_to 7997
  154.5273  140.2219  155.8877 H   0  0  0  0  0  0  0  0  0  0  0  0  # atno 8010 bound_to 7997
  140.7284  143.4203  151.0961 H   0  0  0  0  0  0  0  0  0  0  0  0  # atno 10167 bound_to 10162
  157.0352  130.6209  149.5742 H   0  0  0  0  0  0  0  0  0  0  0  0  # atno 10718 bound_to 10713
  154.8281  135.3358  154.6831 H   0  0  0  0  0  0  0  0  0  0  0  0  # atno 10763 bound_to 10752
  153.7454  135.6943  153.4962 H   0  0  0  0  0  0  0  0  0  0  0  0  # atno 10764 bound_to 10752
  153.2214  135.4447  155.0444 H   0  0  0  0  0  0  0  0  0  0  0  0  # atno 10765 bound_to 10752
  140.3247  134.7407  157.4090 H   0  0  0  0  0  0  0  0  0  0  0  0  # atno 11005 bound_to 11000
  144.7258  140.4520  143.6974 LP  0  0  0  0  0  0  0  0  0  0  0  0  # atno 17320 bound_to 7965
  145.6316  139.1537  143.2966 LP  0  0  0  0  0  0  0  0  0  0  0  0  # atno 17321 bound_to 7965
  139.7848  143.8303  152.3143 LP  0  0  0  0  0  0  0  0  0  0  0  0  # atno 17342 bound_to 10162
  139.8266  144.7272  150.9503 LP  0  0  0  0  0  0  0  0  0  0  0  0  # atno 17343 bound_to 10162
  156.0056  130.5142  150.7818 LP  0  0  0  0  0  0  0  0  0  0  0  0  # atno 17370 bound_to 10713
  157.5147  131.0928  151.0154 LP  0  0  0  0  0  0  0  0  0  0  0  0  # atno 17371 bound_to 10713
  140.0911  134.5599  155.8443 LP  0  0  0  0  0  0  0  0  0  0  0  0  # atno 17394 bound_to 11000
  141.2078  133.6667  156.6329 LP  0  0  0  0  0  0  0  0  0  0  0  0  # atno 17395 bound_to 11000

$$$$
