AV-unprocessed.smi:753|AV-procd|sdf|3600|dock2
  -GOLD-   22720 0593D 1   1.00000     0.00000
 Structure written by MMmdl.
 43 45  0  0  0  0  0  0  0  0  1 V2000
  143.5387  144.5995  156.2279 C   0  0  0  0  0  0  0  0  0  0  0  0
  144.5837  143.8090  155.4688 C   0  0  0  0  0  0  0  0  0  0  0  0
  144.9393  144.1589  154.1490 C   0  0  0  0  0  0  0  0  0  0  0  0
  145.9156  143.3868  153.4906 C   0  0  0  0  0  0  0  0  0  0  0  0
  146.4984  142.3006  154.1750 C   0  0  0  0  0  0  0  0  0  0  0  0
  147.5504  141.4364  153.5090 C   0  0  0  0  0  0  0  0  0  0  0  0
  148.5538  140.8647  154.5226 C   0  0  0  0  0  0  0  0  0  0  0  0
  149.1802  141.9222  155.3050 N   0  0  0  0  0  0  0  0  0  0  0  0
  150.2060  141.7492  156.1553 C   0  0  0  0  0  0  0  0  0  0  0  0
  150.7262  140.6574  156.3771 O   0  0  0  0  0  0  0  0  0  0  0  0
  150.6341  142.8745  156.7536 N   0  0  0  0  0  0  0  0  0  0  0  0
  151.7235  143.0176  157.7231 C   0  0  1  0  0  0  0  0  0  0  0  0
  152.3603  144.4229  157.6451 C   0  0  0  0  0  0  0  0  0  0  0  0
  152.1954  144.9619  159.0781 C   0  0  1  0  0  0  0  0  0  0  0  0
  150.7129  145.2895  159.3384 C   0  0  0  0  0  0  0  0  0  0  0  0
  150.0731  143.8945  159.4674 C   0  0  0  0  0  0  0  0  0  0  0  0
  151.2660  142.9504  159.2037 C   0  0  2  0  0  0  0  0  0  0  0  0
  152.3913  143.7006  159.9086 C   0  0  0  0  0  0  0  0  0  0  0  0
  146.0721  142.0349  155.4932 C   0  0  0  0  0  0  0  0  0  0  0  0
  145.1353  142.7685  156.1319 N   0  0  0  0  0  0  0  0  0  0  0  0
  143.1749  145.4419  155.6389 H   0  0  0  0  0  0  0  0  0  0  0  0
  143.9574  144.9897  157.1558 H   0  0  0  0  0  0  0  0  0  0  0  0
  142.6879  143.9638  156.4745 H   0  0  0  0  0  0  0  0  0  0  0  0
  144.4762  144.9974  153.6498 H   0  0  0  0  0  0  0  0  0  0  0  0
  146.2093  143.6250  152.4787 H   0  0  0  0  0  0  0  0  0  0  0  0
  147.0544  140.6281  152.9697 H   0  0  0  0  0  0  0  0  0  0  0  0
  148.0731  142.0313  152.7587 H   0  0  0  0  0  0  0  0  0  0  0  0
  148.0437  140.1916  155.2123 H   0  0  0  0  0  0  0  0  0  0  0  0
  149.3163  140.2715  154.0146 H   0  0  0  0  0  0  0  0  0  0  0  0
  148.8160  142.8562  155.1854 H   0  0  0  0  0  0  0  0  0  0  0  0
  150.1437  143.7245  156.5159 H   0  0  0  0  0  0  0  0  0  0  0  0
  152.4944  142.2690  157.5310 H   0  0  0  0  0  0  0  0  0  0  0  0
  153.4160  144.3464  157.3814 H   0  0  0  0  0  0  0  0  0  0  0  0
  151.8856  145.0740  156.9093 H   0  0  0  0  0  0  0  0  0  0  0  0
  152.8736  145.7815  159.3171 H   0  0  0  0  0  0  0  0  0  0  0  0
  150.5938  145.8529  160.2646 H   0  0  0  0  0  0  0  0  0  0  0  0
  150.2728  145.8754  158.5307 H   0  0  0  0  0  0  0  0  0  0  0  0
  149.6895  143.7475  160.4779 H   0  0  0  0  0  0  0  0  0  0  0  0
  149.2386  143.7485  158.7816 H   0  0  0  0  0  0  0  0  0  0  0  0
  151.1023  141.9349  159.5653 H   0  0  0  0  0  0  0  0  0  0  0  0
  153.3712  143.2396  159.7720 H   0  0  0  0  0  0  0  0  0  0  0  0
  152.2129  143.8515  160.9749 H   0  0  0  0  0  0  0  0  0  0  0  0
  146.4909  141.2095  156.0501 H   0  0  0  0  0  0  0  0  0  0  0  0
  1  2  1  0  0  0  0
  1 21  1  0  0  0  0
  1 22  1  0  0  0  0
  1 23  1  0  0  0  0
  2 20  1  0  0  0  0
  2  3  2  0  0  0  0
  3  4  1  0  0  0  0
  3 24  1  0  0  0  0
  4  5  2  0  0  0  0
  4 25  1  0  0  0  0
  5  6  1  0  0  0  0
  5 19  1  0  0  0  0
  6  7  1  0  0  0  0
  6 26  1  0  0  0  0
  6 27  1  0  0  0  0
  7  8  1  0  0  0  0
  7 28  1  0  0  0  0
  7 29  1  0  0  0  0
  8  9  1  0  0  0  0
  8 30  1  0  0  0  0
  9 10  2  0  0  0  0
  9 11  1  0  0  0  0
 11 12  1  0  0  0  0
 11 31  1  0  0  0  0
 12 17  1  0  0  0  0
 12 13  1  0  0  0  0
 12 32  1  0  0  0  0
 13 14  1  0  0  0  0
 13 33  1  0  0  0  0
 13 34  1  0  0  0  0
 14 18  1  0  0  0  0
 14 15  1  0  0  0  0
 14 35  1  0  0  0  0
 15 16  1  0  0  0  0
 15 36  1  0  0  0  0
 15 37  1  0  0  0  0
 16 17  1  0  0  0  0
 16 38  1  0  0  0  0
 16 39  1  0  0  0  0
 17 18  1  0  0  0  0
 17 40  1  0  0  0  0
 18 41  1  0  0  0  0
 18 42  1  0  0  0  0
 19 20  2  0  0  0  0
 19 43  1  0  0  0  0
M  END
> <s_m_source_file>
AV-unprocessed.smi

> <i_m_source_file_index>
753

> <i_lp_mmshare_version>
43012

> <i_f3d_flags>
0

> <s_epik_input>
W0NIM11jMVtjSF1bY0hdYyhbY0hdbjEpW0NIMl1bQ0gyXVtOSF1DKD1PKVtOSF1bQ0BIXShbQ0gyXVtDQEBIXTIzKVtDQEBIXShbQ0gyXTMpW0NIMl1bQ0gyXTI=

> <s_epik_cmdline>
J2VwaWtfcHl0aG9uJywgJy1waCcsICc3LjAnLCAnLXRuJywgJzgnLCAnLW1hJywgJzIwMCcsICctbWV0YWxfYmluZGluZycsICctaW1hZScsICc8aW5maWxlLm1hZT4nLCAnLW9tYWUnLCAnPG91dGZpbGUubWFlPic=

> <r_epik_Ionization_Penalty>
0.0569047

> <r_epik_Ionization_Penalty_Charging>
0

> <r_epik_Ionization_Penalty_Neutral>
0.0569047

> <r_epik_State_Penalty>
0.0490541

> <r_epik_Charging_Adjusted_Penalty>
0.0490541

> <i_epik_Tot_Q>
0

> <i_epik_Tot_abs_Q>
0

> <r_epik_Metal_State_Penalty>
0.0447357

> <b_epik_Metal_Only>
0

> <s_lp_Force_Field>
OPLS_2005

> <r_lp_Energy>
50.4095

> <b_lp_Chiralities_Consistent>
1

> <s_lp_Variant>
AV-unprocessed.smi:753-2

> <Gold.Version>
5.8.1

> <Gold.Id.Protein>
6NUR|6NUR_protein|mol2

> <Gold.PLP.Fitness>
50.8789

> <Gold.PLP.PLP>
-46.4358

> <Gold.PLP.part.hbond>
-2.0000

> <Gold.PLP.part.metal>
0.0000

> <Gold.PLP.part.buried>
-9.0798

> <Gold.PLP.part.nonpolar>
-35.8446

> <Gold.PLP.part.repulsive>
0.3499

> <Gold.PLP.ligand.clash>
0.0000

> <Gold.PLP.ligand.torsion>
0.7790

> <Gold.PLP.Chemscore.Hbond>
1.9920

> <Gold.PLP.Chemscore.CHOScore>
0.0000

> <Gold.PLP.Chemscore.Metal>
0.0000

> <Gold.Chemscore.Hbonds>
donor molecule, donor type, donor heavy atom, donor atom, acceptor molecule, acceptor atom, score
      L1  H     8    30       P1  8028  0.99
      L1  H    11    31       P1  8028  1.00

> <Gold.PLP.Chemscore.Internal.Correction>
0.0251

> <Gold.Rescore>
     Score         DG    S(hbond)    S(metal)    S(lipo)     H(rot)  DE(clash)    DE(int)     intcor
     21.99     -22.97       1.92        0.00     125.93       1.43       0.30       0.68       ----

> <Gold.Chemscore.Fitness>
21.9918

> <Gold.Chemscore.DG>
-22.9668

> <Gold.Chemscore.ZeroCoef>
-5.4800

> <Gold.Chemscore.Hbond>
1.9198

> <Gold.Chemscore.Metal>
0.0000

> <Gold.Chemscore.Lipo>
125.9258

> <Gold.Chemscore.Internal_Hbond>
0.0000

> <Gold.Chemscore.DEClash>
0.2972

> <Gold.Chemscore.DEInternal>
0.6778

> <Gold.Chemscore.Rot>
1.4291

> <Gold.Chemscore.Internal.Correction>
   9.000000E+99

> <Gold.Chemscore.Hbonds>
donor molecule, donor type, donor heavy atom, donor atom, acceptor molecule, acceptor atom, score
      L1  H     8    30       P1  8028  0.94
      L1  H    11    31       P1  8028  0.99

> <Gold.Chemscore.Hbond.Weighted>
-6.4120

> <Gold.Chemscore.Metal.Weighted>
-0.0000

> <Gold.Chemscore.Lipo.Weighted>
-14.7333

> <Gold.Chemscore.Internal_Hbond.Weighted>
0.0000

> <Gold.Chemscore.DEClash.Weighted>
0.2972

> <Gold.Chemscore.DEInternal.Weighted>
0.6778

> <Gold.Chemscore.Rot.Weighted>
3.6585

> <Gold.Chemscore.Internal.Correction.Weighted>
   9.000000E+99

> <Gold.Protein.RotatedTorsions>
[ 6907 6896 6895 6894 ] final   76.19 input  -60.11 | X-H torsion
[ 7974 7965 7964 7962 ] final  -31.94 input  175.53 | X-H torsion
[ 8008 7997 7996 7995 ] final  -76.47 input   59.86 | X-H torsion
[ 10167 10162 10161 10158 ] final  -26.56 input  -65.29 | X-H torsion
[ 10718 10713 10712 10709 ] final -179.35 input   66.30 | X-H torsion
[ 10763 10752 10751 10750 ] final   86.66 input  -60.55 | X-H torsion
[ 11005 11000 10999 10996 ] final -170.68 input  -57.11 | X-H torsion

> <Gold.Protein.ActiveResidues>
 VAL166  LYS551  ARG553  GLY616  TRP617  ASP618  TYR619  PRO620  LYS621  CYS622 
 ASP623  PHE694  ASN695  SER759  ASP760  ASP761  ALA762  ILE779  LEU786  VAL792 
 PHE793  MET794  SER795  GLU796  ALA797  LYS798  CYS799  TRP800  GLU811  SER814 

> <Gold.Protein.RotatedAtoms>
  152.5061  134.4007  159.9415 H   0  0  0  0  0  0  0  0  0  0  0  0  # atno 6907 bound_to 6896
  151.3970  133.3763  159.2735 H   0  0  0  0  0  0  0  0  0  0  0  0  # atno 6908 bound_to 6896
  150.9390  134.8821  159.7659 H   0  0  0  0  0  0  0  0  0  0  0  0  # atno 6909 bound_to 6896
  146.1029  140.5730  142.8813 H   0  0  0  0  0  0  0  0  0  0  0  0  # atno 7974 bound_to 7965
  154.5508  140.0726  156.8664 H   0  0  0  0  0  0  0  0  0  0  0  0  # atno 8008 bound_to 7997
  155.2997  140.3383  155.4230 H   0  0  0  0  0  0  0  0  0  0  0  0  # atno 8009 bound_to 7997
  156.1959  140.1703  156.7985 H   0  0  0  0  0  0  0  0  0  0  0  0  # atno 8010 bound_to 7997
  140.7282  143.4168  151.1016 H   0  0  0  0  0  0  0  0  0  0  0  0  # atno 10167 bound_to 10162
  156.8577  130.9741  151.3086 H   0  0  0  0  0  0  0  0  0  0  0  0  # atno 10718 bound_to 10713
  153.1592  135.4572  154.9747 H   0  0  0  0  0  0  0  0  0  0  0  0  # atno 10763 bound_to 10752
  154.7884  135.3212  154.7836 H   0  0  0  0  0  0  0  0  0  0  0  0  # atno 10764 bound_to 10752
  153.8328  135.6937  153.4867 H   0  0  0  0  0  0  0  0  0  0  0  0  # atno 10765 bound_to 10752
  140.5167  134.5749  157.5035 H   0  0  0  0  0  0  0  0  0  0  0  0  # atno 11005 bound_to 11000
  144.7447  140.5036  143.6844 LP  0  0  0  0  0  0  0  0  0  0  0  0  # atno 17320 bound_to 7965
  145.5819  139.1489  143.3231 LP  0  0  0  0  0  0  0  0  0  0  0  0  # atno 17321 bound_to 7965
  139.7808  143.8358  152.3137 LP  0  0  0  0  0  0  0  0  0  0  0  0  # atno 17342 bound_to 10162
  139.8308  144.7254  150.9452 LP  0  0  0  0  0  0  0  0  0  0  0  0  # atno 17343 bound_to 10162
  157.6267  130.8697  149.9203 LP  0  0  0  0  0  0  0  0  0  0  0  0  # atno 17370 bound_to 10713
  156.0793  130.3675  150.0612 LP  0  0  0  0  0  0  0  0  0  0  0  0  # atno 17371 bound_to 10713
  139.9628  134.7423  156.0201 LP  0  0  0  0  0  0  0  0  0  0  0  0  # atno 17394 bound_to 11000
  141.1356  133.6576  156.3585 LP  0  0  0  0  0  0  0  0  0  0  0  0  # atno 17395 bound_to 11000

$$$$
