#       Name:                AV-unprocessed.smi:1535
#       Creating user name   scv26
#       Creation time:       Fri Mar 27 06:32:19 2020


#       File generated by GOLD software.
#

@<TRIPOS>MOLECULE
AV-unprocessed.smi:1535
    51    52     1
SMALL
NO_CHARGES


@<TRIPOS>ATOM
      1 ****         1.9214   4.5637   2.1596 C.3            1 S1                 0.0000
      2 ****         0.8644   3.7282   1.4593 C.ar           1 S1                 0.0000
      3 ****        -0.3544   3.4646   2.1241 C.ar           1 S1                 0.0000
      4 ****        -1.3638   2.6931   1.5076 C.ar           1 S1                 0.0000
      5 ****        -2.6145   2.3188   1.9669 N.2            1 S1                 0.0000
      6 ****        -3.0758   1.6109   0.9400 C.2            1 S1                 0.0000
      7 ****        -2.2693   1.4790  -0.1310 N.pl3          1 S1                 0.0000
      8 ****        -2.5542   0.7534  -1.3587 C.3            1 S1                 0.0000
      9 ****        -2.2635  -0.7601  -1.2653 C.3            1 S1                 0.0000
     10 ****        -3.1680  -1.3440  -0.3486 O.3            1 S1                 0.0000
     11 ****        -0.8263  -1.0770  -0.7935 C.3            1 S1                 0.0000
     12 ****        -0.4246  -2.4837  -0.8813 N.3            1 S1                 0.0000
     13 ****        -0.2594  -2.9092  -2.2703 C.3            1 S1                 0.0000
     14 ****         0.8023  -2.7092  -0.1137 C.3            1 S1                 0.0000
     15 ****         1.1850  -4.1857   0.1041 C.3            1 S1                 0.0000
     16 ****         2.5010  -4.3077   0.8819 C.3            1 S1                 0.0000
     17 ****         0.1095  -4.9260   0.7851 C.1            1 S1                 0.0000
     18 ****        -0.7355  -5.5079   1.3202 N.1            1 S1                 0.0000
     19 ****        -1.1180   2.1872   0.1977 C.ar           1 S1                 0.0000
     20 ****         0.0911   2.4424  -0.4736 C.ar           1 S1                 0.0000
     21 ****         1.0888   3.2150   0.1567 C.ar           1 S1                 0.0000
     22 ****         2.3897   3.4861  -0.5777 C.3            1 S1                 0.0000
     23 ****         1.5643   4.9314   3.1218 H              1 S1                 0.0000
     24 ****         2.1925   5.4276   1.5527 H              1 S1                 0.0000
     25 ****         2.8181   3.9701   2.3388 H              1 S1                 0.0000
     26 ****        -0.5254   3.8547   3.1165 H              1 S1                 0.0000
     27 ****        -4.0555   1.1563   0.9680 H              1 S1                 0.0000
     28 ****        -3.5982   0.9227  -1.6266 H              1 S1                 0.0000
     29 ****        -1.9603   1.1928  -2.1607 H              1 S1                 0.0000
     30 ****        -2.4576  -1.1909  -2.2460 H              1 S1                 0.0000
     31 ****        -2.9802  -2.2690  -0.2950 H              1 S1                 0.0000
     32 ****        -0.1196  -0.4713  -1.3624 H              1 S1                 0.0000
     33 ****        -0.7342  -0.7409   0.2404 H              1 S1                 0.0000
     34 ****        -0.0080  -3.9667  -2.3333 H              1 S1                 0.0000
     35 ****         0.5308  -2.3426  -2.7650 H              1 S1                 0.0000
     36 ****        -1.1764  -2.7808  -2.8425 H              1 S1                 0.0000
     37 ****         1.6312  -2.1836  -0.5906 H              1 S1                 0.0000
     38 ****         0.6931  -2.2568   0.8732 H              1 S1                 0.0000
     39 ****         1.3316  -4.6758  -0.8575 H              1 S1                 0.0000
     40 ****         2.7747  -5.3535   1.0239 H              1 S1                 0.0000
     41 ****         2.4223  -3.8474   1.8673 H              1 S1                 0.0000
     42 ****         3.3183  -3.8215   0.3489 H              1 S1                 0.0000
     43 ****         0.2497   2.0463  -1.4655 H              1 S1                 0.0000
     44 ****         2.4218   2.9659  -1.5355 H              1 S1                 0.0000
     45 ****         3.2418   3.1498   0.0132 H              1 S1                 0.0000
     46 ****         2.5011   4.5531  -0.7715 H              1 S1                 0.0000
     47 ****        -3.0551   2.5259   2.8404 LP             1 S1                 0.0000
     48 ****        -4.1065  -1.2073  -0.6658 LP             1 S1                 0.0000
     49 ****        -3.0559  -0.9234   0.5516 LP             1 S1                 0.0000
     50 ****        -1.1555  -3.0400  -0.4859 LP             1 S1                 0.0000
     51 ****        -1.4658  -6.0108   1.7826 LP             1 S1                 0.0000
@<TRIPOS>BOND
    1    1    2 1     
    2    1   23 1     
    3    1   24 1     
    4    1   25 1     
    5    2   21 ar    
    6    2    3 ar    
    7    3    4 ar    
    8    3   26 1     
    9    4   19 ar    
   10    4    5 1     
   11    5    6 2     
   12    6    7 1     
   13    6   27 1     
   14    7    8 1     
   15    7   19 1     
   16    8    9 1     
   17    8   28 1     
   18    8   29 1     
   19    9   10 1     
   20    9   11 1     
   21    9   30 1     
   22   10   31 1     
   23   11   12 1     
   24   11   32 1     
   25   11   33 1     
   26   12   13 1     
   27   12   14 1     
   28   13   34 1     
   29   13   35 1     
   30   13   36 1     
   31   14   15 1     
   32   14   37 1     
   33   14   38 1     
   34   15   16 1     
   35   15   17 1     
   36   15   39 1     
   37   16   40 1     
   38   16   41 1     
   39   16   42 1     
   40   17   18 3     
   41   19   20 ar    
   42   20   21 ar    
   43   20   43 1     
   44   21   22 1     
   45   22   44 1     
   46   22   45 1     
   47   22   46 1     
   48    5   47 1     
   49   10   48 1     
   50   10   49 1     
   51   12   50 1     
   52   18   51 1     
@<TRIPOS>SUBSTRUCTURE
      1 S1             1
@<TRIPOS>SET
LONE_PAIRS      STATIC     ATOMS    <user>   **** ""
5 47 48 49 50 51
DONOR_HYDROGENS      STATIC     ATOMS    <user>   **** ""
1 31
ATOM$BLUE        STATIC     ATOMS    COLORGROUP SYSTEM
5 47 48 49 50 51
ATOM$RED        STATIC     ATOMS    COLORGROUP SYSTEM
1 31
