#       Name:                AV-unprocessed.smi:790
#       Creating user name   scv26
#       Creation time:       Fri Mar 27 01:17:48 2020


#       File generated by GOLD software.
#

@<TRIPOS>MOLECULE
AV-unprocessed.smi:790
    43    45     1
SMALL
NO_CHARGES


@<TRIPOS>ATOM
      1 ****        -0.5084   1.7043   0.7265 O.2            1 S1                 0.0000
      2 ****        -1.0183   0.6149   0.4680 C.2            1 S1                 0.0000
      3 ****        -2.3354   0.3793   0.3385 N.am           1 S1                 0.0000
      4 ****        -3.4266   1.2851   0.4478 C.ar           1 S1                 0.0000
      5 ****        -3.3429   2.5912   0.9903 C.ar           1 S1                 0.0000
      6 ****        -4.5078   3.3804   1.0460 C.ar           1 S1                 0.0000
      7 ****        -5.7137   2.8363   0.5638 C.ar           1 S1                 0.0000
      8 ****        -5.8113   1.5907   0.0543 N.ar           1 S1                 0.0000
      9 ****        -4.6901   0.8403   0.0038 C.ar           1 S1                 0.0000
     10 ****        -0.3093  -0.5049   0.2681 N.am           1 S1                 0.0000
     11 ****         1.1480  -0.6013   0.3103 C.3            1 S1                 0.0000
     12 ****         1.5829  -2.0129   0.7635 C.3            1 S1                 0.0000
     13 ****         3.0622  -1.9612   1.1841 C.3            1 S1                 0.0000
     14 ****         3.7854  -1.8029  -0.1665 C.3            1 S1                 0.0000
     15 ****         2.6231  -1.7875  -1.1836 C.3            1 S1                 0.0000
     16 ****         1.6647  -2.7871  -0.5494 C.3            1 S1                 0.0000
     17 ****         1.7945  -0.4836  -1.0950 C.3            1 S1                 0.0000
     18 ****         2.5959   0.8100  -1.3391 C.3            1 S1                 0.0000
     19 ****         1.7193   1.8986  -1.5340 O.3            1 S1                 0.0000
     20 ****        -2.5880  -0.5640   0.0825 H              1 S1                 0.0000
     21 ****        -2.4232   3.0040   1.3726 H              1 S1                 0.0000
     22 ****        -4.4775   4.3804   1.4528 H              1 S1                 0.0000
     23 ****        -6.6248   3.4155   0.5926 H              1 S1                 0.0000
     24 ****        -4.8071  -0.1513  -0.4089 H              1 S1                 0.0000
     25 ****        -0.8126  -1.3550   0.0612 H              1 S1                 0.0000
     26 ****         1.5452   0.1450   1.0010 H              1 S1                 0.0000
     27 ****         0.9368  -2.4564   1.5222 H              1 S1                 0.0000
     28 ****         3.2743  -1.1418   1.8718 H              1 S1                 0.0000
     29 ****         3.3603  -2.8906   1.6710 H              1 S1                 0.0000
     30 ****         4.4079  -0.9100  -0.2079 H              1 S1                 0.0000
     31 ****         4.4370  -2.6588  -0.3461 H              1 S1                 0.0000
     32 ****         2.9311  -2.0368  -2.1994 H              1 S1                 0.0000
     33 ****         2.0901  -3.7861  -0.4376 H              1 S1                 0.0000
     34 ****         0.7085  -2.8639  -1.0699 H              1 S1                 0.0000
     35 ****         1.0210  -0.5481  -1.8635 H              1 S1                 0.0000
     36 ****         3.2581   1.0369  -0.5037 H              1 S1                 0.0000
     37 ****         3.2161   0.7083  -2.2299 H              1 S1                 0.0000
     38 ****         2.2333   2.6816  -1.6596 H              1 S1                 0.0000
     39 ****        -1.0876   2.5087   0.8591 LP             1 S1                 0.0000
     40 ****         0.4853   1.7855   0.8041 LP             1 S1                 0.0000
     41 ****        -6.6858   1.2349  -0.2752 LP             1 S1                 0.0000
     42 ****         1.1324   2.0062  -0.7315 LP             1 S1                 0.0000
     43 ****         1.1529   1.7345  -2.3416 LP             1 S1                 0.0000
@<TRIPOS>BOND
    1    1    2 2     
    2    2    3 am    
    3    2   10 am    
    4    3    4 1     
    5    3   20 1     
    6    4    9 ar    
    7    4    5 ar    
    8    5    6 ar    
    9    5   21 1     
   10    6    7 ar    
   11    6   22 1     
   12    7    8 ar    
   13    7   23 1     
   14    8    9 ar    
   15    9   24 1     
   16   10   11 1     
   17   10   25 1     
   18   11   17 1     
   19   11   12 1     
   20   11   26 1     
   21   12   16 1     
   22   12   13 1     
   23   12   27 1     
   24   13   14 1     
   25   13   28 1     
   26   13   29 1     
   27   14   15 1     
   28   14   30 1     
   29   14   31 1     
   30   15   16 1     
   31   15   17 1     
   32   15   32 1     
   33   16   33 1     
   34   16   34 1     
   35   17   18 1     
   36   17   35 1     
   37   18   19 1     
   38   18   36 1     
   39   18   37 1     
   40   19   38 1     
   41    1   39 1     
   42    1   40 1     
   43    8   41 1     
   44   19   42 1     
   45   19   43 1     
@<TRIPOS>SUBSTRUCTURE
      1 S1             1
@<TRIPOS>SET
LONE_PAIRS      STATIC     ATOMS    <user>   **** ""
5 39 40 41 42 43
DONOR_HYDROGENS      STATIC     ATOMS    <user>   **** ""
3 20 25 38
ATOM$BLUE        STATIC     ATOMS    COLORGROUP SYSTEM
5 39 40 41 42 43
ATOM$RED        STATIC     ATOMS    COLORGROUP SYSTEM
3 20 25 38
