AV-unprocessed.smi:3231|AV-procd|sdf|12331|dock4
  -GOLD-   2272018183D 1   1.00000     0.00000
 Structure written by MMmdl.
 41 42  0  0  0  0  0  0  0  0  2 V2000
  146.4515  140.7842  152.8138 O   0  0  0  0  0  0  0  0  0  0  0  0
  147.3431  139.6855  152.7969 C   0  0  2  0  0  0  0  0  0  0  0  0
  146.7684  138.6359  151.8296 C   0  0  0  0  0  0  0  0  0  0  0  0
  145.5260  138.0432  152.3635 N   0  3  0  0  0  0  0  0  0  0  0  0
  145.5809  136.5783  152.5405 C   0  0  0  0  0  0  0  0  0  0  0  0
  144.5762  135.8625  151.6226 C   0  0  0  0  0  0  0  0  0  0  0  0
  144.8311  134.4362  151.5234 N   0  0  0  0  0  0  0  0  0  0  0  0
  143.9195  133.4071  151.4120 C   0  0  0  0  0  0  0  0  0  0  0  0
  144.6280  132.2412  151.3569 C   0  0  0  0  0  0  0  0  0  0  0  0
  145.9832  132.6638  151.4528 C   0  0  0  0  0  0  0  0  0  0  0  0
  146.1010  133.9783  151.5524 N   0  0  0  0  0  0  0  0  0  0  0  0
  147.4855  139.1361  154.2331 C   0  0  0  0  0  0  0  0  0  0  0  0
  148.8018  139.3221  154.8440 N   0  0  0  0  0  0  0  0  0  0  0  0
  149.1828  140.7312  154.8475 C   0  0  0  0  0  0  0  0  0  0  0  0
  150.5645  140.9542  155.4862 C   0  0  0  0  0  0  0  0  0  0  0  0
  151.5362  140.1732  154.7988 O   0  0  0  0  0  0  0  0  0  0  0  0
  151.2305  138.7828  154.8118 C   0  0  0  0  0  0  0  0  0  0  0  0
  149.8483  138.5501  154.1766 C   0  0  0  0  0  0  0  0  0  0  0  0
  145.5651  140.4555  152.8144 H   0  0  0  0  0  0  0  0  0  0  0  0
  148.3164  140.0136  152.4280 H   0  0  0  0  0  0  0  0  0  0  0  0
  146.5329  139.1038  150.8727 H   0  0  0  0  0  0  0  0  0  0  0  0
  147.5014  137.8524  151.6308 H   0  0  0  0  0  0  0  0  0  0  0  0
  145.3285  138.4702  153.2572 H   0  0  0  0  0  0  0  0  0  0  0  0
  146.5936  136.2232  152.3443 H   0  0  0  0  0  0  0  0  0  0  0  0
  145.3583  136.3398  153.5811 H   0  0  0  0  0  0  0  0  0  0  0  0
  143.5619  136.0011  151.9995 H   0  0  0  0  0  0  0  0  0  0  0  0
  144.5997  136.2952  150.6216 H   0  0  0  0  0  0  0  0  0  0  0  0
  142.8547  133.5865  151.3797 H   0  0  0  0  0  0  0  0  0  0  0  0
  144.2379  131.2381  151.2669 H   0  0  0  0  0  0  0  0  0  0  0  0
  146.8783  132.0592  151.4530 H   0  0  0  0  0  0  0  0  0  0  0  0
  146.7030  139.5385  154.8787 H   0  0  0  0  0  0  0  0  0  0  0  0
  147.2976  138.0624  154.1910 H   0  0  0  0  0  0  0  0  0  0  0  0
  149.1942  141.1142  153.8259 H   0  0  0  0  0  0  0  0  0  0  0  0
  148.4389  141.3150  155.3907 H   0  0  0  0  0  0  0  0  0  0  0  0
  150.8450  142.0059  155.4266 H   0  0  0  0  0  0  0  0  0  0  0  0
  150.5510  140.6844  156.5435 H   0  0  0  0  0  0  0  0  0  0  0  0
  151.9986  138.2431  154.2574 H   0  0  0  0  0  0  0  0  0  0  0  0
  151.2524  138.4087  155.8366 H   0  0  0  0  0  0  0  0  0  0  0  0
  149.6201  137.4855  154.2230 H   0  0  0  0  0  0  0  0  0  0  0  0
  149.8880  138.8171  153.1194 H   0  0  0  0  0  0  0  0  0  0  0  0
  144.7710  138.2608  151.7287 H   0  0  0  0  0  0  0  0  0  0  0  0
  1  2  1  0  0  0  0
  1 19  1  0  0  0  0
  2  3  1  0  0  0  0
  2 12  1  0  0  0  0
  2 20  1  0  0  0  0
  3  4  1  0  0  0  0
  3 21  1  0  0  0  0
  3 22  1  0  0  0  0
  4  5  1  0  0  0  0
  4 23  1  0  0  0  0
  4 41  1  0  0  0  0
  5  6  1  0  0  0  0
  5 24  1  0  0  0  0
  5 25  1  0  0  0  0
  6  7  1  0  0  0  0
  6 26  1  0  0  0  0
  6 27  1  0  0  0  0
  7 11  1  0  0  0  0
  7  8  1  0  0  0  0
  8  9  2  0  0  0  0
  8 28  1  0  0  0  0
  9 10  1  0  0  0  0
  9 29  1  0  0  0  0
 10 11  2  0  0  0  0
 10 30  1  0  0  0  0
 12 13  1  0  0  0  0
 12 31  1  0  0  0  0
 12 32  1  0  0  0  0
 13 18  1  0  0  0  0
 13 14  1  0  0  0  0
 14 15  1  0  0  0  0
 14 33  1  0  0  0  0
 14 34  1  0  0  0  0
 15 16  1  0  0  0  0
 15 35  1  0  0  0  0
 15 36  1  0  0  0  0
 16 17  1  0  0  0  0
 17 18  1  0  0  0  0
 17 37  1  0  0  0  0
 17 38  1  0  0  0  0
 18 39  1  0  0  0  0
 18 40  1  0  0  0  0
M  CHG  1   4   1
M  END
> <s_m_source_file>
AV-unprocessed.smi

> <i_m_source_file_index>
3231

> <i_lp_mmshare_version>
43012

> <i_f3d_flags>
0

> <s_epik_input>
W0NIMl0xW0NIMl1PW0NIMl1bQ0gyXU4xW0NIMl1bQ0BIXShbT0hdKVtDSDJdW05IXVtDSDJdW0NIMl1uMltjSF1bY0hdW2NIXW4y

> <s_epik_cmdline>
J2VwaWtfcHl0aG9uJywgJy1waCcsICc3LjAnLCAnLXRuJywgJzgnLCAnLW1hJywgJzIwMCcsICctbWV0YWxfYmluZGluZycsICctaW1hZScsICc8aW5maWxlLm1hZT4nLCAnLW9tYWUnLCAnPG91dGZpbGUubWFlPic=

> <r_lp_tautomer_probability>
1

> <r_epik_Ionization_Penalty>
0.1292

> <r_epik_Ionization_Penalty_Charging>
0.0387518

> <r_epik_Ionization_Penalty_Neutral>
0.0904484

> <r_epik_State_Penalty>
0.234133

> <r_epik_Charging_Adjusted_Penalty>
0.272885

> <i_epik_Tot_Q>
1

> <i_epik_Tot_abs_Q>
1

> <r_epik_Metal_State_Penalty>
0.234414

> <b_epik_Metal_Only>
0

> <s_lp_Force_Field>
OPLS_2005

> <r_lp_Energy>
29.315

> <b_lp_Chiralities_Consistent>
1

> <s_lp_Variant>
AV-unprocessed.smi:3231-1

> <Gold.Version>
5.8.1

> <Gold.Id.Protein>
6NUR|6NUR_protein|mol2

> <Gold.PLP.Fitness>
46.3912

> <Gold.PLP.PLP>
-34.9443

> <Gold.PLP.part.hbond>
-3.8367

> <Gold.PLP.part.metal>
0.0000

> <Gold.PLP.part.buried>
-0.0270

> <Gold.PLP.part.nonpolar>
-30.9259

> <Gold.PLP.part.repulsive>
0.3807

> <Gold.PLP.ligand.clash>
0.0000

> <Gold.PLP.ligand.torsion>
1.9109

> <Gold.PLP.Chemscore.Hbond>
3.0000

> <Gold.PLP.Chemscore.CHOScore>
2.0000

> <Gold.PLP.Chemscore.Metal>
0.0000

> <Gold.Chemscore.Hbonds>
donor molecule, donor type, donor heavy atom, donor atom, acceptor molecule, acceptor atom, score
      L1  H     1    19       P1 10175  1.00
      L1  H     4    41       P1 10171  0.73
      P1  H  7989  7998       L1    16  0.86
      L1  C     8    28       P1 10186  0.52
      L1  C    10    30       P1 10747  0.60

> <Gold.PLP.Chemscore.Internal.Correction>
0.2688

> <Gold.Rescore>
     Score         DG    S(hbond)    S(metal)    S(lipo)     H(rot)  DE(clash)    DE(int)     intcor
     14.55     -16.53       2.64        0.00      80.79       2.83       0.06       1.92       ----

> <Gold.Chemscore.Fitness>
14.5494

> <Gold.Chemscore.DG>
-16.5289

> <Gold.Chemscore.ZeroCoef>
-5.4800

> <Gold.Chemscore.Hbond>
2.6433

> <Gold.Chemscore.Metal>
0.0000

> <Gold.Chemscore.Lipo>
80.7909

> <Gold.Chemscore.Internal_Hbond>
0.0000

> <Gold.Chemscore.DEClash>
0.0617

> <Gold.Chemscore.DEInternal>
1.9177

> <Gold.Chemscore.Rot>
2.8251

> <Gold.Chemscore.Internal.Correction>
   9.000000E+99

> <Gold.Chemscore.Hbonds>
donor molecule, donor type, donor heavy atom, donor atom, acceptor molecule, acceptor atom, score
      L1  H     1    19       P1 10175  0.77
      L1  H     4    41       P1 10171  0.72
      P1  H  7989  7998       L1    16  0.31

> <Gold.Chemscore.Hbond.Weighted>
-8.8285

> <Gold.Chemscore.Metal.Weighted>
-0.0000

> <Gold.Chemscore.Lipo.Weighted>
-9.4525

> <Gold.Chemscore.Internal_Hbond.Weighted>
0.0000

> <Gold.Chemscore.DEClash.Weighted>
0.0617

> <Gold.Chemscore.DEInternal.Weighted>
1.9177

> <Gold.Chemscore.Rot.Weighted>
7.2322

> <Gold.Chemscore.Internal.Correction.Weighted>
   9.000000E+99

> <Gold.Protein.RotatedTorsions>
[ 6907 6896 6895 6894 ] final  -35.27 input  -60.11 | X-H torsion
[ 7974 7965 7964 7962 ] final -124.34 input  175.53 | X-H torsion
[ 8008 7997 7996 7995 ] final   34.46 input   59.86 | X-H torsion
[ 10167 10162 10161 10158 ] final -161.17 input  -65.29 | X-H torsion
[ 10718 10713 10712 10709 ] final   96.44 input   66.30 | X-H torsion
[ 10763 10752 10751 10750 ] final  -80.82 input  -60.55 | X-H torsion
[ 11005 11000 10999 10996 ] final    3.89 input  -57.11 | X-H torsion

> <Gold.Protein.ActiveResidues>
 VAL166  LYS551  ARG553  GLY616  TRP617  ASP618  TYR619  PRO620  LYS621  CYS622 
 ASP623  PHE694  ASN695  SER759  ASP760  ASP761  ALA762  ILE779  LEU786  VAL792 
 PHE793  MET794  SER795  GLU796  ALA797  LYS798  CYS799  TRP800  GLU811  SER814 

> <Gold.Protein.RotatedAtoms>
  151.0419  134.9613  159.8165 H   0  0  0  0  0  0  0  0  0  0  0  0  # atno 6907 bound_to 6896
  152.5365  134.2647  159.8958 H   0  0  0  0  0  0  0  0  0  0  0  0  # atno 6908 bound_to 6896
  151.2659  133.4236  159.2652 H   0  0  0  0  0  0  0  0  0  0  0  0  # atno 6909 bound_to 6896
  145.0091  140.7890  143.4449 H   0  0  0  0  0  0  0  0  0  0  0  0  # atno 7974 bound_to 7965
  155.1552  140.3278  155.4423 H   0  0  0  0  0  0  0  0  0  0  0  0  # atno 8008 bound_to 7997
  156.2561  140.1970  156.6612 H   0  0  0  0  0  0  0  0  0  0  0  0  # atno 8009 bound_to 7997
  154.6444  140.0566  156.9870 H   0  0  0  0  0  0  0  0  0  0  0  0  # atno 8010 bound_to 7997
  139.6485  144.0128  152.2144 H   0  0  0  0  0  0  0  0  0  0  0  0  # atno 10167 bound_to 10162
  157.6927  131.0578  150.4491 H   0  0  0  0  0  0  0  0  0  0  0  0  # atno 10718 bound_to 10713
  154.5559  135.5648  153.6964 H   0  0  0  0  0  0  0  0  0  0  0  0  # atno 10763 bound_to 10752
  153.0003  135.6262  154.2310 H   0  0  0  0  0  0  0  0  0  0  0  0  # atno 10764 bound_to 10752
  154.2246  135.2868  155.2892 H   0  0  0  0  0  0  0  0  0  0  0  0  # atno 10765 bound_to 10752
  140.5880  133.9950  155.8076 H   0  0  0  0  0  0  0  0  0  0  0  0  # atno 11005 bound_to 11000
  145.2048  139.2234  143.5174 LP  0  0  0  0  0  0  0  0  0  0  0  0  # atno 17320 bound_to 7965
  146.3466  140.1873  142.8589 LP  0  0  0  0  0  0  0  0  0  0  0  0  # atno 17321 bound_to 7965
  139.9836  144.6411  150.7878 LP  0  0  0  0  0  0  0  0  0  0  0  0  # atno 17342 bound_to 10162
  140.7526  143.2993  151.3121 LP  0  0  0  0  0  0  0  0  0  0  0  0  # atno 17343 bound_to 10162
  156.4844  130.4081  149.6443 LP  0  0  0  0  0  0  0  0  0  0  0  0  # atno 17370 bound_to 10713
  156.3477  130.7415  151.2370 LP  0  0  0  0  0  0  0  0  0  0  0  0  # atno 17371 bound_to 10713
  141.0953  133.9853  157.3170 LP  0  0  0  0  0  0  0  0  0  0  0  0  # atno 17394 bound_to 11000
  139.9287  135.0201  156.8324 LP  0  0  0  0  0  0  0  0  0  0  0  0  # atno 17395 bound_to 11000

$$$$
