AV-unprocessed.smi:264|AV-procd|sdf|2010|dock7
  -GOLD-   2262021213D 1   1.00000     0.00000
 Structure written by MMmdl.
 52 56  0  0  0  0  0  0  0  0  1 V2000
  152.5903  140.7428  157.9110 C   0  0  0  0  0  0  0  0  0  0  0  0
  151.7877  141.9511  158.4176 C   0  0  1  0  0  0  0  0  0  0  0  0
  152.7128  142.9000  158.9419 O   0  0  0  0  0  0  0  0  0  0  0  0
  152.1696  144.1991  158.7893 C   0  0  0  0  0  0  0  0  0  0  0  0
  151.5440  144.1284  157.4049 C   0  0  0  0  0  0  0  0  0  0  0  0
  150.9422  142.7253  157.3667 C   0  0  2  0  0  0  0  0  0  0  0  0
  149.6158  142.8107  157.8602 O   0  0  0  0  0  0  0  0  0  0  0  0
  150.8881  142.1156  155.9408 C   0  0  0  0  0  0  0  0  0  0  0  0
  150.5887  140.6917  155.9333 N   0  0  0  0  0  0  0  0  0  0  0  0
  149.4700  140.0801  156.4527 C   0  0  0  0  0  0  0  0  0  0  0  0
  149.4381  138.7814  156.3298 N   0  0  0  0  0  0  0  0  0  0  0  0
  150.6227  138.4733  155.6707 C   0  0  0  0  0  0  0  0  0  0  0  0
  151.2218  137.2619  155.2234 C   0  0  0  0  0  0  0  0  0  0  0  0
  150.6528  136.0471  155.4270 N   0  0  0  0  0  0  0  0  0  0  0  0
  151.2200  135.1823  156.4556 C   0  0  0  0  0  0  0  0  0  0  0  0
  150.6694  133.7575  156.3009 C   0  0  0  0  0  0  0  0  0  0  0  0
  149.2422  133.7737  156.2961 O   0  0  0  0  0  0  0  0  0  0  0  0
  148.6446  134.6126  155.2991 C   0  0  1  0  0  0  0  0  0  0  0  0
  148.7716  134.0260  153.8962 C   0  0  0  0  0  0  0  0  0  0  0  0
  147.6634  132.9845  153.8843 C   0  0  0  0  0  0  0  0  0  0  0  0
  146.5967  133.6224  154.5688 O   0  0  0  0  0  0  0  0  0  0  0  0
  147.1237  134.5468  155.5183 C   0  0  0  0  0  0  0  0  0  0  0  0
  149.1944  136.0482  155.4340 C   0  0  0  0  0  0  0  0  0  0  0  0
  152.4124  137.3564  154.5723 N   0  0  0  0  0  0  0  0  0  0  0  0
  152.9849  138.5486  154.3817 C   0  0  0  0  0  0  0  0  0  0  0  0
  152.5471  139.7531  154.7525 N   0  0  0  0  0  0  0  0  0  0  0  0
  151.3502  139.6665  155.4001 C   0  0  0  0  0  0  0  0  0  0  0  0
  151.9361  139.9707  157.5059 H   0  0  0  0  0  0  0  0  0  0  0  0
  153.1586  140.2924  158.7249 H   0  0  0  0  0  0  0  0  0  0  0  0
  153.3024  141.0300  157.1373 H   0  0  0  0  0  0  0  0  0  0  0  0
  151.1556  141.6202  159.2441 H   0  0  0  0  0  0  0  0  0  0  0  0
  151.4144  144.3787  159.5562 H   0  0  0  0  0  0  0  0  0  0  0  0
  152.9371  144.9693  158.8679 H   0  0  0  0  0  0  0  0  0  0  0  0
  150.8224  144.9251  157.2176 H   0  0  0  0  0  0  0  0  0  0  0  0
  152.3364  144.2171  156.6606 H   0  0  0  0  0  0  0  0  0  0  0  0
  149.2063  143.5771  157.4897 H   0  0  0  0  0  0  0  0  0  0  0  0
  150.1269  142.6143  155.3403 H   0  0  0  0  0  0  0  0  0  0  0  0
  151.8372  142.2663  155.4249 H   0  0  0  0  0  0  0  0  0  0  0  0
  148.6745  140.6303  156.9339 H   0  0  0  0  0  0  0  0  0  0  0  0
  152.3081  135.1649  156.3807 H   0  0  0  0  0  0  0  0  0  0  0  0
  150.9658  135.5751  157.4412 H   0  0  0  0  0  0  0  0  0  0  0  0
  151.0556  133.2920  155.3949 H   0  0  0  0  0  0  0  0  0  0  0  0
  151.0074  133.1373  157.1311 H   0  0  0  0  0  0  0  0  0  0  0  0
  148.5538  134.7910  153.1492 H   0  0  0  0  0  0  0  0  0  0  0  0
  149.7492  133.6101  153.6585 H   0  0  0  0  0  0  0  0  0  0  0  0
  147.3729  132.6863  152.8769 H   0  0  0  0  0  0  0  0  0  0  0  0
  147.9650  132.0924  154.4353 H   0  0  0  0  0  0  0  0  0  0  0  0
  146.8676  134.2482  156.5353 H   0  0  0  0  0  0  0  0  0  0  0  0
  146.6540  135.5135  155.3337 H   0  0  0  0  0  0  0  0  0  0  0  0
  148.8601  136.4818  156.3775 H   0  0  0  0  0  0  0  0  0  0  0  0
  148.7853  136.6777  154.6443 H   0  0  0  0  0  0  0  0  0  0  0  0
  153.9295  138.5356  153.8583 H   0  0  0  0  0  0  0  0  0  0  0  0
  1  2  1  0  0  0  0
  1 28  1  0  0  0  0
  1 29  1  0  0  0  0
  1 30  1  0  0  0  0
  2  6  1  0  0  0  0
  2  3  1  0  0  0  0
  2 31  1  0  0  0  0
  3  4  1  0  0  0  0
  4  5  1  0  0  0  0
  4 32  1  0  0  0  0
  4 33  1  0  0  0  0
  5  6  1  0  0  0  0
  5 34  1  0  0  0  0
  5 35  1  0  0  0  0
  6  7  1  0  0  0  0
  6  8  1  0  0  0  0
  7 36  1  0  0  0  0
  8  9  1  0  0  0  0
  8 37  1  0  0  0  0
  8 38  1  0  0  0  0
  9 27  1  0  0  0  0
  9 10  1  0  0  0  0
 10 11  2  0  0  0  0
 10 39  1  0  0  0  0
 11 12  1  0  0  0  0
 12 27  2  0  0  0  0
 12 13  1  0  0  0  0
 13 14  1  0  0  0  0
 13 24  2  0  0  0  0
 14 23  1  0  0  0  0
 14 15  1  0  0  0  0
 15 16  1  0  0  0  0
 15 40  1  0  0  0  0
 15 41  1  0  0  0  0
 16 17  1  0  0  0  0
 16 42  1  0  0  0  0
 16 43  1  0  0  0  0
 17 18  1  0  0  0  0
 18 22  1  0  0  0  0
 18 19  1  0  0  0  0
 18 23  1  0  0  0  0
 19 20  1  0  0  0  0
 19 44  1  0  0  0  0
 19 45  1  0  0  0  0
 20 21  1  0  0  0  0
 20 46  1  0  0  0  0
 20 47  1  0  0  0  0
 21 22  1  0  0  0  0
 22 48  1  0  0  0  0
 22 49  1  0  0  0  0
 23 50  1  0  0  0  0
 23 51  1  0  0  0  0
 24 25  1  0  0  0  0
 25 26  2  0  0  0  0
 25 52  1  0  0  0  0
 26 27  1  0  0  0  0
M  END
> <s_m_source_file>
AV-unprocessed.smi

> <i_m_source_file_index>
264

> <i_lp_mmshare_version>
43012

> <i_f3d_flags>
0

> <s_epik_input>
W0NIMl0xW0NIMl1PW0NAQEhdKFtDSDNdKVtDQEBdMShbT0hdKVtDSDJdbihbY0hdbjIpYyhjMjMpbltjSF1uYzNOKFtDSDJdNClbQ0gyXVtDSDJdT1tDQF00NVtDSDJdW0NIMl1PW0NIMl01

> <s_epik_cmdline>
J2VwaWtfcHl0aG9uJywgJy1waCcsICc3LjAnLCAnLXRuJywgJzgnLCAnLW1hJywgJzIwMCcsICctbWV0YWxfYmluZGluZycsICctaW1hZScsICc8aW5maWxlLm1hZT4nLCAnLW9tYWUnLCAnPG91dGZpbGUubWFlPic=

> <r_lp_tautomer_probability>
1

> <r_epik_Ionization_Penalty>
0.00539389

> <r_epik_Ionization_Penalty_Charging>
0

> <r_epik_Ionization_Penalty_Neutral>
0.00539389

> <r_epik_State_Penalty>
0.00375441

> <r_epik_Charging_Adjusted_Penalty>
0.00375441

> <i_epik_Tot_Q>
0

> <i_epik_Tot_abs_Q>
0

> <r_epik_Metal_State_Penalty>
-0

> <b_epik_Metal_Only>
0

> <s_lp_Force_Field>
OPLS_2005

> <r_lp_Energy>
53.4902

> <b_lp_Chiralities_Consistent>
1

> <s_lp_Variant>
AV-unprocessed.smi:264-4

> <Gold.Version>
5.8.1

> <Gold.Id.Protein>
6NUR|6NUR_protein|mol2

> <Gold.PLP.Fitness>
45.7051

> <Gold.PLP.PLP>
-40.0344

> <Gold.PLP.part.hbond>
-3.5312

> <Gold.PLP.part.metal>
0.0000

> <Gold.PLP.part.buried>
-3.6000

> <Gold.PLP.part.nonpolar>
-33.4186

> <Gold.PLP.part.repulsive>
0.2404

> <Gold.PLP.ligand.clash>
0.0000

> <Gold.PLP.ligand.torsion>
0.6729

> <Gold.PLP.Chemscore.Hbond>
2.2460

> <Gold.PLP.Chemscore.CHOScore>
0.0000

> <Gold.PLP.Chemscore.Metal>
0.0000

> <Gold.Chemscore.Hbonds>
donor molecule, donor type, donor heavy atom, donor atom, acceptor molecule, acceptor atom, score
      L1  H     7    36       P1  8028  0.62
      P1  H  7989  7998       L1    26  0.23
      P1  H  7997  8009       L1    26  0.25
      P1  H 10752 10765       L1    24  0.54

> <Gold.PLP.Chemscore.Internal.Correction>
0.2787

> <Gold.Rescore>
     Score         DG    S(hbond)    S(metal)    S(lipo)     H(rot)  DE(clash)    DE(int)     intcor
     11.50     -18.10       2.51        0.00      82.32       2.11       2.40       4.20       ----

> <Gold.Chemscore.Fitness>
11.4964

> <Gold.Chemscore.DG>
-18.0956

> <Gold.Chemscore.ZeroCoef>
-5.4800

> <Gold.Chemscore.Hbond>
2.5079

> <Gold.Chemscore.Metal>
0.0000

> <Gold.Chemscore.Lipo>
82.3206

> <Gold.Chemscore.Internal_Hbond>
0.0000

> <Gold.Chemscore.DEClash>
2.4008

> <Gold.Chemscore.DEInternal>
4.1984

> <Gold.Chemscore.Rot>
2.1063

> <Gold.Chemscore.Internal.Correction>
   9.000000E+99

> <Gold.Chemscore.Hbonds>
donor molecule, donor type, donor heavy atom, donor atom, acceptor molecule, acceptor atom, score
      L1  H     7    36       P1  8028  0.24
      P1  H  7989  7998       L1    26  0.01
      P1  H  7997  8009       L1    26  0.02
      P1  H 10752 10765       L1    24  0.14

> <Gold.Chemscore.Hbond.Weighted>
-8.3763

> <Gold.Chemscore.Metal.Weighted>
-0.0000

> <Gold.Chemscore.Lipo.Weighted>
-9.6315

> <Gold.Chemscore.Internal_Hbond.Weighted>
0.0000

> <Gold.Chemscore.DEClash.Weighted>
2.4008

> <Gold.Chemscore.DEInternal.Weighted>
4.1984

> <Gold.Chemscore.Rot.Weighted>
5.3921

> <Gold.Chemscore.Internal.Correction.Weighted>
   9.000000E+99

> <Gold.Protein.RotatedTorsions>
[ 6907 6896 6895 6894 ] final  110.74 input  -60.11 | X-H torsion
[ 7974 7965 7964 7962 ] final   64.01 input  175.53 | X-H torsion
[ 8008 7997 7996 7995 ] final -144.12 input   59.86 | X-H torsion
[ 10167 10162 10161 10158 ] final  -12.46 input  -65.29 | X-H torsion
[ 10718 10713 10712 10709 ] final  165.45 input   66.30 | X-H torsion
[ 10763 10752 10751 10750 ] final -172.59 input  -60.55 | X-H torsion
[ 11005 11000 10999 10996 ] final  122.13 input  -57.11 | X-H torsion

> <Gold.Protein.ActiveResidues>
 VAL166  LYS551  ARG553  GLY616  TRP617  ASP618  TYR619  PRO620  LYS621  CYS622 
 ASP623  PHE694  ASN695  SER759  ASP760  ASP761  ALA762  ILE779  LEU786  VAL792 
 PHE793  MET794  SER795  GLU796  ALA797  LYS798  CYS799  TRP800  GLU811  SER814 

> <Gold.Protein.RotatedAtoms>
  152.5004  133.8757  159.7320 H   0  0  0  0  0  0  0  0  0  0  0  0  # atno 6907 bound_to 6896
  150.9232  133.6846  159.2834 H   0  0  0  0  0  0  0  0  0  0  0  0  # atno 6908 bound_to 6896
  151.4216  135.1003  159.9668 H   0  0  0  0  0  0  0  0  0  0  0  0  # atno 6909 bound_to 6896
  145.8552  139.3279  143.0852 H   0  0  0  0  0  0  0  0  0  0  0  0  # atno 7974 bound_to 7965
  155.5218  140.0592  157.2905 H   0  0  0  0  0  0  0  0  0  0  0  0  # atno 8008 bound_to 7997
  154.4515  140.1951  156.0451 H   0  0  0  0  0  0  0  0  0  0  0  0  # atno 8009 bound_to 7997
  156.0713  140.3259  155.7584 H   0  0  0  0  0  0  0  0  0  0  0  0  # atno 8010 bound_to 7997
  140.7162  143.5529  150.9280 H   0  0  0  0  0  0  0  0  0  0  0  0  # atno 10167 bound_to 10162
  157.0800  131.0389  151.2578 H   0  0  0  0  0  0  0  0  0  0  0  0  # atno 10718 bound_to 10713
  154.6175  135.2871  155.0363 H   0  0  0  0  0  0  0  0  0  0  0  0  # atno 10763 bound_to 10752
  154.1570  135.6494  153.4980 H   0  0  0  0  0  0  0  0  0  0  0  0  # atno 10764 bound_to 10752
  153.0221  135.5369  154.6952 H   0  0  0  0  0  0  0  0  0  0  0  0  # atno 10765 bound_to 10752
  139.9255  134.9640  156.8062 H   0  0  0  0  0  0  0  0  0  0  0  0  # atno 11005 bound_to 11000
  145.9312  140.9047  143.0355 LP  0  0  0  0  0  0  0  0  0  0  0  0  # atno 17320 bound_to 7965
  144.6728  140.1421  143.7436 LP  0  0  0  0  0  0  0  0  0  0  0  0  # atno 17321 bound_to 7965
  139.9254  143.6556  152.3088 LP  0  0  0  0  0  0  0  0  0  0  0  0  # atno 17342 bound_to 10162
  139.6988  144.7638  151.1309 LP  0  0  0  0  0  0  0  0  0  0  0  0  # atno 17343 bound_to 10162
  157.4808  130.7764  149.7412 LP  0  0  0  0  0  0  0  0  0  0  0  0  # atno 17370 bound_to 10713
  155.9926  130.3930  150.2935 LP  0  0  0  0  0  0  0  0  0  0  0  0  # atno 17371 bound_to 10713
  140.6349  133.9871  155.7679 LP  0  0  0  0  0  0  0  0  0  0  0  0  # atno 17394 bound_to 11000
  141.0809  134.0064  157.3387 LP  0  0  0  0  0  0  0  0  0  0  0  0  # atno 17395 bound_to 11000

$$$$
