AV-unprocessed.smi:527|AV-procd|sdf|2828|dock3
  -GOLD-   2262023313D 1   1.00000     0.00000
 Structure written by MMmdl.
 43 44  0  0  0  0  0  0  0  0  2 V2000
  143.9350  132.7580  149.0132 C   0  0  0  0  0  0  0  0  0  0  0  0
  144.5092  132.7163  150.4416 C   0  0  1  0  0  0  0  0  0  0  0  0
  145.4273  131.4864  150.5898 C   0  0  0  0  0  0  0  0  0  0  0  0
  146.0063  131.3726  152.0040 C   0  0  0  0  0  0  0  0  0  0  0  0
  146.7740  132.6444  152.3755 C   0  0  0  0  0  0  0  0  0  0  0  0
  145.8795  133.8935  152.2570 C   0  0  1  0  0  0  0  0  0  0  0  0
  146.6652  135.0832  152.5842 N   0  0  0  0  0  0  0  0  0  0  0  0
  146.3786  135.9612  153.5568 C   0  0  0  0  0  0  0  0  0  0  0  0
  145.3978  135.8574  154.2964 O   0  0  0  0  0  0  0  0  0  0  0  0
  147.2958  136.9471  153.6034 N   0  0  0  0  0  0  0  0  0  0  0  0
  147.3058  138.0220  154.4180 C   0  0  0  0  0  0  0  0  0  0  0  0
  146.4495  138.2701  155.2709 O   0  0  0  0  0  0  0  0  0  0  0  0
  148.4938  138.9718  154.2162 C   0  0  0  0  0  0  0  0  0  0  0  0
  148.1149  140.3894  154.2798 N   0  0  0  0  0  0  0  0  0  0  0  0
  146.8955  140.9390  153.9749 C   0  0  0  0  0  0  0  0  0  0  0  0
  147.0155  142.2904  154.1732 C   0  0  0  0  0  0  0  0  0  0  0  0
  148.3013  142.5092  154.5897 N   0  3  0  0  0  0  0  0  0  0  0  0
  148.9684  141.3523  154.6542 C   0  0  0  0  0  0  0  0  0  0  0  0
  145.2522  134.0232  150.8419 C   0  0  2  0  0  0  0  0  0  0  0  0
  144.3313  135.2605  150.7554 C   0  0  0  0  0  0  0  0  0  0  0  0
  144.7112  132.9765  148.2791 H   0  0  0  0  0  0  0  0  0  0  0  0
  143.1517  133.5081  148.9094 H   0  0  0  0  0  0  0  0  0  0  0  0
  143.4873  131.8008  148.7446 H   0  0  0  0  0  0  0  0  0  0  0  0
  143.6701  132.5832  151.1264 H   0  0  0  0  0  0  0  0  0  0  0  0
  144.8735  130.5766  150.3554 H   0  0  0  0  0  0  0  0  0  0  0  0
  146.2425  131.5447  149.8670 H   0  0  0  0  0  0  0  0  0  0  0  0
  145.2018  131.2031  152.7208 H   0  0  0  0  0  0  0  0  0  0  0  0
  146.6671  130.5077  152.0679 H   0  0  0  0  0  0  0  0  0  0  0  0
  147.1585  132.5499  153.3918 H   0  0  0  0  0  0  0  0  0  0  0  0
  147.6436  132.7469  151.7245 H   0  0  0  0  0  0  0  0  0  0  0  0
  145.0618  133.8005  152.9750 H   0  0  0  0  0  0  0  0  0  0  0  0
  147.4820  135.2523  152.0156 H   0  0  0  0  0  0  0  0  0  0  0  0
  148.0630  136.8730  152.9518 H   0  0  0  0  0  0  0  0  0  0  0  0
  149.2475  138.7906  154.9839 H   0  0  0  0  0  0  0  0  0  0  0  0
  148.9597  138.7820  153.2480 H   0  0  0  0  0  0  0  0  0  0  0  0
  146.0559  140.3442  153.6451 H   0  0  0  0  0  0  0  0  0  0  0  0
  146.3015  143.0918  154.0508 H   0  0  0  0  0  0  0  0  0  0  0  0
  149.9957  141.2227  154.9451 H   0  0  0  0  0  0  0  0  0  0  0  0
  146.0664  134.1714  150.1304 H   0  0  0  0  0  0  0  0  0  0  0  0
  143.4653  135.1537  151.4094 H   0  0  0  0  0  0  0  0  0  0  0  0
  143.9668  135.4255  149.7425 H   0  0  0  0  0  0  0  0  0  0  0  0
  144.8493  136.1753  151.0427 H   0  0  0  0  0  0  0  0  0  0  0  0
  148.6944  143.4148  154.8136 H   0  0  0  0  0  0  0  0  0  0  0  0
  1  2  1  0  0  0  0
  1 21  1  0  0  0  0
  1 22  1  0  0  0  0
  1 23  1  0  0  0  0
  2 19  1  0  0  0  0
  2  3  1  0  0  0  0
  2 24  1  0  0  0  0
  3  4  1  0  0  0  0
  3 25  1  0  0  0  0
  3 26  1  0  0  0  0
  4  5  1  0  0  0  0
  4 27  1  0  0  0  0
  4 28  1  0  0  0  0
  5  6  1  0  0  0  0
  5 29  1  0  0  0  0
  5 30  1  0  0  0  0
  6  7  1  0  0  0  0
  6 19  1  0  0  0  0
  6 31  1  0  0  0  0
  7  8  1  0  0  0  0
  7 32  1  0  0  0  0
  8  9  2  0  0  0  0
  8 10  1  0  0  0  0
 10 11  1  0  0  0  0
 10 33  1  0  0  0  0
 11 12  2  0  0  0  0
 11 13  1  0  0  0  0
 13 14  1  0  0  0  0
 13 34  1  0  0  0  0
 13 35  1  0  0  0  0
 14 18  1  0  0  0  0
 14 15  1  0  0  0  0
 15 16  2  0  0  0  0
 15 36  1  0  0  0  0
 16 17  1  0  0  0  0
 16 37  1  0  0  0  0
 17 18  2  0  0  0  0
 17 43  1  0  0  0  0
 18 38  1  0  0  0  0
 19 20  1  0  0  0  0
 19 39  1  0  0  0  0
 20 40  1  0  0  0  0
 20 41  1  0  0  0  0
 20 42  1  0  0  0  0
M  CHG  1  17   1
M  END
> <s_m_source_file>
AV-unprocessed.smi

> <i_m_source_file_index>
527

> <i_lp_mmshare_version>
43012

> <i_f3d_flags>
0

> <s_epik_input>
W0NIM11bQ0BASF0xW0NIMl1bQ0gyXVtDSDJdW0NASF0oW0NASF0xW0NIM10pW05IXUMoPU8pW05IXUMoPU8pW0NIMl1uMltjSF1bY0hdbltjSF0y

> <s_epik_cmdline>
J2VwaWtfcHl0aG9uJywgJy1waCcsICc3LjAnLCAnLXRuJywgJzgnLCAnLW1hJywgJzIwMCcsICctbWV0YWxfYmluZGluZycsICctaW1hZScsICc8aW5maWxlLm1hZT4nLCAnLW9tYWUnLCAnPG91dGZpbGUubWFlPic=

> <r_lp_tautomer_probability>
1

> <r_epik_Ionization_Penalty>
0.816441

> <r_epik_Ionization_Penalty_Charging>
0

> <r_epik_Ionization_Penalty_Neutral>
0.816441

> <r_epik_State_Penalty>
0.849034

> <r_epik_Charging_Adjusted_Penalty>
0.849034

> <i_epik_Tot_Q>
1

> <i_epik_Tot_abs_Q>
1

> <r_epik_Metal_State_Penalty>
0.984327

> <b_epik_Metal_Only>
0

> <s_lp_Force_Field>
OPLS_2005

> <r_lp_Energy>
16.7467

> <b_lp_Chiralities_Consistent>
1

> <s_lp_Variant>
AV-unprocessed.smi:527-14

> <Gold.Version>
5.8.1

> <Gold.Id.Protein>
6NUR|6NUR_protein|mol2

> <Gold.PLP.Fitness>
50.9151

> <Gold.PLP.PLP>
-37.4106

> <Gold.PLP.part.hbond>
-2.8764

> <Gold.PLP.part.metal>
0.0000

> <Gold.PLP.part.buried>
-5.8442

> <Gold.PLP.part.nonpolar>
-29.7674

> <Gold.PLP.part.repulsive>
1.0532

> <Gold.PLP.ligand.clash>
0.0000

> <Gold.PLP.ligand.torsion>
0.6490

> <Gold.PLP.Chemscore.Hbond>
3.9280

> <Gold.PLP.Chemscore.CHOScore>
1.0000

> <Gold.PLP.Chemscore.Metal>
0.0000

> <Gold.Chemscore.Hbonds>
donor molecule, donor type, donor heavy atom, donor atom, acceptor molecule, acceptor atom, score
      L1  H     7    32       P1  7948  0.93
      L1  H    10    33       P1  7948  1.00
      L1  H    17    43       P1  8028  2.00
      L1  C    15    36       P1 10175  0.71

> <Gold.PLP.Chemscore.Internal.Correction>
0.0185

> <Gold.Rescore>
     Score         DG    S(hbond)    S(metal)    S(lipo)     H(rot)  DE(clash)    DE(int)     intcor
     18.21     -20.28       2.84        0.00      82.72       1.71       0.07       2.00       ----

> <Gold.Chemscore.Fitness>
18.2112

> <Gold.Chemscore.DG>
-20.2818

> <Gold.Chemscore.ZeroCoef>
-5.4800

> <Gold.Chemscore.Hbond>
2.8410

> <Gold.Chemscore.Metal>
0.0000

> <Gold.Chemscore.Lipo>
82.7192

> <Gold.Chemscore.Internal_Hbond>
0.0000

> <Gold.Chemscore.DEClash>
0.0674

> <Gold.Chemscore.DEInternal>
2.0031

> <Gold.Chemscore.Rot>
1.7052

> <Gold.Chemscore.Internal.Correction>
   9.000000E+99

> <Gold.Chemscore.Hbonds>
donor molecule, donor type, donor heavy atom, donor atom, acceptor molecule, acceptor atom, score
      L1  H     7    32       P1  7948  0.88
      L1  H    10    33       P1  7948  0.94
      L1  H    17    43       P1  8028  0.93

> <Gold.Chemscore.Hbond.Weighted>
-9.4889

> <Gold.Chemscore.Metal.Weighted>
-0.0000

> <Gold.Chemscore.Lipo.Weighted>
-9.6781

> <Gold.Chemscore.Internal_Hbond.Weighted>
0.0000

> <Gold.Chemscore.DEClash.Weighted>
0.0674

> <Gold.Chemscore.DEInternal.Weighted>
2.0031

> <Gold.Chemscore.Rot.Weighted>
4.3653

> <Gold.Chemscore.Internal.Correction.Weighted>
   9.000000E+99

> <Gold.Protein.RotatedTorsions>
[ 6907 6896 6895 6894 ] final -154.39 input  -60.11 | X-H torsion
[ 7974 7965 7964 7962 ] final  -58.64 input  175.53 | X-H torsion
[ 8008 7997 7996 7995 ] final -123.48 input   59.86 | X-H torsion
[ 10167 10162 10161 10158 ] final   -5.18 input  -65.29 | X-H torsion
[ 10718 10713 10712 10709 ] final  171.47 input   66.30 | X-H torsion
[ 10763 10752 10751 10750 ] final -135.17 input  -60.55 | X-H torsion
[ 11005 11000 10999 10996 ] final  179.28 input  -57.11 | X-H torsion

> <Gold.Protein.ActiveResidues>
 VAL166  LYS551  ARG553  GLY616  TRP617  ASP618  TYR619  PRO620  LYS621  CYS622 
 ASP623  PHE694  ASN695  SER759  ASP760  ASP761  ALA762  ILE779  LEU786  VAL792 
 PHE793  MET794  SER795  GLU796  ALA797  LYS798  CYS799  TRP800  GLU811  SER814 

> <Gold.Protein.RotatedAtoms>
  151.2567  133.4322  159.2613 H   0  0  0  0  0  0  0  0  0  0  0  0  # atno 6907 bound_to 6896
  151.0567  134.9710  159.8250 H   0  0  0  0  0  0  0  0  0  0  0  0  # atno 6908 bound_to 6896
  152.5392  134.2519  159.8955 H   0  0  0  0  0  0  0  0  0  0  0  0  # atno 6909 bound_to 6896
  145.8370  140.8442  143.0054 H   0  0  0  0  0  0  0  0  0  0  0  0  # atno 7974 bound_to 7965
  155.1813  140.0410  157.2882 H   0  0  0  0  0  0  0  0  0  0  0  0  # atno 8008 bound_to 7997
  154.6202  140.2499  155.7532 H   0  0  0  0  0  0  0  0  0  0  0  0  # atno 8009 bound_to 7997
  156.2429  140.2896  156.0506 H   0  0  0  0  0  0  0  0  0  0  0  0  # atno 8010 bound_to 7997
  140.6954  143.6338  150.8498 H   0  0  0  0  0  0  0  0  0  0  0  0  # atno 10167 bound_to 10162
  156.9931  131.0153  151.2851 H   0  0  0  0  0  0  0  0  0  0  0  0  # atno 10718 bound_to 10713
  154.8707  135.3712  154.4854 H   0  0  0  0  0  0  0  0  0  0  0  0  # atno 10763 bound_to 10752
  153.5505  135.7025  153.5599 H   0  0  0  0  0  0  0  0  0  0  0  0  # atno 10764 bound_to 10752
  153.3720  135.4019  155.1759 H   0  0  0  0  0  0  0  0  0  0  0  0  # atno 10765 bound_to 10752
  140.4044  134.6748  157.4580 H   0  0  0  0  0  0  0  0  0  0  0  0  # atno 11005 bound_to 11000
  144.6736  140.0756  143.7471 LP  0  0  0  0  0  0  0  0  0  0  0  0  # atno 17320 bound_to 7965
  145.9508  139.2732  143.1213 LP  0  0  0  0  0  0  0  0  0  0  0  0  # atno 17321 bound_to 7965
  140.0055  143.5698  152.2859 LP  0  0  0  0  0  0  0  0  0  0  0  0  # atno 17342 bound_to 10162
  139.6403  144.7654  151.2353 LP  0  0  0  0  0  0  0  0  0  0  0  0  # atno 17343 bound_to 10162
  157.5444  130.8141  149.8068 LP  0  0  0  0  0  0  0  0  0  0  0  0  # atno 17370 bound_to 10713
  156.0199  130.3799  150.1993 LP  0  0  0  0  0  0  0  0  0  0  0  0  # atno 17371 bound_to 10713
  140.0313  134.6402  155.9103 LP  0  0  0  0  0  0  0  0  0  0  0  0  # atno 17394 bound_to 11000
  141.1845  133.6553  156.5158 LP  0  0  0  0  0  0  0  0  0  0  0  0  # atno 17395 bound_to 11000

$$$$
