AV-unprocessed.smi:3157|AV-procd|sdf|12039|dock4
  -GOLD-   2272017463D 1   1.00000     0.00000
 Structure written by MMmdl.
 40 41  0  0  0  0  0  0  0  0  2 V2000
  150.8277  140.8138  157.7899 C   0  0  0  0  0  0  0  0  0  0  0  0
  150.0145  141.7150  156.8365 C   0  0  2  0  0  0  0  0  0  0  0  0
  150.2059  143.1385  157.1974 N   0  3  0  0  0  0  0  0  0  0  0  0
  151.5720  143.6654  156.9951 C   0  0  0  0  0  0  0  0  0  0  0  0
  152.1679  144.1768  158.3164 C   0  0  0  0  0  0  0  0  0  0  0  0
  152.1304  143.1418  159.4423 C   0  0  0  0  0  0  0  0  0  0  0  0
  152.3236  143.9618  160.7193 C   0  0  0  0  0  0  0  0  0  0  0  0
  151.7287  145.3459  160.4229 C   0  0  0  0  0  0  0  0  0  0  0  0
  151.4220  145.3744  158.9188 C   0  0  0  0  0  0  0  0  0  0  0  0
  148.4992  141.3774  156.8312 C   0  0  1  0  0  0  0  0  0  0  0  0
  147.7145  142.1751  157.8909 C   0  0  0  0  0  0  0  0  0  0  0  0
  147.8943  141.5635  155.5180 N   0  0  0  0  0  0  0  0  0  0  0  0
  146.7811  142.3092  155.1886 C   0  0  0  0  0  0  0  0  0  0  0  0
  146.5883  142.1832  153.8428 C   0  0  0  0  0  0  0  0  0  0  0  0
  147.6502  141.3329  153.4270 C   0  0  0  0  0  0  0  0  0  0  0  0
  148.4293  140.9633  154.4305 N   0  0  0  0  0  0  0  0  0  0  0  0
  150.7752  139.7646  157.4991 H   0  0  0  0  0  0  0  0  0  0  0  0
  150.4611  140.8919  158.8139 H   0  0  0  0  0  0  0  0  0  0  0  0
  151.8846  141.0786  157.7963 H   0  0  0  0  0  0  0  0  0  0  0  0
  150.3930  141.5667  155.8235 H   0  0  0  0  0  0  0  0  0  0  0  0
  149.5886  143.6867  156.6154 H   0  0  0  0  0  0  0  0  0  0  0  0
  152.2177  142.8991  156.5661 H   0  0  0  0  0  0  0  0  0  0  0  0
  151.5261  144.4827  156.2740 H   0  0  0  0  0  0  0  0  0  0  0  0
  153.2100  144.4592  158.1569 H   0  0  0  0  0  0  0  0  0  0  0  0
  151.1565  142.6501  159.4679 H   0  0  0  0  0  0  0  0  0  0  0  0
  152.8896  142.3676  159.3266 H   0  0  0  0  0  0  0  0  0  0  0  0
  151.8610  143.4870  161.5851 H   0  0  0  0  0  0  0  0  0  0  0  0
  153.3888  144.0620  160.9321 H   0  0  0  0  0  0  0  0  0  0  0  0
  150.8212  145.5198  161.0025 H   0  0  0  0  0  0  0  0  0  0  0  0
  152.4399  146.1278  160.6918 H   0  0  0  0  0  0  0  0  0  0  0  0
  151.7132  146.3185  158.4570 H   0  0  0  0  0  0  0  0  0  0  0  0
  150.3473  145.2579  158.7713 H   0  0  0  0  0  0  0  0  0  0  0  0
  148.3920  140.3184  157.0723 H   0  0  0  0  0  0  0  0  0  0  0  0
  148.0658  141.9585  158.8998 H   0  0  0  0  0  0  0  0  0  0  0  0
  146.6530  141.9270  157.8590 H   0  0  0  0  0  0  0  0  0  0  0  0
  147.8070  143.2502  157.7326 H   0  0  0  0  0  0  0  0  0  0  0  0
  146.2226  142.8604  155.9308 H   0  0  0  0  0  0  0  0  0  0  0  0
  145.8078  142.6311  153.2456 H   0  0  0  0  0  0  0  0  0  0  0  0
  147.8757  140.9750  152.4333 H   0  0  0  0  0  0  0  0  0  0  0  0
  149.9355  143.2693  158.1616 H   0  0  0  0  0  0  0  0  0  0  0  0
  1  2  1  0  0  0  0
  1 17  1  0  0  0  0
  1 18  1  0  0  0  0
  1 19  1  0  0  0  0
  2  3  1  0  0  0  0
  2 10  1  0  0  0  0
  2 20  1  0  0  0  0
  3  4  1  0  0  0  0
  3 21  1  0  0  0  0
  3 40  1  0  0  0  0
  4  5  1  0  0  0  0
  4 22  1  0  0  0  0
  4 23  1  0  0  0  0
  5  9  1  0  0  0  0
  5  6  1  0  0  0  0
  5 24  1  0  0  0  0
  6  7  1  0  0  0  0
  6 25  1  0  0  0  0
  6 26  1  0  0  0  0
  7  8  1  0  0  0  0
  7 27  1  0  0  0  0
  7 28  1  0  0  0  0
  8  9  1  0  0  0  0
  8 29  1  0  0  0  0
  8 30  1  0  0  0  0
  9 31  1  0  0  0  0
  9 32  1  0  0  0  0
 10 11  1  0  0  0  0
 10 12  1  0  0  0  0
 10 33  1  0  0  0  0
 11 34  1  0  0  0  0
 11 35  1  0  0  0  0
 11 36  1  0  0  0  0
 12 16  1  0  0  0  0
 12 13  1  0  0  0  0
 13 14  2  0  0  0  0
 13 37  1  0  0  0  0
 14 15  1  0  0  0  0
 14 38  1  0  0  0  0
 15 16  2  0  0  0  0
 15 39  1  0  0  0  0
M  CHG  1   3   1
M  END
> <s_m_source_file>
AV-unprocessed.smi

> <i_m_source_file_index>
3157

> <i_lp_mmshare_version>
43012

> <i_f3d_flags>
0

> <s_epik_input>
bjFbY0hdW2NIXVtjSF1uMVtDQEBIXShbQ0gzXSlbQ0BIXShbQ0gzXSlbTkhdW0NIMl1bQ0hdMltDSDJdW0NIMl1bQ0gyXVtDSDJdMg==

> <s_epik_cmdline>
J2VwaWtfcHl0aG9uJywgJy1waCcsICc3LjAnLCAnLXRuJywgJzgnLCAnLW1hJywgJzIwMCcsICctbWV0YWxfYmluZGluZycsICctaW1hZScsICc8aW5maWxlLm1hZT4nLCAnLW9tYWUnLCAnPG91dGZpbGUubWFlPic=

> <r_lp_tautomer_probability>
1

> <r_epik_Ionization_Penalty>
0.00132192

> <r_epik_Ionization_Penalty_Charging>
0.0013111

> <r_epik_Ionization_Penalty_Neutral>
1.08112e-05

> <r_epik_State_Penalty>
-0

> <r_epik_Charging_Adjusted_Penalty>
0.0013111

> <i_epik_Tot_Q>
1

> <i_epik_Tot_abs_Q>
1

> <r_epik_Metal_State_Penalty>
-0

> <b_epik_Metal_Only>
0

> <s_lp_Force_Field>
OPLS_2005

> <r_lp_Energy>
31.1874

> <b_lp_Chiralities_Consistent>
1

> <s_lp_Variant>
AV-unprocessed.smi:3157-3

> <Gold.Version>
5.8.1

> <Gold.Id.Protein>
6NUR|6NUR_protein|mol2

> <Gold.PLP.Fitness>
45.5244

> <Gold.PLP.PLP>
-38.9330

> <Gold.PLP.part.hbond>
-1.0000

> <Gold.PLP.part.metal>
0.0000

> <Gold.PLP.part.buried>
-5.1332

> <Gold.PLP.part.nonpolar>
-32.2227

> <Gold.PLP.part.repulsive>
0.1278

> <Gold.PLP.ligand.clash>
0.0000

> <Gold.PLP.ligand.torsion>
1.2494

> <Gold.PLP.Chemscore.Hbond>
2.0000

> <Gold.PLP.Chemscore.CHOScore>
1.0000

> <Gold.PLP.Chemscore.Metal>
0.0000

> <Gold.Chemscore.Hbonds>
donor molecule, donor type, donor heavy atom, donor atom, acceptor molecule, acceptor atom, score
      L1  H     3    21       P1  8028  2.00
      L1  C    15    39       P1  7957  1.00

> <Gold.PLP.Chemscore.Internal.Correction>
0.0901

> <Gold.Rescore>
     Score         DG    S(hbond)    S(metal)    S(lipo)     H(rot)  DE(clash)    DE(int)     intcor
     16.27     -17.68       0.98        0.00     109.16       1.50       0.10       1.32       ----

> <Gold.Chemscore.Fitness>
16.2651

> <Gold.Chemscore.DG>
-17.6838

> <Gold.Chemscore.ZeroCoef>
-5.4800

> <Gold.Chemscore.Hbond>
0.9834

> <Gold.Chemscore.Metal>
0.0000

> <Gold.Chemscore.Lipo>
109.1555

> <Gold.Chemscore.Internal_Hbond>
0.0000

> <Gold.Chemscore.DEClash>
0.1027

> <Gold.Chemscore.DEInternal>
1.3160

> <Gold.Chemscore.Rot>
1.5047

> <Gold.Chemscore.Internal.Correction>
   9.000000E+99

> <Gold.Chemscore.Hbonds>
donor molecule, donor type, donor heavy atom, donor atom, acceptor molecule, acceptor atom, score
      L1  H     3    21       P1  8028  0.96

> <Gold.Chemscore.Hbond.Weighted>
-3.2846

> <Gold.Chemscore.Metal.Weighted>
-0.0000

> <Gold.Chemscore.Lipo.Weighted>
-12.7712

> <Gold.Chemscore.Internal_Hbond.Weighted>
0.0000

> <Gold.Chemscore.DEClash.Weighted>
0.1027

> <Gold.Chemscore.DEInternal.Weighted>
1.3160

> <Gold.Chemscore.Rot.Weighted>
3.8520

> <Gold.Chemscore.Internal.Correction.Weighted>
   9.000000E+99

> <Gold.Protein.RotatedTorsions>
[ 6907 6896 6895 6894 ] final  -85.93 input  -60.11 | X-H torsion
[ 7974 7965 7964 7962 ] final   47.48 input  175.53 | X-H torsion
[ 8008 7997 7996 7995 ] final   53.31 input   59.86 | X-H torsion
[ 10167 10162 10161 10158 ] final  -40.59 input  -65.29 | X-H torsion
[ 10718 10713 10712 10709 ] final  -36.07 input   66.30 | X-H torsion
[ 10763 10752 10751 10750 ] final -164.06 input  -60.55 | X-H torsion
[ 11005 11000 10999 10996 ] final  160.65 input  -57.11 | X-H torsion

> <Gold.Protein.ActiveResidues>
 VAL166  LYS551  ARG553  GLY616  TRP617  ASP618  TYR619  PRO620  LYS621  CYS622 
 ASP623  PHE694  ASN695  SER759  ASP760  ASP761  ALA762  ILE779  LEU786  VAL792 
 PHE793  MET794  SER795  GLU796  ALA797  LYS798  CYS799  TRP800  GLU811  SER814 

> <Gold.Protein.RotatedAtoms>
  150.6868  134.3128  159.4753 H   0  0  0  0  0  0  0  0  0  0  0  0  # atno 6907 bound_to 6896
  152.1012  134.9337  160.0578 H   0  0  0  0  0  0  0  0  0  0  0  0  # atno 6908 bound_to 6896
  152.0616  133.4030  159.4457 H   0  0  0  0  0  0  0  0  0  0  0  0  # atno 6909 bound_to 6896
  146.0294  139.4745  142.9847 H   0  0  0  0  0  0  0  0  0  0  0  0  # atno 7974 bound_to 7965
  155.4662  140.3463  155.4319 H   0  0  0  0  0  0  0  0  0  0  0  0  # atno 8008 bound_to 7997
  156.1129  140.1466  156.9342 H   0  0  0  0  0  0  0  0  0  0  0  0  # atno 8009 bound_to 7997
  154.4769  140.0882  156.7262 H   0  0  0  0  0  0  0  0  0  0  0  0  # atno 8010 bound_to 7997
  140.7029  143.3144  151.2946 H   0  0  0  0  0  0  0  0  0  0  0  0  # atno 10167 bound_to 10162
  156.3311  130.4279  149.7871 H   0  0  0  0  0  0  0  0  0  0  0  0  # atno 10718 bound_to 10713
  154.7064  135.2997  154.9264 H   0  0  0  0  0  0  0  0  0  0  0  0  # atno 10763 bound_to 10752
  154.0180  135.6686  153.4774 H   0  0  0  0  0  0  0  0  0  0  0  0  # atno 10764 bound_to 10752
  153.0720  135.5055  154.8237 H   0  0  0  0  0  0  0  0  0  0  0  0  # atno 10765 bound_to 10752
  140.2081  134.8288  157.3091 H   0  0  0  0  0  0  0  0  0  0  0  0  # atno 11005 bound_to 11000
  145.7066  141.0119  143.1476 LP  0  0  0  0  0  0  0  0  0  0  0  0  # atno 17320 bound_to 7965
  144.7023  139.8707  143.7440 LP  0  0  0  0  0  0  0  0  0  0  0  0  # atno 17321 bound_to 7965
  139.6578  144.0244  152.2672 LP  0  0  0  0  0  0  0  0  0  0  0  0  # atno 17342 bound_to 10162
  139.9802  144.6434  150.7908 LP  0  0  0  0  0  0  0  0  0  0  0  0  # atno 17343 bound_to 10162
  156.5143  130.8186  151.3180 LP  0  0  0  0  0  0  0  0  0  0  0  0  # atno 17370 bound_to 10713
  157.7430  130.9903  150.2562 LP  0  0  0  0  0  0  0  0  0  0  0  0  # atno 17371 bound_to 10713
  140.1981  134.4289  155.7678 LP  0  0  0  0  0  0  0  0  0  0  0  0  # atno 17394 bound_to 11000
  141.2226  133.7059  156.8138 LP  0  0  0  0  0  0  0  0  0  0  0  0  # atno 17395 bound_to 11000

$$$$
