AV-unprocessed.smi:244|AV-procd|sdf|1866|dock8
  -GOLD-   2262020503D 1   1.00000     0.00000
 Structure written by MMmdl.
 57 61  0  0  0  0  0  0  0  0  2 V2000
  146.4139  131.2373  152.2609 C   0  0  0  0  0  0  0  0  0  0  0  0
  146.4286  132.0052  150.9941 N   0  3  1  0  0  0  0  0  0  0  0  0
  145.1758  131.8871  150.2070 C   0  0  0  0  0  0  0  0  0  0  0  0
  144.0515  132.7596  150.7867 C   0  0  0  0  0  0  0  0  0  0  0  0
  144.4986  134.2318  150.8817 C   0  0  1  0  0  0  0  0  0  0  0  0
  143.4740  135.0804  151.4009 O   0  0  0  0  0  0  0  0  0  0  0  0
  143.2113  134.9106  152.7908 C   0  0  0  0  0  0  0  0  0  0  0  0
  144.4963  135.1437  153.5945 C   0  0  0  0  0  0  0  0  0  0  0  0
  145.5639  134.2704  153.1214 N   0  0  0  0  0  0  0  0  0  0  0  0
  146.6295  134.3381  153.9539 C   0  0  0  0  0  0  0  0  0  0  0  0
  147.2227  133.2027  154.4090 N   0  0  0  0  0  0  0  0  0  0  0  0
  148.2753  133.2819  155.2290 C   0  0  0  0  0  0  0  0  0  0  0  0
  148.8801  134.3715  155.7075 N   0  0  0  0  0  0  0  0  0  0  0  0
  148.2915  135.5112  155.2439 C   0  0  0  0  0  0  0  0  0  0  0  0
  147.1763  135.5820  154.3644 C   0  0  0  0  0  0  0  0  0  0  0  0
  146.8538  136.9071  154.1048 N   0  0  0  0  0  0  0  0  0  0  0  0
  147.7283  137.5849  154.7975 C   0  0  0  0  0  0  0  0  0  0  0  0
  148.6204  136.8264  155.5227 N   0  0  0  0  0  0  0  0  0  0  0  0
  149.6838  137.3220  156.3839 C   0  0  0  0  0  0  0  0  0  0  0  0
  151.0967  137.2613  155.7413 C   0  0  0  0  0  0  0  0  0  0  0  0
  151.2566  135.9703  155.1814 O   0  0  0  0  0  0  0  0  0  0  0  0
  151.3187  138.2879  154.6095 C   0  0  0  0  0  0  0  0  0  0  0  0
  151.4785  139.7131  155.1678 C   0  0  0  0  0  0  0  0  0  0  0  0
  152.5519  139.7490  156.1018 O   0  0  0  0  0  0  0  0  0  0  0  0
  152.3335  138.9154  157.2348 C   0  0  0  0  0  0  0  0  0  0  0  0
  152.2098  137.4463  156.7918 C   0  0  0  0  0  0  0  0  0  0  0  0
  145.8154  134.3900  151.6795 C   0  0  1  0  0  0  0  0  0  0  0  0
  146.8947  133.4115  151.1316 C   0  0  0  0  0  0  0  0  0  0  0  0
  145.6247  131.5709  152.9329 H   0  0  0  0  0  0  0  0  0  0  0  0
  147.3674  131.3315  152.7818 H   0  0  0  0  0  0  0  0  0  0  0  0
  146.2521  130.1785  152.0584 H   0  0  0  0  0  0  0  0  0  0  0  0
  145.3830  132.1958  149.1815 H   0  0  0  0  0  0  0  0  0  0  0  0
  144.8637  130.8434  150.1563 H   0  0  0  0  0  0  0  0  0  0  0  0
  143.1657  132.6845  150.1558 H   0  0  0  0  0  0  0  0  0  0  0  0
  143.7641  132.3694  151.7618 H   0  0  0  0  0  0  0  0  0  0  0  0
  144.6838  134.5770  149.8637 H   0  0  0  0  0  0  0  0  0  0  0  0
  142.4515  135.6320  153.0917 H   0  0  0  0  0  0  0  0  0  0  0  0
  142.7954  133.9244  152.9948 H   0  0  0  0  0  0  0  0  0  0  0  0
  144.8105  136.1840  153.4955 H   0  0  0  0  0  0  0  0  0  0  0  0
  144.3015  134.9676  154.6535 H   0  0  0  0  0  0  0  0  0  0  0  0
  148.6913  132.3378  155.5491 H   0  0  0  0  0  0  0  0  0  0  0  0
  147.7422  138.6654  154.8069 H   0  0  0  0  0  0  0  0  0  0  0  0
  149.4323  138.3416  156.6749 H   0  0  0  0  0  0  0  0  0  0  0  0
  149.6676  136.7380  157.3052 H   0  0  0  0  0  0  0  0  0  0  0  0
  150.8241  135.3443  155.7419 H   0  0  0  0  0  0  0  0  0  0  0  0
  152.2288  138.0361  154.0631 H   0  0  0  0  0  0  0  0  0  0  0  0
  150.5135  138.2545  153.8758 H   0  0  0  0  0  0  0  0  0  0  0  0
  151.6977  140.4067  154.3561 H   0  0  0  0  0  0  0  0  0  0  0  0
  150.5606  140.0627  155.6408 H   0  0  0  0  0  0  0  0  0  0  0  0
  153.1765  139.0267  157.9169 H   0  0  0  0  0  0  0  0  0  0  0  0
  151.4473  139.2445  157.7780 H   0  0  0  0  0  0  0  0  0  0  0  0
  152.0356  136.8046  157.6563 H   0  0  0  0  0  0  0  0  0  0  0  0
  153.1678  137.1372  156.3706 H   0  0  0  0  0  0  0  0  0  0  0  0
  146.1749  135.4065  151.5116 H   0  0  0  0  0  0  0  0  0  0  0  0
  147.8193  133.4425  151.7075 H   0  0  0  0  0  0  0  0  0  0  0  0
  147.1734  133.7468  150.1319 H   0  0  0  0  0  0  0  0  0  0  0  0
  147.1370  131.5486  150.4373 H   0  0  0  0  0  0  0  0  0  0  0  0
  1  2  1  0  0  0  0
  1 29  1  0  0  0  0
  1 30  1  0  0  0  0
  1 31  1  0  0  0  0
  2 28  1  0  0  0  0
  2  3  1  0  0  0  0
  2 57  1  0  0  0  0
  3  4  1  0  0  0  0
  3 32  1  0  0  0  0
  3 33  1  0  0  0  0
  4  5  1  0  0  0  0
  4 34  1  0  0  0  0
  4 35  1  0  0  0  0
  5 27  1  0  0  0  0
  5  6  1  0  0  0  0
  5 36  1  0  0  0  0
  6  7  1  0  0  0  0
  7  8  1  0  0  0  0
  7 37  1  0  0  0  0
  7 38  1  0  0  0  0
  8  9  1  0  0  0  0
  8 39  1  0  0  0  0
  8 40  1  0  0  0  0
  9 10  1  0  0  0  0
  9 27  1  0  0  0  0
 10 15  1  0  0  0  0
 10 11  2  0  0  0  0
 11 12  1  0  0  0  0
 12 13  2  0  0  0  0
 12 41  1  0  0  0  0
 13 14  1  0  0  0  0
 14 18  1  0  0  0  0
 14 15  2  0  0  0  0
 15 16  1  0  0  0  0
 16 17  2  0  0  0  0
 17 18  1  0  0  0  0
 17 42  1  0  0  0  0
 18 19  1  0  0  0  0
 19 20  1  0  0  0  0
 19 43  1  0  0  0  0
 19 44  1  0  0  0  0
 20 26  1  0  0  0  0
 20 21  1  0  0  0  0
 20 22  1  0  0  0  0
 21 45  1  0  0  0  0
 22 23  1  0  0  0  0
 22 46  1  0  0  0  0
 22 47  1  0  0  0  0
 23 24  1  0  0  0  0
 23 48  1  0  0  0  0
 23 49  1  0  0  0  0
 24 25  1  0  0  0  0
 25 26  1  0  0  0  0
 25 50  1  0  0  0  0
 25 51  1  0  0  0  0
 26 52  1  0  0  0  0
 26 53  1  0  0  0  0
 27 28  1  0  0  0  0
 27 54  1  0  0  0  0
 28 55  1  0  0  0  0
 28 56  1  0  0  0  0
M  CHG  1   2   1
M  END
> <s_m_source_file>
AV-unprocessed.smi

> <i_m_source_file_index>
244

> <i_lp_mmshare_version>
43012

> <i_f3d_flags>
0

> <s_epik_input>
W0NIMl0xW0NIMl1OKFtDSDNdKVtDSDJdW0NAQEhdKFtDQEhdMTIpTihbQ0gyXVtDSDJdTzIpYyhuW2NIXW4zKWMoYzM0KW5bY0hdbjRbQ0gyXUM1KFtPSF0pW0NIMl1bQ0gyXU9bQ0gyXVtDSDJdNQ==

> <s_epik_cmdline>
J2VwaWtfcHl0aG9uJywgJy1waCcsICc3LjAnLCAnLXRuJywgJzgnLCAnLW1hJywgJzIwMCcsICctbWV0YWxfYmluZGluZycsICctaW1hZScsICc8aW5maWxlLm1hZT4nLCAnLW9tYWUnLCAnPG91dGZpbGUubWFlPic=

> <r_lp_tautomer_probability>
1

> <r_epik_Ionization_Penalty>
0.0136215

> <r_epik_Ionization_Penalty_Charging>
0.0131385

> <r_epik_Ionization_Penalty_Neutral>
0.000483022

> <r_epik_State_Penalty>
0.0104001

> <r_epik_Charging_Adjusted_Penalty>
0.0235387

> <i_epik_Tot_Q>
1

> <i_epik_Tot_abs_Q>
1

> <r_epik_Metal_State_Penalty>
0.0104469

> <b_epik_Metal_Only>
0

> <s_lp_Force_Field>
OPLS_2005

> <r_lp_Energy>
49.6468

> <b_lp_Chiralities_Consistent>
1

> <s_lp_Variant>
AV-unprocessed.smi:244-3

> <Gold.Version>
5.8.1

> <Gold.Id.Protein>
6NUR|6NUR_protein|mol2

> <Gold.PLP.Fitness>
40.7643

> <Gold.PLP.PLP>
-33.2117

> <Gold.PLP.part.hbond>
-3.0000

> <Gold.PLP.part.metal>
0.0000

> <Gold.PLP.part.buried>
-5.5015

> <Gold.PLP.part.nonpolar>
-25.3884

> <Gold.PLP.part.repulsive>
0.6925

> <Gold.PLP.ligand.clash>
0.0000

> <Gold.PLP.ligand.torsion>
0.7994

> <Gold.PLP.Chemscore.Hbond>
3.0000

> <Gold.PLP.Chemscore.CHOScore>
0.0000

> <Gold.PLP.Chemscore.Metal>
0.0000

> <Gold.Chemscore.Hbonds>
donor molecule, donor type, donor heavy atom, donor atom, acceptor molecule, acceptor atom, score
      L1  H     2    57       P1 10747  0.99
      P1  H  7997  8009       L1    24  1.00
      P1  H 10752 10765       L1    21  1.00

> <Gold.PLP.Chemscore.Internal.Correction>
0.1514

> <Gold.Rescore>
     Score         DG    S(hbond)    S(metal)    S(lipo)     H(rot)  DE(clash)    DE(int)     intcor
     17.30     -18.76       2.83        0.00      78.34       2.09       0.13       1.32       ----

> <Gold.Chemscore.Fitness>
17.3013

> <Gold.Chemscore.DG>
-18.7576

> <Gold.Chemscore.ZeroCoef>
-5.4800

> <Gold.Chemscore.Hbond>
2.8339

> <Gold.Chemscore.Metal>
0.0000

> <Gold.Chemscore.Lipo>
78.3363

> <Gold.Chemscore.Internal_Hbond>
0.0000

> <Gold.Chemscore.DEClash>
0.1349

> <Gold.Chemscore.DEInternal>
1.3215

> <Gold.Chemscore.Rot>
2.0911

> <Gold.Chemscore.Internal.Correction>
   9.000000E+99

> <Gold.Chemscore.Hbonds>
donor molecule, donor type, donor heavy atom, donor atom, acceptor molecule, acceptor atom, score
      L1  H     2    57       P1 10747  0.93
      P1  H  7997  8009       L1    24  0.35
      P1  H 10752 10765       L1    21  0.82

> <Gold.Chemscore.Hbond.Weighted>
-9.4654

> <Gold.Chemscore.Metal.Weighted>
-0.0000

> <Gold.Chemscore.Lipo.Weighted>
-9.1653

> <Gold.Chemscore.Internal_Hbond.Weighted>
0.0000

> <Gold.Chemscore.DEClash.Weighted>
0.1349

> <Gold.Chemscore.DEInternal.Weighted>
1.3215

> <Gold.Chemscore.Rot.Weighted>
5.3531

> <Gold.Chemscore.Internal.Correction.Weighted>
   9.000000E+99

> <Gold.Protein.RotatedTorsions>
[ 6907 6896 6895 6894 ] final   93.55 input  -60.11 | X-H torsion
[ 7974 7965 7964 7962 ] final  -27.93 input  175.53 | X-H torsion
[ 8008 7997 7996 7995 ] final -158.35 input   59.86 | X-H torsion
[ 10167 10162 10161 10158 ] final   11.39 input  -65.29 | X-H torsion
[ 10718 10713 10712 10709 ] final  150.81 input   66.30 | X-H torsion
[ 10763 10752 10751 10750 ] final -171.35 input  -60.55 | X-H torsion
[ 11005 11000 10999 10996 ] final -166.28 input  -57.11 | X-H torsion

> <Gold.Protein.ActiveResidues>
 VAL166  LYS551  ARG553  GLY616  TRP617  ASP618  TYR619  PRO620  LYS621  CYS622 
 ASP623  PHE694  ASN695  SER759  ASP760  ASP761  ALA762  ILE779  LEU786  VAL792 
 PHE793  MET794  SER795  GLU796  ALA797  LYS798  CYS799  TRP800  GLU811  SER814 

> <Gold.Protein.RotatedAtoms>
  152.5452  134.1331  159.8447 H   0  0  0  0  0  0  0  0  0  0  0  0  # atno 6907 bound_to 6896
  151.1375  133.4987  159.2605 H   0  0  0  0  0  0  0  0  0  0  0  0  # atno 6908 bound_to 6896
  151.1609  135.0283  159.8764 H   0  0  0  0  0  0  0  0  0  0  0  0  # atno 6909 bound_to 6896
  146.1323  140.5217  142.8688 H   0  0  0  0  0  0  0  0  0  0  0  0  # atno 7974 bound_to 7965
  155.7462  140.0820  157.2223 H   0  0  0  0  0  0  0  0  0  0  0  0  # atno 8008 bound_to 7997
  154.4017  140.1569  156.2727 H   0  0  0  0  0  0  0  0  0  0  0  0  # atno 8009 bound_to 7997
  155.8974  140.3412  155.6003 H   0  0  0  0  0  0  0  0  0  0  0  0  # atno 8010 bound_to 7997
  140.6135  143.8358  150.7091 H   0  0  0  0  0  0  0  0  0  0  0  0  # atno 10167 bound_to 10162
  157.2787  131.0831  151.1547 H   0  0  0  0  0  0  0  0  0  0  0  0  # atno 10718 bound_to 10713
  154.6314  135.2887  155.0212 H   0  0  0  0  0  0  0  0  0  0  0  0  # atno 10763 bound_to 10752
  154.1371  135.6524  153.4938 H   0  0  0  0  0  0  0  0  0  0  0  0  # atno 10764 bound_to 10752
  153.0281  135.5324  154.7143 H   0  0  0  0  0  0  0  0  0  0  0  0  # atno 10765 bound_to 10752
  140.5662  134.5284  157.5153 H   0  0  0  0  0  0  0  0  0  0  0  0  # atno 11005 bound_to 11000
  144.7703  140.5623  143.6674 LP  0  0  0  0  0  0  0  0  0  0  0  0  # atno 17320 bound_to 7965
  145.5233  139.1476  143.3540 LP  0  0  0  0  0  0  0  0  0  0  0  0  # atno 17321 bound_to 7965
  140.1932  143.4019  152.1847 LP  0  0  0  0  0  0  0  0  0  0  0  0  # atno 17342 bound_to 10162
  139.5380  144.7228  151.4830 LP  0  0  0  0  0  0  0  0  0  0  0  0  # atno 17343 bound_to 10162
  157.2990  130.6833  149.6154 LP  0  0  0  0  0  0  0  0  0  0  0  0  # atno 17370 bound_to 10713
  155.9664  130.4398  150.5272 LP  0  0  0  0  0  0  0  0  0  0  0  0  # atno 17371 bound_to 10713
  139.9384  134.7833  156.0743 LP  0  0  0  0  0  0  0  0  0  0  0  0  # atno 17394 bound_to 11000
  141.1084  133.6652  156.2920 LP  0  0  0  0  0  0  0  0  0  0  0  0  # atno 17395 bound_to 11000

$$$$
