AV-unprocessed.smi:152|AV-procd|sdf|1246|dock10
  -GOLD-   2262018473D 1   1.00000     0.00000
 Structure written by MMmdl.
 58 61  0  0  0  0  0  0  0  0  2 V2000
  152.5702  144.1655  158.6241 C   0  0  0  0  0  0  0  0  0  0  0  0
  151.7901  143.6254  159.8308 C   0  0  0  0  0  0  0  0  0  0  0  0
  152.3876  142.3924  160.4061 N   0  3  2  0  0  0  0  0  0  0  0  0
  153.0890  142.6429  161.6887 C   0  0  0  0  0  0  0  0  0  0  0  0
  154.5738  142.4274  161.4158 C   0  0  0  0  0  0  0  0  0  0  0  0
  154.5566  141.3346  160.3611 C   0  0  0  0  0  0  0  0  0  0  0  0
  153.3285  141.6746  159.5020 C   0  0  1  0  0  0  0  0  0  0  0  0
  152.6604  140.4303  158.8749 C   0  0  0  0  0  0  0  0  0  0  0  0
  153.2488  140.0388  157.5938 N   0  0  0  0  0  0  0  0  0  0  0  0
  154.4076  139.1506  157.6285 C   0  0  0  0  0  0  0  0  0  0  0  0
  152.4531  140.0106  156.4898 C   0  0  0  0  0  0  0  0  0  0  0  0
  152.9713  139.5563  155.3170 N   0  0  0  0  0  0  0  0  0  0  0  0
  152.2158  139.4926  154.2173 C   0  0  0  0  0  0  0  0  0  0  0  0
  150.9352  139.8309  154.0665 N   0  0  0  0  0  0  0  0  0  0  0  0
  150.4083  140.3005  155.2326 C   0  0  0  0  0  0  0  0  0  0  0  0
  151.0880  140.4236  156.4789 C   0  0  0  0  0  0  0  0  0  0  0  0
  150.2222  140.9519  157.4303 N   0  0  0  0  0  0  0  0  0  0  0  0
  149.0991  141.1217  156.7885 C   0  0  0  0  0  0  0  0  0  0  0  0
  149.1239  140.7619  155.4611 N   0  0  0  0  0  0  0  0  0  0  0  0
  148.0231  140.8522  154.5139 C   0  0  0  0  0  0  0  0  0  0  0  0
  146.8633  139.8680  154.8054 C   0  0  0  0  0  0  0  0  0  0  0  0
  145.8703  140.0678  153.8137 O   0  0  0  0  0  0  0  0  0  0  0  0
  147.3102  138.3903  154.7582 C   0  0  0  0  0  0  0  0  0  0  0  0
  146.2062  137.4358  155.2472 C   0  0  0  0  0  0  0  0  0  0  0  0
  145.7759  137.8103  156.5504 O   0  0  0  0  0  0  0  0  0  0  0  0
  145.1948  139.1083  156.5869 C   0  0  0  0  0  0  0  0  0  0  0  0
  146.2394  140.1640  156.1840 C   0  0  0  0  0  0  0  0  0  0  0  0
  152.0502  145.0152  158.1816 H   0  0  0  0  0  0  0  0  0  0  0  0
  152.6776  143.4056  157.8496 H   0  0  0  0  0  0  0  0  0  0  0  0
  153.5658  144.5081  158.9059 H   0  0  0  0  0  0  0  0  0  0  0  0
  151.7045  144.3930  160.6015 H   0  0  0  0  0  0  0  0  0  0  0  0
  150.7747  143.3997  159.5025 H   0  0  0  0  0  0  0  0  0  0  0  0
  152.8898  143.6288  162.1114 H   0  0  0  0  0  0  0  0  0  0  0  0
  152.7385  141.9041  162.4102 H   0  0  0  0  0  0  0  0  0  0  0  0
  155.0158  143.3360  161.0051 H   0  0  0  0  0  0  0  0  0  0  0  0
  155.1337  142.1493  162.3092 H   0  0  0  0  0  0  0  0  0  0  0  0
  155.4799  141.2946  159.7824 H   0  0  0  0  0  0  0  0  0  0  0  0
  154.4268  140.3680  160.8501 H   0  0  0  0  0  0  0  0  0  0  0  0
  153.6475  142.3630  158.7174 H   0  0  0  0  0  0  0  0  0  0  0  0
  152.6586  139.6093  159.5880 H   0  0  0  0  0  0  0  0  0  0  0  0
  151.6068  140.6366  158.6900 H   0  0  0  0  0  0  0  0  0  0  0  0
  154.9942  139.2424  156.7137 H   0  0  0  0  0  0  0  0  0  0  0  0
  154.0984  138.1108  157.7393 H   0  0  0  0  0  0  0  0  0  0  0  0
  155.0597  139.4006  158.4656 H   0  0  0  0  0  0  0  0  0  0  0  0
  152.7077  139.1162  153.3324 H   0  0  0  0  0  0  0  0  0  0  0  0
  148.2176  141.5247  157.2658 H   0  0  0  0  0  0  0  0  0  0  0  0
  147.6527  141.8780  154.5226 H   0  0  0  0  0  0  0  0  0  0  0  0
  148.4208  140.6838  153.5120 H   0  0  0  0  0  0  0  0  0  0  0  0
  145.1613  139.4634  153.9733 H   0  0  0  0  0  0  0  0  0  0  0  0
  147.6180  138.1072  153.7508 H   0  0  0  0  0  0  0  0  0  0  0  0
  148.1868  138.2604  155.3942 H   0  0  0  0  0  0  0  0  0  0  0  0
  145.3585  137.4298  154.5603 H   0  0  0  0  0  0  0  0  0  0  0  0
  146.5873  136.4152  155.2844 H   0  0  0  0  0  0  0  0  0  0  0  0
  144.3217  139.1480  155.9341 H   0  0  0  0  0  0  0  0  0  0  0  0
  144.8398  139.3039  157.5988 H   0  0  0  0  0  0  0  0  0  0  0  0
  147.0256  140.1748  156.9402 H   0  0  0  0  0  0  0  0  0  0  0  0
  145.7912  141.1586  156.1967 H   0  0  0  0  0  0  0  0  0  0  0  0
  151.6259  141.7630  160.6161 H   0  0  0  0  0  0  0  0  0  0  0  0
  1  2  1  0  0  0  0
  1 28  1  0  0  0  0
  1 29  1  0  0  0  0
  1 30  1  0  0  0  0
  2  3  1  0  0  0  0
  2 31  1  0  0  0  0
  2 32  1  0  0  0  0
  3  7  1  0  0  0  0
  3  4  1  0  0  0  0
  3 58  1  0  0  0  0
  4  5  1  0  0  0  0
  4 33  1  0  0  0  0
  4 34  1  0  0  0  0
  5  6  1  0  0  0  0
  5 35  1  0  0  0  0
  5 36  1  0  0  0  0
  6  7  1  0  0  0  0
  6 37  1  0  0  0  0
  6 38  1  0  0  0  0
  7  8  1  0  0  0  0
  7 39  1  0  0  0  0
  8  9  1  0  0  0  0
  8 40  1  0  0  0  0
  8 41  1  0  0  0  0
  9 10  1  0  0  0  0
  9 11  1  0  0  0  0
 10 42  1  0  0  0  0
 10 43  1  0  0  0  0
 10 44  1  0  0  0  0
 11 16  1  0  0  0  0
 11 12  2  0  0  0  0
 12 13  1  0  0  0  0
 13 14  2  0  0  0  0
 13 45  1  0  0  0  0
 14 15  1  0  0  0  0
 15 19  1  0  0  0  0
 15 16  2  0  0  0  0
 16 17  1  0  0  0  0
 17 18  2  0  0  0  0
 18 19  1  0  0  0  0
 18 46  1  0  0  0  0
 19 20  1  0  0  0  0
 20 21  1  0  0  0  0
 20 47  1  0  0  0  0
 20 48  1  0  0  0  0
 21 27  1  0  0  0  0
 21 22  1  0  0  0  0
 21 23  1  0  0  0  0
 22 49  1  0  0  0  0
 23 24  1  0  0  0  0
 23 50  1  0  0  0  0
 23 51  1  0  0  0  0
 24 25  1  0  0  0  0
 24 52  1  0  0  0  0
 24 53  1  0  0  0  0
 25 26  1  0  0  0  0
 26 27  1  0  0  0  0
 26 54  1  0  0  0  0
 26 55  1  0  0  0  0
 27 56  1  0  0  0  0
 27 57  1  0  0  0  0
M  CHG  1   3   1
M  END
> <s_m_source_file>
AV-unprocessed.smi

> <i_m_source_file_index>
152

> <i_lp_mmshare_version>
43012

> <i_f3d_flags>
0

> <s_epik_input>
W0NIM11bQ0gyXU4xW0NIMl1bQ0gyXVtDSDJdW0NASF0xW0NIMl1OKFtDSDNdKWMobltjSF1uMiljKGMyMyluW2NIXW4zW0NIMl1DNChbT0hdKVtDSDJdW0NIMl1PW0NIMl1bQ0gyXTQ=

> <s_epik_cmdline>
J2VwaWtfcHl0aG9uJywgJy1waCcsICc3LjAnLCAnLXRuJywgJzgnLCAnLW1hJywgJzIwMCcsICctbWV0YWxfYmluZGluZycsICctaW1hZScsICc8aW5maWxlLm1hZT4nLCAnLW9tYWUnLCAnPG91dGZpbGUubWFlPic=

> <r_lp_tautomer_probability>
1

> <r_epik_Ionization_Penalty>
0.00152183

> <r_epik_Ionization_Penalty_Charging>
0.00112577

> <r_epik_Ionization_Penalty_Neutral>
0.000396066

> <r_epik_State_Penalty>
-0

> <r_epik_Charging_Adjusted_Penalty>
0.00112577

> <i_epik_Tot_Q>
1

> <i_epik_Tot_abs_Q>
1

> <r_epik_Metal_State_Penalty>
-0

> <b_epik_Metal_Only>
0

> <s_lp_Force_Field>
OPLS_2005

> <r_lp_Energy>
43.1926

> <b_lp_Chiralities_Consistent>
1

> <s_lp_Variant>
AV-unprocessed.smi:152-1

> <Gold.Version>
5.8.1

> <Gold.Id.Protein>
6NUR|6NUR_protein|mol2

> <Gold.PLP.Fitness>
54.4676

> <Gold.PLP.PLP>
-47.6469

> <Gold.PLP.part.hbond>
-3.0000

> <Gold.PLP.part.metal>
0.0000

> <Gold.PLP.part.buried>
-0.7892

> <Gold.PLP.part.nonpolar>
-41.8498

> <Gold.PLP.part.repulsive>
0.3497

> <Gold.PLP.ligand.clash>
0.0780

> <Gold.PLP.ligand.torsion>
1.2900

> <Gold.PLP.Chemscore.Hbond>
2.5813

> <Gold.PLP.Chemscore.CHOScore>
0.3967

> <Gold.PLP.Chemscore.Metal>
0.0000

> <Gold.Chemscore.Hbonds>
donor molecule, donor type, donor heavy atom, donor atom, acceptor molecule, acceptor atom, score
      P1  H  7997  8009       L1    12  0.15

> <Gold.PLP.Chemscore.Internal.Correction>
0.5449

> <Gold.Rescore>
     Score         DG    S(hbond)    S(metal)    S(lipo)     H(rot)  DE(clash)    DE(int)     intcor
     10.02     -14.23       0.85        0.00     104.31       2.46       1.45       2.76       ----

> <Gold.Chemscore.Fitness>
10.0229

> <Gold.Chemscore.DG>
-14.2313

> <Gold.Chemscore.ZeroCoef>
-5.4800

> <Gold.Chemscore.Hbond>
0.8529

> <Gold.Chemscore.Metal>
0.0000

> <Gold.Chemscore.Lipo>
104.3053

> <Gold.Chemscore.Internal_Hbond>
0.0000

> <Gold.Chemscore.DEClash>
1.4511

> <Gold.Chemscore.DEInternal>
2.7574

> <Gold.Chemscore.Rot>
2.4614

> <Gold.Chemscore.Internal.Correction>
   9.000000E+99

> <Gold.Chemscore.Hbond.Weighted>
-2.8488

> <Gold.Chemscore.Metal.Weighted>
-0.0000

> <Gold.Chemscore.Lipo.Weighted>
-12.2037

> <Gold.Chemscore.Internal_Hbond.Weighted>
0.0000

> <Gold.Chemscore.DEClash.Weighted>
1.4511

> <Gold.Chemscore.DEInternal.Weighted>
2.7574

> <Gold.Chemscore.Rot.Weighted>
6.3012

> <Gold.Chemscore.Internal.Correction.Weighted>
   9.000000E+99

> <Gold.Protein.RotatedTorsions>
[ 6907 6896 6895 6894 ] final  -94.91 input  -60.11 | X-H torsion
[ 7974 7965 7964 7962 ] final    7.93 input  175.53 | X-H torsion
[ 8008 7997 7996 7995 ] final -139.06 input   59.86 | X-H torsion
[ 10167 10162 10161 10158 ] final  -58.56 input  -65.29 | X-H torsion
[ 10718 10713 10712 10709 ] final  -22.06 input   66.30 | X-H torsion
[ 10763 10752 10751 10750 ] final  -49.49 input  -60.55 | X-H torsion
[ 11005 11000 10999 10996 ] final  148.84 input  -57.11 | X-H torsion

> <Gold.Protein.ActiveResidues>
 VAL166  LYS551  ARG553  GLY616  TRP617  ASP618  TYR619  PRO620  LYS621  CYS622 
 ASP623  PHE694  ASN695  SER759  ASP760  ASP761  ALA762  ILE779  LEU786  VAL792 
 PHE793  MET794  SER795  GLU796  ALA797  LYS798  CYS799  TRP800  GLU811  SER814 

> <Gold.Protein.RotatedAtoms>
  150.6952  134.1739  159.4222 H   0  0  0  0  0  0  0  0  0  0  0  0  # atno 6907 bound_to 6896
  151.9716  135.0071  160.0562 H   0  0  0  0  0  0  0  0  0  0  0  0  # atno 6908 bound_to 6896
  152.1836  133.4689  159.5008 H   0  0  0  0  0  0  0  0  0  0  0  0  # atno 6909 bound_to 6896
  146.2421  140.0009  142.8416 H   0  0  0  0  0  0  0  0  0  0  0  0  # atno 7974 bound_to 7965
  155.4387  140.0530  157.3012 H   0  0  0  0  0  0  0  0  0  0  0  0  # atno 8008 bound_to 7997
  154.4828  140.2088  155.9682 H   0  0  0  0  0  0  0  0  0  0  0  0  # atno 8009 bound_to 7997
  156.1230  140.3185  155.8241 H   0  0  0  0  0  0  0  0  0  0  0  0  # atno 8010 bound_to 7997
  140.6190  143.2412  151.5528 H   0  0  0  0  0  0  0  0  0  0  0  0  # atno 10167 bound_to 10162
  156.5097  130.4607  149.6655 H   0  0  0  0  0  0  0  0  0  0  0  0  # atno 10718 bound_to 10713
  154.0950  135.6572  153.4858 H   0  0  0  0  0  0  0  0  0  0  0  0  # atno 10763 bound_to 10752
  153.0308  135.5211  154.7343 H   0  0  0  0  0  0  0  0  0  0  0  0  # atno 10764 bound_to 10752
  154.6478  135.2997  154.9993 H   0  0  0  0  0  0  0  0  0  0  0  0  # atno 10765 bound_to 10752
  140.0994  134.8992  157.1773 H   0  0  0  0  0  0  0  0  0  0  0  0  # atno 11005 bound_to 11000
  145.1416  140.9574  143.4485 LP  0  0  0  0  0  0  0  0  0  0  0  0  # atno 17320 bound_to 7965
  145.0290  139.3357  143.6034 LP  0  0  0  0  0  0  0  0  0  0  0  0  # atno 17321 bound_to 7965
  139.5422  144.2616  152.1373 LP  0  0  0  0  0  0  0  0  0  0  0  0  # atno 17342 bound_to 10162
  140.1832  144.4824  150.6517 LP  0  0  0  0  0  0  0  0  0  0  0  0  # atno 17343 bound_to 10162
  156.3252  130.7302  151.2221 LP  0  0  0  0  0  0  0  0  0  0  0  0  # atno 17370 bound_to 10713
  157.7452  131.0445  150.4795 LP  0  0  0  0  0  0  0  0  0  0  0  0  # atno 17371 bound_to 10713
  140.3241  134.2883  155.7240 LP  0  0  0  0  0  0  0  0  0  0  0  0  # atno 17394 bound_to 11000
  141.2101  133.7728  156.9952 LP  0  0  0  0  0  0  0  0  0  0  0  0  # atno 17395 bound_to 11000

$$$$
