AV-unprocessed.smi:2693|AV-procd|sdf|10398|dock7
  -GOLD-   2272014433D 1   1.00000     0.00000
 Structure written by MMmdl.
 45 47  0  0  0  0  0  0  0  0  1 V2000
  151.1594  142.5371  156.4079 C   0  0  0  0  0  0  0  0  0  0  0  0
  150.9908  141.2370  157.0503 N   0  0  0  0  0  0  0  0  0  0  0  0
  151.4492  141.0997  158.4296 C   0  0  0  0  0  0  0  0  0  0  0  0
  150.4121  140.1620  156.3693 C   0  0  0  0  0  0  0  0  0  0  0  0
  150.4679  140.1766  155.0308 N   0  0  0  0  0  0  0  0  0  0  0  0
  149.9142  139.1378  154.3703 C   0  0  0  0  0  0  0  0  0  0  0  0
  149.2884  138.0711  155.0460 C   0  0  0  0  0  0  0  0  0  0  0  0
  148.7475  136.9963  154.2906 N   0  0  0  0  0  0  0  0  0  0  0  0
  147.9056  136.0330  154.7008 C   0  0  0  0  0  0  0  0  0  0  0  0
  147.3702  135.9802  155.8076 O   0  0  0  0  0  0  0  0  0  0  0  0
  147.7001  135.1246  153.7384 N   0  0  0  0  0  0  0  0  0  0  0  0
  146.8615  133.9416  153.8919 C   0  0  1  0  0  0  0  0  0  0  0  0
  146.4665  133.3250  152.5498 C   0  0  2  0  0  0  0  0  0  0  0  0
  145.1862  133.1590  151.8119 C   0  0  0  0  0  0  0  0  0  0  0  0
  145.3583  131.6667  151.4205 C   0  0  0  0  0  0  0  0  0  0  0  0
  146.4934  131.1845  152.1807 O   0  0  0  0  0  0  0  0  0  0  0  0
  146.5126  132.0194  153.3200 C   0  0  1  0  0  0  0  0  0  0  0  0
  147.6783  132.6157  154.1335 C   0  0  0  0  0  0  0  0  0  0  0  0
  149.1015  132.4775  153.5554 C   0  0  0  0  0  0  0  0  0  0  0  0
  147.7606  132.1534  155.5886 C   0  0  0  0  0  0  0  0  0  0  0  0
  149.2919  138.1520  156.4591 C   0  0  0  0  0  0  0  0  0  0  0  0
  149.8514  139.1953  157.1076 N   0  0  0  0  0  0  0  0  0  0  0  0
  151.8351  142.4542  155.5561 H   0  0  0  0  0  0  0  0  0  0  0  0
  151.5726  143.2789  157.0913 H   0  0  0  0  0  0  0  0  0  0  0  0
  150.1998  142.9134  156.0516 H   0  0  0  0  0  0  0  0  0  0  0  0
  152.1680  140.2838  158.5143 H   0  0  0  0  0  0  0  0  0  0  0  0
  150.6076  140.8864  159.0894 H   0  0  0  0  0  0  0  0  0  0  0  0
  151.9356  142.0063  158.7899 H   0  0  0  0  0  0  0  0  0  0  0  0
  149.9727  139.1608  153.2920 H   0  0  0  0  0  0  0  0  0  0  0  0
  149.0315  136.9598  153.3225 H   0  0  0  0  0  0  0  0  0  0  0  0
  148.1696  135.2443  152.8530 H   0  0  0  0  0  0  0  0  0  0  0  0
  146.0126  134.0779  154.5681 H   0  0  0  0  0  0  0  0  0  0  0  0
  147.2824  133.4270  151.8306 H   0  0  0  0  0  0  0  0  0  0  0  0
  144.3201  133.3153  152.4565 H   0  0  0  0  0  0  0  0  0  0  0  0
  145.1082  133.8134  150.9434 H   0  0  0  0  0  0  0  0  0  0  0  0
  144.4630  131.0949  151.6672 H   0  0  0  0  0  0  0  0  0  0  0  0
  145.5554  131.5446  150.3551 H   0  0  0  0  0  0  0  0  0  0  0  0
  145.6286  131.8417  153.9434 H   0  0  0  0  0  0  0  0  0  0  0  0
  149.4349  131.4395  153.5813 H   0  0  0  0  0  0  0  0  0  0  0  0
  149.8209  133.0612  154.1306 H   0  0  0  0  0  0  0  0  0  0  0  0
  149.1904  132.8063  152.5217 H   0  0  0  0  0  0  0  0  0  0  0  0
  148.0681  131.1099  155.6600 H   0  0  0  0  0  0  0  0  0  0  0  0
  146.7976  132.2413  156.0923 H   0  0  0  0  0  0  0  0  0  0  0  0
  148.4748  132.7479  156.1590 H   0  0  0  0  0  0  0  0  0  0  0  0
  148.8744  137.3837  157.0907 H   0  0  0  0  0  0  0  0  0  0  0  0
  1  2  1  0  0  0  0
  1 23  1  0  0  0  0
  1 24  1  0  0  0  0
  1 25  1  0  0  0  0
  2  3  1  0  0  0  0
  2  4  1  0  0  0  0
  3 26  1  0  0  0  0
  3 27  1  0  0  0  0
  3 28  1  0  0  0  0
  4 22  1  0  0  0  0
  4  5  2  0  0  0  0
  5  6  1  0  0  0  0
  6  7  2  0  0  0  0
  6 29  1  0  0  0  0
  7  8  1  0  0  0  0
  7 21  1  0  0  0  0
  8  9  1  0  0  0  0
  8 30  1  0  0  0  0
  9 10  2  0  0  0  0
  9 11  1  0  0  0  0
 11 12  1  0  0  0  0
 11 31  1  0  0  0  0
 12 18  1  0  0  0  0
 12 13  1  0  0  0  0
 12 32  1  0  0  0  0
 13 17  1  0  0  0  0
 13 14  1  0  0  0  0
 13 33  1  0  0  0  0
 14 15  1  0  0  0  0
 14 34  1  0  0  0  0
 14 35  1  0  0  0  0
 15 16  1  0  0  0  0
 15 36  1  0  0  0  0
 15 37  1  0  0  0  0
 16 17  1  0  0  0  0
 17 18  1  0  0  0  0
 17 38  1  0  0  0  0
 18 19  1  0  0  0  0
 18 20  1  0  0  0  0
 19 39  1  0  0  0  0
 19 40  1  0  0  0  0
 19 41  1  0  0  0  0
 20 42  1  0  0  0  0
 20 43  1  0  0  0  0
 20 44  1  0  0  0  0
 21 22  2  0  0  0  0
 21 45  1  0  0  0  0
M  END
> <s_m_source_file>
AV-unprocessed.smi

> <i_m_source_file_index>
2693

> <i_lp_mmshare_version>
43012

> <i_f3d_flags>
0

> <s_epik_input>
W0NIM11OKFtDSDNdKWMxbltjSF1jKFtjSF1uMSlbTkhdQyg9TylbTkhdW0NASF0yQyhbQ0gzXSkoW0NIM10pW0NAQEhdKFtDQEhdMjMpT1tDSDJdW0NIMl0z

> <s_epik_cmdline>
J2VwaWtfcHl0aG9uJywgJy1waCcsICc3LjAnLCAnLXRuJywgJzgnLCAnLW1hJywgJzIwMCcsICctbWV0YWxfYmluZGluZycsICctaW1hZScsICc8aW5maWxlLm1hZT4nLCAnLW9tYWUnLCAnPG91dGZpbGUubWFlPic=

> <r_lp_tautomer_probability>
1

> <r_epik_Ionization_Penalty>
0.00031779

> <r_epik_Ionization_Penalty_Charging>
0

> <r_epik_Ionization_Penalty_Neutral>
0.00031779

> <r_epik_State_Penalty>
-0

> <r_epik_Charging_Adjusted_Penalty>
0

> <i_epik_Tot_Q>
0

> <i_epik_Tot_abs_Q>
0

> <r_epik_Metal_State_Penalty>
-0

> <b_epik_Metal_Only>
0

> <s_lp_Force_Field>
OPLS_2005

> <r_lp_Energy>
52.7678

> <b_lp_Chiralities_Consistent>
1

> <s_lp_Variant>
AV-unprocessed.smi:2693-2

> <Gold.Version>
5.8.1

> <Gold.Id.Protein>
6NUR|6NUR_protein|mol2

> <Gold.PLP.Fitness>
35.3159

> <Gold.PLP.PLP>
-24.5181

> <Gold.PLP.part.hbond>
-2.8896

> <Gold.PLP.part.metal>
0.0000

> <Gold.PLP.part.buried>
-4.0076

> <Gold.PLP.part.nonpolar>
-17.9132

> <Gold.PLP.part.repulsive>
0.2404

> <Gold.PLP.ligand.clash>
0.0000

> <Gold.PLP.ligand.torsion>
0.5391

> <Gold.PLP.Chemscore.Hbond>
2.8695

> <Gold.PLP.Chemscore.CHOScore>
1.0000

> <Gold.PLP.Chemscore.Metal>
0.0000

> <Gold.Chemscore.Hbonds>
donor molecule, donor type, donor heavy atom, donor atom, acceptor molecule, acceptor atom, score
      L1  H     8    30       P1  7948  1.00
      L1  H    11    31       P1  7948  0.98
      P1  H  7989  7998       L1     5  0.81
      L1  C     6    29       P1  7957  1.00

> <Gold.PLP.Chemscore.Internal.Correction>
0.2675

> <Gold.Rescore>
     Score         DG    S(hbond)    S(metal)    S(lipo)     H(rot)  DE(clash)    DE(int)     intcor
     15.65     -17.55       2.13        0.00      64.14       1.00       0.28       1.62       ----

> <Gold.Chemscore.Fitness>
15.6502

> <Gold.Chemscore.DG>
-17.5476

> <Gold.Chemscore.ZeroCoef>
-5.4800

> <Gold.Chemscore.Hbond>
2.1326

> <Gold.Chemscore.Metal>
0.0000

> <Gold.Chemscore.Lipo>
64.1437

> <Gold.Chemscore.Internal_Hbond>
0.0000

> <Gold.Chemscore.DEClash>
0.2784

> <Gold.Chemscore.DEInternal>
1.6190

> <Gold.Chemscore.Rot>
1.0000

> <Gold.Chemscore.Internal.Correction>
   9.000000E+99

> <Gold.Chemscore.Hbonds>
donor molecule, donor type, donor heavy atom, donor atom, acceptor molecule, acceptor atom, score
      L1  H     8    30       P1  7948  0.95
      L1  H    11    31       P1  7948  0.89
      P1  H  7989  7998       L1     5  0.13

> <Gold.Chemscore.Hbond.Weighted>
-7.1228

> <Gold.Chemscore.Metal.Weighted>
-0.0000

> <Gold.Chemscore.Lipo.Weighted>
-7.5048

> <Gold.Chemscore.Internal_Hbond.Weighted>
0.0000

> <Gold.Chemscore.DEClash.Weighted>
0.2784

> <Gold.Chemscore.DEInternal.Weighted>
1.6190

> <Gold.Chemscore.Rot.Weighted>
2.5600

> <Gold.Chemscore.Internal.Correction.Weighted>
   9.000000E+99

> <Gold.Protein.RotatedTorsions>
[ 6907 6896 6895 6894 ] final   93.92 input  -60.11 | X-H torsion
[ 7974 7965 7964 7962 ] final    7.23 input  175.53 | X-H torsion
[ 8008 7997 7996 7995 ] final  -49.67 input   59.86 | X-H torsion
[ 10167 10162 10161 10158 ] final  -76.49 input  -65.29 | X-H torsion
[ 10718 10713 10712 10709 ] final  -19.56 input   66.30 | X-H torsion
[ 10763 10752 10751 10750 ] final  164.43 input  -60.55 | X-H torsion
[ 11005 11000 10999 10996 ] final    5.80 input  -57.11 | X-H torsion

> <Gold.Protein.ActiveResidues>
 VAL166  LYS551  ARG553  GLY616  TRP617  ASP618  TYR619  PRO620  LYS621  CYS622 
 ASP623  PHE694  ASN695  SER759  ASP760  ASP761  ALA762  ILE779  LEU786  VAL792 
 PHE793  MET794  SER795  GLU796  ALA797  LYS798  CYS799  TRP800  GLU811  SER814 

> <Gold.Protein.RotatedAtoms>
  152.5451  134.1274  159.8424 H   0  0  0  0  0  0  0  0  0  0  0  0  # atno 6907 bound_to 6896
  151.1323  133.5021  159.2606 H   0  0  0  0  0  0  0  0  0  0  0  0  # atno 6908 bound_to 6896
  151.1662  135.0306  159.8786 H   0  0  0  0  0  0  0  0  0  0  0  0  # atno 6909 bound_to 6896
  146.2428  140.0114  142.8406 H   0  0  0  0  0  0  0  0  0  0  0  0  # atno 7974 bound_to 7965
  154.4048  140.1291  156.4540 H   0  0  0  0  0  0  0  0  0  0  0  0  # atno 8008 bound_to 7997
  155.7338  140.3491  155.5052 H   0  0  0  0  0  0  0  0  0  0  0  0  # atno 8009 bound_to 7997
  155.9103  140.1034  157.1274 H   0  0  0  0  0  0  0  0  0  0  0  0  # atno 8010 bound_to 7997
  140.4852  143.2393  151.7995 H   0  0  0  0  0  0  0  0  0  0  0  0  # atno 10167 bound_to 10162
  156.5440  130.4685  149.6484 H   0  0  0  0  0  0  0  0  0  0  0  0  # atno 10718 bound_to 10713
  154.3088  135.2757  155.2576 H   0  0  0  0  0  0  0  0  0  0  0  0  # atno 10763 bound_to 10752
  154.4980  135.5816  153.6513 H   0  0  0  0  0  0  0  0  0  0  0  0  # atno 10764 bound_to 10752
  152.9890  135.6151  154.3264 H   0  0  0  0  0  0  0  0  0  0  0  0  # atno 10765 bound_to 10752
  140.5666  134.0142  155.7992 H   0  0  0  0  0  0  0  0  0  0  0  0  # atno 11005 bound_to 11000
  145.1324  140.9525  143.4536 LP  0  0  0  0  0  0  0  0  0  0  0  0  # atno 17320 bound_to 7965
  145.0375  139.3288  143.5993 LP  0  0  0  0  0  0  0  0  0  0  0  0  # atno 17321 bound_to 7965
  139.4840  144.4721  151.9412 LP  0  0  0  0  0  0  0  0  0  0  0  0  # atno 17342 bound_to 10162
  140.3807  144.2740  150.5909 LP  0  0  0  0  0  0  0  0  0  0  0  0  # atno 17343 bound_to 10162
  156.2945  130.7143  151.2000 LP  0  0  0  0  0  0  0  0  0  0  0  0  # atno 17370 bound_to 10713
  157.7400  131.0522  150.5195 LP  0  0  0  0  0  0  0  0  0  0  0  0  # atno 17371 bound_to 10713
  141.1082  133.9660  157.2959 LP  0  0  0  0  0  0  0  0  0  0  0  0  # atno 17394 bound_to 11000
  139.9382  135.0194  156.8623 LP  0  0  0  0  0  0  0  0  0  0  0  0  # atno 17395 bound_to 11000

$$$$
