#       Name:                AV-unprocessed.smi:17
#       Creating user name   scv26
#       Creation time:       Thu Mar 26 15:25:46 2020


#       File generated by GOLD software.
#

@<TRIPOS>MOLECULE
AV-unprocessed.smi:17
    65    67     1
SMALL
NO_CHARGES


@<TRIPOS>ATOM
      1 ****        -2.5435  -3.9238  -0.6821 C.3            1 S1                 0.0000
      2 ****        -3.1557  -2.5278  -0.4781 C.3            1 S1                 0.0000
      3 ****        -2.4968  -1.4779  -1.2585 N.3            1 S1                 0.0000
      4 ****        -1.1545  -1.3749  -1.0796 C.ar           1 S1                 0.0000
      5 ****        -0.3744  -1.3961  -2.1892 N.ar           1 S1                 0.0000
      6 ****         0.9540  -1.3093  -2.0820 C.ar           1 S1                 0.0000
      7 ****         1.6964  -1.1999  -0.9790 N.ar           1 S1                 0.0000
      8 ****         0.9190  -1.1881   0.1414 C.ar           1 S1                 0.0000
      9 ****        -0.5016  -1.2745   0.1839 C.ar           1 S1                 0.0000
     10 ****        -0.9352  -1.2337   1.5043 N.2            1 S1                 0.0000
     11 ****         0.1630  -1.1287   2.2005 C.2            1 S1                 0.0000
     12 ****         1.3218  -1.0733   1.4606 N.pl3          1 S1                 0.0000
     13 ****         2.6742  -0.9596   1.9777 C.3            1 S1                 0.0000
     14 ****         2.9652   0.3708   2.7251 C.3            1 S1                 0.0000
     15 ****         4.3224   0.2548   3.4600 C.3            1 S1                 0.0000
     16 ****         4.2768  -0.7320   4.4703 O.3            1 S1                 0.0000
     17 ****         2.9344   1.6132   1.7850 C.3            1 S1                 0.0000
     18 ****         3.3405   2.9264   2.4390 C.3            1 S1                 0.0000
     19 ****         2.7689   3.9584   1.4789 C.3            1 S1                 0.0000
     20 ****         1.5201   3.4133   1.0869 O.3            1 S1                 0.0000
     21 ****         1.5541   1.9953   1.2208 C.3            1 S1                 0.0000
     22 ****        -3.2324  -0.2106  -1.3977 C.3            1 S1                 0.0000
     23 ****        -3.2073   0.6442  -0.1160 C.3            1 S1                 0.0000
     24 ****        -2.8196   0.6214  -2.6317 C.3            1 S1                 0.0000
     25 ****        -3.3492  -0.1828  -4.2076 S.o2           1 S1                 0.0000
     26 ****        -2.7650   1.0280  -5.4614 C.3            1 S1                 0.0000
     27 ****        -2.5963  -1.4332  -4.3870 O.2            1 S1                 0.0000
     28 ****        -4.8195  -0.2139  -4.2381 O.2            1 S1                 0.0000
     29 ****        -3.1207  -4.6768  -0.1456 H              1 S1                 0.0000
     30 ****        -1.5183  -3.9788  -0.3154 H              1 S1                 0.0000
     31 ****        -2.5392  -4.1994  -1.7372 H              1 S1                 0.0000
     32 ****        -4.2033  -2.5680  -0.7774 H              1 S1                 0.0000
     33 ****        -3.1570  -2.2713   0.5804 H              1 S1                 0.0000
     34 ****         1.4993  -1.3308  -3.0140 H              1 S1                 0.0000
     35 ****         0.1578  -1.0783   3.2797 H              1 S1                 0.0000
     36 ****         2.8232  -1.8128   2.6394 H              1 S1                 0.0000
     37 ****         3.3813  -1.0893   1.1578 H              1 S1                 0.0000
     38 ****         2.2003   0.5153   3.4897 H              1 S1                 0.0000
     39 ****         5.1245   0.0191   2.7597 H              1 S1                 0.0000
     40 ****         4.5921   1.1870   3.9543 H              1 S1                 0.0000
     41 ****         5.1228  -0.7717   4.8897 H              1 S1                 0.0000
     42 ****         3.6106   1.4394   0.9463 H              1 S1                 0.0000
     43 ****         2.8735   3.0287   3.4196 H              1 S1                 0.0000
     44 ****         4.4190   3.0347   2.5574 H              1 S1                 0.0000
     45 ****         2.6541   4.9425   1.9338 H              1 S1                 0.0000
     46 ****         3.4069   4.0583   0.5995 H              1 S1                 0.0000
     47 ****         1.3674   1.5290   0.2541 H              1 S1                 0.0000
     48 ****         0.7508   1.7056   1.8986 H              1 S1                 0.0000
     49 ****        -4.2771  -0.4827  -1.5523 H              1 S1                 0.0000
     50 ****        -3.8669   1.5067  -0.2125 H              1 S1                 0.0000
     51 ****        -2.2075   1.0234   0.0968 H              1 S1                 0.0000
     52 ****        -3.5450   0.0771   0.7516 H              1 S1                 0.0000
     53 ****        -3.3111   1.5939  -2.6020 H              1 S1                 0.0000
     54 ****        -1.7489   0.8176  -2.6688 H              1 S1                 0.0000
     55 ****        -3.0278   0.6719  -6.4571 H              1 S1                 0.0000
     56 ****        -1.6826   1.1329  -5.3892 H              1 S1                 0.0000
     57 ****        -3.2379   1.9938  -5.2855 H              1 S1                 0.0000
     58 ****        -2.5602  -1.8374  -2.1895 LP             1 S1                 0.0000
     59 ****        -0.7962  -1.4772  -3.0922 LP             1 S1                 0.0000
     60 ****         2.6943  -1.1350  -0.9743 LP             1 S1                 0.0000
     61 ****        -1.8751  -1.2754   1.8432 LP             1 S1                 0.0000
     62 ****         4.0594  -1.6199   4.0649 LP             1 S1                 0.0000
     63 ****         3.5774  -0.4930   5.1439 LP             1 S1                 0.0000
     64 ****         1.3368   3.6532   0.1336 LP             1 S1                 0.0000
     65 ****         0.7972   3.7852   1.6692 LP             1 S1                 0.0000
@<TRIPOS>BOND
    1    1    2 1     
    2    1   29 1     
    3    1   30 1     
    4    1   31 1     
    5    2    3 1     
    6    2   32 1     
    7    2   33 1     
    8    3    4 1     
    9    3   22 1     
   10    4    9 ar    
   11    4    5 ar    
   12    5    6 ar    
   13    6    7 ar    
   14    6   34 1     
   15    7    8 ar    
   16    8   12 1     
   17    8    9 ar    
   18    9   10 1     
   19   10   11 2     
   20   11   12 1     
   21   11   35 1     
   22   12   13 1     
   23   13   14 1     
   24   13   36 1     
   25   13   37 1     
   26   14   15 1     
   27   14   17 1     
   28   14   38 1     
   29   15   16 1     
   30   15   39 1     
   31   15   40 1     
   32   16   41 1     
   33   17   21 1     
   34   17   18 1     
   35   17   42 1     
   36   18   19 1     
   37   18   43 1     
   38   18   44 1     
   39   19   20 1     
   40   19   45 1     
   41   19   46 1     
   42   20   21 1     
   43   21   47 1     
   44   21   48 1     
   45   22   23 1     
   46   22   24 1     
   47   22   49 1     
   48   23   50 1     
   49   23   51 1     
   50   23   52 1     
   51   24   25 1     
   52   24   53 1     
   53   24   54 1     
   54   25   26 1     
   55   25   27 2     
   56   25   28 2     
   57   26   55 1     
   58   26   56 1     
   59   26   57 1     
   60    3   58 1     
   61    5   59 1     
   62    7   60 1     
   63   10   61 1     
   64   16   62 1     
   65   16   63 1     
   66   20   64 1     
   67   20   65 1     
@<TRIPOS>SUBSTRUCTURE
      1 S1             1
@<TRIPOS>SET
LONE_PAIRS      STATIC     ATOMS    <user>   **** ""
10 58 59 60 61 62 63 64 65 27 28
DONOR_HYDROGENS      STATIC     ATOMS    <user>   **** ""
1 41
ATOM$BLUE        STATIC     ATOMS    COLORGROUP SYSTEM
10 58 59 60 61 62 63 64 65 27 28
ATOM$RED        STATIC     ATOMS    COLORGROUP SYSTEM
1 41
