AV-unprocessed.smi:3215|AV-procd|sdf|12286|dock7
  -GOLD-   2272018123D 1   1.00000     0.00000
 Structure written by MMmdl.
 37 38  0  0  0  0  0  0  0  0  1 V2000
  153.3853  142.9206  163.1334 C   0  0  0  0  0  0  0  0  0  0  0  0
  153.0876  142.7152  161.6762 C   0  0  0  0  0  0  0  0  0  0  0  0
  153.6839  141.7764  160.7869 C   0  0  0  0  0  0  0  0  0  0  0  0
  153.1974  141.8502  159.5587 N   0  0  0  0  0  0  0  0  0  0  0  0
  152.2772  142.8359  159.6196 N   0  0  0  0  0  0  0  0  0  0  0  0
  151.5276  143.1970  158.4318 C   0  0  0  0  0  0  0  0  0  0  0  0
  150.5794  142.0706  157.9959 C   0  0  0  0  0  0  0  0  0  0  0  0
  150.0183  142.3857  156.6912 N   0  0  0  0  0  0  0  0  0  0  0  0
  149.2052  141.2688  156.1935 C   0  0  0  0  0  0  0  0  0  0  0  0
  148.5256  141.5672  154.8468 C   0  0  0  0  0  0  0  0  0  0  0  0
  149.1113  141.3151  153.7920 O   0  0  0  0  0  0  0  0  0  0  0  0
  147.2902  142.1097  154.8658 N   0  0  0  0  0  0  0  0  0  0  0  0
  146.5428  142.4598  153.6595 C   0  0  0  0  0  0  0  0  0  0  0  0
  145.3497  143.2874  154.1380 C   0  0  0  0  0  0  0  0  0  0  0  0
  145.1253  142.8225  155.5702 C   0  0  0  0  0  0  0  0  0  0  0  0
  146.5212  142.4417  156.0652 C   0  0  0  0  0  0  0  0  0  0  0  0
  152.1904  143.3759  160.8852 C   0  0  0  0  0  0  0  0  0  0  0  0
  153.5944  141.9778  163.6391 H   0  0  0  0  0  0  0  0  0  0  0  0
  152.5494  143.3857  163.6568 H   0  0  0  0  0  0  0  0  0  0  0  0
  154.2538  143.5633  163.2786 H   0  0  0  0  0  0  0  0  0  0  0  0
  154.4522  141.0468  160.9969 H   0  0  0  0  0  0  0  0  0  0  0  0
  150.9662  144.1083  158.6430 H   0  0  0  0  0  0  0  0  0  0  0  0
  152.2332  143.4369  157.6345 H   0  0  0  0  0  0  0  0  0  0  0  0
  151.1174  141.1224  157.9494 H   0  0  0  0  0  0  0  0  0  0  0  0
  149.7756  141.9578  158.7251 H   0  0  0  0  0  0  0  0  0  0  0  0
  149.4746  143.2344  156.7571 H   0  0  0  0  0  0  0  0  0  0  0  0
  149.8395  140.3889  156.0765 H   0  0  0  0  0  0  0  0  0  0  0  0
  148.4370  141.0270  156.9296 H   0  0  0  0  0  0  0  0  0  0  0  0
  147.1500  143.0174  152.9447 H   0  0  0  0  0  0  0  0  0  0  0  0
  146.2040  141.5432  153.1744 H   0  0  0  0  0  0  0  0  0  0  0  0
  145.6140  144.3458  154.1365 H   0  0  0  0  0  0  0  0  0  0  0  0
  144.4684  143.1622  153.5083 H   0  0  0  0  0  0  0  0  0  0  0  0
  144.6490  143.5812  156.1917 H   0  0  0  0  0  0  0  0  0  0  0  0
  144.4838  141.9404  155.5701 H   0  0  0  0  0  0  0  0  0  0  0  0
  146.4705  141.6110  156.7699 H   0  0  0  0  0  0  0  0  0  0  0  0
  146.9909  143.2885  156.5675 H   0  0  0  0  0  0  0  0  0  0  0  0
  151.5036  144.1768  161.1163 H   0  0  0  0  0  0  0  0  0  0  0  0
  1  2  1  0  0  0  0
  1 18  1  0  0  0  0
  1 19  1  0  0  0  0
  1 20  1  0  0  0  0
  2 17  2  0  0  0  0
  2  3  1  0  0  0  0
  3  4  2  0  0  0  0
  3 21  1  0  0  0  0
  4  5  1  0  0  0  0
  5  6  1  0  0  0  0
  5 17  1  0  0  0  0
  6  7  1  0  0  0  0
  6 22  1  0  0  0  0
  6 23  1  0  0  0  0
  7  8  1  0  0  0  0
  7 24  1  0  0  0  0
  7 25  1  0  0  0  0
  8  9  1  0  0  0  0
  8 26  1  0  0  0  0
  9 10  1  0  0  0  0
  9 27  1  0  0  0  0
  9 28  1  0  0  0  0
 10 11  2  0  0  0  0
 10 12  1  0  0  0  0
 12 16  1  0  0  0  0
 12 13  1  0  0  0  0
 13 14  1  0  0  0  0
 13 29  1  0  0  0  0
 13 30  1  0  0  0  0
 14 15  1  0  0  0  0
 14 31  1  0  0  0  0
 14 32  1  0  0  0  0
 15 16  1  0  0  0  0
 15 33  1  0  0  0  0
 15 34  1  0  0  0  0
 16 35  1  0  0  0  0
 16 36  1  0  0  0  0
 17 37  1  0  0  0  0
M  END
> <s_m_source_file>
AV-unprocessed.smi

> <i_m_source_file_index>
3215

> <i_lp_mmshare_version>
43012

> <i_f3d_flags>
0

> <s_epik_input>
W0NIM11jMVtjSF1ubihbY0hdMSlbQ0gyXVtDSDJdW05IXVtDSDJdQyg9TylOMltDSDJdW0NIMl1bQ0gyXVtDSDJdMg==

> <s_epik_cmdline>
J2VwaWtfcHl0aG9uJywgJy1waCcsICc3LjAnLCAnLXRuJywgJzgnLCAnLW1hJywgJzIwMCcsICctbWV0YWxfYmluZGluZycsICctaW1hZScsICc8aW5maWxlLm1hZT4nLCAnLW9tYWUnLCAnPG91dGZpbGUubWFlPic=

> <r_lp_tautomer_probability>
1

> <r_epik_Ionization_Penalty>
0.736363

> <r_epik_Ionization_Penalty_Charging>
0

> <r_epik_Ionization_Penalty_Neutral>
0.736363

> <r_epik_State_Penalty>
0.758951

> <r_epik_Charging_Adjusted_Penalty>
0.758951

> <i_epik_Tot_Q>
0

> <i_epik_Tot_abs_Q>
0

> <r_epik_Metal_State_Penalty>
0.755698

> <b_epik_Metal_Only>
0

> <s_lp_Force_Field>
OPLS_2005

> <r_lp_Energy>
29.5089

> <b_lp_Chiralities_Consistent>
1

> <s_lp_Variant>
AV-unprocessed.smi:3215-2

> <Gold.Version>
5.8.1

> <Gold.Id.Protein>
6NUR|6NUR_protein|mol2

> <Gold.PLP.Fitness>
46.9522

> <Gold.PLP.PLP>
-43.0027

> <Gold.PLP.part.hbond>
-2.7589

> <Gold.PLP.part.metal>
0.0000

> <Gold.PLP.part.buried>
-5.5334

> <Gold.PLP.part.nonpolar>
-34.7106

> <Gold.PLP.part.repulsive>
1.0385

> <Gold.PLP.ligand.clash>
0.0000

> <Gold.PLP.ligand.torsion>
0.4593

> <Gold.PLP.Chemscore.Hbond>
1.6160

> <Gold.PLP.Chemscore.CHOScore>
0.0000

> <Gold.PLP.Chemscore.Metal>
0.0000

> <Gold.Chemscore.Hbonds>
donor molecule, donor type, donor heavy atom, donor atom, acceptor molecule, acceptor atom, score
      L1  H     8    26       P1  8028  0.82
      P1  H  8011  8017       L1    11  0.83

> <Gold.PLP.Chemscore.Internal.Correction>
0.0200

> <Gold.Rescore>
     Score         DG    S(hbond)    S(metal)    S(lipo)     H(rot)  DE(clash)    DE(int)     intcor
     15.64     -16.68       1.64        0.00      87.13       1.74       0.64       0.40       ----

> <Gold.Chemscore.Fitness>
15.6423

> <Gold.Chemscore.DG>
-16.6799

> <Gold.Chemscore.ZeroCoef>
-5.4800

> <Gold.Chemscore.Hbond>
1.6382

> <Gold.Chemscore.Metal>
0.0000

> <Gold.Chemscore.Lipo>
87.1292

> <Gold.Chemscore.Internal_Hbond>
0.0000

> <Gold.Chemscore.DEClash>
0.6354

> <Gold.Chemscore.DEInternal>
0.4021

> <Gold.Chemscore.Rot>
1.7444

> <Gold.Chemscore.Internal.Correction>
   9.000000E+99

> <Gold.Chemscore.Hbonds>
donor molecule, donor type, donor heavy atom, donor atom, acceptor molecule, acceptor atom, score
      L1  H     8    26       P1  8028  0.80
      P1  H  8011  8017       L1    11  0.82

> <Gold.Chemscore.Hbond.Weighted>
-5.4714

> <Gold.Chemscore.Metal.Weighted>
-0.0000

> <Gold.Chemscore.Lipo.Weighted>
-10.1941

> <Gold.Chemscore.Internal_Hbond.Weighted>
0.0000

> <Gold.Chemscore.DEClash.Weighted>
0.6354

> <Gold.Chemscore.DEInternal.Weighted>
0.4021

> <Gold.Chemscore.Rot.Weighted>
4.4657

> <Gold.Chemscore.Internal.Correction.Weighted>
   9.000000E+99

> <Gold.Protein.RotatedTorsions>
[ 6907 6896 6895 6894 ] final   -9.26 input  -60.11 | X-H torsion
[ 7974 7965 7964 7962 ] final  110.00 input  175.53 | X-H torsion
[ 8008 7997 7996 7995 ] final  -64.72 input   59.86 | X-H torsion
[ 10167 10162 10161 10158 ] final -177.89 input  -65.29 | X-H torsion
[ 10718 10713 10712 10709 ] final    1.55 input   66.30 | X-H torsion
[ 10763 10752 10751 10750 ] final  -96.15 input  -60.55 | X-H torsion
[ 11005 11000 10999 10996 ] final -115.70 input  -57.11 | X-H torsion

> <Gold.Protein.ActiveResidues>
 VAL166  LYS551  ARG553  GLY616  TRP617  ASP618  TYR619  PRO620  LYS621  CYS622 
 ASP623  PHE694  ASN695  SER759  ASP760  ASP761  ALA762  ILE779  LEU786  VAL792 
 PHE793  MET794  SER795  GLU796  ALA797  LYS798  CYS799  TRP800  GLU811  SER814 

> <Gold.Protein.RotatedAtoms>
  151.4206  135.0997  159.9612 H   0  0  0  0  0  0  0  0  0  0  0  0  # atno 6907 bound_to 6896
  152.4989  133.8710  159.7309 H   0  0  0  0  0  0  0  0  0  0  0  0  # atno 6908 bound_to 6896
  150.9226  133.6805  159.2856 H   0  0  0  0  0  0  0  0  0  0  0  0  # atno 6909 bound_to 6896
  145.2606  139.2704  143.4019 H   0  0  0  0  0  0  0  0  0  0  0  0  # atno 7974 bound_to 7965
  154.4628  140.0948  156.6941 H   0  0  0  0  0  0  0  0  0  0  0  0  # atno 8008 bound_to 7997
  155.4943  140.3471  155.4342 H   0  0  0  0  0  0  0  0  0  0  0  0  # atno 8009 bound_to 7997
  156.0903  140.1395  156.9590 H   0  0  0  0  0  0  0  0  0  0  0  0  # atno 8010 bound_to 7997
  139.5458  144.2239  152.0985 H   0  0  0  0  0  0  0  0  0  0  0  0  # atno 10167 bound_to 10162
  156.8498  130.5550  149.5670 H   0  0  0  0  0  0  0  0  0  0  0  0  # atno 10718 bound_to 10713
  154.7213  135.5094  153.8817 H   0  0  0  0  0  0  0  0  0  0  0  0  # atno 10763 bound_to 10752
  153.0865  135.6647  153.9947 H   0  0  0  0  0  0  0  0  0  0  0  0  # atno 10764 bound_to 10752
  153.9769  135.3033  155.3402 H   0  0  0  0  0  0  0  0  0  0  0  0  # atno 10765 bound_to 10752
  141.0471  133.9746  157.2899 H   0  0  0  0  0  0  0  0  0  0  0  0  # atno 11005 bound_to 11000
  146.3276  140.3022  142.8621 LP  0  0  0  0  0  0  0  0  0  0  0  0  # atno 17320 bound_to 7965
  144.9422  140.8090  143.5623 LP  0  0  0  0  0  0  0  0  0  0  0  0  # atno 17321 bound_to 7965
  140.1726  144.4921  150.6571 LP  0  0  0  0  0  0  0  0  0  0  0  0  # atno 17342 bound_to 10162
  140.6706  143.2284  151.5635 LP  0  0  0  0  0  0  0  0  0  0  0  0  # atno 17343 bound_to 10162
  156.0834  130.5839  150.9605 LP  0  0  0  0  0  0  0  0  0  0  0  0  # atno 17370 bound_to 10713
  157.6309  131.0921  150.8442 LP  0  0  0  0  0  0  0  0  0  0  0  0  # atno 17371 bound_to 10713
  139.9320  135.0199  156.8432 LP  0  0  0  0  0  0  0  0  0  0  0  0  # atno 17394 bound_to 11000
  140.6126  134.0068  155.7583 LP  0  0  0  0  0  0  0  0  0  0  0  0  # atno 17395 bound_to 11000

$$$$
