AV-unprocessed.smi:2226|AV-procd|sdf|9001|dock3
  -GOLD-   2272012213D 1   1.00000     0.00000
 Structure written by MMmdl.
 40 42  0  0  0  0  0  0  0  0  2 V2000
  143.1044  132.7100  151.4293 C   0  0  0  0  0  0  0  0  0  0  0  0
  143.9559  133.4383  152.3999 N   0  3  2  0  0  0  0  0  0  0  0  0
  143.6968  134.8955  152.4839 C   0  0  2  0  0  0  0  0  0  0  0  0
  144.1751  135.6308  151.2068 C   0  0  0  0  0  0  0  0  0  0  0  0
  145.6267  135.3146  150.8029 C   0  0  0  0  0  0  0  0  0  0  0  0
  145.9781  133.8260  150.9723 C   0  0  0  0  0  0  0  0  0  0  0  0
  145.4105  133.1870  152.2639 C   0  0  1  0  0  0  0  0  0  0  0  0
  146.1213  133.6082  153.5710 C   0  0  0  0  0  0  0  0  0  0  0  0
  145.7304  135.0027  154.1362 C   0  0  1  0  0  0  0  0  0  0  0  0
  146.6893  136.0528  153.7999 N   0  0  0  0  0  0  0  0  0  0  0  0
  146.7654  137.2600  154.3798 C   0  0  0  0  0  0  0  0  0  0  0  0
  146.0232  137.6227  155.2928 O   0  0  0  0  0  0  0  0  0  0  0  0
  147.7449  138.0008  153.8358 N   0  0  0  0  0  0  0  0  0  0  0  0
  148.1379  139.3127  154.2014 C   0  0  0  0  0  0  0  0  0  0  0  0
  147.3327  140.3586  154.3936 N   0  0  0  0  0  0  0  0  0  0  0  0
  148.1860  141.3976  154.7355 C   0  0  0  0  0  0  0  0  0  0  0  0
  149.4698  140.9159  154.7311 C   0  0  0  0  0  0  0  0  0  0  0  0
  149.4545  139.5892  154.3938 O   0  0  0  0  0  0  0  0  0  0  0  0
  144.2774  135.4347  153.8121 C   0  0  0  0  0  0  0  0  0  0  0  0
  143.2813  133.0279  150.4022 H   0  0  0  0  0  0  0  0  0  0  0  0
  142.0499  132.8705  151.6552 H   0  0  0  0  0  0  0  0  0  0  0  0
  143.2931  131.6378  151.4881 H   0  0  0  0  0  0  0  0  0  0  0  0
  142.6168  135.0372  152.5453 H   0  0  0  0  0  0  0  0  0  0  0  0
  143.5221  135.3531  150.3791 H   0  0  0  0  0  0  0  0  0  0  0  0
  144.0501  136.7077  151.3236 H   0  0  0  0  0  0  0  0  0  0  0  0
  145.7873  135.6096  149.7654 H   0  0  0  0  0  0  0  0  0  0  0  0
  146.3192  135.9297  151.3670 H   0  0  0  0  0  0  0  0  0  0  0  0
  145.5897  133.2809  150.1115 H   0  0  0  0  0  0  0  0  0  0  0  0
  147.0600  133.6951  150.9325 H   0  0  0  0  0  0  0  0  0  0  0  0
  145.5536  132.1091  152.1737 H   0  0  0  0  0  0  0  0  0  0  0  0
  145.8495  132.8721  154.3290 H   0  0  0  0  0  0  0  0  0  0  0  0
  147.2019  133.5089  153.4630 H   0  0  0  0  0  0  0  0  0  0  0  0
  145.7817  134.9256  155.2244 H   0  0  0  0  0  0  0  0  0  0  0  0
  147.3418  135.8470  153.0575 H   0  0  0  0  0  0  0  0  0  0  0  0
  148.2694  137.5830  153.0815 H   0  0  0  0  0  0  0  0  0  0  0  0
  147.8169  142.3890  154.9533 H   0  0  0  0  0  0  0  0  0  0  0  0
  150.4358  141.3551  154.9312 H   0  0  0  0  0  0  0  0  0  0  0  0
  144.1712  136.5193  153.8648 H   0  0  0  0  0  0  0  0  0  0  0  0
  143.6432  135.0509  154.6129 H   0  0  0  0  0  0  0  0  0  0  0  0
  143.6964  133.0612  153.3003 H   0  0  0  0  0  0  0  0  0  0  0  0
  1  2  1  0  0  0  0
  1 20  1  0  0  0  0
  1 21  1  0  0  0  0
  1 22  1  0  0  0  0
  2  7  1  0  0  0  0
  2  3  1  0  0  0  0
  2 40  1  0  0  0  0
  3 19  1  0  0  0  0
  3  4  1  0  0  0  0
  3 23  1  0  0  0  0
  4  5  1  0  0  0  0
  4 24  1  0  0  0  0
  4 25  1  0  0  0  0
  5  6  1  0  0  0  0
  5 26  1  0  0  0  0
  5 27  1  0  0  0  0
  6  7  1  0  0  0  0
  6 28  1  0  0  0  0
  6 29  1  0  0  0  0
  7  8  1  0  0  0  0
  7 30  1  0  0  0  0
  8  9  1  0  0  0  0
  8 31  1  0  0  0  0
  8 32  1  0  0  0  0
  9 10  1  0  0  0  0
  9 19  1  0  0  0  0
  9 33  1  0  0  0  0
 10 11  1  0  0  0  0
 10 34  1  0  0  0  0
 11 12  2  0  0  0  0
 11 13  1  0  0  0  0
 13 14  1  0  0  0  0
 13 35  1  0  0  0  0
 14 18  1  0  0  0  0
 14 15  2  0  0  0  0
 15 16  1  0  0  0  0
 16 17  2  0  0  0  0
 16 36  1  0  0  0  0
 17 18  1  0  0  0  0
 17 37  1  0  0  0  0
 19 38  1  0  0  0  0
 19 39  1  0  0  0  0
M  CHG  1   2   1
M  END
> <s_m_source_file>
AV-unprocessed.smi

> <i_m_source_file_index>
2226

> <i_lp_mmshare_version>
43012

> <i_f3d_flags>
0

> <s_epik_input>
W0NIMl0xW0NIMl1bQ0gyXVtDQEhdKE4oW0NIM10pW0NIXTEyKVtDSDJdW0NASF0oW0NIMl0yKVtOSF1DKD1PKVtOSF1jM25bY0hdW2NIXW8z

> <s_epik_cmdline>
J2VwaWtfcHl0aG9uJywgJy1waCcsICc3LjAnLCAnLXRuJywgJzgnLCAnLW1hJywgJzIwMCcsICctbWV0YWxfYmluZGluZycsICctaW1hZScsICc8aW5maWxlLm1hZT4nLCAnLW9tYWUnLCAnPG91dGZpbGUubWFlPic=

> <r_lp_tautomer_probability>
0.785861

> <r_epik_Ionization_Penalty>
0.000929358

> <r_epik_Ionization_Penalty_Charging>
0.000890041

> <r_epik_Ionization_Penalty_Neutral>
3.93161e-05

> <r_epik_State_Penalty>
0.0312137

> <r_epik_Charging_Adjusted_Penalty>
0.0321037

> <i_epik_Tot_Q>
1

> <i_epik_Tot_abs_Q>
1

> <r_epik_Metal_State_Penalty>
0.0605703

> <b_epik_Metal_Only>
0

> <s_lp_Force_Field>
OPLS_2005

> <r_lp_Energy>
36.0435

> <b_lp_Chiralities_Consistent>
1

> <s_lp_Variant>
AV-unprocessed.smi:2226-1

> <Gold.Version>
5.8.1

> <Gold.Id.Protein>
6NUR|6NUR_protein|mol2

> <Gold.PLP.Fitness>
35.1831

> <Gold.PLP.PLP>
-24.4833

> <Gold.PLP.part.hbond>
-2.5727

> <Gold.PLP.part.metal>
0.0000

> <Gold.PLP.part.buried>
-4.4427

> <Gold.PLP.part.nonpolar>
-19.3504

> <Gold.PLP.part.repulsive>
0.2841

> <Gold.PLP.ligand.clash>
0.0000

> <Gold.PLP.ligand.torsion>
0.5204

> <Gold.PLP.Chemscore.Hbond>
3.1375

> <Gold.PLP.Chemscore.CHOScore>
0.7576

> <Gold.PLP.Chemscore.Metal>
0.0000

> <Gold.Chemscore.Hbonds>
donor molecule, donor type, donor heavy atom, donor atom, acceptor molecule, acceptor atom, score
      L1  H     2    40       P1 10957  1.07
      L1  H    10    34       P1  7948  0.99
      L1  H    13    35       P1  7948  1.00
      L1  C    16    36       P1  8028  0.74

> <Gold.PLP.Chemscore.Internal.Correction>
0.0553

> <Gold.Rescore>
     Score         DG    S(hbond)    S(metal)    S(lipo)     H(rot)  DE(clash)    DE(int)     intcor
     17.43     -18.11       2.64        0.00      54.58       1.00       0.10       0.58       ----

> <Gold.Chemscore.Fitness>
17.4288

> <Gold.Chemscore.DG>
-18.1082

> <Gold.Chemscore.ZeroCoef>
-5.4800

> <Gold.Chemscore.Hbond>
2.6353

> <Gold.Chemscore.Metal>
0.0000

> <Gold.Chemscore.Lipo>
54.5835

> <Gold.Chemscore.Internal_Hbond>
0.0000

> <Gold.Chemscore.DEClash>
0.0953

> <Gold.Chemscore.DEInternal>
0.5841

> <Gold.Chemscore.Rot>
1.0000

> <Gold.Chemscore.Internal.Correction>
   9.000000E+99

> <Gold.Chemscore.Hbonds>
donor molecule, donor type, donor heavy atom, donor atom, acceptor molecule, acceptor atom, score
      L1  H     2    40       P1 10957  0.42
      L1  H    10    34       P1  7948  0.91
      L1  H    13    35       P1  7948  0.99

> <Gold.Chemscore.Hbond.Weighted>
-8.8019

> <Gold.Chemscore.Metal.Weighted>
-0.0000

> <Gold.Chemscore.Lipo.Weighted>
-6.3863

> <Gold.Chemscore.Internal_Hbond.Weighted>
0.0000

> <Gold.Chemscore.DEClash.Weighted>
0.0953

> <Gold.Chemscore.DEInternal.Weighted>
0.5841

> <Gold.Chemscore.Rot.Weighted>
2.5600

> <Gold.Chemscore.Internal.Correction.Weighted>
   9.000000E+99

> <Gold.Protein.RotatedTorsions>
[ 6907 6896 6895 6894 ] final  160.13 input  -60.11 | X-H torsion
[ 7974 7965 7964 7962 ] final  118.11 input  175.53 | X-H torsion
[ 8008 7997 7996 7995 ] final -121.80 input   59.86 | X-H torsion
[ 10167 10162 10161 10158 ] final    1.22 input  -65.29 | X-H torsion
[ 10718 10713 10712 10709 ] final  128.92 input   66.30 | X-H torsion
[ 10763 10752 10751 10750 ] final -123.76 input  -60.55 | X-H torsion
[ 11005 11000 10999 10996 ] final -112.54 input  -57.11 | X-H torsion

> <Gold.Protein.ActiveResidues>
 VAL166  LYS551  ARG553  GLY616  TRP617  ASP618  TYR619  PRO620  LYS621  CYS622 
 ASP623  PHE694  ASN695  SER759  ASP760  ASP761  ALA762  ILE779  LEU786  VAL792 
 PHE793  MET794  SER795  GLU796  ALA797  LYS798  CYS799  TRP800  GLU811  SER814 

> <Gold.Protein.RotatedAtoms>
  151.9753  133.3739  159.4086 H   0  0  0  0  0  0  0  0  0  0  0  0  # atno 6907 bound_to 6896
  150.6943  134.4097  159.5165 H   0  0  0  0  0  0  0  0  0  0  0  0  # atno 6908 bound_to 6896
  152.1807  134.8756  160.0577 H   0  0  0  0  0  0  0  0  0  0  0  0  # atno 6909 bound_to 6896
  145.1591  139.3165  143.4526 H   0  0  0  0  0  0  0  0  0  0  0  0  # atno 7974 bound_to 7965
  155.1540  140.0404  157.2827 H   0  0  0  0  0  0  0  0  0  0  0  0  # atno 8008 bound_to 7997
  154.6384  140.2541  155.7324 H   0  0  0  0  0  0  0  0  0  0  0  0  # atno 8009 bound_to 7997
  156.2520  140.2861  156.0767 H   0  0  0  0  0  0  0  0  0  0  0  0  # atno 8010 bound_to 7997
  140.6693  143.7094  150.7889 H   0  0  0  0  0  0  0  0  0  0  0  0  # atno 10167 bound_to 10162
  157.5201  131.1098  150.9166 H   0  0  0  0  0  0  0  0  0  0  0  0  # atno 10718 bound_to 10713
  154.8713  135.4087  154.2995 H   0  0  0  0  0  0  0  0  0  0  0  0  # atno 10763 bound_to 10752
  153.3857  135.7013  153.6537 H   0  0  0  0  0  0  0  0  0  0  0  0  # atno 10764 bound_to 10752
  153.5341  135.3661  155.2660 H   0  0  0  0  0  0  0  0  0  0  0  0  # atno 10765 bound_to 10752
  141.0669  133.9444  157.2561 H   0  0  0  0  0  0  0  0  0  0  0  0  # atno 11005 bound_to 11000
  146.3485  140.1695  142.8590 LP  0  0  0  0  0  0  0  0  0  0  0  0  # atno 17320 bound_to 7965
  145.0350  140.8900  143.5087 LP  0  0  0  0  0  0  0  0  0  0  0  0  # atno 17321 bound_to 7965
  140.0777  143.4999  152.2547 LP  0  0  0  0  0  0  0  0  0  0  0  0  # atno 17342 bound_to 10162
  139.5954  144.7565  151.3299 LP  0  0  0  0  0  0  0  0  0  0  0  0  # atno 17343 bound_to 10162
  156.9779  130.5516  149.5294 LP  0  0  0  0  0  0  0  0  0  0  0  0  # atno 17370 bound_to 10713
  156.0347  130.5436  150.8624 LP  0  0  0  0  0  0  0  0  0  0  0  0  # atno 17371 bound_to 10713
  139.9485  135.0180  156.8924 LP  0  0  0  0  0  0  0  0  0  0  0  0  # atno 17394 bound_to 11000
  140.5755  134.0402  155.7445 LP  0  0  0  0  0  0  0  0  0  0  0  0  # atno 17395 bound_to 11000

$$$$
