#       Name:                AV-unprocessed.smi:1510
#       Creating user name   scv26
#       Creation time:       Fri Mar 27 06:22:43 2020


#       File generated by GOLD software.
#

@<TRIPOS>MOLECULE
AV-unprocessed.smi:1510
    42    43     1
SMALL
NO_CHARGES


@<TRIPOS>ATOM
      1 ****        -0.3617   1.7296   0.2614 O.2            1 S1                 0.0000
      2 ****         0.3106   0.7094   0.1033 C.2            1 S1                 0.0000
      3 ****         1.8428   0.7757   0.0158 C.3            1 S1                 0.0000
      4 ****         2.4039   2.0410   0.5110 N.am           1 S1                 0.0000
      5 ****         2.6914   2.9611  -0.4858 N.2            1 S1                 0.0000
      6 ****         3.1723   4.1175  -0.1762 C.2            1 S1                 0.0000
      7 ****         3.4379   4.9997  -1.1944 O.3            1 S1                 0.0000
      8 ****         3.4262   4.4788   1.2010 C.2            1 S1                 0.0000
      9 ****         3.1470   3.5742   2.1647 C.2            1 S1                 0.0000
     10 ****         2.5979   2.2541   1.8489 C.2            1 S1                 0.0000
     11 ****         2.3326   1.4117   2.7062 O.2            1 S1                 0.0000
     12 ****        -0.2308  -0.5100  -0.0216 N.am           1 S1                 0.0000
     13 ****        -1.6607  -0.7831   0.0112 C.3            1 S1                 0.0000
     14 ****        -1.9263  -2.2892  -0.1158 C.3            1 S1                 0.0000
     15 ****        -3.4048  -2.6621  -0.0396 C.3            1 S1                 0.0000
     16 ****        -3.4144  -4.0012  -0.7410 C.3            1 S1                 0.0000
     17 ****        -2.3912  -3.7852  -1.8538 C.3            1 S1                 0.0000
     18 ****        -1.5018  -2.7725  -1.3876 O.3            1 S1                 0.0000
     19 ****         3.1853   4.5507  -1.9866 H              1 S1                 0.0000
     20 ****         2.2736  -0.0650   0.5629 H              1 S1                 0.0000
     21 ****         2.1286   0.6216  -1.0262 H              1 S1                 0.0000
     22 ****         3.8298   5.4511   1.4423 H              1 S1                 0.0000
     23 ****         3.3319   3.8301   3.1976 H              1 S1                 0.0000
     24 ****         0.3844  -1.2989  -0.1589 H              1 S1                 0.0000
     25 ****        -2.0742  -0.4131   0.9508 H              1 S1                 0.0000
     26 ****        -2.1558  -0.2412  -0.7961 H              1 S1                 0.0000
     27 ****        -1.3801  -2.8369   0.6544 H              1 S1                 0.0000
     28 ****        -3.7799  -2.7106   0.9830 H              1 S1                 0.0000
     29 ****        -4.0123  -1.9458  -0.5949 H              1 S1                 0.0000
     30 ****        -3.0703  -4.7805  -0.0595 H              1 S1                 0.0000
     31 ****        -4.3986  -4.2846  -1.1150 H              1 S1                 0.0000
     32 ****        -1.8538  -4.7012  -2.1006 H              1 S1                 0.0000
     33 ****        -2.8795  -3.4254  -2.7601 H              1 S1                 0.0000
     34 ****         0.0892   2.6191   0.3349 LP             1 S1                 0.0000
     35 ****        -1.3583   1.6682   0.3162 LP             1 S1                 0.0000
     36 ****         2.5260   2.7284  -1.4442 LP             1 S1                 0.0000
     37 ****         4.4116   5.2267  -1.2159 LP             1 S1                 0.0000
     38 ****         2.9029   5.8369  -1.0807 LP             1 S1                 0.0000
     39 ****         1.9576   0.5248   2.4365 LP             1 S1                 0.0000
     40 ****         2.4921   1.6142   3.6724 LP             1 S1                 0.0000
     41 ****        -0.5813  -3.1543  -1.3050 LP             1 S1                 0.0000
     42 ****        -1.4914  -2.0159  -2.0414 LP             1 S1                 0.0000
@<TRIPOS>BOND
    1    1    2 2     
    2    2    3 1     
    3    2   12 am    
    4    3   20 1     
    5    3   21 1     
    6    3    4 1     
    7    4    5 1     
    8    4   10 am    
    9    5    6 2     
   10    6    7 1     
   11    6    8 1     
   12    7   19 1     
   13    8   22 1     
   14    8    9 2     
   15    9   23 1     
   16    9   10 1     
   17   10   11 2     
   18   12   13 1     
   19   12   24 1     
   20   13   14 1     
   21   13   25 1     
   22   13   26 1     
   23   14   18 1     
   24   14   15 1     
   25   14   27 1     
   26   15   16 1     
   27   15   28 1     
   28   15   29 1     
   29   16   17 1     
   30   16   30 1     
   31   16   31 1     
   32   17   18 1     
   33   17   32 1     
   34   17   33 1     
   35    1   34 1     
   36    1   35 1     
   37    5   36 1     
   38    7   37 1     
   39    7   38 1     
   40   11   39 1     
   41   11   40 1     
   42   18   41 1     
   43   18   42 1     
@<TRIPOS>SUBSTRUCTURE
      1 S1             1
@<TRIPOS>SET
LONE_PAIRS      STATIC     ATOMS    <user>   **** ""
9 34 35 36 37 38 39 40 41 42
DONOR_HYDROGENS      STATIC     ATOMS    <user>   **** ""
2 19 24
ATOM$BLUE        STATIC     ATOMS    COLORGROUP SYSTEM
9 34 35 36 37 38 39 40 41 42
ATOM$RED        STATIC     ATOMS    COLORGROUP SYSTEM
2 19 24
