AV-unprocessed.smi:1096|AV-procd|sdf|4749|dock2
  -GOLD-   22720 3283D 1   1.00000     0.00000
 Structure written by MMmdl.
 48 50  0  0  0  0  0  0  0  0  1 V2000
  149.2278  134.0530  155.6854 O   0  0  0  0  0  0  0  0  0  0  0  0
  149.0455  134.8140  154.7345 C   0  0  0  0  0  0  0  0  0  0  0  0
  148.3725  134.5088  153.6110 N   0  0  0  0  0  0  0  0  0  0  0  0
  147.7624  133.2751  153.2602 C   0  0  0  0  0  0  0  0  0  0  0  0
  146.8438  133.3454  152.1882 C   0  0  0  0  0  0  0  0  0  0  0  0
  146.1872  132.1752  151.7606 C   0  0  0  0  0  0  0  0  0  0  0  0
  146.4670  130.9629  152.4161 C   0  0  0  0  0  0  0  0  0  0  0  0
  147.3947  130.9798  153.4739 C   0  0  0  0  0  0  0  0  0  0  0  0
  148.0248  132.1002  153.8857 N   0  0  0  0  0  0  0  0  0  0  0  0
  149.5029  136.0743  154.6977 N   0  0  0  0  0  0  0  0  0  0  0  0
  150.2604  136.7290  155.7601 C   0  0  2  0  0  0  0  0  0  0  0  0
  149.4145  137.8621  156.3699 C   0  0  0  0  0  0  0  0  0  0  0  0
  150.1948  138.6275  157.4507 C   0  0  0  0  0  0  0  0  0  0  0  0
  151.5182  139.1947  156.8896 C   0  0  1  0  0  0  0  0  0  0  0  0
  152.3108  139.9776  157.9589 C   0  0  0  0  0  0  0  0  0  0  0  0
  153.4075  139.5389  158.3098 O   0  0  0  0  0  0  0  0  0  0  0  0
  151.7784  141.0966  158.5123 N   0  0  0  0  0  0  0  0  0  0  0  0
  150.5731  141.7393  157.9744 C   0  0  0  0  0  0  0  0  0  0  0  0
  150.9927  142.9582  157.1344 C   0  0  0  0  0  0  0  0  0  0  0  0
  151.8575  144.1955  158.1539 S   0  0  0  0  0  0  0  0  0  0  0  0
  153.0669  143.1210  158.9892 C   0  0  0  0  0  0  0  0  0  0  0  0
  152.3751  141.8890  159.5944 C   0  0  0  0  0  0  0  0  0  0  0  0
  152.3689  138.0471  156.3074 C   0  0  0  0  0  0  0  0  0  0  0  0
  151.5994  137.2758  155.2230 C   0  0  0  0  0  0  0  0  0  0  0  0
  148.2914  135.2435  152.9238 H   0  0  0  0  0  0  0  0  0  0  0  0
  146.6407  134.2851  151.6952 H   0  0  0  0  0  0  0  0  0  0  0  0
  145.4815  132.2084  150.9436 H   0  0  0  0  0  0  0  0  0  0  0  0
  145.9837  130.0447  152.1166 H   0  0  0  0  0  0  0  0  0  0  0  0
  147.6384  130.0704  154.0028 H   0  0  0  0  0  0  0  0  0  0  0  0
  149.3064  136.6267  153.8759 H   0  0  0  0  0  0  0  0  0  0  0  0
  150.4673  136.0004  156.5464 H   0  0  0  0  0  0  0  0  0  0  0  0
  149.1057  138.5573  155.5877 H   0  0  0  0  0  0  0  0  0  0  0  0
  148.4988  137.4544  156.7998 H   0  0  0  0  0  0  0  0  0  0  0  0
  149.5759  139.4357  157.8429 H   0  0  0  0  0  0  0  0  0  0  0  0
  150.3911  137.9537  158.2864 H   0  0  0  0  0  0  0  0  0  0  0  0
  151.2304  139.8712  156.0858 H   0  0  0  0  0  0  0  0  0  0  0  0
  149.9769  141.0593  157.3644 H   0  0  0  0  0  0  0  0  0  0  0  0
  149.9145  142.0493  158.7869 H   0  0  0  0  0  0  0  0  0  0  0  0
  151.6487  142.6494  156.3195 H   0  0  0  0  0  0  0  0  0  0  0  0
  150.1192  143.4269  156.6809 H   0  0  0  0  0  0  0  0  0  0  0  0
  153.8305  142.8171  158.2724 H   0  0  0  0  0  0  0  0  0  0  0  0
  153.5687  143.6968  159.7670 H   0  0  0  0  0  0  0  0  0  0  0  0
  151.5993  142.2078  160.2920 H   0  0  0  0  0  0  0  0  0  0  0  0
  153.0704  141.3161  160.2058 H   0  0  0  0  0  0  0  0  0  0  0  0
  153.2958  138.4357  155.8842 H   0  0  0  0  0  0  0  0  0  0  0  0
  152.6609  137.3590  157.1025 H   0  0  0  0  0  0  0  0  0  0  0  0
  152.2189  136.4594  154.8501 H   0  0  0  0  0  0  0  0  0  0  0  0
  151.4156  137.9353  154.3736 H   0  0  0  0  0  0  0  0  0  0  0  0
  1  2  2  0  0  0  0
  2  3  1  0  0  0  0
  2 10  1  0  0  0  0
  3  4  1  0  0  0  0
  3 25  1  0  0  0  0
  4  9  1  0  0  0  0
  4  5  2  0  0  0  0
  5  6  1  0  0  0  0
  5 26  1  0  0  0  0
  6  7  2  0  0  0  0
  6 27  1  0  0  0  0
  7  8  1  0  0  0  0
  7 28  1  0  0  0  0
  8  9  2  0  0  0  0
  8 29  1  0  0  0  0
 10 11  1  0  0  0  0
 10 30  1  0  0  0  0
 11 24  1  0  0  0  0
 11 12  1  0  0  0  0
 11 31  1  0  0  0  0
 12 13  1  0  0  0  0
 12 32  1  0  0  0  0
 12 33  1  0  0  0  0
 13 14  1  0  0  0  0
 13 34  1  0  0  0  0
 13 35  1  0  0  0  0
 14 15  1  0  0  0  0
 14 23  1  0  0  0  0
 14 36  1  0  0  0  0
 15 16  2  0  0  0  0
 15 17  1  0  0  0  0
 17 22  1  0  0  0  0
 17 18  1  0  0  0  0
 18 19  1  0  0  0  0
 18 37  1  0  0  0  0
 18 38  1  0  0  0  0
 19 20  1  0  0  0  0
 19 39  1  0  0  0  0
 19 40  1  0  0  0  0
 20 21  1  0  0  0  0
 21 22  1  0  0  0  0
 21 41  1  0  0  0  0
 21 42  1  0  0  0  0
 22 43  1  0  0  0  0
 22 44  1  0  0  0  0
 23 24  1  0  0  0  0
 23 45  1  0  0  0  0
 23 46  1  0  0  0  0
 24 47  1  0  0  0  0
 24 48  1  0  0  0  0
M  END
> <s_m_source_file>
AV-unprocessed.smi

> <i_m_source_file_index>
1096

> <i_lp_mmshare_version>
43012

> <i_f3d_flags>
0

> <s_epik_input>
bjFbY0hdW2NIXVtjSF1bY0hdYzFbTkhdQyg9TylbTkhdW0NAQEhdMltDSDJdW0NIMl1bQ0BIXShbQ0gyXVtDSDJdMilDKD1PKU4zW0NIMl1bQ0gyXVNbQ0gyXVtDSDJdMw==

> <s_epik_cmdline>
J2VwaWtfcHl0aG9uJywgJy1waCcsICc3LjAnLCAnLXRuJywgJzgnLCAnLW1hJywgJzIwMCcsICctbWV0YWxfYmluZGluZycsICctaW1hZScsICc8aW5maWxlLm1hZT4nLCAnLW9tYWUnLCAnPG91dGZpbGUubWFlPic=

> <r_lp_tautomer_probability>
1

> <r_epik_Ionization_Penalty>
5.08504e-05

> <r_epik_Ionization_Penalty_Charging>
0

> <r_epik_Ionization_Penalty_Neutral>
5.08504e-05

> <r_epik_State_Penalty>
-0

> <r_epik_Charging_Adjusted_Penalty>
0

> <i_epik_Tot_Q>
0

> <i_epik_Tot_abs_Q>
0

> <r_epik_Metal_State_Penalty>
-0

> <b_epik_Metal_Only>
0

> <s_lp_Force_Field>
OPLS_2005

> <r_lp_Energy>
29.3602

> <b_lp_Chiralities_Consistent>
1

> <s_lp_Variant>
AV-unprocessed.smi:1096-1

> <Gold.Version>
5.8.1

> <Gold.Id.Protein>
6NUR|6NUR_protein|mol2

> <Gold.PLP.Fitness>
45.9101

> <Gold.PLP.PLP>
-38.0373

> <Gold.PLP.part.hbond>
-2.8225

> <Gold.PLP.part.metal>
0.0000

> <Gold.PLP.part.buried>
-1.4153

> <Gold.PLP.part.nonpolar>
-33.4082

> <Gold.PLP.part.repulsive>
0.1334

> <Gold.PLP.ligand.clash>
0.0000

> <Gold.PLP.ligand.torsion>
0.1738

> <Gold.PLP.Chemscore.Hbond>
2.7176

> <Gold.PLP.Chemscore.CHOScore>
0.0000

> <Gold.PLP.Chemscore.Metal>
0.0000

> <Gold.Chemscore.Hbonds>
donor molecule, donor type, donor heavy atom, donor atom, acceptor molecule, acceptor atom, score
      L1  H     3    25       P1  7948  0.99
      L1  H    10    30       P1  7948  0.65
      P1  H  7997  8010       L1    16  1.00

> <Gold.PLP.Chemscore.Internal.Correction>
0.0676

> <Gold.Rescore>
     Score         DG    S(hbond)    S(metal)    S(lipo)     H(rot)  DE(clash)    DE(int)     intcor
     20.88     -22.41       2.55        0.00      99.43       1.26       0.16       1.37       ----

> <Gold.Chemscore.Fitness>
20.8819

> <Gold.Chemscore.DG>
-22.4115

> <Gold.Chemscore.ZeroCoef>
-5.4800

> <Gold.Chemscore.Hbond>
2.5503

> <Gold.Chemscore.Metal>
0.0000

> <Gold.Chemscore.Lipo>
99.4315

> <Gold.Chemscore.Internal_Hbond>
0.0000

> <Gold.Chemscore.DEClash>
0.1559

> <Gold.Chemscore.DEInternal>
1.3737

> <Gold.Chemscore.Rot>
1.2578

> <Gold.Chemscore.Internal.Correction>
   9.000000E+99

> <Gold.Chemscore.Hbonds>
donor molecule, donor type, donor heavy atom, donor atom, acceptor molecule, acceptor atom, score
      L1  H     3    25       P1  7948  0.87
      L1  H    10    30       P1  7948  0.58
      P1  H  7997  8010       L1    16  0.88

> <Gold.Chemscore.Hbond.Weighted>
-8.5180

> <Gold.Chemscore.Metal.Weighted>
-0.0000

> <Gold.Chemscore.Lipo.Weighted>
-11.6335

> <Gold.Chemscore.Internal_Hbond.Weighted>
0.0000

> <Gold.Chemscore.DEClash.Weighted>
0.1559

> <Gold.Chemscore.DEInternal.Weighted>
1.3737

> <Gold.Chemscore.Rot.Weighted>
3.2200

> <Gold.Chemscore.Internal.Correction.Weighted>
   9.000000E+99

> <Gold.Protein.RotatedTorsions>
[ 6907 6896 6895 6894 ] final   39.67 input  -60.11 | X-H torsion
[ 7974 7965 7964 7962 ] final    5.93 input  175.53 | X-H torsion
[ 8008 7997 7996 7995 ] final   19.06 input   59.86 | X-H torsion
[ 10167 10162 10161 10158 ] final   55.23 input  -65.29 | X-H torsion
[ 10718 10713 10712 10709 ] final -102.69 input   66.30 | X-H torsion
[ 10763 10752 10751 10750 ] final  -93.68 input  -60.55 | X-H torsion
[ 11005 11000 10999 10996 ] final  133.65 input  -57.11 | X-H torsion

> <Gold.Protein.ActiveResidues>
 VAL166  LYS551  ARG553  GLY616  TRP617  ASP618  TYR619  PRO620  LYS621  CYS622 
 ASP623  PHE694  ASN695  SER759  ASP760  ASP761  ALA762  ILE779  LEU786  VAL792 
 PHE793  MET794  SER795  GLU796  ALA797  LYS798  CYS799  TRP800  GLU811  SER814 

> <Gold.Protein.RotatedAtoms>
  152.1725  134.8822  160.0532 H   0  0  0  0  0  0  0  0  0  0  0  0  # atno 6907 bound_to 6896
  151.9777  133.3742  159.4103 H   0  0  0  0  0  0  0  0  0  0  0  0  # atno 6908 bound_to 6896
  150.6904  134.3996  159.5156 H   0  0  0  0  0  0  0  0  0  0  0  0  # atno 6909 bound_to 6896
  146.2438  140.0309  142.8390 H   0  0  0  0  0  0  0  0  0  0  0  0  # atno 7974 bound_to 7965
  154.9151  140.3019  155.5245 H   0  0  0  0  0  0  0  0  0  0  0  0  # atno 8008 bound_to 7997
  156.3013  140.2382  156.4131 H   0  0  0  0  0  0  0  0  0  0  0  0  # atno 8009 bound_to 7997
  154.8386  140.0415  157.1515 H   0  0  0  0  0  0  0  0  0  0  0  0  # atno 8010 bound_to 7997
  140.2217  144.3782  150.6448 H   0  0  0  0  0  0  0  0  0  0  0  0  # atno 10167 bound_to 10162
  156.0238  130.5432  150.7144 H   0  0  0  0  0  0  0  0  0  0  0  0  # atno 10718 bound_to 10713
  154.6983  135.5185  153.8489 H   0  0  0  0  0  0  0  0  0  0  0  0  # atno 10763 bound_to 10752
  153.0684  135.6593  154.0312 H   0  0  0  0  0  0  0  0  0  0  0  0  # atno 10764 bound_to 10752
  154.0175  135.2996  155.3364 H   0  0  0  0  0  0  0  0  0  0  0  0  # atno 10765 bound_to 10752
  139.9865  134.9530  156.9755 H   0  0  0  0  0  0  0  0  0  0  0  0  # atno 11005 bound_to 11000
  145.1155  140.9431  143.4631 LP  0  0  0  0  0  0  0  0  0  0  0  0  # atno 17320 bound_to 7965
  145.0533  139.3164  143.5917 LP  0  0  0  0  0  0  0  0  0  0  0  0  # atno 17321 bound_to 7965
  140.6250  143.2180  151.6615 LP  0  0  0  0  0  0  0  0  0  0  0  0  # atno 17342 bound_to 10162
  139.5142  144.3419  152.0732 LP  0  0  0  0  0  0  0  0  0  0  0  0  # atno 17343 bound_to 10162
  157.4775  131.0899  151.0574 LP  0  0  0  0  0  0  0  0  0  0  0  0  # atno 17370 bound_to 10713
  157.1017  130.5984  149.5461 LP  0  0  0  0  0  0  0  0  0  0  0  0  # atno 17371 bound_to 10713
  140.4992  134.1114  155.7247 LP  0  0  0  0  0  0  0  0  0  0  0  0  # atno 17394 bound_to 11000
  141.1529  133.8936  157.2052 LP  0  0  0  0  0  0  0  0  0  0  0  0  # atno 17395 bound_to 11000

$$$$
