AV-unprocessed.smi:2052|AV-procd|sdf|8329|dock4
  -GOLD-   2272010593D 1   1.00000     0.00000
 Structure written by MMmdl.
 41 42  0  0  0  0  0  0  0  0  1 V2000
  149.9464  144.8415  159.9068 C   0  0  0  0  0  0  0  0  0  0  0  0
  151.4728  144.7918  158.9286 S   0  0  0  0  0  0  0  0  0  0  0  0
  152.5121  143.7188  159.9644 C   0  0  1  0  0  0  0  0  0  0  0  0
  152.1338  143.8804  161.4455 C   0  0  0  0  0  0  0  0  0  0  0  0
  152.4322  142.2505  159.5287 C   0  0  0  0  0  0  0  0  0  0  0  0
  153.1073  141.3932  160.0993 O   0  0  0  0  0  0  0  0  0  0  0  0
  151.5981  141.9717  158.5148 N   0  0  0  0  0  0  0  0  0  0  0  0
  151.3906  140.6435  157.9479 C   0  0  0  0  0  0  0  0  0  0  0  0
  150.4865  140.6259  156.7239 C   0  0  0  0  0  0  0  0  0  0  0  0
  150.8545  139.9455  155.5443 C   0  0  0  0  0  0  0  0  0  0  0  0
  149.9667  139.9709  154.4537 C   0  0  0  0  0  0  0  0  0  0  0  0
  148.7848  140.6214  154.4764 N   0  0  0  0  0  0  0  0  0  0  0  0
  148.4253  141.2923  155.5989 C   0  0  0  0  0  0  0  0  0  0  0  0
  147.1873  141.9725  155.6035 N   0  0  0  0  0  0  0  0  0  0  0  0
  146.5550  142.1523  154.2987 C   0  0  0  0  0  0  0  0  0  0  0  0
  145.3949  143.1581  154.3980 C   0  0  0  0  0  0  0  0  0  0  0  0
  144.4772  142.7402  155.4030 O   0  0  0  0  0  0  0  0  0  0  0  0
  145.0904  142.6835  156.6864 C   0  0  0  0  0  0  0  0  0  0  0  0
  146.2362  141.6578  156.6685 C   0  0  0  0  0  0  0  0  0  0  0  0
  149.2551  141.3129  156.7459 C   0  0  0  0  0  0  0  0  0  0  0  0
  149.1851  145.4182  159.3816 H   0  0  0  0  0  0  0  0  0  0  0  0
  150.1226  145.3099  160.8749 H   0  0  0  0  0  0  0  0  0  0  0  0
  149.5646  143.8336  160.0699 H   0  0  0  0  0  0  0  0  0  0  0  0
  153.5422  144.0605  159.8516 H   0  0  0  0  0  0  0  0  0  0  0  0
  152.7383  143.2337  162.0827 H   0  0  0  0  0  0  0  0  0  0  0  0
  151.0852  143.6378  161.6218 H   0  0  0  0  0  0  0  0  0  0  0  0
  152.2942  144.9066  161.7769 H   0  0  0  0  0  0  0  0  0  0  0  0
  151.0788  142.7324  158.1016 H   0  0  0  0  0  0  0  0  0  0  0  0
  152.3547  140.1922  157.7074 H   0  0  0  0  0  0  0  0  0  0  0  0
  150.9386  140.0139  158.7144 H   0  0  0  0  0  0  0  0  0  0  0  0
  151.7905  139.4119  155.4708 H   0  0  0  0  0  0  0  0  0  0  0  0
  150.2127  139.4563  153.5367 H   0  0  0  0  0  0  0  0  0  0  0  0
  147.2625  142.5040  153.5492 H   0  0  0  0  0  0  0  0  0  0  0  0
  146.1823  141.1869  153.9543 H   0  0  0  0  0  0  0  0  0  0  0  0
  145.7667  144.1591  154.6229 H   0  0  0  0  0  0  0  0  0  0  0  0
  144.8711  143.2211  153.4440 H   0  0  0  0  0  0  0  0  0  0  0  0
  145.4568  143.6713  156.9712 H   0  0  0  0  0  0  0  0  0  0  0  0
  144.3422  142.3966  157.4253 H   0  0  0  0  0  0  0  0  0  0  0  0
  145.8366  140.6550  156.5111 H   0  0  0  0  0  0  0  0  0  0  0  0
  146.7375  141.6612  157.6372 H   0  0  0  0  0  0  0  0  0  0  0  0
  148.9515  141.8301  157.6438 H   0  0  0  0  0  0  0  0  0  0  0  0
  1  2  1  0  0  0  0
  1 21  1  0  0  0  0
  1 22  1  0  0  0  0
  1 23  1  0  0  0  0
  2  3  1  0  0  0  0
  3  4  1  0  0  0  0
  3  5  1  0  0  0  0
  3 24  1  0  0  0  0
  4 25  1  0  0  0  0
  4 26  1  0  0  0  0
  4 27  1  0  0  0  0
  5  6  2  0  0  0  0
  5  7  1  0  0  0  0
  7  8  1  0  0  0  0
  7 28  1  0  0  0  0
  8  9  1  0  0  0  0
  8 29  1  0  0  0  0
  8 30  1  0  0  0  0
  9 20  1  0  0  0  0
  9 10  2  0  0  0  0
 10 11  1  0  0  0  0
 10 31  1  0  0  0  0
 11 12  2  0  0  0  0
 11 32  1  0  0  0  0
 12 13  1  0  0  0  0
 13 14  1  0  0  0  0
 13 20  2  0  0  0  0
 14 19  1  0  0  0  0
 14 15  1  0  0  0  0
 15 16  1  0  0  0  0
 15 33  1  0  0  0  0
 15 34  1  0  0  0  0
 16 17  1  0  0  0  0
 16 35  1  0  0  0  0
 16 36  1  0  0  0  0
 17 18  1  0  0  0  0
 18 19  1  0  0  0  0
 18 37  1  0  0  0  0
 18 38  1  0  0  0  0
 19 39  1  0  0  0  0
 19 40  1  0  0  0  0
 20 41  1  0  0  0  0
M  END
> <s_m_source_file>
AV-unprocessed.smi

> <i_m_source_file_index>
2052

> <i_lp_mmshare_version>
43012

> <i_f3d_flags>
0

> <s_epik_input>
W0NIM11TW0NASF0oW0NIM10pQyg9TylbTkhdW0NIMl1jMVtjSF1bY0hdbmMoW2NIXTEpTjJbQ0gyXVtDSDJdT1tDSDJdW0NIMl0y

> <s_epik_cmdline>
J2VwaWtfcHl0aG9uJywgJy1waCcsICc3LjAnLCAnLXRuJywgJzgnLCAnLW1hJywgJzIwMCcsICctbWV0YWxfYmluZGluZycsICctaW1hZScsICc8aW5maWxlLm1hZT4nLCAnLW9tYWUnLCAnPG91dGZpbGUubWFlPic=

> <r_lp_tautomer_probability>
1

> <r_epik_Ionization_Penalty>
0.00463955

> <r_epik_Ionization_Penalty_Charging>
0

> <r_epik_Ionization_Penalty_Neutral>
0.00463955

> <r_epik_State_Penalty>
0.00335544

> <r_epik_Charging_Adjusted_Penalty>
0.00335544

> <i_epik_Tot_Q>
0

> <i_epik_Tot_abs_Q>
0

> <r_epik_Metal_State_Penalty>
-0

> <b_epik_Metal_Only>
0

> <s_lp_Force_Field>
OPLS_2005

> <r_lp_Energy>
15.5355

> <b_lp_Chiralities_Consistent>
1

> <s_lp_Variant>
AV-unprocessed.smi:2052-2

> <Gold.Version>
5.8.1

> <Gold.Id.Protein>
6NUR|6NUR_protein|mol2

> <Gold.PLP.Fitness>
42.3633

> <Gold.PLP.PLP>
-40.8063

> <Gold.PLP.part.hbond>
0.0000

> <Gold.PLP.part.metal>
0.0000

> <Gold.PLP.part.buried>
-6.6160

> <Gold.PLP.part.nonpolar>
-36.0081

> <Gold.PLP.part.repulsive>
1.3194

> <Gold.PLP.ligand.clash>
0.0000

> <Gold.PLP.ligand.torsion>
0.7499

> <Gold.PLP.Chemscore.Hbond>
0.0000

> <Gold.PLP.Chemscore.CHOScore>
0.8931

> <Gold.PLP.Chemscore.Metal>
0.0000

> <Gold.Chemscore.Hbonds>
donor molecule, donor type, donor heavy atom, donor atom, acceptor molecule, acceptor atom, score
      L1  C    11    32       P1  7957  1.00

> <Gold.PLP.Chemscore.Internal.Correction>
0.3775

> <Gold.Rescore>
     Score         DG    S(hbond)    S(metal)    S(lipo)     H(rot)  DE(clash)    DE(int)     intcor
     11.58     -12.23       0.00        0.00      94.23       1.67       0.03       0.62       ----

> <Gold.Chemscore.Fitness>
11.5797

> <Gold.Chemscore.DG>
-12.2343

> <Gold.Chemscore.ZeroCoef>
-5.4800

> <Gold.Chemscore.Hbond>
0.0000

> <Gold.Chemscore.Metal>
0.0000

> <Gold.Chemscore.Lipo>
94.2307

> <Gold.Chemscore.Internal_Hbond>
0.0000

> <Gold.Chemscore.DEClash>
0.0348

> <Gold.Chemscore.DEInternal>
0.6198

> <Gold.Chemscore.Rot>
1.6682

> <Gold.Chemscore.Internal.Correction>
   9.000000E+99

> <Gold.Chemscore.Hbond.Weighted>
-0.0000

> <Gold.Chemscore.Metal.Weighted>
-0.0000

> <Gold.Chemscore.Lipo.Weighted>
-11.0250

> <Gold.Chemscore.Internal_Hbond.Weighted>
0.0000

> <Gold.Chemscore.DEClash.Weighted>
0.0348

> <Gold.Chemscore.DEInternal.Weighted>
0.6198

> <Gold.Chemscore.Rot.Weighted>
4.2707

> <Gold.Chemscore.Internal.Correction.Weighted>
   9.000000E+99

> <Gold.Protein.RotatedTorsions>
[ 6907 6896 6895 6894 ] final -139.15 input  -60.11 | X-H torsion
[ 7974 7965 7964 7962 ] final   44.22 input  175.53 | X-H torsion
[ 8008 7997 7996 7995 ] final  108.47 input   59.86 | X-H torsion
[ 10167 10162 10161 10158 ] final -149.73 input  -65.29 | X-H torsion
[ 10718 10713 10712 10709 ] final  -19.92 input   66.30 | X-H torsion
[ 10763 10752 10751 10750 ] final  -92.79 input  -60.55 | X-H torsion
[ 11005 11000 10999 10996 ] final -156.18 input  -57.11 | X-H torsion

> <Gold.Protein.ActiveResidues>
 VAL166  LYS551  ARG553  GLY616  TRP617  ASP618  TYR619  PRO620  LYS621  CYS622 
 ASP623  PHE694  ASN695  SER759  ASP760  ASP761  ALA762  ILE779  LEU786  VAL792 
 PHE793  MET794  SER795  GLU796  ALA797  LYS798  CYS799  TRP800  GLU811  SER814 

> <Gold.Protein.RotatedAtoms>
  151.0441  133.5681  159.2648 H   0  0  0  0  0  0  0  0  0  0  0  0  # atno 6907 bound_to 6896
  151.2716  135.0685  159.9146 H   0  0  0  0  0  0  0  0  0  0  0  0  # atno 6908 bound_to 6896
  152.5370  134.0170  159.8018 H   0  0  0  0  0  0  0  0  0  0  0  0  # atno 6909 bound_to 6896
  146.0587  139.5098  142.9672 H   0  0  0  0  0  0  0  0  0  0  0  0  # atno 7974 bound_to 7965
  156.1906  140.3076  155.9324 H   0  0  0  0  0  0  0  0  0  0  0  0  # atno 8008 bound_to 7997
  155.3183  140.0454  157.3055 H   0  0  0  0  0  0  0  0  0  0  0  0  # atno 8009 bound_to 7997
  154.5447  140.2273  155.8592 H   0  0  0  0  0  0  0  0  0  0  0  0  # atno 8010 bound_to 7997
  139.7417  143.8652  152.2564 H   0  0  0  0  0  0  0  0  0  0  0  0  # atno 10167 bound_to 10162
  156.5391  130.4673  149.6508 H   0  0  0  0  0  0  0  0  0  0  0  0  # atno 10718 bound_to 10713
  154.6896  135.5218  153.8374 H   0  0  0  0  0  0  0  0  0  0  0  0  # atno 10763 bound_to 10752
  153.0622  135.6572  154.0445 H   0  0  0  0  0  0  0  0  0  0  0  0  # atno 10764 bound_to 10752
  154.0321  135.2984  155.3347 H   0  0  0  0  0  0  0  0  0  0  0  0  # atno 10765 bound_to 10752
  140.6784  134.4171  157.5228 H   0  0  0  0  0  0  0  0  0  0  0  0  # atno 11005 bound_to 11000
  145.6598  141.0243  143.1715 LP  0  0  0  0  0  0  0  0  0  0  0  0  # atno 17320 bound_to 7965
  144.7162  139.8187  143.7398 LP  0  0  0  0  0  0  0  0  0  0  0  0  # atno 17321 bound_to 7965
  139.8605  144.7119  150.9105 LP  0  0  0  0  0  0  0  0  0  0  0  0  # atno 17342 bound_to 10162
  140.7786  143.3822  151.1457 LP  0  0  0  0  0  0  0  0  0  0  0  0  # atno 17343 bound_to 10162
  156.2989  130.7165  151.2032 LP  0  0  0  0  0  0  0  0  0  0  0  0  # atno 17370 bound_to 10713
  157.7408  131.0511  150.5138 LP  0  0  0  0  0  0  0  0  0  0  0  0  # atno 17371 bound_to 10713
  139.8959  134.8671  156.2110 LP  0  0  0  0  0  0  0  0  0  0  0  0  # atno 17394 bound_to 11000
  141.0337  133.6975  156.1475 LP  0  0  0  0  0  0  0  0  0  0  0  0  # atno 17395 bound_to 11000

$$$$
