AV-unprocessed.smi:3145|AV-procd|sdf|11984|dock2
  -GOLD-   2272017383D 1   1.00000     0.00000
 Structure written by MMmdl.
 34 34  0  0  0  0  0  0  0  0  3 V2000
  149.5140  141.3353  155.6850 C   0  0  0  0  0  0  0  0  0  0  0  0
  149.8263  141.9252  157.0666 C   0  0  1  0  0  0  0  0  0  0  0  0
  151.3008  142.3726  157.1523 C   0  0  0  0  0  0  0  0  0  0  0  0
  151.6284  142.9865  158.4265 N   0  0  0  0  0  0  0  0  0  0  0  0
  151.2088  144.2012  158.9262 C   0  0  0  0  0  0  0  0  0  0  0  0
  151.7982  144.3625  160.1472 C   0  0  0  0  0  0  0  0  0  0  0  0
  152.5666  143.1761  160.3120 C   0  0  0  0  0  0  0  0  0  0  0  0
  152.4601  142.3527  159.2815 N   0  0  0  0  0  0  0  0  0  0  0  0
  148.9095  143.0548  157.3386 N   0  3  0  0  0  0  0  0  0  0  0  0
  147.5364  142.8822  156.8193 C   0  0  0  0  0  0  0  0  0  0  0  0
  146.7179  141.9785  157.7481 C   0  0  0  0  0  0  0  0  0  0  0  0
  146.5988  140.7776  157.4782 O   0  0  0  0  0  0  0  0  0  0  0  0
  146.2085  142.7036  158.7793 N   0  5  0  0  0  0  0  0  0  0  0  0
  146.7399  143.9946  159.2137 C   0  0  0  0  0  0  0  0  0  0  0  0
  146.6092  144.1537  160.7383 C   0  0  0  0  0  0  0  0  0  0  0  0
  147.3546  145.2962  161.2953 C   0  0  0  0  0  0  0  0  0  0  0  0
  147.9397  146.1930  161.7380 N   0  0  0  0  0  0  0  0  0  0  0  0
  150.1542  140.4793  155.4698 H   0  0  0  0  0  0  0  0  0  0  0  0
  149.6647  142.0710  154.8940 H   0  0  0  0  0  0  0  0  0  0  0  0
  148.4800  140.9926  155.6295 H   0  0  0  0  0  0  0  0  0  0  0  0
  149.6520  141.1372  157.8013 H   0  0  0  0  0  0  0  0  0  0  0  0
  151.9601  141.5142  157.0171 H   0  0  0  0  0  0  0  0  0  0  0  0
  151.5375  143.0726  156.3492 H   0  0  0  0  0  0  0  0  0  0  0  0
  150.5394  144.8449  158.3746 H   0  0  0  0  0  0  0  0  0  0  0  0
  151.6979  145.2013  160.8199 H   0  0  0  0  0  0  0  0  0  0  0  0
  153.1949  142.8916  161.1432 H   0  0  0  0  0  0  0  0  0  0  0  0
  148.8568  143.1969  158.3374 H   0  0  0  0  0  0  0  0  0  0  0  0
  147.0711  143.8649  156.7230 H   0  0  0  0  0  0  0  0  0  0  0  0
  147.5573  142.4303  155.8277 H   0  0  0  0  0  0  0  0  0  0  0  0
  147.7880  144.1137  158.9360 H   0  0  0  0  0  0  0  0  0  0  0  0
  146.2186  144.8188  158.7270 H   0  0  0  0  0  0  0  0  0  0  0  0
  145.5638  144.2567  161.0302 H   0  0  0  0  0  0  0  0  0  0  0  0
  146.9854  143.2575  161.2315 H   0  0  0  0  0  0  0  0  0  0  0  0
  149.2871  143.8908  156.9167 H   0  0  0  0  0  0  0  0  0  0  0  0
  1  2  1  0  0  0  0
  1 18  1  0  0  0  0
  1 19  1  0  0  0  0
  1 20  1  0  0  0  0
  2  3  1  0  0  0  0
  2  9  1  0  0  0  0
  2 21  1  0  0  0  0
  3  4  1  0  0  0  0
  3 22  1  0  0  0  0
  3 23  1  0  0  0  0
  4  8  1  0  0  0  0
  4  5  1  0  0  0  0
  5  6  2  0  0  0  0
  5 24  1  0  0  0  0
  6  7  1  0  0  0  0
  6 25  1  0  0  0  0
  7  8  2  0  0  0  0
  7 26  1  0  0  0  0
  9 10  1  0  0  0  0
  9 27  1  0  0  0  0
  9 34  1  0  0  0  0
 10 11  1  0  0  0  0
 10 28  1  0  0  0  0
 10 29  1  0  0  0  0
 11 12  2  0  0  0  0
 11 13  1  0  0  0  0
 13 14  1  0  0  0  0
 14 15  1  0  0  0  0
 14 30  1  0  0  0  0
 14 31  1  0  0  0  0
 15 16  1  0  0  0  0
 15 32  1  0  0  0  0
 15 33  1  0  0  0  0
 16 17  3  0  0  0  0
M  CHG  1   9   1
M  CHG  1  13  -1
M  END
> <s_m_source_file>
AV-unprocessed.smi

> <i_m_source_file_index>
3145

> <i_lp_mmshare_version>
43012

> <i_f3d_flags>
0

> <s_epik_input>
bjFbY0hdW2NIXVtjSF1uMVtDSDJdW0NAQEhdKFtDSDNdKVtOSF1bQ0gyXUMoPU8pW05IXVtDSDJdW0NIMl1DI04=

> <s_epik_cmdline>
J2VwaWtfcHl0aG9uJywgJy1waCcsICc3LjAnLCAnLXRuJywgJzgnLCAnLW1hJywgJzIwMCcsICctbWV0YWxfYmluZGluZycsICctaW1hZScsICc8aW5maWxlLm1hZT4nLCAnLW9tYWUnLCAnPG91dGZpbGUubWFlPic=

> <r_lp_tautomer_probability>
1

> <r_epik_Ionization_Penalty>
6.20835

> <r_epik_Ionization_Penalty_Charging>
6.20835

> <r_epik_Ionization_Penalty_Neutral>
3.57231e-06

> <r_epik_State_Penalty>
6.38139

> <r_epik_Charging_Adjusted_Penalty>
12.5897

> <i_epik_Tot_Q>
0

> <i_epik_Tot_abs_Q>
2

> <r_epik_Metal_State_Penalty>
2.31725

> <b_epik_Metal_Only>
1

> <s_lp_Force_Field>
OPLS_2005

> <r_lp_Energy>
1.97057

> <b_lp_Chiralities_Consistent>
1

> <s_lp_Variant>
AV-unprocessed.smi:3145-6

> <Gold.Version>
5.8.1

> <Gold.Id.Protein>
6NUR|6NUR_protein|mol2

> <Gold.PLP.Fitness>
46.3474

> <Gold.PLP.PLP>
-33.1448

> <Gold.PLP.part.hbond>
-5.0483

> <Gold.PLP.part.metal>
0.0000

> <Gold.PLP.part.buried>
-4.9076

> <Gold.PLP.part.nonpolar>
-24.2217

> <Gold.PLP.part.repulsive>
0.3131

> <Gold.PLP.ligand.clash>
0.0000

> <Gold.PLP.ligand.torsion>
1.0250

> <Gold.PLP.Chemscore.Hbond>
3.9200

> <Gold.PLP.Chemscore.CHOScore>
1.0227

> <Gold.PLP.Chemscore.Metal>
0.0000

> <Gold.Chemscore.Hbonds>
donor molecule, donor type, donor heavy atom, donor atom, acceptor molecule, acceptor atom, score
      L1  H     9    34       P1  8028  1.34

> <Gold.PLP.Chemscore.Internal.Correction>
0.4246

> <Gold.Rescore>
     Score         DG    S(hbond)    S(metal)    S(lipo)     H(rot)  DE(clash)    DE(int)     intcor
      7.35      -9.09       0.99        0.00      63.78       2.79       0.22       1.52       ----

> <Gold.Chemscore.Fitness>
7.3466

> <Gold.Chemscore.DG>
-9.0869

> <Gold.Chemscore.ZeroCoef>
-5.4800

> <Gold.Chemscore.Hbond>
0.9880

> <Gold.Chemscore.Metal>
0.0000

> <Gold.Chemscore.Lipo>
63.7776

> <Gold.Chemscore.Internal_Hbond>
0.0000

> <Gold.Chemscore.DEClash>
0.2213

> <Gold.Chemscore.DEInternal>
1.5190

> <Gold.Chemscore.Rot>
2.7949

> <Gold.Chemscore.Internal.Correction>
   9.000000E+99

> <Gold.Chemscore.Hbonds>
donor molecule, donor type, donor heavy atom, donor atom, acceptor molecule, acceptor atom, score
      L1  H     9    34       P1  8028  0.42

> <Gold.Chemscore.Hbond.Weighted>
-3.3000

> <Gold.Chemscore.Metal.Weighted>
-0.0000

> <Gold.Chemscore.Lipo.Weighted>
-7.4620

> <Gold.Chemscore.Internal_Hbond.Weighted>
0.0000

> <Gold.Chemscore.DEClash.Weighted>
0.2213

> <Gold.Chemscore.DEInternal.Weighted>
1.5190

> <Gold.Chemscore.Rot.Weighted>
7.1551

> <Gold.Chemscore.Internal.Correction.Weighted>
   9.000000E+99

> <Gold.Protein.RotatedTorsions>
[ 6907 6896 6895 6894 ] final  -97.41 input  -60.11 | X-H torsion
[ 7974 7965 7964 7962 ] final -178.72 input  175.53 | X-H torsion
[ 8008 7997 7996 7995 ] final -165.55 input   59.86 | X-H torsion
[ 10167 10162 10161 10158 ] final   57.33 input  -65.29 | X-H torsion
[ 10718 10713 10712 10709 ] final   66.90 input   66.30 | X-H torsion
[ 10763 10752 10751 10750 ] final -170.28 input  -60.55 | X-H torsion
[ 11005 11000 10999 10996 ] final  -39.97 input  -57.11 | X-H torsion

> <Gold.Protein.ActiveResidues>
 VAL166  LYS551  ARG553  GLY616  TRP617  ASP618  TYR619  PRO620  LYS621  CYS622 
 ASP623  PHE694  ASN695  SER759  ASP760  ASP761  ALA762  ILE779  LEU786  VAL792 
 PHE793  MET794  SER795  GLU796  ALA797  LYS798  CYS799  TRP800  GLU811  SER814 

> <Gold.Protein.RotatedAtoms>
  150.7016  134.1352  159.4084 H   0  0  0  0  0  0  0  0  0  0  0  0  # atno 6907 bound_to 6896
  151.9337  135.0242  160.0540 H   0  0  0  0  0  0  0  0  0  0  0  0  # atno 6908 bound_to 6896
  152.2153  133.4907  159.5169 H   0  0  0  0  0  0  0  0  0  0  0  0  # atno 6909 bound_to 6896
  144.7132  140.0826  143.6425 H   0  0  0  0  0  0  0  0  0  0  0  0  # atno 7974 bound_to 7965
  155.8514  140.0963  157.1672 H   0  0  0  0  0  0  0  0  0  0  0  0  # atno 8008 bound_to 7997
  154.3985  140.1382  156.3910 H   0  0  0  0  0  0  0  0  0  0  0  0  # atno 8009 bound_to 7997
  155.7957  140.3454  155.5377 H   0  0  0  0  0  0  0  0  0  0  0  0  # atno 8010 bound_to 7997
  140.1991  144.4006  150.6537 H   0  0  0  0  0  0  0  0  0  0  0  0  # atno 10167 bound_to 10162
  157.6198  130.9292  150.0171 H   0  0  0  0  0  0  0  0  0  0  0  0  # atno 10718 bound_to 10713
  154.6432  135.2901  155.0078 H   0  0  0  0  0  0  0  0  0  0  0  0  # atno 10763 bound_to 10752
  154.1197  135.6550  153.4904 H   0  0  0  0  0  0  0  0  0  0  0  0  # atno 10764 bound_to 10752
  153.0337  135.5285  154.7308 H   0  0  0  0  0  0  0  0  0  0  0  0  # atno 10765 bound_to 10752
  141.0141  133.6894  156.2258 H   0  0  0  0  0  0  0  0  0  0  0  0  # atno 11005 bound_to 11000
  145.9689  139.2855  143.1111 LP  0  0  0  0  0  0  0  0  0  0  0  0  # atno 17320 bound_to 7965
  145.9138  140.9162  143.0440 LP  0  0  0  0  0  0  0  0  0  0  0  0  # atno 17321 bound_to 7965
  140.6403  143.2202  151.6306 LP  0  0  0  0  0  0  0  0  0  0  0  0  # atno 17342 bound_to 10162
  139.5224  144.3163  152.0949 LP  0  0  0  0  0  0  0  0  0  0  0  0  # atno 17343 bound_to 10162
  156.1337  130.3643  149.9691 LP  0  0  0  0  0  0  0  0  0  0  0  0  # atno 17370 bound_to 10713
  156.7747  130.9199  151.3645 LP  0  0  0  0  0  0  0  0  0  0  0  0  # atno 17371 bound_to 10713
  140.6685  134.4893  157.5586 LP  0  0  0  0  0  0  0  0  0  0  0  0  # atno 17394 bound_to 11000
  139.9106  134.8352  156.1541 LP  0  0  0  0  0  0  0  0  0  0  0  0  # atno 17395 bound_to 11000

$$$$
