AV-unprocessed.smi:3230|AV-procd|sdf|12330|dock5
  -GOLD-   2272018183D 1   1.00000     0.00000
 Structure written by MMmdl.
 40 40  0  0  0  0  0  0  0  0  1 V2000
  142.9316  134.2944  153.2435 C   0  0  0  0  0  0  0  0  0  0  0  0
  143.1149  134.8419  151.8202 C   0  0  0  0  0  0  0  0  0  0  0  0
  144.0889  134.0246  150.9336 C   0  0  0  0  0  0  0  0  0  0  0  0
  143.6665  132.5348  150.8507 C   0  0  0  0  0  0  0  0  0  0  0  0
  144.2773  131.7681  149.6679 C   0  0  0  0  0  0  0  0  0  0  0  0
  145.5716  134.1972  151.3701 C   0  0  1  0  0  0  0  0  0  0  0  0
  145.9245  135.5638  151.2687 O   0  0  0  0  0  0  0  0  0  0  0  0
  145.8493  133.7141  152.8126 C   0  0  0  0  0  0  0  0  0  0  0  0
  147.2182  133.9967  153.2308 N   0  0  0  0  0  0  0  0  0  0  0  0
  147.9054  133.3018  154.1508 C   0  0  0  0  0  0  0  0  0  0  0  0
  147.4431  132.3348  154.7558 O   0  0  0  0  0  0  0  0  0  0  0  0
  149.3316  133.7723  154.4381 C   0  0  0  0  0  0  0  0  0  0  0  0
  149.9577  132.9145  155.5041 C   0  0  0  0  0  0  0  0  0  0  0  0
  150.3038  131.5361  155.4389 C   0  0  0  0  0  0  0  0  0  0  0  0
  150.8282  131.2752  156.6727 C   0  0  0  0  0  0  0  0  0  0  0  0
  151.3890  130.0450  157.2995 C   0  0  0  0  0  0  0  0  0  0  0  0
  150.8063  132.3965  157.4380 O   0  0  0  0  0  0  0  0  0  0  0  0
  150.2485  133.4361  156.6857 N   0  0  0  0  0  0  0  0  0  0  0  0
  142.3418  134.9857  153.8457 H   0  0  0  0  0  0  0  0  0  0  0  0
  143.8916  134.1596  153.7421 H   0  0  0  0  0  0  0  0  0  0  0  0
  142.4081  133.3390  153.2491 H   0  0  0  0  0  0  0  0  0  0  0  0
  142.1424  134.9254  151.3341 H   0  0  0  0  0  0  0  0  0  0  0  0
  143.4814  135.8625  151.9190 H   0  0  0  0  0  0  0  0  0  0  0  0
  144.0123  134.4323  149.9245 H   0  0  0  0  0  0  0  0  0  0  0  0
  143.9694  132.0119  151.7570 H   0  0  0  0  0  0  0  0  0  0  0  0
  142.5794  132.4560  150.8124 H   0  0  0  0  0  0  0  0  0  0  0  0
  144.0179  130.7107  149.7234 H   0  0  0  0  0  0  0  0  0  0  0  0
  145.3651  131.8405  149.6704 H   0  0  0  0  0  0  0  0  0  0  0  0
  143.9162  132.1374  148.7089 H   0  0  0  0  0  0  0  0  0  0  0  0
  146.2091  133.6301  150.6929 H   0  0  0  0  0  0  0  0  0  0  0  0
  146.8611  135.6228  151.1536 H   0  0  0  0  0  0  0  0  0  0  0  0
  145.1288  134.1192  153.5257 H   0  0  0  0  0  0  0  0  0  0  0  0
  145.7436  132.6300  152.8610 H   0  0  0  0  0  0  0  0  0  0  0  0
  147.6802  134.7748  152.7822 H   0  0  0  0  0  0  0  0  0  0  0  0
  149.9174  133.7464  153.5180 H   0  0  0  0  0  0  0  0  0  0  0  0
  149.3085  134.8143  154.7589 H   0  0  0  0  0  0  0  0  0  0  0  0
  150.1866  130.8485  154.6146 H   0  0  0  0  0  0  0  0  0  0  0  0
  151.4785  129.2413  156.5685 H   0  0  0  0  0  0  0  0  0  0  0  0
  150.7463  129.6965  158.1079 H   0  0  0  0  0  0  0  0  0  0  0  0
  152.3794  130.2380  157.7124 H   0  0  0  0  0  0  0  0  0  0  0  0
  1  2  1  0  0  0  0
  1 19  1  0  0  0  0
  1 20  1  0  0  0  0
  1 21  1  0  0  0  0
  2  3  1  0  0  0  0
  2 22  1  0  0  0  0
  2 23  1  0  0  0  0
  3  4  1  0  0  0  0
  3  6  1  0  0  0  0
  3 24  1  0  0  0  0
  4  5  1  0  0  0  0
  4 25  1  0  0  0  0
  4 26  1  0  0  0  0
  5 27  1  0  0  0  0
  5 28  1  0  0  0  0
  5 29  1  0  0  0  0
  6  7  1  0  0  0  0
  6  8  1  0  0  0  0
  6 30  1  0  0  0  0
  7 31  1  0  0  0  0
  8  9  1  0  0  0  0
  8 32  1  0  0  0  0
  8 33  1  0  0  0  0
  9 10  1  0  0  0  0
  9 34  1  0  0  0  0
 10 11  2  0  0  0  0
 10 12  1  0  0  0  0
 12 13  1  0  0  0  0
 12 35  1  0  0  0  0
 12 36  1  0  0  0  0
 13 18  2  0  0  0  0
 13 14  1  0  0  0  0
 14 15  2  0  0  0  0
 14 37  1  0  0  0  0
 15 16  1  0  0  0  0
 15 17  1  0  0  0  0
 16 38  1  0  0  0  0
 16 39  1  0  0  0  0
 16 40  1  0  0  0  0
 17 18  1  0  0  0  0
M  END
> <s_m_source_file>
AV-unprocessed.smi

> <i_m_source_file_index>
3230

> <i_lp_mmshare_version>
43012

> <i_f3d_flags>
0

> <s_epik_input>
W0NIM11bQ0gyXVtDSF0oW0NIMl1bQ0gzXSlbQ0BIXShbT0hdKVtDSDJdW05IXUMoPU8pW0NIMl1jMVtjSF1jKFtDSDNdKW9uMQ==

> <s_epik_cmdline>
J2VwaWtfcHl0aG9uJywgJy1waCcsICc3LjAnLCAnLXRuJywgJzgnLCAnLW1hJywgJzIwMCcsICctbWV0YWxfYmluZGluZycsICctaW1hZScsICc8aW5maWxlLm1hZT4nLCAnLW9tYWUnLCAnPG91dGZpbGUubWFlPic=

> <r_lp_tautomer_probability>
1

> <r_epik_Ionization_Penalty>
2.40054e-07

> <r_epik_Ionization_Penalty_Charging>
0

> <r_epik_Ionization_Penalty_Neutral>
2.40054e-07

> <r_epik_State_Penalty>
-0

> <r_epik_Charging_Adjusted_Penalty>
0

> <i_epik_Tot_Q>
0

> <i_epik_Tot_abs_Q>
0

> <r_epik_Metal_State_Penalty>
-0

> <b_epik_Metal_Only>
0

> <s_lp_Force_Field>
OPLS_2005

> <r_lp_Energy>
9.12341

> <b_lp_Chiralities_Consistent>
1

> <s_lp_Variant>
AV-unprocessed.smi:3230-2

> <Gold.Version>
5.8.1

> <Gold.Id.Protein>
6NUR|6NUR_protein|mol2

> <Gold.PLP.Fitness>
38.7399

> <Gold.PLP.PLP>
-30.2948

> <Gold.PLP.part.hbond>
-3.0000

> <Gold.PLP.part.metal>
0.0000

> <Gold.PLP.part.buried>
-5.2420

> <Gold.PLP.part.nonpolar>
-22.0286

> <Gold.PLP.part.repulsive>
0.0189

> <Gold.PLP.ligand.clash>
0.0000

> <Gold.PLP.ligand.torsion>
0.4185

> <Gold.PLP.Chemscore.Hbond>
3.0000

> <Gold.PLP.Chemscore.CHOScore>
0.0000

> <Gold.PLP.Chemscore.Metal>
0.0000

> <Gold.Chemscore.Hbonds>
donor molecule, donor type, donor heavy atom, donor atom, acceptor molecule, acceptor atom, score
      L1  H     7    31       P1  7948  0.47
      L1  H     9    34       P1  7948  0.80
      P1  H  6896  6908       L1    17  0.86

> <Gold.PLP.Chemscore.Internal.Correction>
0.2821

> <Gold.Rescore>
     Score         DG    S(hbond)    S(metal)    S(lipo)     H(rot)  DE(clash)    DE(int)     intcor
     15.63     -16.42       2.87        0.00      67.80       2.57       0.01       0.78       ----

> <Gold.Chemscore.Fitness>
15.6295

> <Gold.Chemscore.DG>
-16.4206

> <Gold.Chemscore.ZeroCoef>
-5.4800

> <Gold.Chemscore.Hbond>
2.8714

> <Gold.Chemscore.Metal>
0.0000

> <Gold.Chemscore.Lipo>
67.8044

> <Gold.Chemscore.Internal_Hbond>
0.0000

> <Gold.Chemscore.DEClash>
0.0126

> <Gold.Chemscore.DEInternal>
0.7785

> <Gold.Chemscore.Rot>
2.5715

> <Gold.Chemscore.Internal.Correction>
   9.000000E+99

> <Gold.Chemscore.Hbonds>
donor molecule, donor type, donor heavy atom, donor atom, acceptor molecule, acceptor atom, score
      L1  H     7    31       P1  7948  0.45
      L1  H     9    34       P1  7948  0.74
      P1  H  6896  6908       L1    17  0.33

> <Gold.Chemscore.Hbond.Weighted>
-9.5905

> <Gold.Chemscore.Metal.Weighted>
-0.0000

> <Gold.Chemscore.Lipo.Weighted>
-7.9331

> <Gold.Chemscore.Internal_Hbond.Weighted>
0.0000

> <Gold.Chemscore.DEClash.Weighted>
0.0126

> <Gold.Chemscore.DEInternal.Weighted>
0.7785

> <Gold.Chemscore.Rot.Weighted>
6.5831

> <Gold.Chemscore.Internal.Correction.Weighted>
   9.000000E+99

> <Gold.Protein.RotatedTorsions>
[ 6907 6896 6895 6894 ] final   78.48 input  -60.11 | X-H torsion
[ 7974 7965 7964 7962 ] final  -62.62 input  175.53 | X-H torsion
[ 8008 7997 7996 7995 ] final -127.30 input   59.86 | X-H torsion
[ 10167 10162 10161 10158 ] final -159.21 input  -65.29 | X-H torsion
[ 10718 10713 10712 10709 ] final -104.86 input   66.30 | X-H torsion
[ 10763 10752 10751 10750 ] final  -30.24 input  -60.55 | X-H torsion
[ 11005 11000 10999 10996 ] final  -78.60 input  -57.11 | X-H torsion

> <Gold.Protein.ActiveResidues>
 VAL166  LYS551  ARG553  GLY616  TRP617  ASP618  TYR619  PRO620  LYS621  CYS622 
 ASP623  PHE694  ASN695  SER759  ASP760  ASP761  ALA762  ILE779  LEU786  VAL792 
 PHE793  MET794  SER795  GLU796  ALA797  LYS798  CYS799  TRP800  GLU811  SER814 

> <Gold.Protein.RotatedAtoms>
  152.5161  134.3658  159.9300 H   0  0  0  0  0  0  0  0  0  0  0  0  # atno 6907 bound_to 6896
  151.3611  133.3883  159.2697 H   0  0  0  0  0  0  0  0  0  0  0  0  # atno 6908 bound_to 6896
  150.9651  134.9052  159.7812 H   0  0  0  0  0  0  0  0  0  0  0  0  # atno 6909 bound_to 6896
  145.7891  140.8719  143.0290 H   0  0  0  0  0  0  0  0  0  0  0  0  # atno 7974 bound_to 7965
  155.2439  140.0429  157.2978 H   0  0  0  0  0  0  0  0  0  0  0  0  # atno 8008 bound_to 7997
  154.5811  140.2401  155.8022 H   0  0  0  0  0  0  0  0  0  0  0  0  # atno 8009 bound_to 7997
  156.2194  140.2975  155.9923 H   0  0  0  0  0  0  0  0  0  0  0  0  # atno 8010 bound_to 7997
  139.6633  143.9874  152.2239 H   0  0  0  0  0  0  0  0  0  0  0  0  # atno 10167 bound_to 10162
  156.0322  130.5536  150.7457 H   0  0  0  0  0  0  0  0  0  0  0  0  # atno 10718 bound_to 10713
  153.7778  135.6907  153.4894 H   0  0  0  0  0  0  0  0  0  0  0  0  # atno 10763 bound_to 10752
  153.1831  135.4499  155.0053 H   0  0  0  0  0  0  0  0  0  0  0  0  # atno 10764 bound_to 10752
  154.8093  135.3370  154.7283 H   0  0  0  0  0  0  0  0  0  0  0  0  # atno 10765 bound_to 10752
  141.1665  133.7070  156.7995 H   0  0  0  0  0  0  0  0  0  0  0  0  # atno 11005 bound_to 11000
  144.6784  140.0098  143.7484 LP  0  0  0  0  0  0  0  0  0  0  0  0  # atno 17320 bound_to 7965
  145.9995  139.3079  143.0936 LP  0  0  0  0  0  0  0  0  0  0  0  0  # atno 17321 bound_to 7965
  139.9619  144.6552  150.8071 LP  0  0  0  0  0  0  0  0  0  0  0  0  # atno 17342 bound_to 10162
  140.7589  143.3117  151.2830 LP  0  0  0  0  0  0  0  0  0  0  0  0  # atno 17343 bound_to 10162
  157.5014  131.0919  151.0309 LP  0  0  0  0  0  0  0  0  0  0  0  0  # atno 17370 bound_to 10713
  157.0689  130.5856  149.5399 LP  0  0  0  0  0  0  0  0  0  0  0  0  # atno 17371 bound_to 10713
  140.2266  134.8717  157.3433 LP  0  0  0  0  0  0  0  0  0  0  0  0  # atno 17394 bound_to 11000
  140.1933  134.4344  155.7703 LP  0  0  0  0  0  0  0  0  0  0  0  0  # atno 17395 bound_to 11000

$$$$
