AV-unprocessed.smi:1865|AV-procd|sdf|7554|dock7
  -GOLD-   22720 9273D 1   1.00000     0.00000
 Structure written by MMmdl.
 40 41  0  0  0  0  0  0  0  0  1 V2000
  155.2887  139.0848  158.9630 O   0  0  0  0  0  0  0  0  0  0  0  0
  154.3853  139.6343  159.5941 C   0  0  0  0  0  0  0  0  0  0  0  0
  154.4292  141.1418  159.8628 C   0  0  0  0  0  0  0  0  0  0  0  0
  153.2494  141.9011  159.2263 C   0  0  0  0  0  0  0  0  0  0  0  0
  153.0557  143.3120  159.8100 C   0  0  0  0  0  0  0  0  0  0  0  0
  152.3845  143.3165  161.1848 C   0  0  0  0  0  0  0  0  0  0  0  0
  151.8848  144.7518  161.3646 C   0  0  0  0  0  0  0  0  0  0  0  0
  151.6254  145.2898  159.9497 C   0  0  0  0  0  0  0  0  0  0  0  0
  152.1470  144.2236  158.9770 C   0  0  0  0  0  0  0  0  0  0  0  0
  153.3274  138.9733  160.0886 N   0  0  0  0  0  0  0  0  0  0  0  0
  153.1015  137.5383  159.9627 C   0  0  0  0  0  0  0  0  0  0  0  0
  154.2934  136.7254  160.4942 C   0  0  0  0  0  0  0  0  0  0  0  0
  154.5251  136.9579  161.9742 C   0  0  0  0  0  0  0  0  0  0  0  0
  154.2232  135.9581  162.9214 C   0  0  0  0  0  0  0  0  0  0  0  0
  154.4511  136.2250  164.2851 C   0  0  0  0  0  0  0  0  0  0  0  0
  154.9720  137.4842  164.6441 C   0  0  0  0  0  0  0  0  0  0  0  0
  155.2638  138.4495  163.7457 N   0  0  0  0  0  0  0  0  0  0  0  0
  155.0426  138.1853  162.4400 C   0  0  0  0  0  0  0  0  0  0  0  0
  154.4361  141.3166  160.9399 H   0  0  0  0  0  0  0  0  0  0  0  0
  155.3744  141.5253  159.4775 H   0  0  0  0  0  0  0  0  0  0  0  0
  153.3878  141.9716  158.1463 H   0  0  0  0  0  0  0  0  0  0  0  0
  152.3329  141.3287  159.3786 H   0  0  0  0  0  0  0  0  0  0  0  0
  154.0298  143.7939  159.9112 H   0  0  0  0  0  0  0  0  0  0  0  0
  151.5350  142.6318  161.1875 H   0  0  0  0  0  0  0  0  0  0  0  0
  153.0607  143.0083  161.9827 H   0  0  0  0  0  0  0  0  0  0  0  0
  150.9958  144.7973  161.9944 H   0  0  0  0  0  0  0  0  0  0  0  0
  152.6578  145.3522  161.8461 H   0  0  0  0  0  0  0  0  0  0  0  0
  150.5647  145.4797  159.7819 H   0  0  0  0  0  0  0  0  0  0  0  0
  152.1516  146.2341  159.8057 H   0  0  0  0  0  0  0  0  0  0  0  0
  152.6670  144.6628  158.1252 H   0  0  0  0  0  0  0  0  0  0  0  0
  151.3048  143.6509  158.5859 H   0  0  0  0  0  0  0  0  0  0  0  0
  152.6323  139.5019  160.5958 H   0  0  0  0  0  0  0  0  0  0  0  0
  152.1833  137.2583  160.4826 H   0  0  0  0  0  0  0  0  0  0  0  0
  152.9411  137.3144  158.9076 H   0  0  0  0  0  0  0  0  0  0  0  0
  154.1283  135.6610  160.3212 H   0  0  0  0  0  0  0  0  0  0  0  0
  155.2037  136.9876  159.9530 H   0  0  0  0  0  0  0  0  0  0  0  0
  153.8227  135.0042  162.6108 H   0  0  0  0  0  0  0  0  0  0  0  0
  154.2318  135.4829  165.0385 H   0  0  0  0  0  0  0  0  0  0  0  0
  155.1588  137.7227  165.6807 H   0  0  0  0  0  0  0  0  0  0  0  0
  155.2839  138.9778  161.7469 H   0  0  0  0  0  0  0  0  0  0  0  0
  1  2  2  0  0  0  0
  2  3  1  0  0  0  0
  2 10  1  0  0  0  0
  3  4  1  0  0  0  0
  3 19  1  0  0  0  0
  3 20  1  0  0  0  0
  4  5  1  0  0  0  0
  4 21  1  0  0  0  0
  4 22  1  0  0  0  0
  5  9  1  0  0  0  0
  5  6  1  0  0  0  0
  5 23  1  0  0  0  0
  6  7  1  0  0  0  0
  6 24  1  0  0  0  0
  6 25  1  0  0  0  0
  7  8  1  0  0  0  0
  7 26  1  0  0  0  0
  7 27  1  0  0  0  0
  8  9  1  0  0  0  0
  8 28  1  0  0  0  0
  8 29  1  0  0  0  0
  9 30  1  0  0  0  0
  9 31  1  0  0  0  0
 10 11  1  0  0  0  0
 10 32  1  0  0  0  0
 11 12  1  0  0  0  0
 11 33  1  0  0  0  0
 11 34  1  0  0  0  0
 12 13  1  0  0  0  0
 12 35  1  0  0  0  0
 12 36  1  0  0  0  0
 13 18  1  0  0  0  0
 13 14  2  0  0  0  0
 14 15  1  0  0  0  0
 14 37  1  0  0  0  0
 15 16  2  0  0  0  0
 15 38  1  0  0  0  0
 16 17  1  0  0  0  0
 16 39  1  0  0  0  0
 17 18  2  0  0  0  0
 18 40  1  0  0  0  0
M  END
> <s_m_source_file>
AV-unprocessed.smi

> <i_m_source_file_index>
1865

> <i_lp_mmshare_version>
43012

> <i_f3d_flags>
0

> <s_epik_input>
W0NIMl0xW0NIMl1bQ0gyXVtDSDJdW0NIXTFbQ0gyXVtDSDJdQyg9TylbTkhdW0NIMl1bQ0gyXWMyW2NIXVtjSF1bY0hdbltjSF0y

> <s_epik_cmdline>
J2VwaWtfcHl0aG9uJywgJy1waCcsICc3LjAnLCAnLXRuJywgJzgnLCAnLW1hJywgJzIwMCcsICctbWV0YWxfYmluZGluZycsICctaW1hZScsICc8aW5maWxlLm1hZT4nLCAnLW9tYWUnLCAnPG91dGZpbGUubWFlPic=

> <r_epik_Ionization_Penalty>
0.0133844

> <r_epik_Ionization_Penalty_Charging>
0

> <r_epik_Ionization_Penalty_Neutral>
0.0133844

> <r_epik_State_Penalty>
0.0104136

> <r_epik_Charging_Adjusted_Penalty>
0.0104136

> <i_epik_Tot_Q>
0

> <i_epik_Tot_abs_Q>
0

> <r_epik_Metal_State_Penalty>
0.0101831

> <b_epik_Metal_Only>
0

> <s_lp_Force_Field>
OPLS_2005

> <r_lp_Energy>
19.5978

> <b_lp_Chiralities_Consistent>
1

> <s_lp_Variant>
AV-unprocessed.smi:1865-1

> <Gold.Version>
5.8.1

> <Gold.Id.Protein>
6NUR|6NUR_protein|mol2

> <Gold.PLP.Fitness>
45.4086

> <Gold.PLP.PLP>
-43.0391

> <Gold.PLP.part.hbond>
-1.0000

> <Gold.PLP.part.metal>
0.0000

> <Gold.PLP.part.buried>
-2.6302

> <Gold.PLP.part.nonpolar>
-39.5373

> <Gold.PLP.part.repulsive>
0.0717

> <Gold.PLP.ligand.clash>
0.0000

> <Gold.PLP.ligand.torsion>
0.3344

> <Gold.PLP.Chemscore.Hbond>
1.0000

> <Gold.PLP.Chemscore.CHOScore>
0.0000

> <Gold.PLP.Chemscore.Metal>
0.0000

> <Gold.Chemscore.Hbonds>
donor molecule, donor type, donor heavy atom, donor atom, acceptor molecule, acceptor atom, score
      P1  H  7997  8009       L1     1  1.00

> <Gold.PLP.Chemscore.Internal.Correction>
0.0383

> <Gold.Rescore>
     Score         DG    S(hbond)    S(metal)    S(lipo)     H(rot)  DE(clash)    DE(int)     intcor
     19.06     -19.58       0.83        0.00     131.10       1.56       0.06       0.47       ----

> <Gold.Chemscore.Fitness>
19.0580

> <Gold.Chemscore.DG>
-19.5842

> <Gold.Chemscore.ZeroCoef>
-5.4800

> <Gold.Chemscore.Hbond>
0.8273

> <Gold.Chemscore.Metal>
0.0000

> <Gold.Chemscore.Lipo>
131.0953

> <Gold.Chemscore.Internal_Hbond>
0.0000

> <Gold.Chemscore.DEClash>
0.0577

> <Gold.Chemscore.DEInternal>
0.4685

> <Gold.Chemscore.Rot>
1.5614

> <Gold.Chemscore.Internal.Correction>
   9.000000E+99

> <Gold.Chemscore.Hbonds>
donor molecule, donor type, donor heavy atom, donor atom, acceptor molecule, acceptor atom, score
      P1  H  7997  8009       L1     1  0.40

> <Gold.Chemscore.Hbond.Weighted>
-2.7632

> <Gold.Chemscore.Metal.Weighted>
-0.0000

> <Gold.Chemscore.Lipo.Weighted>
-15.3381

> <Gold.Chemscore.Internal_Hbond.Weighted>
0.0000

> <Gold.Chemscore.DEClash.Weighted>
0.0577

> <Gold.Chemscore.DEInternal.Weighted>
0.4685

> <Gold.Chemscore.Rot.Weighted>
3.9971

> <Gold.Chemscore.Internal.Correction.Weighted>
   9.000000E+99

> <Gold.Protein.RotatedTorsions>
[ 6907 6896 6895 6894 ] final -112.69 input  -60.11 | X-H torsion
[ 7974 7965 7964 7962 ] final -162.07 input  175.53 | X-H torsion
[ 8008 7997 7996 7995 ] final  109.02 input   59.86 | X-H torsion
[ 10167 10162 10161 10158 ] final -104.73 input  -65.29 | X-H torsion
[ 10718 10713 10712 10709 ] final   11.32 input   66.30 | X-H torsion
[ 10763 10752 10751 10750 ] final  -91.97 input  -60.55 | X-H torsion
[ 11005 11000 10999 10996 ] final -155.52 input  -57.11 | X-H torsion

> <Gold.Protein.ActiveResidues>
 VAL166  LYS551  ARG553  GLY616  TRP617  ASP618  TYR619  PRO620  LYS621  CYS622 
 ASP623  PHE694  ASN695  SER759  ASP760  ASP761  ALA762  ILE779  LEU786  VAL792 
 PHE793  MET794  SER795  GLU796  ALA797  LYS798  CYS799  TRP800  GLU811  SER814 

> <Gold.Protein.RotatedAtoms>
  150.7776  133.9053  159.3353 H   0  0  0  0  0  0  0  0  0  0  0  0  # atno 6907 bound_to 6896
  151.6924  135.0942  160.0245 H   0  0  0  0  0  0  0  0  0  0  0  0  # atno 6908 bound_to 6896
  152.3817  133.6517  159.6202 H   0  0  0  0  0  0  0  0  0  0  0  0  # atno 6909 bound_to 6896
  144.7369  140.3306  143.6154 H   0  0  0  0  0  0  0  0  0  0  0  0  # atno 7974 bound_to 7965
  156.1948  140.3065  155.9404 H   0  0  0  0  0  0  0  0  0  0  0  0  # atno 8008 bound_to 7997
  155.3092  140.0450  157.3051 H   0  0  0  0  0  0  0  0  0  0  0  0  # atno 8009 bound_to 7997
  154.5496  140.2287  155.8516 H   0  0  0  0  0  0  0  0  0  0  0  0  # atno 8010 bound_to 7997
  140.2061  143.3781  152.1089 H   0  0  0  0  0  0  0  0  0  0  0  0  # atno 10167 bound_to 10162
  156.9938  130.6053  149.5689 H   0  0  0  0  0  0  0  0  0  0  0  0  # atno 10718 bound_to 10713
  154.6814  135.5248  153.8268 H   0  0  0  0  0  0  0  0  0  0  0  0  # atno 10763 bound_to 10752
  153.0567  135.6553  154.0569 H   0  0  0  0  0  0  0  0  0  0  0  0  # atno 10764 bound_to 10752
  154.0456  135.2973  155.3328 H   0  0  0  0  0  0  0  0  0  0  0  0  # atno 10765 bound_to 10752
  140.6856  134.4097  157.5223 H   0  0  0  0  0  0  0  0  0  0  0  0  # atno 11005 bound_to 11000
  145.7476  139.1783  143.2340 LP  0  0  0  0  0  0  0  0  0  0  0  0  # atno 17320 bound_to 7965
  146.1086  140.7456  142.9514 LP  0  0  0  0  0  0  0  0  0  0  0  0  # atno 17321 bound_to 7965
  139.5198  144.7024  151.5454 LP  0  0  0  0  0  0  0  0  0  0  0  0  # atno 17342 bound_to 10162
  140.6356  143.8991  150.6644 LP  0  0  0  0  0  0  0  0  0  0  0  0  # atno 17343 bound_to 10162
  156.0197  130.5291  150.8239 LP  0  0  0  0  0  0  0  0  0  0  0  0  # atno 17370 bound_to 10713
  157.5439  131.0942  150.9789 LP  0  0  0  0  0  0  0  0  0  0  0  0  # atno 17371 bound_to 10713
  139.8939  134.8720  156.2204 LP  0  0  0  0  0  0  0  0  0  0  0  0  # atno 17394 bound_to 11000
  141.0283  133.7003  156.1386 LP  0  0  0  0  0  0  0  0  0  0  0  0  # atno 17395 bound_to 11000

$$$$
