AV-unprocessed.smi:284|AV-procd|sdf|2162|dock1
  -GOLD-   2262021513D 1   1.00000     0.00000
 Structure written by MMmdl.
 60 62  0  0  0  0  0  0  0  0  1 V2000
  148.8897  134.6106  155.9796 C   0  0  0  0  0  0  0  0  0  0  0  0
  149.2319  135.9912  155.4406 C   0  0  0  0  0  0  0  0  0  0  0  0
  148.2831  136.8404  154.9832 C   0  0  0  0  0  0  0  0  0  0  0  0
  148.5537  138.1072  154.4898 N   0  0  0  0  0  0  0  0  0  0  0  0
  147.4644  139.0839  154.0645 C   0  0  1  0  0  0  0  0  0  0  0  0
  147.5418  139.5466  152.6020 C   0  0  0  0  0  0  0  0  0  0  0  0
  146.4600  138.7164  151.9108 C   0  0  1  0  0  0  0  0  0  0  0  0
  146.9906  138.0106  150.8072 O   0  0  0  0  0  0  0  0  0  0  0  0
  145.9420  137.7614  153.0014 C   0  0  2  0  0  0  0  0  0  0  0  0
  144.4372  137.4617  152.9315 C   0  0  0  0  0  0  0  0  0  0  0  0
  143.7233  138.3237  153.7922 O   0  0  0  0  0  0  0  0  0  0  0  0
  146.2325  138.4540  154.2084 O   0  0  0  0  0  0  0  0  0  0  0  0
  149.8791  138.5904  154.5412 C   0  0  0  0  0  0  0  0  0  0  0  0
  150.1442  139.7455  154.1989 O   0  0  0  0  0  0  0  0  0  0  0  0
  150.8974  137.7227  154.9961 N   0  0  0  0  0  0  0  0  0  0  0  0
  152.2858  138.2333  155.0413 C   0  0  0  0  0  0  0  0  0  0  0  0
  152.5536  139.1473  156.2475 C   0  0  0  0  0  0  0  0  0  0  0  0
  153.4734  138.8928  157.0255 O   0  0  0  0  0  0  0  0  0  0  0  0
  151.7522  140.2244  156.3394 N   0  0  0  0  0  0  0  0  0  0  0  0
  151.7174  141.2297  157.3439 C   0  0  0  0  0  0  0  0  0  0  0  0
  152.4593  141.1684  158.5462 C   0  0  0  0  0  0  0  0  0  0  0  0
  152.3521  142.1953  159.5040 C   0  0  0  0  0  0  0  0  0  0  0  0
  151.4960  143.3038  159.2917 C   0  0  0  0  0  0  0  0  0  0  0  0
  151.3492  144.4424  160.3193 C   0  0  0  0  0  0  0  0  0  0  0  0
  149.8627  144.6184  160.6951 C   0  0  0  0  0  0  0  0  0  0  0  0
  151.8598  145.8022  159.7910 C   0  0  0  0  0  0  0  0  0  0  0  0
  152.1575  144.0976  161.5871 C   0  0  0  0  0  0  0  0  0  0  0  0
  150.7467  143.3455  158.0926 C   0  0  0  0  0  0  0  0  0  0  0  0
  150.8529  142.3209  157.1336 C   0  0  0  0  0  0  0  0  0  0  0  0
  150.6348  136.4083  155.4511 C   0  0  0  0  0  0  0  0  0  0  0  0
  151.5508  135.6833  155.8441 O   0  0  0  0  0  0  0  0  0  0  0  0
  147.8230  134.3969  155.9060 H   0  0  0  0  0  0  0  0  0  0  0  0
  149.1736  134.5320  157.0296 H   0  0  0  0  0  0  0  0  0  0  0  0
  149.4217  133.8392  155.4214 H   0  0  0  0  0  0  0  0  0  0  0  0
  147.2633  136.4961  155.0319 H   0  0  0  0  0  0  0  0  0  0  0  0
  147.5545  139.9331  154.7436 H   0  0  0  0  0  0  0  0  0  0  0  0
  147.2688  140.6016  152.5642 H   0  0  0  0  0  0  0  0  0  0  0  0
  148.5461  139.4613  152.1874 H   0  0  0  0  0  0  0  0  0  0  0  0
  145.6627  139.3762  151.5661 H   0  0  0  0  0  0  0  0  0  0  0  0
  147.4359  137.2409  151.1272 H   0  0  0  0  0  0  0  0  0  0  0  0
  146.5079  136.8281  153.0055 H   0  0  0  0  0  0  0  0  0  0  0  0
  144.0719  137.6151  151.9159 H   0  0  0  0  0  0  0  0  0  0  0  0
  144.2305  136.4236  153.1941 H   0  0  0  0  0  0  0  0  0  0  0  0
  143.4199  139.0654  153.2912 H   0  0  0  0  0  0  0  0  0  0  0  0
  153.0144  137.4218  155.0630 H   0  0  0  0  0  0  0  0  0  0  0  0
  152.5209  138.7713  154.1209 H   0  0  0  0  0  0  0  0  0  0  0  0
  151.1094  140.3599  155.5726 H   0  0  0  0  0  0  0  0  0  0  0  0
  153.1078  140.3351  158.7675 H   0  0  0  0  0  0  0  0  0  0  0  0
  152.9403  142.0988  160.4030 H   0  0  0  0  0  0  0  0  0  0  0  0
  149.7275  145.4373  161.4025 H   0  0  0  0  0  0  0  0  0  0  0  0
  149.4461  143.7254  161.1610 H   0  0  0  0  0  0  0  0  0  0  0  0
  149.2579  144.8426  159.8156 H   0  0  0  0  0  0  0  0  0  0  0  0
  151.3166  146.1177  158.8994 H   0  0  0  0  0  0  0  0  0  0  0  0
  152.9223  145.7683  159.5472 H   0  0  0  0  0  0  0  0  0  0  0  0
  151.7318  146.5883  160.5362 H   0  0  0  0  0  0  0  0  0  0  0  0
  152.0848  144.8909  162.3320 H   0  0  0  0  0  0  0  0  0  0  0  0
  153.2145  143.9620  161.3554 H   0  0  0  0  0  0  0  0  0  0  0  0
  151.8056  143.1809  162.0609 H   0  0  0  0  0  0  0  0  0  0  0  0
  150.0754  144.1678  157.8965 H   0  0  0  0  0  0  0  0  0  0  0  0
  150.2657  142.3798  156.2287 H   0  0  0  0  0  0  0  0  0  0  0  0
  1  2  1  0  0  0  0
  1 32  1  0  0  0  0
  1 33  1  0  0  0  0
  1 34  1  0  0  0  0
  2 30  1  0  0  0  0
  2  3  2  0  0  0  0
  3  4  1  0  0  0  0
  3 35  1  0  0  0  0
  4  5  1  0  0  0  0
  4 13  1  0  0  0  0
  5 12  1  0  0  0  0
  5  6  1  0  0  0  0
  5 36  1  0  0  0  0
  6  7  1  0  0  0  0
  6 37  1  0  0  0  0
  6 38  1  0  0  0  0
  7  8  1  0  0  0  0
  7  9  1  0  0  0  0
  7 39  1  0  0  0  0
  8 40  1  0  0  0  0
  9 10  1  0  0  0  0
  9 12  1  0  0  0  0
  9 41  1  0  0  0  0
 10 11  1  0  0  0  0
 10 42  1  0  0  0  0
 10 43  1  0  0  0  0
 11 44  1  0  0  0  0
 13 14  2  0  0  0  0
 13 15  1  0  0  0  0
 15 16  1  0  0  0  0
 15 30  1  0  0  0  0
 16 17  1  0  0  0  0
 16 45  1  0  0  0  0
 16 46  1  0  0  0  0
 17 18  2  0  0  0  0
 17 19  1  0  0  0  0
 19 20  1  0  0  0  0
 19 47  1  0  0  0  0
 20 29  1  0  0  0  0
 20 21  2  0  0  0  0
 21 22  1  0  0  0  0
 21 48  1  0  0  0  0
 22 23  2  0  0  0  0
 22 49  1  0  0  0  0
 23 24  1  0  0  0  0
 23 28  1  0  0  0  0
 24 25  1  0  0  0  0
 24 26  1  0  0  0  0
 24 27  1  0  0  0  0
 25 50  1  0  0  0  0
 25 51  1  0  0  0  0
 25 52  1  0  0  0  0
 26 53  1  0  0  0  0
 26 54  1  0  0  0  0
 26 55  1  0  0  0  0
 27 56  1  0  0  0  0
 27 57  1  0  0  0  0
 27 58  1  0  0  0  0
 28 29  2  0  0  0  0
 28 59  1  0  0  0  0
 29 60  1  0  0  0  0
 30 31  2  0  0  0  0
M  END
> <s_m_source_file>
AV-unprocessed.smi

> <i_m_source_file_index>
284

> <i_lp_mmshare_version>
43012

> <i_f3d_flags>
0

> <s_epik_input>
W09IXVtDSDJdW0NAQEhdKE8xKVtDQEhdKFtPSF0pW0NIMl1bQ0BIXTFuKFtjSF1jMltDSDNdKWMoPU8pbihjMj1PKVtDSDJdQyg9TylbTkhdYzNbY0hdW2NIXWMoQyhbQ0gzXSkoW0NIM10pW0NIM10pW2NIXVtjSF0z

> <s_epik_cmdline>
J2VwaWtfcHl0aG9uJywgJy1waCcsICc3LjAnLCAnLXRuJywgJzgnLCAnLW1hJywgJzIwMCcsICctbWV0YWxfYmluZGluZycsICctaW1hZScsICc8aW5maWxlLm1hZT4nLCAnLW9tYWUnLCAnPG91dGZpbGUubWFlPic=

> <r_lp_tautomer_probability>
1

> <r_epik_Ionization_Penalty>
4.92358e-06

> <r_epik_Ionization_Penalty_Charging>
1.29777e-07

> <r_epik_Ionization_Penalty_Neutral>
4.79381e-06

> <r_epik_State_Penalty>
-0

> <r_epik_Charging_Adjusted_Penalty>
1.29777e-07

> <i_epik_Tot_Q>
0

> <i_epik_Tot_abs_Q>
0

> <r_epik_Metal_State_Penalty>
-0

> <b_epik_Metal_Only>
0

> <s_epik_Chemistry_Notes>
This compound contains an acetal/aminal-like group ( X-CH(R)-Y where X, Y are N, S, or O) that may be acid/base labile, releasing an aldehyde.

> <s_lp_Force_Field>
OPLS_2005

> <r_lp_Energy>
37.3947

> <b_lp_Chiralities_Consistent>
1

> <s_lp_Variant>
AV-unprocessed.smi:284-6

> <Gold.Version>
5.8.1

> <Gold.Id.Protein>
6NUR|6NUR_protein|mol2

> <Gold.PLP.Fitness>
66.4819

> <Gold.PLP.PLP>
-53.1479

> <Gold.PLP.part.hbond>
-5.7088

> <Gold.PLP.part.metal>
0.0000

> <Gold.PLP.part.buried>
-1.0456

> <Gold.PLP.part.nonpolar>
-47.6279

> <Gold.PLP.part.repulsive>
0.6349

> <Gold.PLP.ligand.clash>
0.0000

> <Gold.PLP.ligand.torsion>
0.9252

> <Gold.PLP.Chemscore.Hbond>
4.9913

> <Gold.PLP.Chemscore.CHOScore>
0.0000

> <Gold.PLP.Chemscore.Metal>
0.0000

> <Gold.Chemscore.Hbonds>
donor molecule, donor type, donor heavy atom, donor atom, acceptor molecule, acceptor atom, score
      L1  H     8    40       P1  7948  1.00
      L1  H    11    44       P1 10175  1.00
      P1  H  7989  7998       L1    14  1.00
      P1  H  7997  8009       L1    18  0.98
      P1  H 10752 10764       L1    31  1.00

> <Gold.PLP.Chemscore.Internal.Correction>
0.2107

> <Gold.Rescore>
     Score         DG    S(hbond)    S(metal)    S(lipo)     H(rot)  DE(clash)    DE(int)     intcor
     22.68     -27.78       4.44        0.00     135.43       3.27       1.97       3.13       ----

> <Gold.Chemscore.Fitness>
22.6805

> <Gold.Chemscore.DG>
-27.7774

> <Gold.Chemscore.ZeroCoef>
-5.4800

> <Gold.Chemscore.Hbond>
4.4407

> <Gold.Chemscore.Metal>
0.0000

> <Gold.Chemscore.Lipo>
135.4311

> <Gold.Chemscore.Internal_Hbond>
0.0000

> <Gold.Chemscore.DEClash>
1.9658

> <Gold.Chemscore.DEInternal>
3.1310

> <Gold.Chemscore.Rot>
3.2735

> <Gold.Chemscore.Internal.Correction>
   9.000000E+99

> <Gold.Chemscore.Hbonds>
donor molecule, donor type, donor heavy atom, donor atom, acceptor molecule, acceptor atom, score
      L1  H     8    40       P1  7948  0.98
      L1  H    11    44       P1 10175  0.97
      P1  H  7989  7998       L1    14  0.95
      P1  H  7997  8009       L1    18  0.27
      P1  H 10752 10764       L1    31  0.99

> <Gold.Chemscore.Hbond.Weighted>
-14.8320

> <Gold.Chemscore.Metal.Weighted>
-0.0000

> <Gold.Chemscore.Lipo.Weighted>
-15.8454

> <Gold.Chemscore.Internal_Hbond.Weighted>
0.0000

> <Gold.Chemscore.DEClash.Weighted>
1.9658

> <Gold.Chemscore.DEInternal.Weighted>
3.1310

> <Gold.Chemscore.Rot.Weighted>
8.3801

> <Gold.Chemscore.Internal.Correction.Weighted>
   9.000000E+99

> <Gold.Protein.RotatedTorsions>
[ 6907 6896 6895 6894 ] final  -58.24 input  -60.11 | X-H torsion
[ 7974 7965 7964 7962 ] final  168.74 input  175.53 | X-H torsion
[ 8008 7997 7996 7995 ] final  174.01 input   59.86 | X-H torsion
[ 10167 10162 10161 10158 ] final  -73.79 input  -65.29 | X-H torsion
[ 10718 10713 10712 10709 ] final -164.68 input   66.30 | X-H torsion
[ 10763 10752 10751 10750 ] final  -35.53 input  -60.55 | X-H torsion
[ 11005 11000 10999 10996 ] final   15.16 input  -57.11 | X-H torsion

> <Gold.Protein.ActiveResidues>
 VAL166  LYS551  ARG553  GLY616  TRP617  ASP618  TYR619  PRO620  LYS621  CYS622 
 ASP623  PHE694  ASN695  SER759  ASP760  ASP761  ALA762  ILE779  LEU786  VAL792 
 PHE793  MET794  SER795  GLU796  ALA797  LYS798  CYS799  TRP800  GLU811  SER814 

> <Gold.Protein.RotatedAtoms>
  150.8022  134.7124  159.6611 H   0  0  0  0  0  0  0  0  0  0  0  0  # atno 6907 bound_to 6896
  152.4140  134.6071  160.0025 H   0  0  0  0  0  0  0  0  0  0  0  0  # atno 6908 bound_to 6896
  151.6306  133.3295  159.3144 H   0  0  0  0  0  0  0  0  0  0  0  0  # atno 6909 bound_to 6896
  144.7378  139.8952  143.6406 H   0  0  0  0  0  0  0  0  0  0  0  0  # atno 7974 bound_to 7965
  156.1017  140.1445  156.9458 H   0  0  0  0  0  0  0  0  0  0  0  0  # atno 8008 bound_to 7997
  154.4707  140.0911  156.7182 H   0  0  0  0  0  0  0  0  0  0  0  0  # atno 8009 bound_to 7997
  155.4748  140.3443  155.4333 H   0  0  0  0  0  0  0  0  0  0  0  0  # atno 8010 bound_to 7997
  140.5081  143.2349  151.7639 H   0  0  0  0  0  0  0  0  0  0  0  0  # atno 10167 bound_to 10162
  156.6425  130.8974  151.2998 H   0  0  0  0  0  0  0  0  0  0  0  0  # atno 10718 bound_to 10713
  153.8648  135.6836  153.4779 H   0  0  0  0  0  0  0  0  0  0  0  0  # atno 10763 bound_to 10752
  153.1321  135.4693  154.9363 H   0  0  0  0  0  0  0  0  0  0  0  0  # atno 10764 bound_to 10752
  154.7742  135.3248  154.8077 H   0  0  0  0  0  0  0  0  0  0  0  0  # atno 10765 bound_to 10752
  140.4614  134.1123  155.7717 H   0  0  0  0  0  0  0  0  0  0  0  0  # atno 11005 bound_to 11000
  146.1113  139.4118  143.0286 LP  0  0  0  0  0  0  0  0  0  0  0  0  # atno 17320 bound_to 7965
  145.7439  140.9998  143.1286 LP  0  0  0  0  0  0  0  0  0  0  0  0  # atno 17321 bound_to 7965
  139.4889  144.4429  151.9744 LP  0  0  0  0  0  0  0  0  0  0  0  0  # atno 17342 bound_to 10162
  140.3520  144.3077  150.5947 LP  0  0  0  0  0  0  0  0  0  0  0  0  # atno 17343 bound_to 10162
  157.7166  130.9505  150.1280 LP  0  0  0  0  0  0  0  0  0  0  0  0  # atno 17370 bound_to 10713
  156.2148  130.3669  149.8626 LP  0  0  0  0  0  0  0  0  0  0  0  0  # atno 17371 bound_to 10713
  141.1619  133.8776  157.1823 LP  0  0  0  0  0  0  0  0  0  0  0  0  # atno 17394 bound_to 11000
  139.9943  135.0053  157.0046 LP  0  0  0  0  0  0  0  0  0  0  0  0  # atno 17395 bound_to 11000

$$$$
