AV-unprocessed.smi:1705|AV-procd|sdf|6884|dock7
  -GOLD-   22720 8 93D 1   1.00000     0.00000
 Structure written by MMmdl.
 38 39  0  0  0  0  0  0  0  0  1 V2000
  150.2322  142.1165  158.4226 C   0  0  0  0  0  0  0  0  0  0  0  0
  151.7659  142.1457  158.3667 C   0  0  2  0  0  0  0  0  0  0  0  0
  152.3095  140.9633  159.0226 N   0  0  0  0  0  0  0  0  0  0  0  0
  152.3047  139.6133  158.6709 C   0  0  0  0  0  0  0  0  0  0  0  0
  151.7368  139.1346  157.5236 C   0  0  0  0  0  0  0  0  0  0  0  0
  151.1142  139.9423  156.5224 C   0  0  0  0  0  0  0  0  0  0  0  0
  150.6594  140.6063  155.6888 N   0  0  0  0  0  0  0  0  0  0  0  0
  151.7418  137.7098  157.1917 C   0  0  0  0  0  0  0  0  0  0  0  0
  151.2619  137.2477  156.1535 O   0  0  0  0  0  0  0  0  0  0  0  0
  152.3531  136.8778  158.1503 N   0  0  0  0  0  0  0  0  0  0  0  0
  152.3938  135.4561  157.8656 C   0  0  0  0  0  0  0  0  0  0  0  0
  152.9667  137.3449  159.3285 C   0  0  0  0  0  0  0  0  0  0  0  0
  153.5142  136.5710  160.1201 O   0  0  0  0  0  0  0  0  0  0  0  0
  152.9388  138.7413  159.5648 N   0  0  0  0  0  0  0  0  0  0  0  0
  153.5948  139.1504  160.7930 C   0  0  0  0  0  0  0  0  0  0  0  0
  152.3402  143.4400  158.9815 C   0  0  1  0  0  0  0  0  0  0  0  0
  152.0227  144.7401  158.2322 C   0  0  0  0  0  0  0  0  0  0  0  0
  152.0886  145.7607  159.3454 C   0  0  0  0  0  0  0  0  0  0  0  0
  151.4673  144.9868  160.5026 C   0  0  0  0  0  0  0  0  0  0  0  0
  151.8665  143.6333  160.3128 O   0  0  0  0  0  0  0  0  0  0  0  0
  149.8056  142.9859  157.9217 H   0  0  0  0  0  0  0  0  0  0  0  0
  149.8668  142.1111  159.4499 H   0  0  0  0  0  0  0  0  0  0  0  0
  149.8406  141.2272  157.9275 H   0  0  0  0  0  0  0  0  0  0  0  0
  152.0165  142.1245  157.3099 H   0  0  0  0  0  0  0  0  0  0  0  0
  152.5360  141.1372  159.9912 H   0  0  0  0  0  0  0  0  0  0  0  0
  152.5101  134.8850  158.7871 H   0  0  0  0  0  0  0  0  0  0  0  0
  153.2345  135.2926  157.1897 H   0  0  0  0  0  0  0  0  0  0  0  0
  151.4488  135.1597  157.4074 H   0  0  0  0  0  0  0  0  0  0  0  0
  152.9957  138.7681  161.6211 H   0  0  0  0  0  0  0  0  0  0  0  0
  153.6721  140.2334  160.8515 H   0  0  0  0  0  0  0  0  0  0  0  0
  154.6030  138.7313  160.7937 H   0  0  0  0  0  0  0  0  0  0  0  0
  153.4246  143.3452  159.0566 H   0  0  0  0  0  0  0  0  0  0  0  0
  152.7238  144.9456  157.4230 H   0  0  0  0  0  0  0  0  0  0  0  0
  151.0164  144.7241  157.8124 H   0  0  0  0  0  0  0  0  0  0  0  0
  153.1271  146.0069  159.5698 H   0  0  0  0  0  0  0  0  0  0  0  0
  151.5570  146.6843  159.1149 H   0  0  0  0  0  0  0  0  0  0  0  0
  151.7799  145.3638  161.4768 H   0  0  0  0  0  0  0  0  0  0  0  0
  150.3788  145.0369  160.4520 H   0  0  0  0  0  0  0  0  0  0  0  0
  1  2  1  0  0  0  0
  1 21  1  0  0  0  0
  1 22  1  0  0  0  0
  1 23  1  0  0  0  0
  2  3  1  0  0  0  0
  2 16  1  0  0  0  0
  2 24  1  0  0  0  0
  3  4  1  0  0  0  0
  3 25  1  0  0  0  0
  4 14  1  0  0  0  0
  4  5  2  0  0  0  0
  5  6  1  0  0  0  0
  5  8  1  0  0  0  0
  6  7  3  0  0  0  0
  8  9  2  0  0  0  0
  8 10  1  0  0  0  0
 10 11  1  0  0  0  0
 10 12  1  0  0  0  0
 11 26  1  0  0  0  0
 11 27  1  0  0  0  0
 11 28  1  0  0  0  0
 12 13  2  0  0  0  0
 12 14  1  0  0  0  0
 14 15  1  0  0  0  0
 15 29  1  0  0  0  0
 15 30  1  0  0  0  0
 15 31  1  0  0  0  0
 16 20  1  0  0  0  0
 16 17  1  0  0  0  0
 16 32  1  0  0  0  0
 17 18  1  0  0  0  0
 17 33  1  0  0  0  0
 17 34  1  0  0  0  0
 18 19  1  0  0  0  0
 18 35  1  0  0  0  0
 18 36  1  0  0  0  0
 19 20  1  0  0  0  0
 19 37  1  0  0  0  0
 19 38  1  0  0  0  0
M  END
> <s_m_source_file>
AV-unprocessed.smi

> <i_m_source_file_index>
1705

> <i_lp_mmshare_version>
43012

> <i_f3d_flags>
0

> <s_epik_input>
TzFbQ0gyXVtDSDJdW0NIMl1bQ0BIXTFbQ0BIXShbQ0gzXSlbTkhdYzJjKEMjTiljKD1PKW4oW0NIM10pYyg9TyluMltDSDNd

> <s_epik_cmdline>
J2VwaWtfcHl0aG9uJywgJy1waCcsICc3LjAnLCAnLXRuJywgJzgnLCAnLW1hJywgJzIwMCcsICctbWV0YWxfYmluZGluZycsICctaW1hZScsICc8aW5maWxlLm1hZT4nLCAnLW9tYWUnLCAnPG91dGZpbGUubWFlPic=

> <r_epik_Ionization_Penalty>
0.000446268

> <r_epik_Ionization_Penalty_Charging>
9.41922e-10

> <r_epik_Ionization_Penalty_Neutral>
0.000446267

> <r_epik_State_Penalty>
0.000275531

> <r_epik_Charging_Adjusted_Penalty>
0.000275532

> <i_epik_Tot_Q>
0

> <i_epik_Tot_abs_Q>
0

> <r_epik_Metal_State_Penalty>
-0

> <b_epik_Metal_Only>
0

> <s_lp_Force_Field>
OPLS_2005

> <r_lp_Energy>
40.5078

> <b_lp_Chiralities_Consistent>
1

> <s_lp_Variant>
AV-unprocessed.smi:1705-3

> <Gold.Version>
5.8.1

> <Gold.Id.Protein>
6NUR|6NUR_protein|mol2

> <Gold.PLP.Fitness>
41.1504

> <Gold.PLP.PLP>
-32.5389

> <Gold.PLP.part.hbond>
-3.0000

> <Gold.PLP.part.metal>
0.0000

> <Gold.PLP.part.buried>
-3.2811

> <Gold.PLP.part.nonpolar>
-26.6628

> <Gold.PLP.part.repulsive>
0.2119

> <Gold.PLP.ligand.clash>
1.7701

> <Gold.PLP.ligand.torsion>
0.1908

> <Gold.PLP.Chemscore.Hbond>
2.9920

> <Gold.PLP.Chemscore.CHOScore>
0.0000

> <Gold.PLP.Chemscore.Metal>
0.0000

> <Gold.Chemscore.Hbonds>
donor molecule, donor type, donor heavy atom, donor atom, acceptor molecule, acceptor atom, score
      P1  H  6896  6909       L1    13  0.71
      P1  H  7989  7998       L1     7  0.06

> <Gold.PLP.Chemscore.Internal.Correction>
1.7873

> <Gold.Rescore>
     Score         DG    S(hbond)    S(metal)    S(lipo)     H(rot)  DE(clash)    DE(int)     intcor
     17.16     -20.53       2.70        0.00      79.66       1.28       1.07       2.31       ----

> <Gold.Chemscore.Fitness>
17.1616

> <Gold.Chemscore.DG>
-20.5341

> <Gold.Chemscore.ZeroCoef>
-5.4800

> <Gold.Chemscore.Hbond>
2.6963

> <Gold.Chemscore.Metal>
0.0000

> <Gold.Chemscore.Lipo>
79.6601

> <Gold.Chemscore.Internal_Hbond>
0.0000

> <Gold.Chemscore.DEClash>
1.0660

> <Gold.Chemscore.DEInternal>
2.3065

> <Gold.Chemscore.Rot>
1.2780

> <Gold.Chemscore.Internal.Correction>
   9.000000E+99

> <Gold.Chemscore.Hbonds>
donor molecule, donor type, donor heavy atom, donor atom, acceptor molecule, acceptor atom, score
      P1  H  6896  6909       L1    13  0.39
      P1  H  7989  7998       L1     7  0.10

> <Gold.Chemscore.Hbond.Weighted>
-9.0056

> <Gold.Chemscore.Metal.Weighted>
-0.0000

> <Gold.Chemscore.Lipo.Weighted>
-9.3202

> <Gold.Chemscore.Internal_Hbond.Weighted>
0.0000

> <Gold.Chemscore.DEClash.Weighted>
1.0660

> <Gold.Chemscore.DEInternal.Weighted>
2.3065

> <Gold.Chemscore.Rot.Weighted>
3.2717

> <Gold.Chemscore.Internal.Correction.Weighted>
   9.000000E+99

> <Gold.Protein.RotatedTorsions>
[ 6907 6896 6895 6894 ] final  176.27 input  -60.11 | X-H torsion
[ 7974 7965 7964 7962 ] final  -62.29 input  175.53 | X-H torsion
[ 8008 7997 7996 7995 ] final  -26.79 input   59.86 | X-H torsion
[ 10167 10162 10161 10158 ] final    9.56 input  -65.29 | X-H torsion
[ 10718 10713 10712 10709 ] final  -90.58 input   66.30 | X-H torsion
[ 10763 10752 10751 10750 ] final -173.30 input  -60.55 | X-H torsion
[ 11005 11000 10999 10996 ] final  117.47 input  -57.11 | X-H torsion

> <Gold.Protein.ActiveResidues>
 VAL166  LYS551  ARG553  GLY616  TRP617  ASP618  TYR619  PRO620  LYS621  CYS622 
 ASP623  PHE694  ASN695  SER759  ASP760  ASP761  ALA762  ILE779  LEU786  VAL792 
 PHE793  MET794  SER795  GLU796  ALA797  LYS798  CYS799  TRP800  GLU811  SER814 

> <Gold.Protein.RotatedAtoms>
  151.7228  133.3315  159.3319 H   0  0  0  0  0  0  0  0  0  0  0  0  # atno 6907 bound_to 6896
  150.7645  134.6433  159.6258 H   0  0  0  0  0  0  0  0  0  0  0  0  # atno 6908 bound_to 6896
  152.3641  134.6832  160.0249 H   0  0  0  0  0  0  0  0  0  0  0  0  # atno 6909 bound_to 6896
  145.7932  140.8698  143.0270 H   0  0  0  0  0  0  0  0  0  0  0  0  # atno 7974 bound_to 7965
  154.4408  140.1890  156.0830 H   0  0  0  0  0  0  0  0  0  0  0  0  # atno 8008 bound_to 7997
  156.0424  140.3318  155.7232 H   0  0  0  0  0  0  0  0  0  0  0  0  # atno 8009 bound_to 7997
  155.5680  140.0610  157.2804 H   0  0  0  0  0  0  0  0  0  0  0  0  # atno 8010 bound_to 7997
  140.6248  143.8126  150.7219 H   0  0  0  0  0  0  0  0  0  0  0  0  # atno 10167 bound_to 10162
  155.9988  130.4915  150.5344 H   0  0  0  0  0  0  0  0  0  0  0  0  # atno 10718 bound_to 10713
  154.6095  135.2863  155.0448 H   0  0  0  0  0  0  0  0  0  0  0  0  # atno 10763 bound_to 10752
  154.1683  135.6477  153.5007 H   0  0  0  0  0  0  0  0  0  0  0  0  # atno 10764 bound_to 10752
  153.0189  135.5395  154.6843 H   0  0  0  0  0  0  0  0  0  0  0  0  # atno 10765 bound_to 10752
  139.9075  134.9610  156.7355 H   0  0  0  0  0  0  0  0  0  0  0  0  # atno 11005 bound_to 11000
  144.6779  140.0152  143.7484 LP  0  0  0  0  0  0  0  0  0  0  0  0  # atno 17320 bound_to 7965
  145.9955  139.3049  143.0959 LP  0  0  0  0  0  0  0  0  0  0  0  0  # atno 17321 bound_to 7965
  140.1724  143.4183  152.1991 LP  0  0  0  0  0  0  0  0  0  0  0  0  # atno 17342 bound_to 10162
  139.5470  144.7306  151.4553 LP  0  0  0  0  0  0  0  0  0  0  0  0  # atno 17343 bound_to 10162
  157.3289  131.0696  151.1876 LP  0  0  0  0  0  0  0  0  0  0  0  0  # atno 17370 bound_to 10713
  157.2764  130.6729  149.6044 LP  0  0  0  0  0  0  0  0  0  0  0  0  # atno 17371 bound_to 10713
  140.6891  133.9406  155.7955 LP  0  0  0  0  0  0  0  0  0  0  0  0  # atno 17394 bound_to 11000
  141.0455  134.0560  157.3849 LP  0  0  0  0  0  0  0  0  0  0  0  0  # atno 17395 bound_to 11000

$$$$
