AV-unprocessed.smi:1560|AV-procd|sdf|6279|dock2
  -GOLD-   22720 6473D 1   1.00000     0.00000
 Structure written by MMmdl.
 46 47  0  0  0  0  0  0  0  0  2 V2000
  140.1481  137.8340  161.3737 C   0  0  0  0  0  0  0  0  0  0  0  0
  139.2412  137.3322  162.5126 C   0  0  0  0  0  0  0  0  0  0  0  0
  139.1078  135.7810  162.6373 C   0  0  1  0  0  0  0  0  0  0  0  0
  138.8475  135.2480  161.2024 C   0  0  0  0  0  0  0  0  0  0  0  0
  140.4710  135.1988  163.1338 C   0  0  0  0  0  0  0  0  0  0  0  0
  141.5529  135.2999  162.1545 N   0  0  0  0  0  0  0  0  0  0  0  0
  142.8077  134.8542  162.3205 C   0  0  0  0  0  0  0  0  0  0  0  0
  143.2078  134.3263  163.3590 O   0  0  0  0  0  0  0  0  0  0  0  0
  143.7625  135.0742  161.1399 C   0  0  0  0  0  0  0  0  0  0  0  0
  145.0616  135.6287  161.5534 N   0  0  0  0  0  0  0  0  0  0  0  0
  145.8721  134.8451  162.3942 C   0  0  0  0  0  0  0  0  0  0  0  0
  147.0758  135.2730  162.8206 C   0  0  0  0  0  0  0  0  0  0  0  0
  147.5344  136.5875  162.3882 C   0  0  0  0  0  0  0  0  0  0  0  0
  148.6283  136.9969  162.7722 O   0  0  0  0  0  0  0  0  0  0  0  0
  146.7141  137.3074  161.5676 N   0  5  0  0  0  0  0  0  0  0  0  0
  145.4931  136.8588  161.1405 C   0  0  0  0  0  0  0  0  0  0  0  0
  144.7690  137.5247  160.3992 O   0  0  0  0  0  0  0  0  0  0  0  0
  137.9820  135.4157  163.5436 N   0  0  0  0  0  0  0  0  0  0  0  0
  136.7218  136.1258  163.2906 C   0  0  0  0  0  0  0  0  0  0  0  0
  135.5739  135.5901  164.1625 C   0  0  0  0  0  0  0  0  0  0  0  0
  135.9323  135.6828  165.5361 O   0  0  0  0  0  0  0  0  0  0  0  0
  137.1203  134.9610  165.8372 C   0  0  0  0  0  0  0  0  0  0  0  0
  138.2812  135.4917  164.9786 C   0  0  0  0  0  0  0  0  0  0  0  0
  140.1766  138.9235  161.3627 H   0  0  0  0  0  0  0  0  0  0  0  0
  139.7911  137.5098  160.3964 H   0  0  0  0  0  0  0  0  0  0  0  0
  141.1739  137.4853  161.4891 H   0  0  0  0  0  0  0  0  0  0  0  0
  139.6329  137.7473  163.4414 H   0  0  0  0  0  0  0  0  0  0  0  0
  138.2571  137.7889  162.4062 H   0  0  0  0  0  0  0  0  0  0  0  0
  139.5226  135.6932  160.4708 H   0  0  0  0  0  0  0  0  0  0  0  0
  137.8306  135.4616  160.8717 H   0  0  0  0  0  0  0  0  0  0  0  0
  138.9912  134.1695  161.1354 H   0  0  0  0  0  0  0  0  0  0  0  0
  140.7782  135.6678  164.0688 H   0  0  0  0  0  0  0  0  0  0  0  0
  140.3728  134.1372  163.3577 H   0  0  0  0  0  0  0  0  0  0  0  0
  141.3217  135.7259  161.2688 H   0  0  0  0  0  0  0  0  0  0  0  0
  143.9121  134.1370  160.6002 H   0  0  0  0  0  0  0  0  0  0  0  0
  143.2713  135.7392  160.4284 H   0  0  0  0  0  0  0  0  0  0  0  0
  145.4616  133.8827  162.6630 H   0  0  0  0  0  0  0  0  0  0  0  0
  147.6876  134.6579  163.4641 H   0  0  0  0  0  0  0  0  0  0  0  0
  136.8404  137.1906  163.4902 H   0  0  0  0  0  0  0  0  0  0  0  0
  136.4211  136.0319  162.2488 H   0  0  0  0  0  0  0  0  0  0  0  0
  134.6667  136.1699  163.9917 H   0  0  0  0  0  0  0  0  0  0  0  0
  135.3458  134.5543  163.9062 H   0  0  0  0  0  0  0  0  0  0  0  0
  137.3485  135.0768  166.8968 H   0  0  0  0  0  0  0  0  0  0  0  0
  136.9636  133.8962  165.6579 H   0  0  0  0  0  0  0  0  0  0  0  0
  139.1672  134.9089  165.2242 H   0  0  0  0  0  0  0  0  0  0  0  0
  138.4877  136.5215  165.2697 H   0  0  0  0  0  0  0  0  0  0  0  0
  1  2  1  0  0  0  0
  1 24  1  0  0  0  0
  1 25  1  0  0  0  0
  1 26  1  0  0  0  0
  2  3  1  0  0  0  0
  2 27  1  0  0  0  0
  2 28  1  0  0  0  0
  3  4  1  0  0  0  0
  3  5  1  0  0  0  0
  3 18  1  0  0  0  0
  4 29  1  0  0  0  0
  4 30  1  0  0  0  0
  4 31  1  0  0  0  0
  5  6  1  0  0  0  0
  5 32  1  0  0  0  0
  5 33  1  0  0  0  0
  6  7  1  0  0  0  0
  6 34  1  0  0  0  0
  7  8  2  0  0  0  0
  7  9  1  0  0  0  0
  9 10  1  0  0  0  0
  9 35  1  0  0  0  0
  9 36  1  0  0  0  0
 10 16  1  0  0  0  0
 10 11  1  0  0  0  0
 11 12  2  0  0  0  0
 11 37  1  0  0  0  0
 12 13  1  0  0  0  0
 12 38  1  0  0  0  0
 13 14  2  0  0  0  0
 13 15  1  0  0  0  0
 15 16  1  0  0  0  0
 16 17  2  0  0  0  0
 18 23  1  0  0  0  0
 18 19  1  0  0  0  0
 19 20  1  0  0  0  0
 19 39  1  0  0  0  0
 19 40  1  0  0  0  0
 20 21  1  0  0  0  0
 20 41  1  0  0  0  0
 20 42  1  0  0  0  0
 21 22  1  0  0  0  0
 22 23  1  0  0  0  0
 22 43  1  0  0  0  0
 22 44  1  0  0  0  0
 23 45  1  0  0  0  0
 23 46  1  0  0  0  0
M  CHG  1  15  -1
M  END
> <s_m_source_file>
AV-unprocessed.smi

> <i_m_source_file_index>
1560

> <i_lp_mmshare_version>
43012

> <i_f3d_flags>
0

> <s_epik_input>
W0NIMl0xW0NIMl1PW0NIMl1bQ0gyXU4xW0NAQF0oW0NIM10pKFtDSDJdW0NIM10pW0NIMl1bTkhdQyg9TylbQ0gyXW4yW2NIXVtjSF1jKD1PKVtuSF1jMj1P

> <s_epik_cmdline>
J2VwaWtfcHl0aG9uJywgJy1waCcsICc3LjAnLCAnLXRuJywgJzgnLCAnLW1hJywgJzIwMCcsICctbWV0YWxfYmluZGluZycsICctaW1hZScsICc8aW5maWxlLm1hZT4nLCAnLW9tYWUnLCAnPG91dGZpbGUubWFlPic=

> <r_lp_tautomer_probability>
0.999537

> <r_epik_Ionization_Penalty>
3.35108

> <r_epik_Ionization_Penalty_Charging>
2.65778e-08

> <r_epik_Ionization_Penalty_Neutral>
3.35108

> <r_epik_State_Penalty>
3.36199

> <r_epik_Charging_Adjusted_Penalty>
3.36199

> <i_epik_Tot_Q>
-1

> <i_epik_Tot_abs_Q>
1

> <r_epik_Metal_State_Penalty>
0.748914

> <b_epik_Metal_Only>
1

> <s_lp_Force_Field>
OPLS_2005

> <r_lp_Energy>
51.7621

> <b_lp_Chiralities_Consistent>
1

> <s_lp_Variant>
AV-unprocessed.smi:1560-5

> <Gold.Version>
5.8.1

> <Gold.Id.Protein>
6NUR|6NUR_protein|mol2

> <Gold.PLP.Fitness>
37.1730

> <Gold.PLP.PLP>
-29.9753

> <Gold.PLP.part.hbond>
-3.2482

> <Gold.PLP.part.metal>
0.0000

> <Gold.PLP.part.buried>
-3.0020

> <Gold.PLP.part.nonpolar>
-23.5825

> <Gold.PLP.part.repulsive>
0.1570

> <Gold.PLP.ligand.clash>
0.0000

> <Gold.PLP.ligand.torsion>
0.7364

> <Gold.PLP.Chemscore.Hbond>
2.8320

> <Gold.PLP.Chemscore.CHOScore>
0.0000

> <Gold.PLP.Chemscore.Metal>
0.0000

> <Gold.Chemscore.Hbonds>
donor molecule, donor type, donor heavy atom, donor atom, acceptor molecule, acceptor atom, score
      P1  H  6931  6943       L1    14  0.86
      P1  H  6934  6947       L1    15  2.00

> <Gold.PLP.Chemscore.Internal.Correction>
0.1745

> <Gold.Rescore>
     Score         DG    S(hbond)    S(metal)    S(lipo)     H(rot)  DE(clash)    DE(int)     intcor
      7.65     -12.58       1.81        0.00      61.88       2.42       2.12       2.82       ----

> <Gold.Chemscore.Fitness>
7.6497

> <Gold.Chemscore.DG>
-12.5843

> <Gold.Chemscore.ZeroCoef>
-5.4800

> <Gold.Chemscore.Hbond>
1.8139

> <Gold.Chemscore.Metal>
0.0000

> <Gold.Chemscore.Lipo>
61.8816

> <Gold.Chemscore.Internal_Hbond>
0.0000

> <Gold.Chemscore.DEClash>
2.1154

> <Gold.Chemscore.DEInternal>
2.8192

> <Gold.Chemscore.Rot>
2.4197

> <Gold.Chemscore.Internal.Correction>
   9.000000E+99

> <Gold.Chemscore.Hbonds>
donor molecule, donor type, donor heavy atom, donor atom, acceptor molecule, acceptor atom, score
      P1  H  6931  6943       L1    14  0.63
      P1  H  6934  6947       L1    15  0.84

> <Gold.Chemscore.Hbond.Weighted>
-6.0584

> <Gold.Chemscore.Metal.Weighted>
-0.0000

> <Gold.Chemscore.Lipo.Weighted>
-7.2402

> <Gold.Chemscore.Internal_Hbond.Weighted>
0.0000

> <Gold.Chemscore.DEClash.Weighted>
2.1154

> <Gold.Chemscore.DEInternal.Weighted>
2.8192

> <Gold.Chemscore.Rot.Weighted>
6.1943

> <Gold.Chemscore.Internal.Correction.Weighted>
   9.000000E+99

> <Gold.Protein.RotatedTorsions>
[ 6907 6896 6895 6894 ] final    5.59 input  -60.11 | X-H torsion
[ 7974 7965 7964 7962 ] final  -23.70 input  175.53 | X-H torsion
[ 8008 7997 7996 7995 ] final   35.17 input   59.86 | X-H torsion
[ 10167 10162 10161 10158 ] final  -39.86 input  -65.29 | X-H torsion
[ 10718 10713 10712 10709 ] final -123.06 input   66.30 | X-H torsion
[ 10763 10752 10751 10750 ] final   21.65 input  -60.55 | X-H torsion
[ 11005 11000 10999 10996 ] final  -64.18 input  -57.11 | X-H torsion

> <Gold.Protein.ActiveResidues>
 VAL166  LYS551  ARG553  GLY616  TRP617  ASP618  TYR619  PRO620  LYS621  CYS622 
 ASP623  PHE694  ASN695  SER759  ASP760  ASP761  ALA762  ILE779  LEU786  VAL792 
 PHE793  MET794  SER795  GLU796  ALA797  LYS798  CYS799  TRP800  GLU811  SER814 

> <Gold.Protein.RotatedAtoms>
  151.6600  135.0990  160.0177 H   0  0  0  0  0  0  0  0  0  0  0  0  # atno 6907 bound_to 6896
  152.3952  133.6732  159.6279 H   0  0  0  0  0  0  0  0  0  0  0  0  # atno 6908 bound_to 6896
  150.7860  133.8803  159.3325 H   0  0  0  0  0  0  0  0  0  0  0  0  # atno 6909 bound_to 6896
  146.1600  140.4651  142.8575 H   0  0  0  0  0  0  0  0  0  0  0  0  # atno 7974 bound_to 7965
  155.1667  140.3288  155.4400 H   0  0  0  0  0  0  0  0  0  0  0  0  # atno 8008 bound_to 7997
  156.2524  140.1950  156.6723 H   0  0  0  0  0  0  0  0  0  0  0  0  # atno 8009 bound_to 7997
  154.6366  140.0575  156.9782 H   0  0  0  0  0  0  0  0  0  0  0  0  # atno 8010 bound_to 7997
  140.7052  143.3188  151.2842 H   0  0  0  0  0  0  0  0  0  0  0  0  # atno 10167 bound_to 10162
  156.1470  130.6507  150.9857 H   0  0  0  0  0  0  0  0  0  0  0  0  # atno 10718 bound_to 10713
  153.0978  135.6664  153.9730 H   0  0  0  0  0  0  0  0  0  0  0  0  # atno 10763 bound_to 10752
  153.9310  135.3004  155.3447 H   0  0  0  0  0  0  0  0  0  0  0  0  # atno 10764 bound_to 10752
  154.7397  135.5085  153.9176 H   0  0  0  0  0  0  0  0  0  0  0  0  # atno 10765 bound_to 10752
  141.1417  133.6662  156.5794 H   0  0  0  0  0  0  0  0  0  0  0  0  # atno 11005 bound_to 11000
  144.8014  140.6220  143.6475 LP  0  0  0  0  0  0  0  0  0  0  0  0  # atno 17320 bound_to 7965
  145.4612  139.1512  143.3865 LP  0  0  0  0  0  0  0  0  0  0  0  0  # atno 17321 bound_to 7965
  139.6636  144.0145  152.2708 LP  0  0  0  0  0  0  0  0  0  0  0  0  # atno 17342 bound_to 10162
  139.9721  144.6487  150.7980 LP  0  0  0  0  0  0  0  0  0  0  0  0  # atno 17343 bound_to 10162
  157.6625  131.0878  150.7805 LP  0  0  0  0  0  0  0  0  0  0  0  0  # atno 17370 bound_to 10713
  156.7876  130.4879  149.5390 LP  0  0  0  0  0  0  0  0  0  0  0  0  # atno 17371 bound_to 10713
  140.3849  134.7490  157.4685 LP  0  0  0  0  0  0  0  0  0  0  0  0  # atno 17394 bound_to 11000
  140.0609  134.5997  155.8750 LP  0  0  0  0  0  0  0  0  0  0  0  0  # atno 17395 bound_to 11000

$$$$
