AV-unprocessed.smi:495|AV-procd|sdf|2715|dock3
  -GOLD-   2262023163D 1   1.00000     0.00000
 Structure written by MMmdl.
 34 36  0  0  0  0  0  0  0  0  1 V2000
  148.2940  138.7010  152.6572 N   0  0  0  0  0  0  0  0  0  0  0  0
  148.8999  139.4036  153.6973 C   0  0  0  0  0  0  0  0  0  0  0  0
  148.4067  140.6682  154.0768 C   0  0  0  0  0  0  0  0  0  0  0  0
  149.0189  141.3777  155.1286 C   0  0  0  0  0  0  0  0  0  0  0  0
  150.1235  140.8228  155.8075 C   0  0  0  0  0  0  0  0  0  0  0  0
  150.7534  141.5594  156.8941 C   0  0  0  0  0  0  0  0  0  0  0  0
  150.8750  142.8876  156.8427 N   0  0  0  0  0  0  0  0  0  0  0  0
  151.5029  143.1935  158.0335 C   0  0  0  0  0  0  0  0  0  0  0  0
  151.9094  144.4381  158.5660 C   0  0  0  0  0  0  0  0  0  0  0  0
  152.5381  144.5035  159.8268 C   0  0  0  0  0  0  0  0  0  0  0  0
  152.7668  143.3286  160.5719 C   0  0  0  0  0  0  0  0  0  0  0  0
  152.3693  142.0789  160.0590 C   0  0  0  0  0  0  0  0  0  0  0  0
  151.7458  142.0196  158.7981 C   0  0  0  0  0  0  0  0  0  0  0  0
  151.2434  140.9816  158.0206 N   0  0  0  0  0  0  0  0  0  0  0  0
  151.2344  139.5699  158.3717 C   0  0  0  0  0  0  0  0  0  0  0  0
  152.6571  139.0335  158.5794 C   0  0  0  0  0  0  0  0  0  0  0  0
  153.3780  139.1145  157.3697 O   0  0  0  0  0  0  0  0  0  0  0  0
  150.6199  139.5598  155.4223 C   0  0  0  0  0  0  0  0  0  0  0  0
  150.0079  138.8508  154.3705 C   0  0  0  0  0  0  0  0  0  0  0  0
  148.6316  137.7940  152.3682 H   0  0  0  0  0  0  0  0  0  0  0  0
  147.4274  139.0167  152.2454 H   0  0  0  0  0  0  0  0  0  0  0  0
  147.5589  141.0991  153.5644 H   0  0  0  0  0  0  0  0  0  0  0  0
  148.6369  142.3464  155.4160 H   0  0  0  0  0  0  0  0  0  0  0  0
  151.7366  145.3438  158.0037 H   0  0  0  0  0  0  0  0  0  0  0  0
  152.8449  145.4597  160.2246 H   0  0  0  0  0  0  0  0  0  0  0  0
  153.2475  143.3873  161.5375 H   0  0  0  0  0  0  0  0  0  0  0  0
  152.5418  141.1777  160.6283 H   0  0  0  0  0  0  0  0  0  0  0  0
  150.6341  139.4258  159.2699 H   0  0  0  0  0  0  0  0  0  0  0  0
  150.7336  139.0153  157.5775 H   0  0  0  0  0  0  0  0  0  0  0  0
  153.1788  139.6104  159.3438 H   0  0  0  0  0  0  0  0  0  0  0  0
  152.6359  137.9946  158.9102 H   0  0  0  0  0  0  0  0  0  0  0  0
  152.7931  138.9072  156.6568 H   0  0  0  0  0  0  0  0  0  0  0  0
  151.4697  139.1322  155.9339 H   0  0  0  0  0  0  0  0  0  0  0  0
  150.3935  137.8832  154.0838 H   0  0  0  0  0  0  0  0  0  0  0  0
  1  2  1  0  0  0  0
  1 20  1  0  0  0  0
  1 21  1  0  0  0  0
  2 19  1  0  0  0  0
  2  3  2  0  0  0  0
  3  4  1  0  0  0  0
  3 22  1  0  0  0  0
  4  5  2  0  0  0  0
  4 23  1  0  0  0  0
  5  6  1  0  0  0  0
  5 18  1  0  0  0  0
  6 14  1  0  0  0  0
  6  7  2  0  0  0  0
  7  8  1  0  0  0  0
  8 13  2  0  0  0  0
  8  9  1  0  0  0  0
  9 10  2  0  0  0  0
  9 24  1  0  0  0  0
 10 11  1  0  0  0  0
 10 25  1  0  0  0  0
 11 12  2  0  0  0  0
 11 26  1  0  0  0  0
 12 13  1  0  0  0  0
 12 27  1  0  0  0  0
 13 14  1  0  0  0  0
 14 15  1  0  0  0  0
 15 16  1  0  0  0  0
 15 28  1  0  0  0  0
 15 29  1  0  0  0  0
 16 17  1  0  0  0  0
 16 30  1  0  0  0  0
 16 31  1  0  0  0  0
 17 32  1  0  0  0  0
 18 19  2  0  0  0  0
 18 33  1  0  0  0  0
 19 34  1  0  0  0  0
M  END
> <s_m_source_file>
AV-unprocessed.smi

> <i_m_source_file_index>
495

> <i_lp_mmshare_version>
43012

> <i_f3d_flags>
0

> <s_epik_input>
W05IMl1jMVtjSF1bY0hdYyhbY0hdW2NIXTEpLWMobjIpbihbQ0gyXVtDSDJdW09IXSljKGMyMylbY0hdW2NIXVtjSF1bY0hdMw==

> <s_epik_cmdline>
J2VwaWtfcHl0aG9uJywgJy1waCcsICc3LjAnLCAnLXRuJywgJzgnLCAnLW1hJywgJzIwMCcsICctbWV0YWxfYmluZGluZycsICctaW1hZScsICc8aW5maWxlLm1hZT4nLCAnLW9tYWUnLCAnPG91dGZpbGUubWFlPic=

> <r_epik_Ionization_Penalty>
0.535683

> <r_epik_Ionization_Penalty_Charging>
0

> <r_epik_Ionization_Penalty_Neutral>
0.535683

> <r_epik_State_Penalty>
0.781633

> <r_epik_Charging_Adjusted_Penalty>
0.781633

> <i_epik_Tot_Q>
0

> <i_epik_Tot_abs_Q>
0

> <r_epik_Metal_State_Penalty>
0.00162026

> <b_epik_Metal_Only>
0

> <s_lp_Force_Field>
OPLS_2005

> <r_lp_Energy>
18.7339

> <b_lp_Chiralities_Consistent>
1

> <s_lp_Variant>
AV-unprocessed.smi:495-2

> <Gold.Version>
5.8.1

> <Gold.Id.Protein>
6NUR|6NUR_protein|mol2

> <Gold.PLP.Fitness>
47.8090

> <Gold.PLP.PLP>
-41.8644

> <Gold.PLP.part.hbond>
-2.3153

> <Gold.PLP.part.metal>
0.0000

> <Gold.PLP.part.buried>
-2.8228

> <Gold.PLP.part.nonpolar>
-37.9276

> <Gold.PLP.part.repulsive>
1.4222

> <Gold.PLP.ligand.clash>
0.0000

> <Gold.PLP.ligand.torsion>
0.5554

> <Gold.PLP.Chemscore.Hbond>
2.0000

> <Gold.PLP.Chemscore.CHOScore>
0.0000

> <Gold.PLP.Chemscore.Metal>
0.0000

> <Gold.Chemscore.Hbonds>
donor molecule, donor type, donor heavy atom, donor atom, acceptor molecule, acceptor atom, score
      L1  H     1    20       P1  7948  1.00
      P1  H  7997  8010       L1    17  0.95

> <Gold.PLP.Chemscore.Internal.Correction>
1.0554

> <Gold.Rescore>
     Score         DG    S(hbond)    S(metal)    S(lipo)     H(rot)  DE(clash)    DE(int)     intcor
     19.54     -20.47       1.93        0.00     111.54       1.76       0.10       0.83       ----

> <Gold.Chemscore.Fitness>
19.5401

> <Gold.Chemscore.DG>
-20.4664

> <Gold.Chemscore.ZeroCoef>
-5.4800

> <Gold.Chemscore.Hbond>
1.9273

> <Gold.Chemscore.Metal>
0.0000

> <Gold.Chemscore.Lipo>
111.5432

> <Gold.Chemscore.Internal_Hbond>
0.0000

> <Gold.Chemscore.DEClash>
0.0981

> <Gold.Chemscore.DEInternal>
0.8282

> <Gold.Chemscore.Rot>
1.7584

> <Gold.Chemscore.Internal.Correction>
   9.000000E+99

> <Gold.Chemscore.Hbonds>
donor molecule, donor type, donor heavy atom, donor atom, acceptor molecule, acceptor atom, score
      L1  H     1    20       P1  7948  1.00
      P1  H  7997  8010       L1    17  0.20

> <Gold.Chemscore.Hbond.Weighted>
-6.4373

> <Gold.Chemscore.Metal.Weighted>
-0.0000

> <Gold.Chemscore.Lipo.Weighted>
-13.0506

> <Gold.Chemscore.Internal_Hbond.Weighted>
0.0000

> <Gold.Chemscore.DEClash.Weighted>
0.0981

> <Gold.Chemscore.DEInternal.Weighted>
0.8282

> <Gold.Chemscore.Rot.Weighted>
4.5015

> <Gold.Chemscore.Internal.Correction.Weighted>
   9.000000E+99

> <Gold.Protein.RotatedTorsions>
[ 6907 6896 6895 6894 ] final  -84.75 input  -60.11 | X-H torsion
[ 7974 7965 7964 7962 ] final  112.75 input  175.53 | X-H torsion
[ 8008 7997 7996 7995 ] final   63.12 input   59.86 | X-H torsion
[ 10167 10162 10161 10158 ] final -136.13 input  -65.29 | X-H torsion
[ 10718 10713 10712 10709 ] final  -22.96 input   66.30 | X-H torsion
[ 10763 10752 10751 10750 ] final  -94.07 input  -60.55 | X-H torsion
[ 11005 11000 10999 10996 ] final  -76.76 input  -57.11 | X-H torsion

> <Gold.Protein.ActiveResidues>
 VAL166  LYS551  ARG553  GLY616  TRP617  ASP618  TYR619  PRO620  LYS621  CYS622 
 ASP623  PHE694  ASN695  SER759  ASP760  ASP761  ALA762  ILE779  LEU786  VAL792 
 PHE793  MET794  SER795  GLU796  ALA797  LYS798  CYS799  TRP800  GLU811  SER814 

> <Gold.Protein.RotatedAtoms>
  150.6874  134.3311  159.4827 H   0  0  0  0  0  0  0  0  0  0  0  0  # atno 6907 bound_to 6896
  152.1175  134.9227  160.0573 H   0  0  0  0  0  0  0  0  0  0  0  0  # atno 6908 bound_to 6896
  152.0446  133.3957  159.4388 H   0  0  0  0  0  0  0  0  0  0  0  0  # atno 6909 bound_to 6896
  145.2256  139.2842  143.4195 H   0  0  0  0  0  0  0  0  0  0  0  0  # atno 7974 bound_to 7965
  155.6252  140.3496  155.4665 H   0  0  0  0  0  0  0  0  0  0  0  0  # atno 8008 bound_to 7997
  156.0047  140.1220  157.0537 H   0  0  0  0  0  0  0  0  0  0  0  0  # atno 8009 bound_to 7997
  154.4260  140.1093  156.5732 H   0  0  0  0  0  0  0  0  0  0  0  0  # atno 8010 bound_to 7997
  139.8708  143.6959  152.2640 H   0  0  0  0  0  0  0  0  0  0  0  0  # atno 10167 bound_to 10162
  156.4975  130.4580  149.6720 H   0  0  0  0  0  0  0  0  0  0  0  0  # atno 10718 bound_to 10713
  154.7020  135.5171  153.8541 H   0  0  0  0  0  0  0  0  0  0  0  0  # atno 10763 bound_to 10752
  153.0711  135.6601  154.0254 H   0  0  0  0  0  0  0  0  0  0  0  0  # atno 10764 bound_to 10752
  154.0111  135.3002  155.3372 H   0  0  0  0  0  0  0  0  0  0  0  0  # atno 10765 bound_to 10752
  141.1656  133.6996  156.7718 H   0  0  0  0  0  0  0  0  0  0  0  0  # atno 11005 bound_to 11000
  146.3365  140.2576  142.8601 LP  0  0  0  0  0  0  0  0  0  0  0  0  # atno 17320 bound_to 7965
  144.9724  140.8381  143.5447 LP  0  0  0  0  0  0  0  0  0  0  0  0  # atno 17321 bound_to 7965
  139.7285  144.7587  151.0840 LP  0  0  0  0  0  0  0  0  0  0  0  0  # atno 17342 bound_to 10162
  140.7761  143.5117  150.9644 LP  0  0  0  0  0  0  0  0  0  0  0  0  # atno 17343 bound_to 10162
  156.3365  130.7359  151.2298 LP  0  0  0  0  0  0  0  0  0  0  0  0  # atno 17370 bound_to 10713
  157.7467  131.0415  150.4650 LP  0  0  0  0  0  0  0  0  0  0  0  0  # atno 17371 bound_to 10713
  140.2459  134.8578  157.3619 LP  0  0  0  0  0  0  0  0  0  0  0  0  # atno 17394 bound_to 11000
  140.1750  134.4560  155.7807 LP  0  0  0  0  0  0  0  0  0  0  0  0  # atno 17395 bound_to 11000

$$$$
