AV-unprocessed.smi:685|AV-procd|sdf|3334|dock4
  -GOLD-   22720 0303D 1   1.00000     0.00000
 Structure written by MMmdl.
 50 51  0  0  0  0  0  0  0  0  1 V2000
  153.1336  138.0535  155.8168 C   0  0  0  0  0  0  0  0  0  0  0  0
  152.0729  139.1071  155.6697 C   0  0  0  0  0  0  0  0  0  0  0  0
  152.2413  140.2835  156.2503 N   0  0  0  0  0  0  0  0  0  0  0  0
  151.1328  140.9835  155.9367 N   0  0  0  0  0  0  0  0  0  0  0  0
  150.9887  142.3423  156.4216 C   0  0  0  0  0  0  0  0  0  0  0  0
  150.2606  140.2471  155.1589 C   0  0  0  0  0  0  0  0  0  0  0  0
  148.9552  140.8025  154.6872 C   0  0  0  0  0  0  0  0  0  0  0  0
  150.8376  139.0207  154.9633 C   0  0  0  0  0  0  0  0  0  0  0  0
  150.3148  137.8368  154.1907 C   0  0  0  0  0  0  0  0  0  0  0  0
  150.0624  136.6087  155.0915 C   0  0  1  0  0  0  0  0  0  0  0  0
  149.1150  136.9143  156.2626 C   0  0  0  0  0  0  0  0  0  0  0  0
  149.5065  135.5111  154.3050 N   0  0  0  0  0  0  0  0  0  0  0  0
  149.3513  134.2490  154.7352 C   0  0  0  0  0  0  0  0  0  0  0  0
  149.6667  133.8782  155.8663 O   0  0  0  0  0  0  0  0  0  0  0  0
  148.7452  133.2601  153.7350 C   0  0  0  0  0  0  0  0  0  0  0  0
  147.4107  133.7524  153.1434 C   0  0  0  0  0  0  0  0  0  0  0  0
  146.9662  132.9567  151.9032 C   0  0  0  0  0  0  0  0  0  0  0  0
  145.9383  133.6958  151.0434 C   0  0  0  0  0  0  0  0  0  0  0  0
  145.2901  132.6090  150.1802 C   0  0  0  0  0  0  0  0  0  0  0  0
  145.4684  131.2901  150.9471 C   0  0  0  0  0  0  0  0  0  0  0  0
  146.2646  131.6303  152.2126 C   0  0  0  0  0  0  0  0  0  0  0  0
  153.3001  137.5298  154.8752 H   0  0  0  0  0  0  0  0  0  0  0  0
  152.8437  137.3120  156.5615 H   0  0  0  0  0  0  0  0  0  0  0  0
  154.0874  138.4815  156.1275 H   0  0  0  0  0  0  0  0  0  0  0  0
  150.1233  142.4053  157.0817 H   0  0  0  0  0  0  0  0  0  0  0  0
  150.8449  143.0190  155.5789 H   0  0  0  0  0  0  0  0  0  0  0  0
  151.8773  142.6516  156.9741 H   0  0  0  0  0  0  0  0  0  0  0  0
  148.3560  140.0416  154.1878 H   0  0  0  0  0  0  0  0  0  0  0  0
  149.1150  141.6193  153.9833 H   0  0  0  0  0  0  0  0  0  0  0  0
  148.3712  141.1852  155.5246 H   0  0  0  0  0  0  0  0  0  0  0  0
  149.3971  138.0902  153.6593 H   0  0  0  0  0  0  0  0  0  0  0  0
  151.0274  137.5707  153.4093 H   0  0  0  0  0  0  0  0  0  0  0  0
  151.0140  136.2797  155.5135 H   0  0  0  0  0  0  0  0  0  0  0  0
  149.5270  137.6793  156.9207 H   0  0  0  0  0  0  0  0  0  0  0  0
  148.9435  136.0249  156.8701 H   0  0  0  0  0  0  0  0  0  0  0  0
  148.1462  137.2677  155.9079 H   0  0  0  0  0  0  0  0  0  0  0  0
  149.2173  135.7281  153.3623 H   0  0  0  0  0  0  0  0  0  0  0  0
  149.4689  133.0971  152.9359 H   0  0  0  0  0  0  0  0  0  0  0  0
  148.5993  132.2969  154.2258 H   0  0  0  0  0  0  0  0  0  0  0  0
  146.6312  133.7120  153.9058 H   0  0  0  0  0  0  0  0  0  0  0  0
  147.5057  134.8023  152.8621 H   0  0  0  0  0  0  0  0  0  0  0  0
  147.8385  132.7493  151.2809 H   0  0  0  0  0  0  0  0  0  0  0  0
  145.1795  134.1515  151.6817 H   0  0  0  0  0  0  0  0  0  0  0  0
  146.3867  134.4897  150.4454 H   0  0  0  0  0  0  0  0  0  0  0  0
  144.2408  132.8294  149.9806 H   0  0  0  0  0  0  0  0  0  0  0  0
  145.7990  132.5454  149.2175 H   0  0  0  0  0  0  0  0  0  0  0  0
  144.5105  130.8321  151.1956 H   0  0  0  0  0  0  0  0  0  0  0  0
  146.0200  130.5775  150.3324 H   0  0  0  0  0  0  0  0  0  0  0  0
  146.9646  130.8395  152.4835 H   0  0  0  0  0  0  0  0  0  0  0  0
  145.5759  131.7605  153.0486 H   0  0  0  0  0  0  0  0  0  0  0  0
  1  2  1  0  0  0  0
  1 22  1  0  0  0  0
  1 23  1  0  0  0  0
  1 24  1  0  0  0  0
  2  8  1  0  0  0  0
  2  3  2  0  0  0  0
  3  4  1  0  0  0  0
  4  5  1  0  0  0  0
  4  6  1  0  0  0  0
  5 25  1  0  0  0  0
  5 26  1  0  0  0  0
  5 27  1  0  0  0  0
  6  7  1  0  0  0  0
  6  8  2  0  0  0  0
  7 28  1  0  0  0  0
  7 29  1  0  0  0  0
  7 30  1  0  0  0  0
  8  9  1  0  0  0  0
  9 10  1  0  0  0  0
  9 31  1  0  0  0  0
  9 32  1  0  0  0  0
 10 11  1  0  0  0  0
 10 12  1  0  0  0  0
 10 33  1  0  0  0  0
 11 34  1  0  0  0  0
 11 35  1  0  0  0  0
 11 36  1  0  0  0  0
 12 13  1  0  0  0  0
 12 37  1  0  0  0  0
 13 14  2  0  0  0  0
 13 15  1  0  0  0  0
 15 16  1  0  0  0  0
 15 38  1  0  0  0  0
 15 39  1  0  0  0  0
 16 17  1  0  0  0  0
 16 40  1  0  0  0  0
 16 41  1  0  0  0  0
 17 21  1  0  0  0  0
 17 18  1  0  0  0  0
 17 42  1  0  0  0  0
 18 19  1  0  0  0  0
 18 43  1  0  0  0  0
 18 44  1  0  0  0  0
 19 20  1  0  0  0  0
 19 45  1  0  0  0  0
 19 46  1  0  0  0  0
 20 21  1  0  0  0  0
 20 47  1  0  0  0  0
 20 48  1  0  0  0  0
 21 49  1  0  0  0  0
 21 50  1  0  0  0  0
M  END
> <s_m_source_file>
AV-unprocessed.smi

> <i_m_source_file_index>
685

> <i_lp_mmshare_version>
43012

> <i_f3d_flags>
0

> <s_epik_input>
W0NIM11jMW5uKFtDSDNdKWMoW0NIM10pYzFbQ0gyXVtDQEhdKFtDSDNdKVtOSF1DKD1PKVtDSDJdW0NIMl1bQ0hdMltDSDJdW0NIMl1bQ0gyXVtDSDJdMg==

> <s_epik_cmdline>
J2VwaWtfcHl0aG9uJywgJy1waCcsICc3LjAnLCAnLXRuJywgJzgnLCAnLW1hJywgJzIwMCcsICctbWV0YWxfYmluZGluZycsICctaW1hZScsICc8aW5maWxlLm1hZT4nLCAnLW9tYWUnLCAnPG91dGZpbGUubWFlPic=

> <r_lp_tautomer_probability>
1

> <r_epik_Ionization_Penalty>
0.0131144

> <r_epik_Ionization_Penalty_Charging>
0

> <r_epik_Ionization_Penalty_Neutral>
0.0131144

> <r_epik_State_Penalty>
0.0101889

> <r_epik_Charging_Adjusted_Penalty>
0.0101889

> <i_epik_Tot_Q>
0

> <i_epik_Tot_abs_Q>
0

> <r_epik_Metal_State_Penalty>
0.00996794

> <b_epik_Metal_Only>
0

> <s_lp_Force_Field>
OPLS_2005

> <r_lp_Energy>
16.0397

> <b_lp_Chiralities_Consistent>
1

> <s_lp_Variant>
AV-unprocessed.smi:685-2

> <Gold.Version>
5.8.1

> <Gold.Id.Protein>
6NUR|6NUR_protein|mol2

> <Gold.PLP.Fitness>
44.4394

> <Gold.PLP.PLP>
-39.2564

> <Gold.PLP.part.hbond>
-2.5433

> <Gold.PLP.part.metal>
0.0000

> <Gold.PLP.part.buried>
1.1668

> <Gold.PLP.part.nonpolar>
-37.6994

> <Gold.PLP.part.repulsive>
0.0608

> <Gold.PLP.ligand.clash>
0.0000

> <Gold.PLP.ligand.torsion>
0.3725

> <Gold.PLP.Chemscore.Hbond>
1.9500

> <Gold.PLP.Chemscore.CHOScore>
0.0000

> <Gold.PLP.Chemscore.Metal>
0.0000

> <Gold.Chemscore.Hbonds>
donor molecule, donor type, donor heavy atom, donor atom, acceptor molecule, acceptor atom, score
      L1  H    12    37       P1  7948  1.00
      P1  H  7997  8008       L1     3  0.62

> <Gold.PLP.Chemscore.Internal.Correction>
0.0781

> <Gold.Rescore>
     Score         DG    S(hbond)    S(metal)    S(lipo)     H(rot)  DE(clash)    DE(int)     intcor
     15.87     -17.47       1.30        0.00      98.74       1.53       0.46       1.15       ----

> <Gold.Chemscore.Fitness>
15.8688

> <Gold.Chemscore.DG>
-17.4728

> <Gold.Chemscore.ZeroCoef>
-5.4800

> <Gold.Chemscore.Hbond>
1.3019

> <Gold.Chemscore.Metal>
0.0000

> <Gold.Chemscore.Lipo>
98.7437

> <Gold.Chemscore.Internal_Hbond>
0.0000

> <Gold.Chemscore.DEClash>
0.4558

> <Gold.Chemscore.DEInternal>
1.1482

> <Gold.Chemscore.Rot>
1.5268

> <Gold.Chemscore.Internal.Correction>
   9.000000E+99

> <Gold.Chemscore.Hbonds>
donor molecule, donor type, donor heavy atom, donor atom, acceptor molecule, acceptor atom, score
      L1  H    12    37       P1  7948  0.54
      P1  H  7997  8008       L1     3  0.08

> <Gold.Chemscore.Hbond.Weighted>
-4.3484

> <Gold.Chemscore.Metal.Weighted>
-0.0000

> <Gold.Chemscore.Lipo.Weighted>
-11.5530

> <Gold.Chemscore.Internal_Hbond.Weighted>
0.0000

> <Gold.Chemscore.DEClash.Weighted>
0.4558

> <Gold.Chemscore.DEInternal.Weighted>
1.1482

> <Gold.Chemscore.Rot.Weighted>
3.9086

> <Gold.Chemscore.Internal.Correction.Weighted>
   9.000000E+99

> <Gold.Protein.RotatedTorsions>
[ 6907 6896 6895 6894 ] final    1.43 input  -60.11 | X-H torsion
[ 7974 7965 7964 7962 ] final  -16.02 input  175.53 | X-H torsion
[ 8008 7997 7996 7995 ] final  -44.89 input   59.86 | X-H torsion
[ 10167 10162 10161 10158 ] final -157.50 input  -65.29 | X-H torsion
[ 10718 10713 10712 10709 ] final   13.50 input   66.30 | X-H torsion
[ 10763 10752 10751 10750 ] final    0.14 input  -60.55 | X-H torsion
[ 11005 11000 10999 10996 ] final -176.19 input  -57.11 | X-H torsion

> <Gold.Protein.ActiveResidues>
 VAL166  LYS551  ARG553  GLY616  TRP617  ASP618  TYR619  PRO620  LYS621  CYS622 
 ASP623  PHE694  ASN695  SER759  ASP760  ASP761  ALA762  ILE779  LEU786  VAL792 
 PHE793  MET794  SER795  GLU796  ALA797  LYS798  CYS799  TRP800  GLU811  SER814 

> <Gold.Protein.RotatedAtoms>
  151.5925  135.1052  160.0041 H   0  0  0  0  0  0  0  0  0  0  0  0  # atno 6907 bound_to 6896
  152.4299  133.7255  159.6568 H   0  0  0  0  0  0  0  0  0  0  0  0  # atno 6908 bound_to 6896
  150.8191  133.8214  159.3170 H   0  0  0  0  0  0  0  0  0  0  0  0  # atno 6909 bound_to 6896
  146.2006  140.3576  142.8424 H   0  0  0  0  0  0  0  0  0  0  0  0  # atno 7974 bound_to 7965
  154.3999  140.1411  156.3757 H   0  0  0  0  0  0  0  0  0  0  0  0  # atno 8008 bound_to 7997
  155.8051  140.3474  155.5404 H   0  0  0  0  0  0  0  0  0  0  0  0  # atno 8009 bound_to 7997
  155.8444  140.0931  157.1705 H   0  0  0  0  0  0  0  0  0  0  0  0  # atno 8010 bound_to 7997
  139.6765  143.9654  152.2313 H   0  0  0  0  0  0  0  0  0  0  0  0  # atno 10167 bound_to 10162
  157.0256  130.6172  149.5727 H   0  0  0  0  0  0  0  0  0  0  0  0  # atno 10718 bound_to 10713
  153.3245  135.6971  153.7001 H   0  0  0  0  0  0  0  0  0  0  0  0  # atno 10763 bound_to 10752
  153.5828  135.3495  155.2882 H   0  0  0  0  0  0  0  0  0  0  0  0  # atno 10764 bound_to 10752
  154.8605  135.4299  154.2418 H   0  0  0  0  0  0  0  0  0  0  0  0  # atno 10765 bound_to 10752
  140.4549  134.6309  157.4817 H   0  0  0  0  0  0  0  0  0  0  0  0  # atno 11005 bound_to 11000
  144.8676  140.7227  143.6067 LP  0  0  0  0  0  0  0  0  0  0  0  0  # atno 17320 bound_to 7965
  145.3495  139.1710  143.4442 LP  0  0  0  0  0  0  0  0  0  0  0  0  # atno 17321 bound_to 7965
  139.9433  144.6668  150.8245 LP  0  0  0  0  0  0  0  0  0  0  0  0  # atno 17342 bound_to 10162
  140.7637  143.3230  151.2579 LP  0  0  0  0  0  0  0  0  0  0  0  0  # atno 17343 bound_to 10162
  156.0087  130.5176  150.7917 LP  0  0  0  0  0  0  0  0  0  0  0  0  # atno 17370 bound_to 10713
  157.5216  131.0932  151.0071 LP  0  0  0  0  0  0  0  0  0  0  0  0  # atno 17371 bound_to 10713
  139.9983  134.6877  155.9573 LP  0  0  0  0  0  0  0  0  0  0  0  0  # atno 17394 bound_to 11000
  141.1647  133.6537  156.4440 LP  0  0  0  0  0  0  0  0  0  0  0  0  # atno 17395 bound_to 11000

$$$$
