AV-unprocessed.smi:16|AV-procd|sdf|91|dock3
  -GOLD-   2262015233D 1   1.00000     0.00000
 Structure written by MMmdl.
 60 64  0  0  0  0  0  0  0  0  2 V2000
  150.9580  136.5979  154.7886 C   0  0  0  0  0  0  0  0  0  0  0  0
  151.2539  138.0572  155.1663 C   0  0  0  0  0  0  0  0  0  0  0  0
  150.5118  138.5013  156.3769 N   0  3  1  0  0  0  0  0  0  0  0  0
  150.8646  139.8802  156.8097 C   0  0  0  0  0  0  0  0  0  0  0  0
  150.2115  140.9529  155.9173 C   0  0  0  0  0  0  0  0  0  0  0  0
  148.6902  140.7610  155.8740 C   0  0  1  0  0  0  0  0  0  0  0  0
  148.1056  141.7159  154.9960 O   0  0  0  0  0  0  0  0  0  0  0  0
  146.6846  141.6182  154.9865 C   0  0  0  0  0  0  0  0  0  0  0  0
  146.2675  140.2203  154.4988 C   0  0  0  0  0  0  0  0  0  0  0  0
  146.8982  139.1841  155.3112 N   0  0  0  0  0  0  0  0  0  0  0  0
  146.4678  137.9496  154.9655 C   0  0  0  0  0  0  0  0  0  0  0  0
  146.2985  136.9938  155.9175 N   0  0  0  0  0  0  0  0  0  0  0  0
  145.8412  135.7860  155.5733 C   0  0  0  0  0  0  0  0  0  0  0  0
  145.4959  135.3376  154.3642 N   0  0  0  0  0  0  0  0  0  0  0  0
  145.6706  136.2955  153.4082 C   0  0  0  0  0  0  0  0  0  0  0  0
  146.1482  137.6181  153.6239 C   0  0  0  0  0  0  0  0  0  0  0  0
  146.1740  138.3203  152.4269 N   0  0  0  0  0  0  0  0  0  0  0  0
  145.7296  137.4614  151.5500 C   0  0  0  0  0  0  0  0  0  0  0  0
  145.4264  136.2133  152.0481 N   0  0  0  0  0  0  0  0  0  0  0  0
  144.8695  135.1139  151.3148 C   0  0  0  0  0  0  0  0  0  0  0  0
  144.4460  133.8196  152.0151 C   0  0  0  0  0  0  0  0  0  0  0  0
  144.9247  132.9923  150.8013 C   0  0  0  0  0  0  0  0  0  0  0  0
  145.7698  131.7569  151.1474 C   0  0  0  0  0  0  0  0  0  0  0  0
  146.4158  131.2368  150.0032 O   0  0  0  0  0  0  0  0  0  0  0  0
  143.8509  132.5378  149.7868 C   0  0  0  0  0  0  0  0  0  0  0  0
  143.2436  133.6093  149.0934 O   0  0  0  0  0  0  0  0  0  0  0  0
  145.7478  134.2408  150.4126 C   0  0  0  0  0  0  0  0  0  0  0  0
  148.3532  139.3381  155.3818 C   0  0  2  0  0  0  0  0  0  0  0  0
  149.0370  138.3044  156.3133 C   0  0  0  0  0  0  0  0  0  0  0  0
  148.2913  140.9128  156.8794 H   0  0  0  0  0  0  0  0  0  0  0  0
  148.7437  139.2224  154.3699 H   0  0  0  0  0  0  0  0  0  0  0  0
  151.6151  136.2716  153.9821 H   0  0  0  0  0  0  0  0  0  0  0  0
  149.9347  136.4630  154.4394 H   0  0  0  0  0  0  0  0  0  0  0  0
  151.1185  135.9297  155.6353 H   0  0  0  0  0  0  0  0  0  0  0  0
  152.3235  138.1345  155.3649 H   0  0  0  0  0  0  0  0  0  0  0  0
  151.0542  138.7146  154.3204 H   0  0  0  0  0  0  0  0  0  0  0  0
  150.5245  140.0119  157.8378 H   0  0  0  0  0  0  0  0  0  0  0  0
  151.9475  140.0072  156.8319 H   0  0  0  0  0  0  0  0  0  0  0  0
  150.4487  141.9463  156.2995 H   0  0  0  0  0  0  0  0  0  0  0  0
  150.6228  140.9047  154.9084 H   0  0  0  0  0  0  0  0  0  0  0  0
  146.2872  141.8172  155.9831 H   0  0  0  0  0  0  0  0  0  0  0  0
  146.2804  142.3837  154.3241 H   0  0  0  0  0  0  0  0  0  0  0  0
  145.1822  140.1202  154.5457 H   0  0  0  0  0  0  0  0  0  0  0  0
  146.5567  140.0962  153.4541 H   0  0  0  0  0  0  0  0  0  0  0  0
  145.7338  135.0782  156.3820 H   0  0  0  0  0  0  0  0  0  0  0  0
  145.6098  137.7174  150.5071 H   0  0  0  0  0  0  0  0  0  0  0  0
  144.0350  135.5322  150.7509 H   0  0  0  0  0  0  0  0  0  0  0  0
  145.0312  133.6270  152.9161 H   0  0  0  0  0  0  0  0  0  0  0  0
  143.3778  133.7513  152.2228 H   0  0  0  0  0  0  0  0  0  0  0  0
  146.5212  131.9911  151.9024 H   0  0  0  0  0  0  0  0  0  0  0  0
  145.1487  130.9648  151.5668 H   0  0  0  0  0  0  0  0  0  0  0  0
  147.3374  131.4377  150.0622 H   0  0  0  0  0  0  0  0  0  0  0  0
  144.2828  131.8676  149.0429 H   0  0  0  0  0  0  0  0  0  0  0  0
  143.0557  131.9806  150.2827 H   0  0  0  0  0  0  0  0  0  0  0  0
  142.3491  133.6891  149.3883 H   0  0  0  0  0  0  0  0  0  0  0  0
  145.7095  134.5061  149.3557 H   0  0  0  0  0  0  0  0  0  0  0  0
  146.7806  134.1934  150.7620 H   0  0  0  0  0  0  0  0  0  0  0  0
  148.8138  137.2822  156.0122 H   0  0  0  0  0  0  0  0  0  0  0  0
  148.6355  138.4065  157.3225 H   0  0  0  0  0  0  0  0  0  0  0  0
  150.8409  137.8966  157.1160 H   0  0  0  0  0  0  0  0  0  0  0  0
  1  2  1  0  0  0  0
  1 32  1  0  0  0  0
  1 33  1  0  0  0  0
  1 34  1  0  0  0  0
  2  3  1  0  0  0  0
  2 35  1  0  0  0  0
  2 36  1  0  0  0  0
  3 29  1  0  0  0  0
  3  4  1  0  0  0  0
  3 60  1  0  0  0  0
  4  5  1  0  0  0  0
  4 37  1  0  0  0  0
  4 38  1  0  0  0  0
  5  6  1  0  0  0  0
  5 39  1  0  0  0  0
  5 40  1  0  0  0  0
  6 30  1  0  0  0  0
  6 28  1  0  0  0  0
  6  7  1  0  0  0  0
  7  8  1  0  0  0  0
  8  9  1  0  0  0  0
  8 41  1  0  0  0  0
  8 42  1  0  0  0  0
  9 10  1  0  0  0  0
  9 43  1  0  0  0  0
  9 44  1  0  0  0  0
 10 11  1  0  0  0  0
 10 28  1  0  0  0  0
 11 16  1  0  0  0  0
 11 12  2  0  0  0  0
 12 13  1  0  0  0  0
 13 14  2  0  0  0  0
 13 45  1  0  0  0  0
 14 15  1  0  0  0  0
 15 19  1  0  0  0  0
 15 16  2  0  0  0  0
 16 17  1  0  0  0  0
 17 18  2  0  0  0  0
 18 19  1  0  0  0  0
 18 46  1  0  0  0  0
 19 20  1  0  0  0  0
 20 27  1  0  0  0  0
 20 21  1  0  0  0  0
 20 47  1  0  0  0  0
 21 22  1  0  0  0  0
 21 48  1  0  0  0  0
 21 49  1  0  0  0  0
 22 23  1  0  0  0  0
 22 25  1  0  0  0  0
 22 27  1  0  0  0  0
 23 24  1  0  0  0  0
 23 50  1  0  0  0  0
 23 51  1  0  0  0  0
 24 52  1  0  0  0  0
 25 26  1  0  0  0  0
 25 53  1  0  0  0  0
 25 54  1  0  0  0  0
 26 55  1  0  0  0  0
 27 56  1  0  0  0  0
 27 57  1  0  0  0  0
 28 31  1  0  0  0  0
 28 29  1  0  0  0  0
 29 58  1  0  0  0  0
 29 59  1  0  0  0  0
M  CHG  1   3   1
M  END
> <s_m_source_file>
AV-unprocessed.smi

> <i_m_source_file_index>
16

> <i_lp_mmshare_version>
43012

> <i_f3d_flags>
0

> <s_epik_input>
W0NIM11bQ0gyXU4oW0NIMl1bQ0gyXTEpW0NIMl1bQ0BASF0oW0NAQEhdMTIpTihbQ0gyXVtDSDJdTzIpYyhuW2NIXW4zKWMoYzM0KW5bY0hdbjRbQ0hdKFtDSDJdNSlbQ0gyXUM1KFtDSDJdW09IXSlbQ0gyXVtPSF0=

> <s_epik_cmdline>
J2VwaWtfcHl0aG9uJywgJy1waCcsICc3LjAnLCAnLXRuJywgJzgnLCAnLW1hJywgJzIwMCcsICctbWV0YWxfYmluZGluZycsICctaW1hZScsICc8aW5maWxlLm1hZT4nLCAnLW9tYWUnLCAnPG91dGZpbGUubWFlPic=

> <r_lp_tautomer_probability>
1

> <r_epik_Ionization_Penalty>
0.0135603

> <r_epik_Ionization_Penalty_Charging>
0.0131385

> <r_epik_Ionization_Penalty_Neutral>
0.000421734

> <r_epik_State_Penalty>
0.0102091

> <r_epik_Charging_Adjusted_Penalty>
0.0233476

> <i_epik_Tot_Q>
1

> <i_epik_Tot_abs_Q>
1

> <r_epik_Metal_State_Penalty>
0.0103746

> <b_epik_Metal_Only>
0

> <s_lp_Force_Field>
OPLS_2005

> <r_lp_Energy>
58.6505

> <b_lp_Chiralities_Consistent>
1

> <s_lp_Variant>
AV-unprocessed.smi:16-5

> <Gold.Version>
5.8.1

> <Gold.Id.Protein>
6NUR|6NUR_protein|mol2

> <Gold.PLP.Fitness>
44.4182

> <Gold.PLP.PLP>
-38.2211

> <Gold.PLP.part.hbond>
-3.0522

> <Gold.PLP.part.metal>
0.0000

> <Gold.PLP.part.buried>
-2.8694

> <Gold.PLP.part.nonpolar>
-33.9079

> <Gold.PLP.part.repulsive>
0.6781

> <Gold.PLP.ligand.clash>
0.0728

> <Gold.PLP.ligand.torsion>
1.2341

> <Gold.PLP.Chemscore.Hbond>
2.3500

> <Gold.PLP.Chemscore.CHOScore>
0.3487

> <Gold.PLP.Chemscore.Metal>
0.0000

> <Gold.Chemscore.Hbonds>
donor molecule, donor type, donor heavy atom, donor atom, acceptor molecule, acceptor atom, score
      L1  H    24    52       P1 10747  0.96
      L1  H    26    55       P1 10186  1.00
      L1  C    18    46       P1 10171  0.84

> <Gold.PLP.Chemscore.Internal.Correction>
0.6420

> <Gold.Rescore>
     Score         DG    S(hbond)    S(metal)    S(lipo)     H(rot)  DE(clash)    DE(int)     intcor
      8.40     -15.41       2.25        0.00      93.46       3.33       2.18       4.82       ----

> <Gold.Chemscore.Fitness>
8.3999

> <Gold.Chemscore.DG>
-15.4076

> <Gold.Chemscore.ZeroCoef>
-5.4800

> <Gold.Chemscore.Hbond>
2.2470

> <Gold.Chemscore.Metal>
0.0000

> <Gold.Chemscore.Lipo>
93.4588

> <Gold.Chemscore.Internal_Hbond>
0.0000

> <Gold.Chemscore.DEClash>
2.1827

> <Gold.Chemscore.DEInternal>
4.8249

> <Gold.Chemscore.Rot>
3.3251

> <Gold.Chemscore.Internal.Correction>
   9.000000E+99

> <Gold.Chemscore.Hbonds>
donor molecule, donor type, donor heavy atom, donor atom, acceptor molecule, acceptor atom, score
      L1  H    24    52       P1 10747  0.92
      L1  H    26    55       P1 10186  0.91

> <Gold.Chemscore.Hbond.Weighted>
-7.5051

> <Gold.Chemscore.Metal.Weighted>
-0.0000

> <Gold.Chemscore.Lipo.Weighted>
-10.9347

> <Gold.Chemscore.Internal_Hbond.Weighted>
0.0000

> <Gold.Chemscore.DEClash.Weighted>
2.1827

> <Gold.Chemscore.DEInternal.Weighted>
4.8249

> <Gold.Chemscore.Rot.Weighted>
8.5122

> <Gold.Chemscore.Internal.Correction.Weighted>
   9.000000E+99

> <Gold.Protein.RotatedTorsions>
[ 6907 6896 6895 6894 ] final  -54.63 input  -60.11 | X-H torsion
[ 7974 7965 7964 7962 ] final -175.39 input  175.53 | X-H torsion
[ 8008 7997 7996 7995 ] final   84.07 input   59.86 | X-H torsion
[ 10167 10162 10161 10158 ] final  -71.79 input  -65.29 | X-H torsion
[ 10718 10713 10712 10709 ] final -136.44 input   66.30 | X-H torsion
[ 10763 10752 10751 10750 ] final  -81.67 input  -60.55 | X-H torsion
[ 11005 11000 10999 10996 ] final   88.59 input  -57.11 | X-H torsion

> <Gold.Protein.ActiveResidues>
 VAL166  LYS551  ARG553  GLY616  TRP617  ASP618  TYR619  PRO620  LYS621  CYS622 
 ASP623  PHE694  ASN695  SER759  ASP760  ASP761  ALA762  ILE779  LEU786  VAL792 
 PHE793  MET794  SER795  GLU796  ALA797  LYS798  CYS799  TRP800  GLU811  SER814 

> <Gold.Protein.RotatedAtoms>
  150.8321  134.7578  159.6861 H   0  0  0  0  0  0  0  0  0  0  0  0  # atno 6907 bound_to 6896
  152.4424  134.5561  159.9890 H   0  0  0  0  0  0  0  0  0  0  0  0  # atno 6908 bound_to 6896
  151.5720  133.3351  159.3027 H   0  0  0  0  0  0  0  0  0  0  0  0  # atno 6909 bound_to 6896
  144.7128  140.1329  143.6397 H   0  0  0  0  0  0  0  0  0  0  0  0  # atno 7974 bound_to 7965
  155.9323  140.3414  155.6259 H   0  0  0  0  0  0  0  0  0  0  0  0  # atno 8008 bound_to 7997
  155.7142  140.0775  157.2377 H   0  0  0  0  0  0  0  0  0  0  0  0  # atno 8009 bound_to 7997
  154.4087  140.1617  156.2318 H   0  0  0  0  0  0  0  0  0  0  0  0  # atno 8010 bound_to 7997
  140.5245  143.2328  151.7372 H   0  0  0  0  0  0  0  0  0  0  0  0  # atno 10167 bound_to 10162
  156.2771  130.7299  151.1285 H   0  0  0  0  0  0  0  0  0  0  0  0  # atno 10718 bound_to 10713
  154.5664  135.5618  153.7054 H   0  0  0  0  0  0  0  0  0  0  0  0  # atno 10763 bound_to 10752
  153.0034  135.6286  154.2174 H   0  0  0  0  0  0  0  0  0  0  0  0  # atno 10764 bound_to 10752
  154.2113  135.2873  155.2937 H   0  0  0  0  0  0  0  0  0  0  0  0  # atno 10765 bound_to 10752
  139.8893  134.8498  156.3023 H   0  0  0  0  0  0  0  0  0  0  0  0  # atno 11005 bound_to 11000
  145.9271  139.2582  143.1347 LP  0  0  0  0  0  0  0  0  0  0  0  0  # atno 17320 bound_to 7965
  145.9561  140.8871  143.0234 LP  0  0  0  0  0  0  0  0  0  0  0  0  # atno 17321 bound_to 7965
  139.4934  144.4206  151.9982 LP  0  0  0  0  0  0  0  0  0  0  0  0  # atno 17342 bound_to 10162
  140.3305  144.3322  150.5988 LP  0  0  0  0  0  0  0  0  0  0  0  0  # atno 17343 bound_to 10162
  157.7303  131.0618  150.5734 LP  0  0  0  0  0  0  0  0  0  0  0  0  # atno 17370 bound_to 10713
  156.5837  130.4311  149.5966 LP  0  0  0  0  0  0  0  0  0  0  0  0  # atno 17371 bound_to 10713
  140.9905  133.7211  156.0807 LP  0  0  0  0  0  0  0  0  0  0  0  0  # atno 17394 bound_to 11000
  140.7631  134.3917  157.5522 LP  0  0  0  0  0  0  0  0  0  0  0  0  # atno 17395 bound_to 11000

$$$$
