AV-unprocessed.smi:100|AV-procd|sdf|911|dock1
  -GOLD-   2262017413D 1   1.00000     0.00000
 Structure written by MMmdl.
 31 33  0  0  0  0  0  0  0  0  1 V2000
  150.9337  131.1029  156.0776 N   0  0  0  0  0  0  0  0  0  0  0  0
  149.9803  130.8468  155.1709 C   0  0  0  0  0  0  0  0  0  0  0  0
  149.6460  129.5562  154.9368 N   0  0  0  0  0  0  0  0  0  0  0  0
  148.6969  129.2747  154.0382 C   0  0  0  0  0  0  0  0  0  0  0  0
  147.9803  130.1162  153.2884 N   0  0  0  0  0  0  0  0  0  0  0  0
  148.3177  131.4178  153.5257 C   0  0  0  0  0  0  0  0  0  0  0  0
  149.3062  131.8628  154.4470 C   0  0  0  0  0  0  0  0  0  0  0  0
  149.3861  133.2484  154.4229 N   0  0  0  0  0  0  0  0  0  0  0  0
  148.4927  133.5987  153.5370 C   0  0  0  0  0  0  0  0  0  0  0  0
  147.8035  132.5617  152.9468 N   0  0  0  0  0  0  0  0  0  0  0  0
  146.7312  132.6614  151.9054 C   0  0  2  0  0  0  0  0  0  0  0  0
  146.8060  133.9017  151.2729 O   0  0  0  0  0  0  0  0  0  0  0  0
  145.4999  134.4195  151.0156 C   0  0  2  0  0  0  0  0  0  0  0  0
  145.3574  135.7626  151.7510 C   0  0  0  0  0  0  0  0  0  0  0  0
  144.1188  136.3647  151.4384 O   0  0  0  0  0  0  0  0  0  0  0  0
  144.5114  133.3462  151.4959 C   0  0  1  0  0  0  0  0  0  0  0  0
  144.1571  132.5779  150.4641 F   0  0  0  0  0  0  0  0  0  0  0  0
  145.3154  132.5158  152.4779 C   0  0  2  0  0  0  0  0  0  0  0  0
  145.1686  132.9876  153.8050 O   0  0  0  0  0  0  0  0  0  0  0  0
  151.2011  132.0572  156.2710 H   0  0  0  0  0  0  0  0  0  0  0  0
  151.3782  130.3414  156.5697 H   0  0  0  0  0  0  0  0  0  0  0  0
  148.4800  128.2257  153.9001 H   0  0  0  0  0  0  0  0  0  0  0  0
  148.3108  134.6337  153.2862 H   0  0  0  0  0  0  0  0  0  0  0  0
  146.9686  131.8836  151.1777 H   0  0  0  0  0  0  0  0  0  0  0  0
  145.3989  134.5846  149.9417 H   0  0  0  0  0  0  0  0  0  0  0  0
  145.4410  135.6359  152.8304 H   0  0  0  0  0  0  0  0  0  0  0  0
  146.1523  136.4431  151.4444 H   0  0  0  0  0  0  0  0  0  0  0  0
  144.2282  136.8877  150.6589 H   0  0  0  0  0  0  0  0  0  0  0  0
  143.5891  133.7502  151.9157 H   0  0  0  0  0  0  0  0  0  0  0  0
  145.0230  131.4652  152.4640 H   0  0  0  0  0  0  0  0  0  0  0  0
  144.3318  132.6969  154.1343 H   0  0  0  0  0  0  0  0  0  0  0  0
  1  2  1  0  0  0  0
  1 20  1  0  0  0  0
  1 21  1  0  0  0  0
  2  7  1  0  0  0  0
  2  3  2  0  0  0  0
  3  4  1  0  0  0  0
  4  5  2  0  0  0  0
  4 22  1  0  0  0  0
  5  6  1  0  0  0  0
  6 10  1  0  0  0  0
  6  7  2  0  0  0  0
  7  8  1  0  0  0  0
  8  9  2  0  0  0  0
  9 10  1  0  0  0  0
  9 23  1  0  0  0  0
 10 11  1  0  0  0  0
 11 18  1  0  0  0  0
 11 12  1  0  0  0  0
 11 24  1  0  0  0  0
 12 13  1  0  0  0  0
 13 14  1  0  0  0  0
 13 16  1  0  0  0  0
 13 25  1  0  0  0  0
 14 15  1  0  0  0  0
 14 26  1  0  0  0  0
 14 27  1  0  0  0  0
 15 28  1  0  0  0  0
 16 17  1  0  0  0  0
 16 18  1  0  0  0  0
 16 29  1  0  0  0  0
 18 19  1  0  0  0  0
 18 30  1  0  0  0  0
 19 31  1  0  0  0  0
M  END
> <s_m_source_file>
AV-unprocessed.smi

> <i_m_source_file_index>
100

> <i_lp_mmshare_version>
43012

> <i_f3d_flags>
0

> <s_epik_input>
bjFbY0hdbmMoW05IMl0pYyhjMTIpbltjSF1uMltDQEBIXTNPW0NAQEhdKFtDSDJdW09IXSlbQ0BIXShGKVtDQEhdM1tPSF0=

> <s_epik_cmdline>
J2VwaWtfcHl0aG9uJywgJy1waCcsICc3LjAnLCAnLXRuJywgJzgnLCAnLW1hJywgJzIwMCcsICctbWV0YWxfYmluZGluZycsICctaW1hZScsICc8aW5maWxlLm1hZT4nLCAnLW9tYWUnLCAnPG91dGZpbGUubWFlPic=

> <r_lp_tautomer_probability>
1

> <r_epik_Ionization_Penalty>
0.000750324

> <r_epik_Ionization_Penalty_Charging>
0

> <r_epik_Ionization_Penalty_Neutral>
0.000750324

> <r_epik_State_Penalty>
-0

> <r_epik_Charging_Adjusted_Penalty>
0

> <i_epik_Tot_Q>
0

> <i_epik_Tot_abs_Q>
0

> <r_epik_Metal_State_Penalty>
-0

> <b_epik_Metal_Only>
0

> <s_epik_Chemistry_Notes>
This compound contains an acetal/aminal-like group ( X-CH(R)-Y where X, Y are N, S, or O) that may be acid/base labile, releasing an aldehyde.

> <s_lp_Force_Field>
OPLS_2005

> <r_lp_Energy>
38.301

> <b_lp_Chiralities_Consistent>
1

> <s_lp_Variant>
AV-unprocessed.smi:100-15

> <Gold.Version>
5.8.1

> <Gold.Id.Protein>
6NUR|6NUR_protein|mol2

> <Gold.PLP.Fitness>
37.7805

> <Gold.PLP.PLP>
-29.9344

> <Gold.PLP.part.hbond>
-2.0000

> <Gold.PLP.part.metal>
0.0000

> <Gold.PLP.part.buried>
-3.2191

> <Gold.PLP.part.nonpolar>
-24.8133

> <Gold.PLP.part.repulsive>
0.4895

> <Gold.PLP.ligand.clash>
0.0000

> <Gold.PLP.ligand.torsion>
0.5657

> <Gold.PLP.Chemscore.Hbond>
1.9920

> <Gold.PLP.Chemscore.CHOScore>
1.0000

> <Gold.PLP.Chemscore.Metal>
0.0000

> <Gold.Chemscore.Hbonds>
donor molecule, donor type, donor heavy atom, donor atom, acceptor molecule, acceptor atom, score
      L1  H    15    28       P1 10171  0.93
      L1  H    19    31       P1 10957  1.00
      L1  C     9    23       P1  7948  1.00

> <Gold.PLP.Chemscore.Internal.Correction>
0.0014

> <Gold.Rescore>
     Score         DG    S(hbond)    S(metal)    S(lipo)     H(rot)  DE(clash)    DE(int)     intcor
      6.63      -6.74       1.93        0.00      25.55       3.19       0.00       0.11       ----

> <Gold.Chemscore.Fitness>
6.6305

> <Gold.Chemscore.DG>
-6.7368

> <Gold.Chemscore.ZeroCoef>
-5.4800

> <Gold.Chemscore.Hbond>
1.9263

> <Gold.Chemscore.Metal>
0.0000

> <Gold.Chemscore.Lipo>
25.5513

> <Gold.Chemscore.Internal_Hbond>
0.0000

> <Gold.Chemscore.DEClash>
0.0000

> <Gold.Chemscore.DEInternal>
0.1063

> <Gold.Chemscore.Rot>
3.1901

> <Gold.Chemscore.Internal.Correction>
   9.000000E+99

> <Gold.Chemscore.Hbonds>
donor molecule, donor type, donor heavy atom, donor atom, acceptor molecule, acceptor atom, score
      L1  H    15    28       P1 10171  0.89
      L1  H    19    31       P1 10957  0.81

> <Gold.Chemscore.Hbond.Weighted>
-6.4339

> <Gold.Chemscore.Metal.Weighted>
-0.0000

> <Gold.Chemscore.Lipo.Weighted>
-2.9895

> <Gold.Chemscore.Internal_Hbond.Weighted>
0.0000

> <Gold.Chemscore.DEClash.Weighted>
0.0000

> <Gold.Chemscore.DEInternal.Weighted>
0.1063

> <Gold.Chemscore.Rot.Weighted>
8.1667

> <Gold.Chemscore.Internal.Correction.Weighted>
   9.000000E+99

> <Gold.Protein.RotatedTorsions>
[ 6907 6896 6895 6894 ] final -164.08 input  -60.11 | X-H torsion
[ 7974 7965 7964 7962 ] final    4.02 input  175.53 | X-H torsion
[ 8008 7997 7996 7995 ] final   21.47 input   59.86 | X-H torsion
[ 10167 10162 10161 10158 ] final   35.48 input  -65.29 | X-H torsion
[ 10718 10713 10712 10709 ] final  123.65 input   66.30 | X-H torsion
[ 10763 10752 10751 10750 ] final  -26.29 input  -60.55 | X-H torsion
[ 11005 11000 10999 10996 ] final   -9.74 input  -57.11 | X-H torsion

> <Gold.Protein.ActiveResidues>
 VAL166  LYS551  ARG553  GLY616  TRP617  ASP618  TYR619  PRO620  LYS621  CYS622 
 ASP623  PHE694  ASN695  SER759  ASP760  ASP761  ALA762  ILE779  LEU786  VAL792 
 PHE793  MET794  SER795  GLU796  ALA797  LYS798  CYS799  TRP800  GLU811  SER814 

> <Gold.Protein.RotatedAtoms>
  151.4061  133.3742  159.2737 H   0  0  0  0  0  0  0  0  0  0  0  0  # atno 6907 bound_to 6896
  150.9397  134.8809  159.7615 H   0  0  0  0  0  0  0  0  0  0  0  0  # atno 6908 bound_to 6896
  152.5066  134.4011  159.9469 H   0  0  0  0  0  0  0  0  0  0  0  0  # atno 6909 bound_to 6896
  146.2444  140.0598  142.8369 H   0  0  0  0  0  0  0  0  0  0  0  0  # atno 7974 bound_to 7965
  154.9511  140.3065  155.5075 H   0  0  0  0  0  0  0  0  0  0  0  0  # atno 8008 bound_to 7997
  156.2987  140.2318  156.4526 H   0  0  0  0  0  0  0  0  0  0  0  0  # atno 8009 bound_to 7997
  154.8054  140.0431  157.1292 H   0  0  0  0  0  0  0  0  0  0  0  0  # atno 8010 bound_to 7997
  140.4218  144.1449  150.6149 H   0  0  0  0  0  0  0  0  0  0  0  0  # atno 10167 bound_to 10162
  157.5648  131.1087  150.8474 H   0  0  0  0  0  0  0  0  0  0  0  0  # atno 10718 bound_to 10713
  153.7135  135.6949  153.5031 H   0  0  0  0  0  0  0  0  0  0  0  0  # atno 10763 bound_to 10752
  153.2255  135.4355  155.0536 H   0  0  0  0  0  0  0  0  0  0  0  0  # atno 10764 bound_to 10752
  154.8307  135.3471  154.6671 H   0  0  0  0  0  0  0  0  0  0  0  0  # atno 10765 bound_to 10752
  140.7373  133.8699  155.8940 H   0  0  0  0  0  0  0  0  0  0  0  0  # atno 11005 bound_to 11000
  145.0910  140.9284  143.4769 LP  0  0  0  0  0  0  0  0  0  0  0  0  # atno 17320 bound_to 7965
  145.0770  139.2988  143.5803 LP  0  0  0  0  0  0  0  0  0  0  0  0  # atno 17321 bound_to 7965
  140.4525  143.2481  151.9329 LP  0  0  0  0  0  0  0  0  0  0  0  0  # atno 17342 bound_to 10162
  139.4783  144.5548  151.8330 LP  0  0  0  0  0  0  0  0  0  0  0  0  # atno 17343 bound_to 10162
  156.8962  130.5230  149.5284 LP  0  0  0  0  0  0  0  0  0  0  0  0  # atno 17370 bound_to 10713
  156.0697  130.5733  150.9359 LP  0  0  0  0  0  0  0  0  0  0  0  0  # atno 17371 bound_to 10713
  140.9868  134.1332  157.4445 LP  0  0  0  0  0  0  0  0  0  0  0  0  # atno 17394 bound_to 11000
  139.8813  135.0028  156.6147 LP  0  0  0  0  0  0  0  0  0  0  0  0  # atno 17395 bound_to 11000

$$$$
