AV-unprocessed.smi:139|AV-procd|sdf|1184|dock10
  -GOLD-   2262018333D 1   1.00000     0.00000
 Structure written by MMmdl.
 50 53  0  0  0  0  0  0  0  0  1 V2000
  152.5564  138.0452  159.8598 O   0  0  0  0  0  0  0  0  0  0  0  0
  153.5374  138.7817  159.9722 C   0  0  0  0  0  0  0  0  0  0  0  0
  154.9017  138.2227  160.4021 C   0  0  0  0  0  0  0  0  0  0  0  0
  154.8815  137.5655  161.7272 N   0  0  0  0  0  0  0  0  0  0  0  0
  155.1328  138.3491  162.8807 C   0  0  0  0  0  0  0  0  0  0  0  0
  155.3630  139.5564  162.7954 O   0  0  0  0  0  0  0  0  0  0  0  0
  155.0945  137.6317  164.1500 C   0  0  0  0  0  0  0  0  0  0  0  0
  155.3359  138.2918  165.2954 F   0  0  0  0  0  0  0  0  0  0  0  0
  154.8262  136.3105  164.1937 C   0  0  0  0  0  0  0  0  0  0  0  0
  154.5686  135.5601  163.0603 N   0  0  0  0  0  0  0  0  0  0  0  0
  154.2686  134.0772  163.1377 C   0  0  1  0  0  0  0  0  0  0  0  0
  155.4085  133.2705  162.5073 C   0  0  0  0  0  0  0  0  0  0  0  0
  156.3212  133.0557  163.6944 C   0  0  0  0  0  0  0  0  0  0  0  0
  155.3177  132.8886  164.8313 C   0  0  0  0  0  0  0  0  0  0  0  0
  154.1890  133.6884  164.4791 O   0  0  0  0  0  0  0  0  0  0  0  0
  154.5899  136.1823  161.7930 C   0  0  0  0  0  0  0  0  0  0  0  0
  154.3611  135.5326  160.7702 O   0  0  0  0  0  0  0  0  0  0  0  0
  153.4979  140.1060  159.7487 N   0  0  0  0  0  0  0  0  0  0  0  0
  152.3301  140.8943  159.3462 C   0  0  1  0  0  0  0  0  0  0  0  0
  152.5017  142.3834  159.7134 C   0  0  0  0  0  0  0  0  0  0  0  0
  151.3638  143.2352  159.1484 C   0  0  0  0  0  0  0  0  0  0  0  0
  151.3199  143.1441  157.6193 C   0  0  0  0  0  0  0  0  0  0  0  0
  151.3847  141.7165  157.0981 C   0  0  0  0  0  0  0  0  0  0  0  0
  150.9580  141.4597  155.7781 C   0  0  0  0  0  0  0  0  0  0  0  0
  151.0061  140.1555  155.2531 C   0  0  0  0  0  0  0  0  0  0  0  0
  151.4801  139.0974  156.0484 C   0  0  0  0  0  0  0  0  0  0  0  0
  151.9093  139.3457  157.3653 C   0  0  0  0  0  0  0  0  0  0  0  0
  151.8772  140.6542  157.9009 C   0  0  0  0  0  0  0  0  0  0  0  0
  155.2563  137.5331  159.6343 H   0  0  0  0  0  0  0  0  0  0  0  0
  155.6265  139.0379  160.3780 H   0  0  0  0  0  0  0  0  0  0  0  0
  154.8189  135.8356  165.1630 H   0  0  0  0  0  0  0  0  0  0  0  0
  153.3012  133.9436  162.6506 H   0  0  0  0  0  0  0  0  0  0  0  0
  155.0089  132.3191  162.1543 H   0  0  0  0  0  0  0  0  0  0  0  0
  155.8789  133.7892  161.6713 H   0  0  0  0  0  0  0  0  0  0  0  0
  156.9821  132.1966  163.5783 H   0  0  0  0  0  0  0  0  0  0  0  0
  156.9372  133.9404  163.8596 H   0  0  0  0  0  0  0  0  0  0  0  0
  154.9966  131.8489  164.9034 H   0  0  0  0  0  0  0  0  0  0  0  0
  155.7296  133.1836  165.7964 H   0  0  0  0  0  0  0  0  0  0  0  0
  154.3575  140.6202  159.8743 H   0  0  0  0  0  0  0  0  0  0  0  0
  151.5083  140.5155  159.9550 H   0  0  0  0  0  0  0  0  0  0  0  0
  152.5631  142.4978  160.7961 H   0  0  0  0  0  0  0  0  0  0  0  0
  153.4389  142.7701  159.3123 H   0  0  0  0  0  0  0  0  0  0  0  0
  150.4172  142.8861  159.5625 H   0  0  0  0  0  0  0  0  0  0  0  0
  151.4741  144.2749  159.4576 H   0  0  0  0  0  0  0  0  0  0  0  0
  150.4159  143.6286  157.2483 H   0  0  0  0  0  0  0  0  0  0  0  0
  152.1634  143.6912  157.1967 H   0  0  0  0  0  0  0  0  0  0  0  0
  150.5910  142.2672  155.1616 H   0  0  0  0  0  0  0  0  0  0  0  0
  150.6774  139.9670  154.2418 H   0  0  0  0  0  0  0  0  0  0  0  0
  151.5132  138.0943  155.6497 H   0  0  0  0  0  0  0  0  0  0  0  0
  152.2629  138.5198  157.9646 H   0  0  0  0  0  0  0  0  0  0  0  0
  1  2  2  0  0  0  0
  2  3  1  0  0  0  0
  2 18  1  0  0  0  0
  3  4  1  0  0  0  0
  3 29  1  0  0  0  0
  3 30  1  0  0  0  0
  4 16  1  0  0  0  0
  4  5  1  0  0  0  0
  5  6  2  0  0  0  0
  5  7  1  0  0  0  0
  7  8  1  0  0  0  0
  7  9  2  0  0  0  0
  9 10  1  0  0  0  0
  9 31  1  0  0  0  0
 10 11  1  0  0  0  0
 10 16  1  0  0  0  0
 11 15  1  0  0  0  0
 11 12  1  0  0  0  0
 11 32  1  0  0  0  0
 12 13  1  0  0  0  0
 12 33  1  0  0  0  0
 12 34  1  0  0  0  0
 13 14  1  0  0  0  0
 13 35  1  0  0  0  0
 13 36  1  0  0  0  0
 14 15  1  0  0  0  0
 14 37  1  0  0  0  0
 14 38  1  0  0  0  0
 16 17  2  0  0  0  0
 18 19  1  0  0  0  0
 18 39  1  0  0  0  0
 19 28  1  0  0  0  0
 19 20  1  0  0  0  0
 19 40  1  0  0  0  0
 20 21  1  0  0  0  0
 20 41  1  0  0  0  0
 20 42  1  0  0  0  0
 21 22  1  0  0  0  0
 21 43  1  0  0  0  0
 21 44  1  0  0  0  0
 22 23  1  0  0  0  0
 22 45  1  0  0  0  0
 22 46  1  0  0  0  0
 23 28  2  0  0  0  0
 23 24  1  0  0  0  0
 24 25  2  0  0  0  0
 24 47  1  0  0  0  0
 25 26  1  0  0  0  0
 25 48  1  0  0  0  0
 26 27  2  0  0  0  0
 26 49  1  0  0  0  0
 27 28  1  0  0  0  0
 27 50  1  0  0  0  0
M  END
> <s_m_source_file>
AV-unprocessed.smi

> <i_m_source_file_index>
139

> <i_lp_mmshare_version>
43012

> <i_f3d_flags>
0

> <s_epik_input>
W2NIXTFbY0hdW2NIXVtjSF1jKGMxMilbQ0BASF0oW0NIMl1bQ0gyXVtDSDJdMilbTkhdQyg9TylbQ0gyXW4zYyg9TyljKEYpW2NIXW4oYzM9TylbQ0BASF00W0NIMl1bQ0gyXVtDSDJdTzQ=

> <s_epik_cmdline>
J2VwaWtfcHl0aG9uJywgJy1waCcsICc3LjAnLCAnLXRuJywgJzgnLCAnLW1hJywgJzIwMCcsICctbWV0YWxfYmluZGluZycsICctaW1hZScsICc8aW5maWxlLm1hZT4nLCAnLW9tYWUnLCAnPG91dGZpbGUubWFlPic=

> <r_lp_tautomer_probability>
1

> <r_epik_Ionization_Penalty>
3.261e-08

> <r_epik_Ionization_Penalty_Charging>
3.6725e-09

> <r_epik_Ionization_Penalty_Neutral>
2.89375e-08

> <r_epik_State_Penalty>
-0

> <r_epik_Charging_Adjusted_Penalty>
3.6725e-09

> <i_epik_Tot_Q>
0

> <i_epik_Tot_abs_Q>
0

> <r_epik_Metal_State_Penalty>
-0

> <b_epik_Metal_Only>
0

> <s_epik_Chemistry_Notes>
This compound contains an acetal/aminal-like group ( X-CH(R)-Y where X, Y are N, S, or O) that may be acid/base labile, releasing an aldehyde.

> <s_lp_Force_Field>
OPLS_2005

> <r_lp_Energy>
31.2563

> <b_lp_Chiralities_Consistent>
1

> <s_lp_Variant>
AV-unprocessed.smi:139-4

> <Gold.Version>
5.8.1

> <Gold.Id.Protein>
6NUR|6NUR_protein|mol2

> <Gold.PLP.Fitness>
45.5270

> <Gold.PLP.PLP>
-45.4850

> <Gold.PLP.part.hbond>
-0.3643

> <Gold.PLP.part.metal>
0.0000

> <Gold.PLP.part.buried>
-5.5547

> <Gold.PLP.part.nonpolar>
-38.2621

> <Gold.PLP.part.repulsive>
0.1524

> <Gold.PLP.ligand.clash>
0.0000

> <Gold.PLP.ligand.torsion>
0.6722

> <Gold.PLP.Chemscore.Hbond>
0.4388

> <Gold.PLP.Chemscore.CHOScore>
0.0000

> <Gold.PLP.Chemscore.Metal>
0.0000

> <Gold.Chemscore.Hbonds>
donor molecule, donor type, donor heavy atom, donor atom, acceptor molecule, acceptor atom, score
      P1  H  6896  6909       L1    17  0.52

> <Gold.PLP.Chemscore.Internal.Correction>
0.0702

> <Gold.Rescore>
     Score         DG    S(hbond)    S(metal)    S(lipo)     H(rot)  DE(clash)    DE(int)     intcor
     15.38     -16.80       1.00        0.00     107.97       1.82       0.43       1.00       ----

> <Gold.Chemscore.Fitness>
15.3754

> <Gold.Chemscore.DG>
-16.7993

> <Gold.Chemscore.ZeroCoef>
-5.4800

> <Gold.Chemscore.Hbond>
0.9999

> <Gold.Chemscore.Metal>
0.0000

> <Gold.Chemscore.Lipo>
107.9657

> <Gold.Chemscore.Internal_Hbond>
0.0000

> <Gold.Chemscore.DEClash>
0.4260

> <Gold.Chemscore.DEInternal>
0.9979

> <Gold.Chemscore.Rot>
1.8174

> <Gold.Chemscore.Internal.Correction>
   9.000000E+99

> <Gold.Chemscore.Hbonds>
donor molecule, donor type, donor heavy atom, donor atom, acceptor molecule, acceptor atom, score
      P1  H  6896  6909       L1    17  0.52

> <Gold.Chemscore.Hbond.Weighted>
-3.3398

> <Gold.Chemscore.Metal.Weighted>
-0.0000

> <Gold.Chemscore.Lipo.Weighted>
-12.6320

> <Gold.Chemscore.Internal_Hbond.Weighted>
0.0000

> <Gold.Chemscore.DEClash.Weighted>
0.4260

> <Gold.Chemscore.DEInternal.Weighted>
0.9979

> <Gold.Chemscore.Rot.Weighted>
4.6524

> <Gold.Chemscore.Internal.Correction.Weighted>
   9.000000E+99

> <Gold.Protein.RotatedTorsions>
[ 6907 6896 6895 6894 ] final  179.23 input  -60.11 | X-H torsion
[ 7974 7965 7964 7962 ] final  121.47 input  175.53 | X-H torsion
[ 8008 7997 7996 7995 ] final  -44.89 input   59.86 | X-H torsion
[ 10167 10162 10161 10158 ] final    5.57 input  -65.29 | X-H torsion
[ 10718 10713 10712 10709 ] final   32.38 input   66.30 | X-H torsion
[ 10763 10752 10751 10750 ] final -160.73 input  -60.55 | X-H torsion
[ 11005 11000 10999 10996 ] final   40.52 input  -57.11 | X-H torsion

> <Gold.Protein.ActiveResidues>
 VAL166  LYS551  ARG553  GLY616  TRP617  ASP618  TYR619  PRO620  LYS621  CYS622 
 ASP623  PHE694  ASN695  SER759  ASP760  ASP761  ALA762  ILE779  LEU786  VAL792 
 PHE793  MET794  SER795  GLU796  ALA797  LYS798  CYS799  TRP800  GLU811  SER814 

> <Gold.Protein.RotatedAtoms>
  151.6751  133.3313  159.3205 H   0  0  0  0  0  0  0  0  0  0  0  0  # atno 6907 bound_to 6896
  150.7849  134.6829  159.6463 H   0  0  0  0  0  0  0  0  0  0  0  0  # atno 6908 bound_to 6896
  152.3916  134.6435  160.0157 H   0  0  0  0  0  0  0  0  0  0  0  0  # atno 6909 bound_to 6896
  145.1190  139.3402  143.4724 H   0  0  0  0  0  0  0  0  0  0  0  0  # atno 7974 bound_to 7965
  154.3999  140.1411  156.3757 H   0  0  0  0  0  0  0  0  0  0  0  0  # atno 8008 bound_to 7997
  155.8051  140.3474  155.5404 H   0  0  0  0  0  0  0  0  0  0  0  0  # atno 8009 bound_to 7997
  155.8444  140.0931  157.1705 H   0  0  0  0  0  0  0  0  0  0  0  0  # atno 8010 bound_to 7997
  140.6475  143.7627  150.7521 H   0  0  0  0  0  0  0  0  0  0  0  0  # atno 10167 bound_to 10162
  157.2845  130.7271  149.6575 H   0  0  0  0  0  0  0  0  0  0  0  0  # atno 10718 bound_to 10713
  154.7365  135.3058  154.8802 H   0  0  0  0  0  0  0  0  0  0  0  0  # atno 10763 bound_to 10752
  153.9629  135.6751  153.4749 H   0  0  0  0  0  0  0  0  0  0  0  0  # atno 10764 bound_to 10752
  153.0968  135.4932  154.8716 H   0  0  0  0  0  0  0  0  0  0  0  0  # atno 10765 bound_to 10752
  140.1923  134.3972  155.8140 H   0  0  0  0  0  0  0  0  0  0  0  0  # atno 11005 bound_to 11000
  146.3522  140.1141  142.8603 LP  0  0  0  0  0  0  0  0  0  0  0  0  # atno 17320 bound_to 7965
  145.0762  140.9189  143.4853 LP  0  0  0  0  0  0  0  0  0  0  0  0  # atno 17321 bound_to 7965
  140.1271  143.4560  152.2277 LP  0  0  0  0  0  0  0  0  0  0  0  0  # atno 17342 bound_to 10162
  139.5687  144.7450  151.3952 LP  0  0  0  0  0  0  0  0  0  0  0  0  # atno 17343 bound_to 10162
  155.9665  130.4328  150.4978 LP  0  0  0  0  0  0  0  0  0  0  0  0  # atno 17370 bound_to 10713
  157.2928  131.0630  151.2122 LP  0  0  0  0  0  0  0  0  0  0  0  0  # atno 17371 bound_to 10713
  141.2226  133.7052  156.8116 LP  0  0  0  0  0  0  0  0  0  0  0  0  # atno 17394 bound_to 11000
  140.2146  134.8802  157.3311 LP  0  0  0  0  0  0  0  0  0  0  0  0  # atno 17395 bound_to 11000

$$$$
