AV-unprocessed.smi:1876|AV-procd|sdf|7620|dock6
  -GOLD-   22720 9343D 1   1.00000     0.00000
 Structure written by MMmdl.
 31 32  0  0  0  0  0  0  0  0  1 V2000
  147.1286  142.0943  154.1451 C   0  0  0  0  0  0  0  0  0  0  0  0
  146.8566  140.6339  154.0248 C   0  0  0  0  0  0  0  0  0  0  0  0
  147.1698  139.7032  153.0742 C   0  0  0  0  0  0  0  0  0  0  0  0
  146.5998  138.5104  153.5938 C   0  0  0  0  0  0  0  0  0  0  0  0
  146.7071  137.2841  152.8886 N   0  0  0  0  0  0  0  0  0  0  0  0
  145.8527  136.2468  152.9156 C   0  0  0  0  0  0  0  0  0  0  0  0
  144.8093  136.2054  153.5683 O   0  0  0  0  0  0  0  0  0  0  0  0
  146.2769  135.2439  152.1310 N   0  0  0  0  0  0  0  0  0  0  0  0
  145.5683  133.9827  151.9076 C   0  0  2  0  0  0  0  0  0  0  0  0
  146.4165  133.1261  150.9474 C   0  0  0  0  0  0  0  0  0  0  0  0
  145.6642  131.8490  150.5642 C   0  0  0  0  0  0  0  0  0  0  0  0
  144.3530  132.1979  149.8450 C   0  0  0  0  0  0  0  0  0  0  0  0
  143.6573  133.3429  150.4329 N   0  0  0  0  0  0  0  0  0  0  0  0
  144.1692  134.2392  151.2966 C   0  0  0  0  0  0  0  0  0  0  0  0
  143.5165  135.2254  151.6353 O   0  0  0  0  0  0  0  0  0  0  0  0
  145.9957  138.6960  154.7577 N   0  0  0  0  0  0  0  0  0  0  0  0
  146.1572  140.0577  155.0396 O   0  0  0  0  0  0  0  0  0  0  0  0
  147.6755  142.4623  153.2769 H   0  0  0  0  0  0  0  0  0  0  0  0
  147.7241  142.3048  155.0336 H   0  0  0  0  0  0  0  0  0  0  0  0
  146.1971  142.6555  154.2205 H   0  0  0  0  0  0  0  0  0  0  0  0
  147.7172  139.8550  152.1557 H   0  0  0  0  0  0  0  0  0  0  0  0
  147.5212  137.1869  152.3004 H   0  0  0  0  0  0  0  0  0  0  0  0
  147.1439  135.3687  151.6297 H   0  0  0  0  0  0  0  0  0  0  0  0
  145.4362  133.4445  152.8478 H   0  0  0  0  0  0  0  0  0  0  0  0
  146.6673  133.6893  150.0466 H   0  0  0  0  0  0  0  0  0  0  0  0
  147.3628  132.8644  151.4226 H   0  0  0  0  0  0  0  0  0  0  0  0
  146.2829  131.2126  149.9309 H   0  0  0  0  0  0  0  0  0  0  0  0
  145.4474  131.2736  151.4652 H   0  0  0  0  0  0  0  0  0  0  0  0
  144.5649  132.4449  148.8042 H   0  0  0  0  0  0  0  0  0  0  0  0
  143.6857  131.3357  149.8315 H   0  0  0  0  0  0  0  0  0  0  0  0
  142.7227  133.5180  150.0932 H   0  0  0  0  0  0  0  0  0  0  0  0
  1  2  1  0  0  0  0
  1 18  1  0  0  0  0
  1 19  1  0  0  0  0
  1 20  1  0  0  0  0
  2 17  1  0  0  0  0
  2  3  2  0  0  0  0
  3  4  1  0  0  0  0
  3 21  1  0  0  0  0
  4  5  1  0  0  0  0
  4 16  2  0  0  0  0
  5  6  1  0  0  0  0
  5 22  1  0  0  0  0
  6  7  2  0  0  0  0
  6  8  1  0  0  0  0
  8  9  1  0  0  0  0
  8 23  1  0  0  0  0
  9 14  1  0  0  0  0
  9 10  1  0  0  0  0
  9 24  1  0  0  0  0
 10 11  1  0  0  0  0
 10 25  1  0  0  0  0
 10 26  1  0  0  0  0
 11 12  1  0  0  0  0
 11 27  1  0  0  0  0
 11 28  1  0  0  0  0
 12 13  1  0  0  0  0
 12 29  1  0  0  0  0
 12 30  1  0  0  0  0
 13 14  1  0  0  0  0
 13 31  1  0  0  0  0
 14 15  2  0  0  0  0
 16 17  1  0  0  0  0
M  END
> <s_m_source_file>
AV-unprocessed.smi

> <i_m_source_file_index>
1876

> <i_lp_mmshare_version>
43012

> <i_f3d_flags>
0

> <s_epik_input>
W0NIM11jMVtjSF1jKG5vMSlbTkhdQyg9TylbTkhdW0NAQEhdMltDSDJdW0NIMl1bQ0gyXVtOSF1DMj1P

> <s_epik_cmdline>
J2VwaWtfcHl0aG9uJywgJy1waCcsICc3LjAnLCAnLXRuJywgJzgnLCAnLW1hJywgJzIwMCcsICctbWV0YWxfYmluZGluZycsICctaW1hZScsICc8aW5maWxlLm1hZT4nLCAnLW9tYWUnLCAnPG91dGZpbGUubWFlPic=

> <r_lp_tautomer_probability>
1

> <r_epik_Ionization_Penalty>
2.33177e-05

> <r_epik_Ionization_Penalty_Charging>
0

> <r_epik_Ionization_Penalty_Neutral>
2.33177e-05

> <r_epik_State_Penalty>
-0

> <r_epik_Charging_Adjusted_Penalty>
0

> <i_epik_Tot_Q>
0

> <i_epik_Tot_abs_Q>
0

> <r_epik_Metal_State_Penalty>
-0

> <b_epik_Metal_Only>
0

> <s_lp_Force_Field>
OPLS_2005

> <r_lp_Energy>
8.43972

> <b_lp_Chiralities_Consistent>
1

> <s_lp_Variant>
AV-unprocessed.smi:1876-1

> <Gold.Version>
5.8.1

> <Gold.Id.Protein>
6NUR|6NUR_protein|mol2

> <Gold.PLP.Fitness>
34.5245

> <Gold.PLP.PLP>
-26.3979

> <Gold.PLP.part.hbond>
-3.0000

> <Gold.PLP.part.metal>
0.0000

> <Gold.PLP.part.buried>
-4.8406

> <Gold.PLP.part.nonpolar>
-19.9285

> <Gold.PLP.part.repulsive>
0.5016

> <Gold.PLP.ligand.clash>
0.0000

> <Gold.PLP.ligand.torsion>
0.1729

> <Gold.PLP.Chemscore.Hbond>
2.8240

> <Gold.PLP.Chemscore.CHOScore>
0.0000

> <Gold.PLP.Chemscore.Metal>
0.0000

> <Gold.Chemscore.Hbonds>
donor molecule, donor type, donor heavy atom, donor atom, acceptor molecule, acceptor atom, score
      L1  H     5    22       P1  7948  0.98
      L1  H     8    23       P1  7948  0.83
      L1  H    13    31       P1 10186  1.00

> <Gold.PLP.Chemscore.Internal.Correction>
0.0003

> <Gold.Rescore>
     Score         DG    S(hbond)    S(metal)    S(lipo)     H(rot)  DE(clash)    DE(int)     intcor
     14.08     -18.25       2.87        0.00      49.14       1.00       0.00       4.17       ----

> <Gold.Chemscore.Fitness>
14.0751

> <Gold.Chemscore.DG>
-18.2479

> <Gold.Chemscore.ZeroCoef>
-5.4800

> <Gold.Chemscore.Hbond>
2.8678

> <Gold.Chemscore.Metal>
0.0000

> <Gold.Chemscore.Lipo>
49.1418

> <Gold.Chemscore.Internal_Hbond>
0.0000

> <Gold.Chemscore.DEClash>
0.0000

> <Gold.Chemscore.DEInternal>
4.1728

> <Gold.Chemscore.Rot>
1.0000

> <Gold.Chemscore.Internal.Correction>
   9.000000E+99

> <Gold.Chemscore.Hbonds>
donor molecule, donor type, donor heavy atom, donor atom, acceptor molecule, acceptor atom, score
      L1  H     5    22       P1  7948  0.93
      L1  H     8    23       P1  7948  0.80
      L1  H    13    31       P1 10186  0.95

> <Gold.Chemscore.Hbond.Weighted>
-9.5783

> <Gold.Chemscore.Metal.Weighted>
-0.0000

> <Gold.Chemscore.Lipo.Weighted>
-5.7496

> <Gold.Chemscore.Internal_Hbond.Weighted>
0.0000

> <Gold.Chemscore.DEClash.Weighted>
0.0000

> <Gold.Chemscore.DEInternal.Weighted>
4.1728

> <Gold.Chemscore.Rot.Weighted>
2.5600

> <Gold.Chemscore.Internal.Correction.Weighted>
   9.000000E+99

> <Gold.Protein.RotatedTorsions>
[ 6907 6896 6895 6894 ] final -164.41 input  -60.11 | X-H torsion
[ 7974 7965 7964 7962 ] final -175.87 input  175.53 | X-H torsion
[ 8008 7997 7996 7995 ] final   42.52 input   59.86 | X-H torsion
[ 10167 10162 10161 10158 ] final  121.72 input  -65.29 | X-H torsion
[ 10718 10713 10712 10709 ] final  -97.28 input   66.30 | X-H torsion
[ 10763 10752 10751 10750 ] final  -79.69 input  -60.55 | X-H torsion
[ 11005 11000 10999 10996 ] final -139.26 input  -57.11 | X-H torsion

> <Gold.Protein.ActiveResidues>
 VAL166  LYS551  ARG553  GLY616  TRP617  ASP618  TYR619  PRO620  LYS621  CYS622 
 ASP623  PHE694  ASN695  SER759  ASP760  ASP761  ALA762  ILE779  LEU786  VAL792 
 PHE793  MET794  SER795  GLU796  ALA797  LYS798  CYS799  TRP800  GLU811  SER814 

> <Gold.Protein.RotatedAtoms>
  151.4114  133.3726  159.2744 H   0  0  0  0  0  0  0  0  0  0  0  0  # atno 6907 bound_to 6896
  150.9360  134.8774  159.7593 H   0  0  0  0  0  0  0  0  0  0  0  0  # atno 6908 bound_to 6896
  152.5050  134.4061  159.9485 H   0  0  0  0  0  0  0  0  0  0  0  0  # atno 6909 bound_to 6896
  144.7127  140.1255  143.6402 H   0  0  0  0  0  0  0  0  0  0  0  0  # atno 7974 bound_to 7965
  155.2876  140.3376  155.4254 H   0  0  0  0  0  0  0  0  0  0  0  0  # atno 8008 bound_to 7997
  156.2061  140.1751  156.7837 H   0  0  0  0  0  0  0  0  0  0  0  0  # atno 8009 bound_to 7997
  154.5623  140.0685  156.8822 H   0  0  0  0  0  0  0  0  0  0  0  0  # atno 8010 bound_to 7997
  139.5902  144.7022  151.3308 H   0  0  0  0  0  0  0  0  0  0  0  0  # atno 10167 bound_to 10162
  156.0080  130.5187  150.6350 H   0  0  0  0  0  0  0  0  0  0  0  0  # atno 10718 bound_to 10713
  154.5418  135.5687  153.6845 H   0  0  0  0  0  0  0  0  0  0  0  0  # atno 10763 bound_to 10752
  152.9965  135.6229  154.2492 H   0  0  0  0  0  0  0  0  0  0  0  0  # atno 10764 bound_to 10752
  154.2423  135.2862  155.2828 H   0  0  0  0  0  0  0  0  0  0  0  0  # atno 10765 bound_to 10752
  140.8537  134.2254  157.4746 H   0  0  0  0  0  0  0  0  0  0  0  0  # atno 11005 bound_to 11000
  145.9333  139.2620  143.1312 LP  0  0  0  0  0  0  0  0  0  0  0  0  # atno 17320 bound_to 7965
  145.9500  140.8916  143.0264 LP  0  0  0  0  0  0  0  0  0  0  0  0  # atno 17321 bound_to 7965
  140.7167  143.7248  150.7668 LP  0  0  0  0  0  0  0  0  0  0  0  0  # atno 17342 bound_to 10162
  140.0802  143.4976  152.2534 LP  0  0  0  0  0  0  0  0  0  0  0  0  # atno 17343 bound_to 10162
  157.4141  131.0828  151.1193 LP  0  0  0  0  0  0  0  0  0  0  0  0  # atno 17370 bound_to 10713
  157.1815  130.6312  149.5673 LP  0  0  0  0  0  0  0  0  0  0  0  0  # atno 17371 bound_to 10713
  139.8704  134.9696  156.4671 LP  0  0  0  0  0  0  0  0  0  0  0  0  # atno 17394 bound_to 11000
  140.8761  133.7952  155.9416 LP  0  0  0  0  0  0  0  0  0  0  0  0  # atno 17395 bound_to 11000

$$$$
