AV-unprocessed.smi:672|AV-procd|sdf|3295|dock10
  -GOLD-   22720 0253D 1   1.00000     0.00000
 Structure written by MMmdl.
 35 36  0  0  0  0  0  0  0  0  2 V2000
  147.7313  133.0849  161.4494 C   0  0  0  0  0  0  0  0  0  0  0  0
  147.8566  133.1164  159.9225 C   0  0  0  0  0  0  0  0  0  0  0  0
  148.4206  134.4034  159.4206 C   0  0  0  0  0  0  0  0  0  0  0  0
  149.3575  134.4637  158.4705 N   0  0  0  0  0  0  0  0  0  0  0  0
  149.7396  135.7684  158.1952 N   0  0  0  0  0  0  0  0  0  0  0  0
  149.1102  136.6726  158.9592 C   0  0  0  0  0  0  0  0  0  0  0  0
  149.3394  137.9920  158.8553 N   0  5  0  0  0  0  0  0  0  0  0  0
  150.6033  138.4463  158.6949 C   0  0  0  0  0  0  0  0  0  0  0  0
  151.6296  137.7625  158.6843 O   0  0  0  0  0  0  0  0  0  0  0  0
  150.6840  139.7758  158.5422 N   0  0  0  0  0  0  0  0  0  0  0  0
  151.9123  140.5417  158.3408 C   0  0  2  0  0  0  0  0  0  0  0  0
  152.9760  140.2099  159.4076 C   0  0  0  0  0  0  0  0  0  0  0  0
  153.0800  141.4479  160.2982 C   0  0  0  0  0  0  0  0  0  0  0  0
  152.7523  142.6084  159.3624 C   0  0  2  0  0  0  0  0  0  0  0  0
  152.2694  144.1111  160.2614 S   0  0  0  0  0  0  0  0  0  0  0  0
  151.7963  145.1774  158.8747 C   0  0  0  0  0  0  0  0  0  0  0  0
  151.6410  142.0531  158.4656 C   0  0  0  0  0  0  0  0  0  0  0  0
  147.9528  135.9607  160.0823 S   0  0  0  0  0  0  0  0  0  0  0  0
  147.3169  132.1347  161.7861 H   0  0  0  0  0  0  0  0  0  0  0  0
  147.0753  133.8797  161.8058 H   0  0  0  0  0  0  0  0  0  0  0  0
  148.7030  133.2136  161.9269 H   0  0  0  0  0  0  0  0  0  0  0  0
  148.4916  132.2968  159.5843 H   0  0  0  0  0  0  0  0  0  0  0  0
  146.8786  132.9625  159.4657 H   0  0  0  0  0  0  0  0  0  0  0  0
  149.8195  140.2966  158.5611 H   0  0  0  0  0  0  0  0  0  0  0  0
  152.3138  140.3273  157.3487 H   0  0  0  0  0  0  0  0  0  0  0  0
  152.7501  139.3126  159.9851 H   0  0  0  0  0  0  0  0  0  0  0  0
  153.9342  140.0385  158.9153 H   0  0  0  0  0  0  0  0  0  0  0  0
  152.3355  141.3859  161.0935 H   0  0  0  0  0  0  0  0  0  0  0  0
  154.0604  141.5469  160.7650 H   0  0  0  0  0  0  0  0  0  0  0  0
  153.6315  142.8275  158.7548 H   0  0  0  0  0  0  0  0  0  0  0  0
  151.5146  146.1645  159.2411 H   0  0  0  0  0  0  0  0  0  0  0  0
  150.9467  144.7553  158.3381 H   0  0  0  0  0  0  0  0  0  0  0  0
  152.6277  145.2905  158.1790 H   0  0  0  0  0  0  0  0  0  0  0  0
  151.6171  142.5447  157.4925 H   0  0  0  0  0  0  0  0  0  0  0  0
  150.6723  142.2277  158.9374 H   0  0  0  0  0  0  0  0  0  0  0  0
  1  2  1  0  0  0  0
  1 19  1  0  0  0  0
  1 20  1  0  0  0  0
  1 21  1  0  0  0  0
  2  3  1  0  0  0  0
  2 22  1  0  0  0  0
  2 23  1  0  0  0  0
  3 18  1  0  0  0  0
  3  4  2  0  0  0  0
  4  5  1  0  0  0  0
  5  6  2  0  0  0  0
  6  7  1  0  0  0  0
  6 18  1  0  0  0  0
  7  8  1  0  0  0  0
  8  9  2  0  0  0  0
  8 10  1  0  0  0  0
 10 11  1  0  0  0  0
 10 24  1  0  0  0  0
 11 17  1  0  0  0  0
 11 12  1  0  0  0  0
 11 25  1  0  0  0  0
 12 13  1  0  0  0  0
 12 26  1  0  0  0  0
 12 27  1  0  0  0  0
 13 14  1  0  0  0  0
 13 28  1  0  0  0  0
 13 29  1  0  0  0  0
 14 15  1  0  0  0  0
 14 17  1  0  0  0  0
 14 30  1  0  0  0  0
 15 16  1  0  0  0  0
 16 31  1  0  0  0  0
 16 32  1  0  0  0  0
 16 33  1  0  0  0  0
 17 34  1  0  0  0  0
 17 35  1  0  0  0  0
M  CHG  1   7  -1
M  END
> <s_m_source_file>
AV-unprocessed.smi

> <i_m_source_file_index>
672

> <i_lp_mmshare_version>
43012

> <i_f3d_flags>
0

> <s_epik_input>
W0NIM11bQ0gyXWMxbm5jKHMxKVtOSF1DKD1PKVtOSF1bQ0BASF0yW0NIMl1bQ0gyXVtDQEhdKFtDSDJdMilTW0NIM10=

> <s_epik_cmdline>
J2VwaWtfcHl0aG9uJywgJy1waCcsICc3LjAnLCAnLXRuJywgJzgnLCAnLW1hJywgJzIwMCcsICctbWV0YWxfYmluZGluZycsICctaW1hZScsICc8aW5maWxlLm1hZT4nLCAnLW9tYWUnLCAnPG91dGZpbGUubWFlPic=

> <r_lp_tautomer_probability>
1

> <r_epik_Ionization_Penalty>
4.49964

> <r_epik_Ionization_Penalty_Charging>
4.32991

> <r_epik_Ionization_Penalty_Neutral>
0.169727

> <r_epik_State_Penalty>
4.32952

> <r_epik_Charging_Adjusted_Penalty>
8.65943

> <i_epik_Tot_Q>
-1

> <i_epik_Tot_abs_Q>
1

> <r_epik_Metal_State_Penalty>
0.740482

> <b_epik_Metal_Only>
1

> <s_lp_Force_Field>
OPLS_2005

> <r_lp_Energy>
9.98036

> <b_lp_Chiralities_Consistent>
1

> <s_lp_Variant>
AV-unprocessed.smi:672-7

> <Gold.Version>
5.8.1

> <Gold.Id.Protein>
6NUR|6NUR_protein|mol2

> <Gold.PLP.Fitness>
35.8795

> <Gold.PLP.PLP>
-34.8978

> <Gold.PLP.part.hbond>
-3.0895

> <Gold.PLP.part.metal>
0.0000

> <Gold.PLP.part.buried>
-4.3661

> <Gold.PLP.part.nonpolar>
-28.1418

> <Gold.PLP.part.repulsive>
0.1967

> <Gold.PLP.ligand.clash>
0.0000

> <Gold.PLP.ligand.torsion>
0.6548

> <Gold.PLP.Chemscore.Hbond>
0.7500

> <Gold.PLP.Chemscore.CHOScore>
0.0000

> <Gold.PLP.Chemscore.Metal>
0.0000

> <Gold.Chemscore.Hbonds>
donor molecule, donor type, donor heavy atom, donor atom, acceptor molecule, acceptor atom, score
      P1  H  6896  6908       L1     4  0.67

> <Gold.PLP.Chemscore.Internal.Correction>
0.0413

> <Gold.Rescore>
     Score         DG    S(hbond)    S(metal)    S(lipo)     H(rot)  DE(clash)    DE(int)     intcor
     10.28     -13.48       0.01        0.00      97.45       1.34       0.06       3.14       ----

> <Gold.Chemscore.Fitness>
10.2835

> <Gold.Chemscore.DG>
-13.4758

> <Gold.Chemscore.ZeroCoef>
-5.4800

> <Gold.Chemscore.Hbond>
0.0081

> <Gold.Chemscore.Metal>
0.0000

> <Gold.Chemscore.Lipo>
97.4513

> <Gold.Chemscore.Internal_Hbond>
0.0000

> <Gold.Chemscore.DEClash>
0.0571

> <Gold.Chemscore.DEInternal>
3.1352

> <Gold.Chemscore.Rot>
1.3410

> <Gold.Chemscore.Internal.Correction>
   9.000000E+99

> <Gold.Chemscore.Hbonds>
donor molecule, donor type, donor heavy atom, donor atom, acceptor molecule, acceptor atom, score
      P1  H  6896  6908       L1     4  0.02

> <Gold.Chemscore.Hbond.Weighted>
-0.0270

> <Gold.Chemscore.Metal.Weighted>
-0.0000

> <Gold.Chemscore.Lipo.Weighted>
-11.4018

> <Gold.Chemscore.Internal_Hbond.Weighted>
0.0000

> <Gold.Chemscore.DEClash.Weighted>
0.0571

> <Gold.Chemscore.DEInternal.Weighted>
3.1352

> <Gold.Chemscore.Rot.Weighted>
3.4329

> <Gold.Chemscore.Internal.Correction.Weighted>
   9.000000E+99

> <Gold.Protein.RotatedTorsions>
[ 6907 6896 6895 6894 ] final  143.65 input  -60.11 | X-H torsion
[ 7974 7965 7964 7962 ] final -121.01 input  175.53 | X-H torsion
[ 8008 7997 7996 7995 ] final -109.96 input   59.86 | X-H torsion
[ 10167 10162 10161 10158 ] final  -18.55 input  -65.29 | X-H torsion
[ 10718 10713 10712 10709 ] final   17.24 input   66.30 | X-H torsion
[ 10763 10752 10751 10750 ] final -125.36 input  -60.55 | X-H torsion
[ 11005 11000 10999 10996 ] final   70.44 input  -57.11 | X-H torsion

> <Gold.Protein.ActiveResidues>
 VAL166  LYS551  ARG553  GLY616  TRP617  ASP618  TYR619  PRO620  LYS621  CYS622 
 ASP623  PHE694  ASN695  SER759  ASP760  ASP761  ALA762  ILE779  LEU786  VAL792 
 PHE793  MET794  SER795  GLU796  ALA797  LYS798  CYS799  TRP800  GLU811  SER814 

> <Gold.Protein.RotatedAtoms>
  152.2036  133.4859  159.5071 H   0  0  0  0  0  0  0  0  0  0  0  0  # atno 6907 bound_to 6896
  150.6975  134.1559  159.4167 H   0  0  0  0  0  0  0  0  0  0  0  0  # atno 6908 bound_to 6896
  151.9477  135.0184  160.0590 H   0  0  0  0  0  0  0  0  0  0  0  0  # atno 6909 bound_to 6896
  145.0451  140.8175  143.4243 H   0  0  0  0  0  0  0  0  0  0  0  0  # atno 7974 bound_to 7965
  154.9673  140.0398  157.2218 H   0  0  0  0  0  0  0  0  0  0  0  0  # atno 8008 bound_to 7997
  154.7833  140.2822  155.6024 H   0  0  0  0  0  0  0  0  0  0  0  0  # atno 8009 bound_to 7997
  156.2939  140.2587  156.2664 H   0  0  0  0  0  0  0  0  0  0  0  0  # atno 8010 bound_to 7997
  140.7260  143.4906  150.9997 H   0  0  0  0  0  0  0  0  0  0  0  0  # atno 10167 bound_to 10162
  157.0793  130.6381  149.5823 H   0  0  0  0  0  0  0  0  0  0  0  0  # atno 10718 bound_to 10713
  154.8735  135.4032  154.3255 H   0  0  0  0  0  0  0  0  0  0  0  0  # atno 10763 bound_to 10752
  153.4076  135.7020  153.6387 H   0  0  0  0  0  0  0  0  0  0  0  0  # atno 10764 bound_to 10752
  153.5103  135.3709  155.2554 H   0  0  0  0  0  0  0  0  0  0  0  0  # atno 10765 bound_to 10752
  139.9597  134.7081  156.0672 H   0  0  0  0  0  0  0  0  0  0  0  0  # atno 11005 bound_to 11000
  145.1598  139.2465  143.5397 LP  0  0  0  0  0  0  0  0  0  0  0  0  # atno 17320 bound_to 7965
  146.3513  140.1322  142.8597 LP  0  0  0  0  0  0  0  0  0  0  0  0  # atno 17321 bound_to 7965
  139.8610  143.7315  152.3173 LP  0  0  0  0  0  0  0  0  0  0  0  0  # atno 17342 bound_to 10162
  139.7530  144.7528  151.0477 LP  0  0  0  0  0  0  0  0  0  0  0  0  # atno 17343 bound_to 10162
  155.9928  130.4987  150.7355 LP  0  0  0  0  0  0  0  0  0  0  0  0  # atno 17370 bound_to 10713
  157.4813  131.0902  151.0533 LP  0  0  0  0  0  0  0  0  0  0  0  0  # atno 17371 bound_to 10713
  141.1273  133.6595  156.3371 LP  0  0  0  0  0  0  0  0  0  0  0  0  # atno 17394 bound_to 11000
  140.5527  134.6012  157.5412 LP  0  0  0  0  0  0  0  0  0  0  0  0  # atno 17395 bound_to 11000

$$$$
