AV-unprocessed.smi:2149|AV-procd|sdf|8755|dock4
  -GOLD-   2272011533D 1   1.00000     0.00000
 Structure written by MMmdl.
 43 44  0  0  0  0  0  0  0  0  2 V2000
  151.7392  138.8047  157.0148 C   0  0  0  0  0  0  0  0  0  0  0  0
  151.8625  138.6960  155.1818 S   0  0  0  0  0  0  0  0  0  0  0  0
  152.8677  139.6777  154.7456 O   0  0  0  0  0  0  0  0  0  0  0  0
  151.9960  137.2846  154.7902 O   0  0  0  0  0  0  0  0  0  0  0  0
  150.3087  139.2501  154.6445 N   0  0  0  0  0  0  0  0  0  0  0  0
  149.9239  140.6331  154.9919 C   0  0  0  0  0  0  0  0  0  0  0  0
  148.7434  141.1221  154.1379 C   0  0  0  0  0  0  0  0  0  0  0  0
  147.5547  140.1623  154.2375 C   0  0  0  0  0  0  0  0  0  0  0  0
  148.0025  138.7538  153.8151 C   0  0  2  0  0  0  0  0  0  0  0  0
  146.8389  137.7570  153.8992 C   0  0  0  0  0  0  0  0  0  0  0  0
  146.3055  137.5127  154.9821 O   0  0  0  0  0  0  0  0  0  0  0  0
  146.4566  137.1820  152.7482 N   0  0  0  0  0  0  0  0  0  0  0  0
  145.3861  136.2005  152.6206 C   0  0  0  0  0  0  0  0  0  0  0  0
  145.0250  135.9475  151.1468 C   0  0  0  0  0  0  0  0  0  0  0  0
  145.0326  134.4722  150.7977 C   0  0  0  0  0  0  0  0  0  0  0  0
  146.1903  133.6741  150.9256 C   0  0  0  0  0  0  0  0  0  0  0  0
  146.1260  132.3076  150.5807 C   0  0  0  0  0  0  0  0  0  0  0  0
  144.9085  131.7696  150.1144 C   0  0  0  0  0  0  0  0  0  0  0  0
  143.7838  132.6127  150.0044 C   0  0  0  0  0  0  0  0  0  0  0  0
  143.8850  133.9162  150.3458 N   0  3  0  0  0  0  0  0  0  0  0  0
  149.1904  138.2850  154.6832 C   0  0  0  0  0  0  0  0  0  0  0  0
  152.7043  138.5524  157.4538 H   0  0  0  0  0  0  0  0  0  0  0  0
  150.9890  138.1068  157.3833 H   0  0  0  0  0  0  0  0  0  0  0  0
  151.4677  139.8201  157.3021 H   0  0  0  0  0  0  0  0  0  0  0  0
  149.6648  140.6717  156.0509 H   0  0  0  0  0  0  0  0  0  0  0  0
  150.7724  141.3012  154.8521 H   0  0  0  0  0  0  0  0  0  0  0  0
  148.4431  142.1200  154.4584 H   0  0  0  0  0  0  0  0  0  0  0  0
  149.0575  141.2134  153.0974 H   0  0  0  0  0  0  0  0  0  0  0  0
  147.1746  140.1549  155.2604 H   0  0  0  0  0  0  0  0  0  0  0  0
  146.7411  140.5125  153.6008 H   0  0  0  0  0  0  0  0  0  0  0  0
  148.3398  138.8003  152.7777 H   0  0  0  0  0  0  0  0  0  0  0  0
  146.9454  137.4408  151.9030 H   0  0  0  0  0  0  0  0  0  0  0  0
  145.6755  135.2699  153.1120 H   0  0  0  0  0  0  0  0  0  0  0  0
  144.5148  136.5768  153.1574 H   0  0  0  0  0  0  0  0  0  0  0  0
  144.0401  136.3623  150.9281 H   0  0  0  0  0  0  0  0  0  0  0  0
  145.7275  136.4627  150.4900 H   0  0  0  0  0  0  0  0  0  0  0  0
  147.1162  134.1015  151.2826 H   0  0  0  0  0  0  0  0  0  0  0  0
  147.0004  131.6799  150.6730 H   0  0  0  0  0  0  0  0  0  0  0  0
  144.8386  130.7258  149.8448 H   0  0  0  0  0  0  0  0  0  0  0  0
  142.8142  132.2865  149.6571 H   0  0  0  0  0  0  0  0  0  0  0  0
  149.5331  137.3148  154.3234 H   0  0  0  0  0  0  0  0  0  0  0  0
  148.8867  138.1461  155.7221 H   0  0  0  0  0  0  0  0  0  0  0  0
  143.0584  134.5085  150.2595 H   0  0  0  0  0  0  0  0  0  0  0  0
  1  2  1  0  0  0  0
  1 22  1  0  0  0  0
  1 23  1  0  0  0  0
  1 24  1  0  0  0  0
  2  3  2  0  0  0  0
  2  4  2  0  0  0  0
  2  5  1  0  0  0  0
  5 21  1  0  0  0  0
  5  6  1  0  0  0  0
  6  7  1  0  0  0  0
  6 25  1  0  0  0  0
  6 26  1  0  0  0  0
  7  8  1  0  0  0  0
  7 27  1  0  0  0  0
  7 28  1  0  0  0  0
  8  9  1  0  0  0  0
  8 29  1  0  0  0  0
  8 30  1  0  0  0  0
  9 10  1  0  0  0  0
  9 21  1  0  0  0  0
  9 31  1  0  0  0  0
 10 11  2  0  0  0  0
 10 12  1  0  0  0  0
 12 13  1  0  0  0  0
 12 32  1  0  0  0  0
 13 14  1  0  0  0  0
 13 33  1  0  0  0  0
 13 34  1  0  0  0  0
 14 15  1  0  0  0  0
 14 35  1  0  0  0  0
 14 36  1  0  0  0  0
 15 20  1  0  0  0  0
 15 16  2  0  0  0  0
 16 17  1  0  0  0  0
 16 37  1  0  0  0  0
 17 18  2  0  0  0  0
 17 38  1  0  0  0  0
 18 19  1  0  0  0  0
 18 39  1  0  0  0  0
 19 20  2  0  0  0  0
 19 40  1  0  0  0  0
 20 43  1  0  0  0  0
 21 41  1  0  0  0  0
 21 42  1  0  0  0  0
M  CHG  1  20   1
M  END
> <s_m_source_file>
AV-unprocessed.smi

> <i_m_source_file_index>
2149

> <i_lp_mmshare_version>
43012

> <i_f3d_flags>
0

> <s_epik_input>
W0NIM11TKD1PKSg9TylOMVtDSDJdW0NIMl1bQ0gyXVtDQEhdKFtDSDJdMSlDKD1PKVtOSF1bQ0gyXVtDSDJdYzJbY0hdW2NIXVtjSF1bY0hdbjI=

> <s_epik_cmdline>
J2VwaWtfcHl0aG9uJywgJy1waCcsICc3LjAnLCAnLXRuJywgJzgnLCAnLW1hJywgJzIwMCcsICctbWV0YWxfYmluZGluZycsICctaW1hZScsICc8aW5maWxlLm1hZT4nLCAnLW9tYWUnLCAnPG91dGZpbGUubWFlPic=

> <r_epik_Ionization_Penalty>
1.83523

> <r_epik_Ionization_Penalty_Charging>
1.83523

> <r_epik_Ionization_Penalty_Neutral>
2.62835e-08

> <r_epik_State_Penalty>
1.95153

> <r_epik_Charging_Adjusted_Penalty>
3.78676

> <i_epik_Tot_Q>
1

> <i_epik_Tot_abs_Q>
1

> <r_epik_Metal_State_Penalty>
1.97791

> <b_epik_Metal_Only>
0

> <s_lp_Force_Field>
OPLS_2005

> <r_lp_Energy>
9.7414

> <b_lp_Chiralities_Consistent>
1

> <s_lp_Variant>
AV-unprocessed.smi:2149-4

> <Gold.Version>
5.8.1

> <Gold.Id.Protein>
6NUR|6NUR_protein|mol2

> <Gold.PLP.Fitness>
46.9626

> <Gold.PLP.PLP>
-37.0641

> <Gold.PLP.part.hbond>
-4.9212

> <Gold.PLP.part.metal>
0.0000

> <Gold.PLP.part.buried>
-4.6167

> <Gold.PLP.part.nonpolar>
-29.6539

> <Gold.PLP.part.repulsive>
0.3624

> <Gold.PLP.ligand.clash>
0.0000

> <Gold.PLP.ligand.torsion>
0.8595

> <Gold.PLP.Chemscore.Hbond>
3.6212

> <Gold.PLP.Chemscore.CHOScore>
0.0000

> <Gold.PLP.Chemscore.Metal>
0.0000

> <Gold.Chemscore.Hbonds>
donor molecule, donor type, donor heavy atom, donor atom, acceptor molecule, acceptor atom, score
      L1  H    12    32       P1  7948  0.05
      L1  H    20    43       P1 10186  1.09
      P1  H  7989  7998       L1     3  0.37
      P1  H  7997  8009       L1     3  1.00
      P1  H 10752 10765       L1     4  0.91

> <Gold.PLP.Chemscore.Internal.Correction>
0.7538

> <Gold.Rescore>
     Score         DG    S(hbond)    S(metal)    S(lipo)     H(rot)  DE(clash)    DE(int)     intcor
     18.72     -19.62       2.61        0.00      88.96       1.95       0.02       0.89       ----

> <Gold.Chemscore.Fitness>
18.7207

> <Gold.Chemscore.DG>
-19.6226

> <Gold.Chemscore.ZeroCoef>
-5.4800

> <Gold.Chemscore.Hbond>
2.6102

> <Gold.Chemscore.Metal>
0.0000

> <Gold.Chemscore.Lipo>
88.9560

> <Gold.Chemscore.Internal_Hbond>
0.0000

> <Gold.Chemscore.DEClash>
0.0163

> <Gold.Chemscore.DEInternal>
0.8856

> <Gold.Chemscore.Rot>
1.9466

> <Gold.Chemscore.Internal.Correction>
   9.000000E+99

> <Gold.Chemscore.Hbonds>
donor molecule, donor type, donor heavy atom, donor atom, acceptor molecule, acceptor atom, score
      L1  H    12    32       P1  7948  0.05
      L1  H    20    43       P1 10186  0.40
      P1  H  7989  7998       L1     3  0.09
      P1  H  7997  8009       L1     3  0.94
      P1  H 10752 10765       L1     4  0.89

> <Gold.Chemscore.Hbond.Weighted>
-8.7179

> <Gold.Chemscore.Metal.Weighted>
-0.0000

> <Gold.Chemscore.Lipo.Weighted>
-10.4079

> <Gold.Chemscore.Internal_Hbond.Weighted>
0.0000

> <Gold.Chemscore.DEClash.Weighted>
0.0163

> <Gold.Chemscore.DEInternal.Weighted>
0.8856

> <Gold.Chemscore.Rot.Weighted>
4.9832

> <Gold.Chemscore.Internal.Correction.Weighted>
   9.000000E+99

> <Gold.Protein.RotatedTorsions>
[ 6907 6896 6895 6894 ] final  -75.32 input  -60.11 | X-H torsion
[ 7974 7965 7964 7962 ] final  143.97 input  175.53 | X-H torsion
[ 8008 7997 7996 7995 ] final -131.26 input   59.86 | X-H torsion
[ 10167 10162 10161 10158 ] final  -98.61 input  -65.29 | X-H torsion
[ 10718 10713 10712 10709 ] final   10.12 input   66.30 | X-H torsion
[ 10763 10752 10751 10750 ] final  172.17 input  -60.55 | X-H torsion
[ 11005 11000 10999 10996 ] final   47.51 input  -57.11 | X-H torsion

> <Gold.Protein.ActiveResidues>
 VAL166  LYS551  ARG553  GLY616  TRP617  ASP618  TYR619  PRO620  LYS621  CYS622 
 ASP623  PHE694  ASN695  SER759  ASP760  ASP761  ALA762  ILE779  LEU786  VAL792 
 PHE793  MET794  SER795  GLU796  ALA797  LYS798  CYS799  TRP800  GLU811  SER814 

> <Gold.Protein.RotatedAtoms>
  150.7063  134.4738  159.5437 H   0  0  0  0  0  0  0  0  0  0  0  0  # atno 6907 bound_to 6896
  152.2389  134.8246  160.0472 H   0  0  0  0  0  0  0  0  0  0  0  0  # atno 6908 bound_to 6896
  151.9035  133.3508  159.3875 H   0  0  0  0  0  0  0  0  0  0  0  0  # atno 6909 bound_to 6896
  144.8875  139.5607  143.5814 H   0  0  0  0  0  0  0  0  0  0  0  0  # atno 7974 bound_to 7965
  155.3094  140.0456  157.3034 H   0  0  0  0  0  0  0  0  0  0  0  0  # atno 8008 bound_to 7997
  154.5441  140.2297  155.8559 H   0  0  0  0  0  0  0  0  0  0  0  0  # atno 8009 bound_to 7997
  156.1908  140.3051  155.9335 H   0  0  0  0  0  0  0  0  0  0  0  0  # atno 8010 bound_to 7997
  140.2712  143.3343  152.0533 H   0  0  0  0  0  0  0  0  0  0  0  0  # atno 10167 bound_to 10162
  156.9763  130.5988  149.5673 H   0  0  0  0  0  0  0  0  0  0  0  0  # atno 10718 bound_to 10713
  154.4223  135.2758  155.1967 H   0  0  0  0  0  0  0  0  0  0  0  0  # atno 10763 bound_to 10752
  154.3907  135.6067  153.5845 H   0  0  0  0  0  0  0  0  0  0  0  0  # atno 10764 bound_to 10752
  152.9833  135.5903  154.4521 H   0  0  0  0  0  0  0  0  0  0  0  0  # atno 10765 bound_to 10752
  140.1273  134.4752  155.8549 H   0  0  0  0  0  0  0  0  0  0  0  0  # atno 11005 bound_to 11000
  146.3033  139.7498  142.9075 LP  0  0  0  0  0  0  0  0  0  0  0  0  # atno 17320 bound_to 7965
  145.3842  141.0363  143.3160 LP  0  0  0  0  0  0  0  0  0  0  0  0  # atno 17321 bound_to 7965
  139.4988  144.6655  151.6366 LP  0  0  0  0  0  0  0  0  0  0  0  0  # atno 17342 bound_to 10162
  140.5888  143.9816  150.6312 LP  0  0  0  0  0  0  0  0  0  0  0  0  # atno 17343 bound_to 10162
  156.0262  130.5356  150.8413 LP  0  0  0  0  0  0  0  0  0  0  0  0  # atno 17370 bound_to 10713
  157.5557  131.0945  150.9631 LP  0  0  0  0  0  0  0  0  0  0  0  0  # atno 17371 bound_to 10713
  141.2163  133.6782  156.7002 LP  0  0  0  0  0  0  0  0  0  0  0  0  # atno 17394 bound_to 11000
  140.2888  134.8257  157.3998 LP  0  0  0  0  0  0  0  0  0  0  0  0  # atno 17395 bound_to 11000

$$$$
