AV-unprocessed.smi:3165|AV-procd|sdf|12087|dock1
  -GOLD-   2272017513D 1   1.00000     0.00000
 Structure written by MMmdl.
 38 39  0  0  0  0  0  0  0  0  2 V2000
  148.5951  141.2345  156.5826 C   0  0  0  0  0  0  0  0  0  0  0  0
  150.0291  141.6850  156.2739 C   0  0  2  0  0  0  0  0  0  0  0  0
  151.0418  140.5869  156.6614 C   0  0  0  0  0  0  0  0  0  0  0  0
  151.1056  139.5086  155.6913 N   0  0  0  0  0  0  0  0  0  0  0  0
  151.8270  138.3353  155.7591 C   0  0  0  0  0  0  0  0  0  0  0  0
  151.5615  137.6299  154.6206 C   0  0  0  0  0  0  0  0  0  0  0  0
  150.6570  138.4654  153.9072 C   0  0  0  0  0  0  0  0  0  0  0  0
  150.3856  139.5892  154.5510 N   0  0  0  0  0  0  0  0  0  0  0  0
  150.3105  142.9502  156.9896 N   0  3  0  0  0  0  0  0  0  0  0  0
  151.7066  143.4259  156.8913 C   0  0  0  0  0  0  0  0  0  0  0  0
  152.2374  143.8596  158.2638 C   0  0  1  0  0  0  0  0  0  0  0  0
  151.4002  145.0045  158.8670 C   0  0  0  0  0  0  0  0  0  0  0  0
  151.8929  145.3484  160.2772 C   0  0  0  0  0  0  0  0  0  0  0  0
  151.9316  144.0792  161.1347 C   0  0  0  0  0  0  0  0  0  0  0  0
  152.7338  142.9788  160.4225 C   0  0  0  0  0  0  0  0  0  0  0  0
  152.1781  142.7312  159.1344 O   0  0  0  0  0  0  0  0  0  0  0  0
  148.3440  140.3227  156.0396 H   0  0  0  0  0  0  0  0  0  0  0  0
  147.8721  141.9974  156.2918 H   0  0  0  0  0  0  0  0  0  0  0  0
  148.4601  141.0355  157.6466 H   0  0  0  0  0  0  0  0  0  0  0  0
  150.0892  141.8591  155.1981 H   0  0  0  0  0  0  0  0  0  0  0  0
  152.0397  141.0105  156.7880 H   0  0  0  0  0  0  0  0  0  0  0  0
  150.7678  140.1518  157.6234 H   0  0  0  0  0  0  0  0  0  0  0  0
  152.4603  138.1019  156.6025 H   0  0  0  0  0  0  0  0  0  0  0  0
  151.9551  136.6644  154.3386 H   0  0  0  0  0  0  0  0  0  0  0  0
  150.1927  138.2896  152.9480 H   0  0  0  0  0  0  0  0  0  0  0  0
  149.7181  143.6710  156.6025 H   0  0  0  0  0  0  0  0  0  0  0  0
  152.3318  142.6253  156.4961 H   0  0  0  0  0  0  0  0  0  0  0  0
  151.7630  144.2534  156.1827 H   0  0  0  0  0  0  0  0  0  0  0  0
  153.2738  144.1861  158.1586 H   0  0  0  0  0  0  0  0  0  0  0  0
  151.4514  145.8881  158.2301 H   0  0  0  0  0  0  0  0  0  0  0  0
  150.3505  144.7107  158.9101 H   0  0  0  0  0  0  0  0  0  0  0  0
  152.8906  145.7856  160.2218 H   0  0  0  0  0  0  0  0  0  0  0  0
  151.2464  146.0977  160.7350 H   0  0  0  0  0  0  0  0  0  0  0  0
  152.3681  144.2955  162.1103 H   0  0  0  0  0  0  0  0  0  0  0  0
  150.9151  143.7284  161.3173 H   0  0  0  0  0  0  0  0  0  0  0  0
  153.7839  143.2598  160.3292 H   0  0  0  0  0  0  0  0  0  0  0  0
  152.7020  142.0566  161.0028 H   0  0  0  0  0  0  0  0  0  0  0  0
  150.0700  142.8277  157.9632 H   0  0  0  0  0  0  0  0  0  0  0  0
  1  2  1  0  0  0  0
  1 17  1  0  0  0  0
  1 18  1  0  0  0  0
  1 19  1  0  0  0  0
  2  3  1  0  0  0  0
  2  9  1  0  0  0  0
  2 20  1  0  0  0  0
  3  4  1  0  0  0  0
  3 21  1  0  0  0  0
  3 22  1  0  0  0  0
  4  8  1  0  0  0  0
  4  5  1  0  0  0  0
  5  6  2  0  0  0  0
  5 23  1  0  0  0  0
  6  7  1  0  0  0  0
  6 24  1  0  0  0  0
  7  8  2  0  0  0  0
  7 25  1  0  0  0  0
  9 10  1  0  0  0  0
  9 26  1  0  0  0  0
  9 38  1  0  0  0  0
 10 11  1  0  0  0  0
 10 27  1  0  0  0  0
 10 28  1  0  0  0  0
 11 16  1  0  0  0  0
 11 12  1  0  0  0  0
 11 29  1  0  0  0  0
 12 13  1  0  0  0  0
 12 30  1  0  0  0  0
 12 31  1  0  0  0  0
 13 14  1  0  0  0  0
 13 32  1  0  0  0  0
 13 33  1  0  0  0  0
 14 15  1  0  0  0  0
 14 34  1  0  0  0  0
 14 35  1  0  0  0  0
 15 16  1  0  0  0  0
 15 36  1  0  0  0  0
 15 37  1  0  0  0  0
M  CHG  1   9   1
M  END
> <s_m_source_file>
AV-unprocessed.smi

> <i_m_source_file_index>
3165

> <i_lp_mmshare_version>
43012

> <i_f3d_flags>
0

> <s_epik_input>
bjFbY0hdW2NIXVtjSF1uMVtDSDJdW0NAQEhdKFtDSDNdKVtOSF1bQ0gyXVtDQEBIXTJbQ0gyXVtDSDJdW0NIMl1bQ0gyXU8y

> <s_epik_cmdline>
J2VwaWtfcHl0aG9uJywgJy1waCcsICc3LjAnLCAnLXRuJywgJzgnLCAnLW1hJywgJzIwMCcsICctbWV0YWxfYmluZGluZycsICctaW1hZScsICc8aW5maWxlLm1hZT4nLCAnLW9tYWUnLCAnPG91dGZpbGUubWFlPic=

> <r_lp_tautomer_probability>
1

> <r_epik_Ionization_Penalty>
0.00849196

> <r_epik_Ionization_Penalty_Charging>
0.00848754

> <r_epik_Ionization_Penalty_Neutral>
4.42049e-06

> <r_epik_State_Penalty>
0.00639836

> <r_epik_Charging_Adjusted_Penalty>
0.0148859

> <i_epik_Tot_Q>
1

> <i_epik_Tot_abs_Q>
1

> <r_epik_Metal_State_Penalty>
0.00639878

> <b_epik_Metal_Only>
0

> <s_lp_Force_Field>
OPLS_2005

> <r_lp_Energy>
13.1527

> <b_lp_Chiralities_Consistent>
1

> <s_lp_Variant>
AV-unprocessed.smi:3165-3

> <Gold.Version>
5.8.1

> <Gold.Id.Protein>
6NUR|6NUR_protein|mol2

> <Gold.PLP.Fitness>
51.1750

> <Gold.PLP.PLP>
-38.3965

> <Gold.PLP.part.hbond>
-2.0000

> <Gold.PLP.part.metal>
0.0000

> <Gold.PLP.part.buried>
-6.2533

> <Gold.PLP.part.nonpolar>
-32.0095

> <Gold.PLP.part.repulsive>
0.1327

> <Gold.PLP.ligand.clash>
0.0000

> <Gold.PLP.ligand.torsion>
0.5410

> <Gold.PLP.Chemscore.Hbond>
2.8029

> <Gold.PLP.Chemscore.CHOScore>
1.8018

> <Gold.PLP.Chemscore.Metal>
0.0000

> <Gold.Chemscore.Hbonds>
donor molecule, donor type, donor heavy atom, donor atom, acceptor molecule, acceptor atom, score
      L1  H     9    26       P1  8028  2.00
      P1  H  7989  7998       L1     8  0.81
      L1  C     7    25       P1  7948  0.83
      L1  C     7    25       P1  7949  0.02
      L1  C     7    25       P1  7957  0.92

> <Gold.PLP.Chemscore.Internal.Correction>
0.0465

> <Gold.Rescore>
     Score         DG    S(hbond)    S(metal)    S(lipo)     H(rot)  DE(clash)    DE(int)     intcor
     18.18     -20.42       1.86        0.00     110.70       1.64       1.51       0.73       ----

> <Gold.Chemscore.Fitness>
18.1791

> <Gold.Chemscore.DG>
-20.4192

> <Gold.Chemscore.ZeroCoef>
-5.4800

> <Gold.Chemscore.Hbond>
1.8552

> <Gold.Chemscore.Metal>
0.0000

> <Gold.Chemscore.Lipo>
110.7048

> <Gold.Chemscore.Internal_Hbond>
0.0000

> <Gold.Chemscore.DEClash>
1.5101

> <Gold.Chemscore.DEInternal>
0.7299

> <Gold.Chemscore.Rot>
1.6444

> <Gold.Chemscore.Internal.Correction>
   9.000000E+99

> <Gold.Chemscore.Hbonds>
donor molecule, donor type, donor heavy atom, donor atom, acceptor molecule, acceptor atom, score
      L1  H     9    26       P1  8028  0.99
      P1  H  7989  7998       L1     8  0.04

> <Gold.Chemscore.Hbond.Weighted>
-6.1964

> <Gold.Chemscore.Metal.Weighted>
-0.0000

> <Gold.Chemscore.Lipo.Weighted>
-12.9525

> <Gold.Chemscore.Internal_Hbond.Weighted>
0.0000

> <Gold.Chemscore.DEClash.Weighted>
1.5101

> <Gold.Chemscore.DEInternal.Weighted>
0.7299

> <Gold.Chemscore.Rot.Weighted>
4.2097

> <Gold.Chemscore.Internal.Correction.Weighted>
   9.000000E+99

> <Gold.Protein.RotatedTorsions>
[ 6907 6896 6895 6894 ] final -125.51 input  -60.11 | X-H torsion
[ 7974 7965 7964 7962 ] final -130.76 input  175.53 | X-H torsion
[ 8008 7997 7996 7995 ] final  -31.06 input   59.86 | X-H torsion
[ 10167 10162 10161 10158 ] final   65.45 input  -65.29 | X-H torsion
[ 10718 10713 10712 10709 ] final  -63.06 input   66.30 | X-H torsion
[ 10763 10752 10751 10750 ] final -166.24 input  -60.55 | X-H torsion
[ 11005 11000 10999 10996 ] final   30.99 input  -57.11 | X-H torsion

> <Gold.Protein.ActiveResidues>
 VAL166  LYS551  ARG553  GLY616  TRP617  ASP618  TYR619  PRO620  LYS621  CYS622 
 ASP623  PHE694  ASN695  SER759  ASP760  ASP761  ALA762  ILE779  LEU786  VAL792 
 PHE793  MET794  SER795  GLU796  ALA797  LYS798  CYS799  TRP800  GLU811  SER814 

> <Gold.Protein.RotatedAtoms>
  150.8874  133.7289  159.2914 H   0  0  0  0  0  0  0  0  0  0  0  0  # atno 6907 bound_to 6896
  151.4850  135.1053  159.9797 H   0  0  0  0  0  0  0  0  0  0  0  0  # atno 6908 bound_to 6896
  152.4799  133.8182  159.7095 H   0  0  0  0  0  0  0  0  0  0  0  0  # atno 6909 bound_to 6896
  144.9444  140.7275  143.4826 H   0  0  0  0  0  0  0  0  0  0  0  0  # atno 7974 bound_to 7965
  154.4227  140.1774  156.1506 H   0  0  0  0  0  0  0  0  0  0  0  0  # atno 8008 bound_to 7997
  155.9918  140.3368  155.6736 H   0  0  0  0  0  0  0  0  0  0  0  0  # atno 8009 bound_to 7997
  155.6362  140.0675  157.2624 H   0  0  0  0  0  0  0  0  0  0  0  0  # atno 8010 bound_to 7997
  140.1111  144.4817  150.6977 H   0  0  0  0  0  0  0  0  0  0  0  0  # atno 10167 bound_to 10162
  156.0815  130.4216  150.1224 H   0  0  0  0  0  0  0  0  0  0  0  0  # atno 10718 bound_to 10713
  154.6852  135.2961  154.9557 H   0  0  0  0  0  0  0  0  0  0  0  0  # atno 10763 bound_to 10752
  154.0539  135.6641  153.4807 H   0  0  0  0  0  0  0  0  0  0  0  0  # atno 10764 bound_to 10752
  153.0574  135.5136  154.7916 H   0  0  0  0  0  0  0  0  0  0  0  0  # atno 10765 bound_to 10752
  140.2886  134.2890  155.7782 H   0  0  0  0  0  0  0  0  0  0  0  0  # atno 11005 bound_to 11000
  145.2941  139.1873  143.4725 LP  0  0  0  0  0  0  0  0  0  0  0  0  # atno 17320 bound_to 7965
  146.3298  140.2922  142.8616 LP  0  0  0  0  0  0  0  0  0  0  0  0  # atno 17321 bound_to 7965
  140.6925  143.2384  151.5092 LP  0  0  0  0  0  0  0  0  0  0  0  0  # atno 17342 bound_to 10162
  139.5619  144.2137  152.1704 LP  0  0  0  0  0  0  0  0  0  0  0  0  # atno 17343 bound_to 10162
  156.9254  130.9696  151.3542 LP  0  0  0  0  0  0  0  0  0  0  0  0  # atno 17370 bound_to 10713
  157.5933  130.8459  149.8691 LP  0  0  0  0  0  0  0  0  0  0  0  0  # atno 17371 bound_to 10713
  141.2150  133.7570  156.9590 LP  0  0  0  0  0  0  0  0  0  0  0  0  # atno 17394 bound_to 11000
  140.1217  134.9413  157.2212 LP  0  0  0  0  0  0  0  0  0  0  0  0  # atno 17395 bound_to 11000

$$$$
