AV-unprocessed.smi:2252|AV-procd|sdf|9111|dock10
  -GOLD-   2272012313D 1   1.00000     0.00000
 Structure written by MMmdl.
 44 46  0  0  0  0  0  0  0  0  3 V2000
  151.8863  145.0994  160.3449 C   0  0  0  0  0  0  0  0  0  0  0  0
  152.3357  143.7695  160.7102 N   0  0  0  0  0  0  0  0  0  0  0  0
  152.6924  143.3581  161.9879 C   0  0  0  0  0  0  0  0  0  0  0  0
  153.0587  142.0383  161.8905 C   0  0  0  0  0  0  0  0  0  0  0  0
  152.9362  141.6239  160.5699 N   0  0  0  0  0  0  0  0  0  0  0  0
  152.4947  142.6943  159.9092 C   0  0  0  0  0  0  0  0  0  0  0  0
  152.2104  142.7101  158.4269 C   0  0  0  0  0  0  0  0  0  0  0  0
  151.1118  141.7305  157.9467 C   0  0  0  0  0  0  0  0  0  0  0  0
  151.3172  141.3690  156.5459 N   0  5  0  0  0  0  0  0  0  0  0  0
  150.3290  140.9510  155.7059 C   0  0  0  0  0  0  0  0  0  0  0  0
  150.3918  140.5056  154.5560 O   0  0  0  0  0  0  0  0  0  0  0  0
  148.9472  141.0397  156.3808 C   0  0  2  0  0  0  0  0  0  0  0  0
  148.2450  139.6611  156.3591 C   0  0  0  0  0  0  0  0  0  0  0  0
  147.2490  139.2696  157.4295 C   0  0  0  0  0  0  0  0  0  0  0  0
  148.5977  138.5993  157.3782 C   0  0  0  0  0  0  0  0  0  0  0  0
  148.1123  142.1091  155.7622 N   0  3  0  0  0  0  0  0  0  0  0  0
  147.8769  141.9875  154.3070 C   0  0  0  0  0  0  0  0  0  0  0  0
  146.5820  142.7551  154.0058 C   0  0  0  0  0  0  0  0  0  0  0  0
  146.0171  143.1623  155.3689 C   0  0  0  0  0  0  0  0  0  0  0  0
  146.7797  142.3007  156.3707 C   0  0  0  0  0  0  0  0  0  0  0  0
  151.8252  145.7324  161.2307 H   0  0  0  0  0  0  0  0  0  0  0  0
  150.8995  145.0449  159.8847 H   0  0  0  0  0  0  0  0  0  0  0  0
  152.5887  145.5463  159.6410 H   0  0  0  0  0  0  0  0  0  0  0  0
  152.6571  144.0220  162.8391 H   0  0  0  0  0  0  0  0  0  0  0  0
  153.3986  141.3614  162.6604 H   0  0  0  0  0  0  0  0  0  0  0  0
  151.9368  143.7232  158.1323 H   0  0  0  0  0  0  0  0  0  0  0  0
  153.1420  142.5001  157.8997 H   0  0  0  0  0  0  0  0  0  0  0  0
  151.1261  140.8463  158.5841 H   0  0  0  0  0  0  0  0  0  0  0  0
  150.1357  142.1879  158.1128 H   0  0  0  0  0  0  0  0  0  0  0  0
  149.1096  141.3145  157.4247 H   0  0  0  0  0  0  0  0  0  0  0  0
  148.0372  139.2893  155.3570 H   0  0  0  0  0  0  0  0  0  0  0  0
  147.0706  139.9717  158.2415 H   0  0  0  0  0  0  0  0  0  0  0  0
  146.3842  138.6870  157.1188 H   0  0  0  0  0  0  0  0  0  0  0  0
  148.6373  137.5685  157.0321 H   0  0  0  0  0  0  0  0  0  0  0  0
  149.3154  138.8586  158.1540 H   0  0  0  0  0  0  0  0  0  0  0  0
  148.7251  142.3742  153.7409 H   0  0  0  0  0  0  0  0  0  0  0  0
  147.7425  140.9384  154.0398 H   0  0  0  0  0  0  0  0  0  0  0  0
  146.7701  143.6325  153.3859 H   0  0  0  0  0  0  0  0  0  0  0  0
  145.8805  142.1162  153.4682 H   0  0  0  0  0  0  0  0  0  0  0  0
  146.2325  144.2153  155.5542 H   0  0  0  0  0  0  0  0  0  0  0  0
  144.9373  143.0275  155.4373 H   0  0  0  0  0  0  0  0  0  0  0  0
  146.2842  141.3347  156.4817 H   0  0  0  0  0  0  0  0  0  0  0  0
  146.8360  142.7670  157.3549 H   0  0  0  0  0  0  0  0  0  0  0  0
  148.6126  142.9762  155.9030 H   0  0  0  0  0  0  0  0  0  0  0  0
  1  2  1  0  0  0  0
  1 21  1  0  0  0  0
  1 22  1  0  0  0  0
  1 23  1  0  0  0  0
  2  6  1  0  0  0  0
  2  3  1  0  0  0  0
  3  4  2  0  0  0  0
  3 24  1  0  0  0  0
  4  5  1  0  0  0  0
  4 25  1  0  0  0  0
  5  6  2  0  0  0  0
  6  7  1  0  0  0  0
  7  8  1  0  0  0  0
  7 26  1  0  0  0  0
  7 27  1  0  0  0  0
  8  9  1  0  0  0  0
  8 28  1  0  0  0  0
  8 29  1  0  0  0  0
  9 10  1  0  0  0  0
 10 11  2  0  0  0  0
 10 12  1  0  0  0  0
 12 13  1  0  0  0  0
 12 16  1  0  0  0  0
 12 30  1  0  0  0  0
 13 15  1  0  0  0  0
 13 14  1  0  0  0  0
 13 31  1  0  0  0  0
 14 15  1  0  0  0  0
 14 32  1  0  0  0  0
 14 33  1  0  0  0  0
 15 34  1  0  0  0  0
 15 35  1  0  0  0  0
 16 20  1  0  0  0  0
 16 17  1  0  0  0  0
 16 44  1  0  0  0  0
 17 18  1  0  0  0  0
 17 36  1  0  0  0  0
 17 37  1  0  0  0  0
 18 19  1  0  0  0  0
 18 38  1  0  0  0  0
 18 39  1  0  0  0  0
 19 20  1  0  0  0  0
 19 40  1  0  0  0  0
 19 41  1  0  0  0  0
 20 42  1  0  0  0  0
 20 43  1  0  0  0  0
M  CHG  1   9  -1
M  CHG  1  16   1
M  END
> <s_m_source_file>
AV-unprocessed.smi

> <i_m_source_file_index>
2252

> <i_lp_mmshare_version>
43012

> <i_f3d_flags>
0

> <s_epik_input>
W0NIM11uMVtjSF1bY0hdbmMxW0NIMl1bQ0gyXVtOSF1DKD1PKVtDQEhdKFtDSF0yW0NIMl1bQ0gyXTIpTjNbQ0gyXVtDSDJdW0NIMl1bQ0gyXTM=

> <s_epik_cmdline>
J2VwaWtfcHl0aG9uJywgJy1waCcsICc3LjAnLCAnLXRuJywgJzgnLCAnLW1hJywgJzIwMCcsICctbWV0YWxfYmluZGluZycsICctaW1hZScsICc8aW5maWxlLm1hZT4nLCAnLW9tYWUnLCAnPG91dGZpbGUubWFlPic=

> <r_lp_tautomer_probability>
1

> <r_epik_Ionization_Penalty>
7.86289

> <r_epik_Ionization_Penalty_Charging>
7.86289

> <r_epik_Ionization_Penalty_Neutral>
4.79398e-13

> <r_epik_State_Penalty>
7.18546

> <r_epik_Charging_Adjusted_Penalty>
15.0484

> <i_epik_Tot_Q>
0

> <i_epik_Tot_abs_Q>
2

> <r_epik_Metal_State_Penalty>
3.4294

> <b_epik_Metal_Only>
1

> <s_lp_Force_Field>
OPLS_2005

> <r_lp_Energy>
29.989

> <b_lp_Chiralities_Consistent>
1

> <s_lp_Variant>
AV-unprocessed.smi:2252-9

> <Gold.Version>
5.8.1

> <Gold.Id.Protein>
6NUR|6NUR_protein|mol2

> <Gold.PLP.Fitness>
53.1866

> <Gold.PLP.PLP>
-44.9397

> <Gold.PLP.part.hbond>
-2.0000

> <Gold.PLP.part.metal>
0.0000

> <Gold.PLP.part.buried>
-7.4489

> <Gold.PLP.part.nonpolar>
-34.3869

> <Gold.PLP.part.repulsive>
0.2201

> <Gold.PLP.ligand.clash>
0.0000

> <Gold.PLP.ligand.torsion>
1.0048

> <Gold.PLP.Chemscore.Hbond>
3.0000

> <Gold.PLP.Chemscore.CHOScore>
0.0000

> <Gold.PLP.Chemscore.Metal>
0.0000

> <Gold.Chemscore.Hbonds>
donor molecule, donor type, donor heavy atom, donor atom, acceptor molecule, acceptor atom, score
      L1  H    16    44       P1  8028  2.00
      P1  H  7989  7998       L1    11  0.98

> <Gold.PLP.Chemscore.Internal.Correction>
1.2565

> <Gold.Rescore>
     Score         DG    S(hbond)    S(metal)    S(lipo)     H(rot)  DE(clash)    DE(int)     intcor
     14.70     -16.86       1.95        0.00      82.70       1.88       0.05       2.11       ----

> <Gold.Chemscore.Fitness>
14.6956

> <Gold.Chemscore.DG>
-16.8598

> <Gold.Chemscore.ZeroCoef>
-5.4800

> <Gold.Chemscore.Hbond>
1.9522

> <Gold.Chemscore.Metal>
0.0000

> <Gold.Chemscore.Lipo>
82.6976

> <Gold.Chemscore.Internal_Hbond>
0.0000

> <Gold.Chemscore.DEClash>
0.0520

> <Gold.Chemscore.DEInternal>
2.1123

> <Gold.Chemscore.Rot>
1.8814

> <Gold.Chemscore.Internal.Correction>
   9.000000E+99

> <Gold.Chemscore.Hbonds>
donor molecule, donor type, donor heavy atom, donor atom, acceptor molecule, acceptor atom, score
      L1  H    16    44       P1  8028  0.96
      P1  H  7989  7998       L1    11  0.93

> <Gold.Chemscore.Hbond.Weighted>
-6.5205

> <Gold.Chemscore.Metal.Weighted>
-0.0000

> <Gold.Chemscore.Lipo.Weighted>
-9.6756

> <Gold.Chemscore.Internal_Hbond.Weighted>
0.0000

> <Gold.Chemscore.DEClash.Weighted>
0.0520

> <Gold.Chemscore.DEInternal.Weighted>
2.1123

> <Gold.Chemscore.Rot.Weighted>
4.8163

> <Gold.Chemscore.Internal.Correction.Weighted>
   9.000000E+99

> <Gold.Protein.RotatedTorsions>
[ 6907 6896 6895 6894 ] final  121.29 input  -60.11 | X-H torsion
[ 7974 7965 7964 7962 ] final  133.58 input  175.53 | X-H torsion
[ 8008 7997 7996 7995 ] final  -88.95 input   59.86 | X-H torsion
[ 10167 10162 10161 10158 ] final -103.50 input  -65.29 | X-H torsion
[ 10718 10713 10712 10709 ] final  -11.93 input   66.30 | X-H torsion
[ 10763 10752 10751 10750 ] final  149.78 input  -60.55 | X-H torsion
[ 11005 11000 10999 10996 ] final -100.88 input  -57.11 | X-H torsion

> <Gold.Protein.ActiveResidues>
 VAL166  LYS551  ARG553  GLY616  TRP617  ASP618  TYR619  PRO620  LYS621  CYS622 
 ASP623  PHE694  ASN695  SER759  ASP760  ASP761  ALA762  ILE779  LEU786  VAL792 
 PHE793  MET794  SER795  GLU796  ALA797  LYS798  CYS799  TRP800  GLU811  SER814 

> <Gold.Protein.RotatedAtoms>
  152.4333  133.7316  159.6590 H   0  0  0  0  0  0  0  0  0  0  0  0  # atno 6907 bound_to 6896
  150.8214  133.8235  159.3143 H   0  0  0  0  0  0  0  0  0  0  0  0  # atno 6908 bound_to 6896
  151.5916  135.1055  160.0092 H   0  0  0  0  0  0  0  0  0  0  0  0  # atno 6909 bound_to 6896
  144.9850  139.4464  143.5367 H   0  0  0  0  0  0  0  0  0  0  0  0  # atno 7974 bound_to 7965
  154.6808  140.0547  157.0263 H   0  0  0  0  0  0  0  0  0  0  0  0  # atno 8008 bound_to 7997
  155.0955  140.3223  155.4543 H   0  0  0  0  0  0  0  0  0  0  0  0  # atno 8009 bound_to 7997
  156.2693  140.2040  156.6081 H   0  0  0  0  0  0  0  0  0  0  0  0  # atno 8010 bound_to 7997
  140.2194  143.3687  152.0983 H   0  0  0  0  0  0  0  0  0  0  0  0  # atno 10167 bound_to 10162
  156.6519  130.4957  149.6059 H   0  0  0  0  0  0  0  0  0  0  0  0  # atno 10718 bound_to 10713
  154.0768  135.2862  155.3298 H   0  0  0  0  0  0  0  0  0  0  0  0  # atno 10763 bound_to 10752
  154.6710  135.5299  153.8142 H   0  0  0  0  0  0  0  0  0  0  0  0  # atno 10764 bound_to 10752
  153.0464  135.6557  154.0946 H   0  0  0  0  0  0  0  0  0  0  0  0  # atno 10765 bound_to 10752
  141.1253  133.8434  157.1160 H   0  0  0  0  0  0  0  0  0  0  0  0  # atno 11005 bound_to 11000
  146.3418  139.9147  142.8775 LP  0  0  0  0  0  0  0  0  0  0  0  0  # atno 17320 bound_to 7965
  145.2366  140.9993  143.3960 LP  0  0  0  0  0  0  0  0  0  0  0  0  # atno 17321 bound_to 7965
  139.5150  144.6956  151.5639 LP  0  0  0  0  0  0  0  0  0  0  0  0  # atno 17342 bound_to 10162
  140.6266  143.9156  150.6570 LP  0  0  0  0  0  0  0  0  0  0  0  0  # atno 17343 bound_to 10162
  156.2077  130.6660  151.1236 LP  0  0  0  0  0  0  0  0  0  0  0  0  # atno 17370 bound_to 10713
  157.7138  131.0720  150.6404 LP  0  0  0  0  0  0  0  0  0  0  0  0  # atno 17371 bound_to 10713
  140.0246  134.9930  157.0660 LP  0  0  0  0  0  0  0  0  0  0  0  0  # atno 17394 bound_to 11000
  140.4383  134.1707  155.7172 LP  0  0  0  0  0  0  0  0  0  0  0  0  # atno 17395 bound_to 11000

$$$$
