AV-unprocessed.smi:1914|AV-procd|sdf|7759|dock8
  -GOLD-   22720 9503D 1   1.00000     0.00000
 Structure written by MMmdl.
 44 45  0  0  0  0  0  0  0  0  2 V2000
  145.5855  132.6349  149.8076 C   0  0  0  0  0  0  0  0  0  0  0  0
  146.1444  133.7331  150.7233 C   0  0  1  0  0  0  0  0  0  0  0  0
  145.0301  134.6668  151.2249 C   0  0  0  0  0  0  0  0  0  0  0  0
  145.6107  135.7337  152.1613 C   0  0  0  0  0  0  0  0  0  0  0  0
  146.3938  135.0866  153.3144 C   0  0  0  0  0  0  0  0  0  0  0  0
  147.4667  134.1969  152.7998 N   0  3  1  0  0  0  0  0  0  0  0  0
  148.3254  133.6660  153.8886 C   0  0  0  0  0  0  0  0  0  0  0  0
  148.6342  134.7254  154.9589 C   0  0  0  0  0  0  0  0  0  0  0  0
  149.5024  135.7620  154.4184 N   0  0  0  0  0  0  0  0  0  0  0  0
  150.3121  136.5304  155.1611 C   0  0  0  0  0  0  0  0  0  0  0  0
  150.4141  136.4132  156.3828 O   0  0  0  0  0  0  0  0  0  0  0  0
  151.1418  137.5729  154.3978 C   0  0  0  0  0  0  0  0  0  0  0  0
  150.5991  138.9380  154.5023 N   0  0  0  0  0  0  0  0  0  0  0  0
  149.3529  139.1837  153.8918 C   0  0  0  0  0  0  0  0  0  0  0  0
  148.7702  140.3925  153.9292 C   0  0  0  0  0  0  0  0  0  0  0  0
  149.4551  141.4598  154.6196 C   0  0  0  0  0  0  0  0  0  0  0  0
  150.6483  141.2361  155.2051 C   0  0  0  0  0  0  0  0  0  0  0  0
  151.2896  139.9166  155.1657 C   0  0  0  0  0  0  0  0  0  0  0  0
  152.3804  139.7034  155.6963 O   0  0  0  0  0  0  0  0  0  0  0  0
  146.9167  133.1335  151.9157 C   0  0  0  0  0  0  0  0  0  0  0  0
  144.8731  132.0012  150.3370 H   0  0  0  0  0  0  0  0  0  0  0  0
  146.3828  131.9948  149.4294 H   0  0  0  0  0  0  0  0  0  0  0  0
  145.0723  133.0645  148.9467 H   0  0  0  0  0  0  0  0  0  0  0  0
  146.8440  134.3274  150.1332 H   0  0  0  0  0  0  0  0  0  0  0  0
  144.5289  135.1457  150.3829 H   0  0  0  0  0  0  0  0  0  0  0  0
  144.2696  134.0904  151.7540 H   0  0  0  0  0  0  0  0  0  0  0  0
  146.2679  136.3984  151.5988 H   0  0  0  0  0  0  0  0  0  0  0  0
  144.8084  136.3561  152.5590 H   0  0  0  0  0  0  0  0  0  0  0  0
  146.8293  135.8727  153.9325 H   0  0  0  0  0  0  0  0  0  0  0  0
  145.7201  134.5151  153.9551 H   0  0  0  0  0  0  0  0  0  0  0  0
  147.8135  132.8359  154.3781 H   0  0  0  0  0  0  0  0  0  0  0  0
  149.2449  133.2552  153.4682 H   0  0  0  0  0  0  0  0  0  0  0  0
  147.7202  135.1970  155.3207 H   0  0  0  0  0  0  0  0  0  0  0  0
  149.1183  134.2574  155.8177 H   0  0  0  0  0  0  0  0  0  0  0  0
  149.4797  135.9154  153.4205 H   0  0  0  0  0  0  0  0  0  0  0  0
  152.1640  137.5345  154.7767 H   0  0  0  0  0  0  0  0  0  0  0  0
  151.2158  137.2836  153.3475 H   0  0  0  0  0  0  0  0  0  0  0  0
  148.9086  138.3357  153.3910 H   0  0  0  0  0  0  0  0  0  0  0  0
  147.8159  140.5632  153.4531 H   0  0  0  0  0  0  0  0  0  0  0  0
  149.0088  142.4423  154.6657 H   0  0  0  0  0  0  0  0  0  0  0  0
  151.1466  142.0469  155.7163 H   0  0  0  0  0  0  0  0  0  0  0  0
  146.2641  132.4801  152.4974 H   0  0  0  0  0  0  0  0  0  0  0  0
  147.7243  132.5095  151.5345 H   0  0  0  0  0  0  0  0  0  0  0  0
  148.0604  134.7792  152.2264 H   0  0  0  0  0  0  0  0  0  0  0  0
  1  2  1  0  0  0  0
  1 21  1  0  0  0  0
  1 22  1  0  0  0  0
  1 23  1  0  0  0  0
  2 20  1  0  0  0  0
  2  3  1  0  0  0  0
  2 24  1  0  0  0  0
  3  4  1  0  0  0  0
  3 25  1  0  0  0  0
  3 26  1  0  0  0  0
  4  5  1  0  0  0  0
  4 27  1  0  0  0  0
  4 28  1  0  0  0  0
  5  6  1  0  0  0  0
  5 29  1  0  0  0  0
  5 30  1  0  0  0  0
  6  7  1  0  0  0  0
  6 20  1  0  0  0  0
  6 44  1  0  0  0  0
  7  8  1  0  0  0  0
  7 31  1  0  0  0  0
  7 32  1  0  0  0  0
  8  9  1  0  0  0  0
  8 33  1  0  0  0  0
  8 34  1  0  0  0  0
  9 10  1  0  0  0  0
  9 35  1  0  0  0  0
 10 11  2  0  0  0  0
 10 12  1  0  0  0  0
 12 13  1  0  0  0  0
 12 36  1  0  0  0  0
 12 37  1  0  0  0  0
 13 18  1  0  0  0  0
 13 14  1  0  0  0  0
 14 15  2  0  0  0  0
 14 38  1  0  0  0  0
 15 16  1  0  0  0  0
 15 39  1  0  0  0  0
 16 17  2  0  0  0  0
 16 40  1  0  0  0  0
 17 18  1  0  0  0  0
 17 41  1  0  0  0  0
 18 19  2  0  0  0  0
 20 42  1  0  0  0  0
 20 43  1  0  0  0  0
M  CHG  1   6   1
M  END
> <s_m_source_file>
AV-unprocessed.smi

> <i_m_source_file_index>
1914

> <i_lp_mmshare_version>
43012

> <i_f3d_flags>
0

> <s_epik_input>
W0NIM11bQ0BASF0xW0NIMl1bQ0gyXVtDSDJdTihbQ0gyXTEpW0NIMl1bQ0gyXVtOSF1DKD1PKVtDSDJdbjJbY0hdW2NIXVtjSF1bY0hdYzI9Tw==

> <s_epik_cmdline>
J2VwaWtfcHl0aG9uJywgJy1waCcsICc3LjAnLCAnLXRuJywgJzgnLCAnLW1hJywgJzIwMCcsICctbWV0YWxfYmluZGluZycsICctaW1hZScsICc8aW5maWxlLm1hZT4nLCAnLW9tYWUnLCAnPG91dGZpbGUubWFlPic=

> <r_lp_tautomer_probability>
1

> <r_epik_Ionization_Penalty>
0.00192477

> <r_epik_Ionization_Penalty_Charging>
0.00192469

> <r_epik_Ionization_Penalty_Neutral>
8.16761e-08

> <r_epik_State_Penalty>
0.00131115

> <r_epik_Charging_Adjusted_Penalty>
0.00323584

> <i_epik_Tot_Q>
1

> <i_epik_Tot_abs_Q>
1

> <r_epik_Metal_State_Penalty>
-0

> <b_epik_Metal_Only>
0

> <s_lp_Force_Field>
OPLS_2005

> <r_lp_Energy>
25.5857

> <b_lp_Chiralities_Consistent>
1

> <s_lp_Variant>
AV-unprocessed.smi:1914-4

> <Gold.Version>
5.8.1

> <Gold.Id.Protein>
6NUR|6NUR_protein|mol2

> <Gold.PLP.Fitness>
51.7311

> <Gold.PLP.PLP>
-38.9787

> <Gold.PLP.part.hbond>
-3.0941

> <Gold.PLP.part.metal>
0.0000

> <Gold.PLP.part.buried>
-2.0279

> <Gold.PLP.part.nonpolar>
-33.5397

> <Gold.PLP.part.repulsive>
0.0523

> <Gold.PLP.ligand.clash>
0.0000

> <Gold.PLP.ligand.torsion>
0.6138

> <Gold.PLP.Chemscore.Hbond>
4.0000

> <Gold.PLP.Chemscore.CHOScore>
0.6473

> <Gold.PLP.Chemscore.Metal>
0.0000

> <Gold.Chemscore.Hbonds>
donor molecule, donor type, donor heavy atom, donor atom, acceptor molecule, acceptor atom, score
      L1  H     6    44       P1  7948  2.00
      L1  H     9    35       P1  7948  1.00
      P1  H  7997  8008       L1    19  0.88
      L1  C    14    38       P1  7948  0.88

> <Gold.PLP.Chemscore.Internal.Correction>
0.0380

> <Gold.Rescore>
     Score         DG    S(hbond)    S(metal)    S(lipo)     H(rot)  DE(clash)    DE(int)     intcor
     18.03     -18.89       2.90        0.00      72.60       1.86       0.21       0.65       ----

> <Gold.Chemscore.Fitness>
18.0280

> <Gold.Chemscore.DG>
-18.8927

> <Gold.Chemscore.ZeroCoef>
-5.4800

> <Gold.Chemscore.Hbond>
2.8974

> <Gold.Chemscore.Metal>
0.0000

> <Gold.Chemscore.Lipo>
72.5955

> <Gold.Chemscore.Internal_Hbond>
0.0000

> <Gold.Chemscore.DEClash>
0.2126

> <Gold.Chemscore.DEInternal>
0.6521

> <Gold.Chemscore.Rot>
1.8586

> <Gold.Chemscore.Internal.Correction>
   9.000000E+99

> <Gold.Chemscore.Hbonds>
donor molecule, donor type, donor heavy atom, donor atom, acceptor molecule, acceptor atom, score
      L1  H     6    44       P1  7948  0.44
      L1  H     9    35       P1  7948  0.35
      P1  H  7997  8008       L1    19  0.86

> <Gold.Chemscore.Hbond.Weighted>
-9.6772

> <Gold.Chemscore.Metal.Weighted>
-0.0000

> <Gold.Chemscore.Lipo.Weighted>
-8.4937

> <Gold.Chemscore.Internal_Hbond.Weighted>
0.0000

> <Gold.Chemscore.DEClash.Weighted>
0.2126

> <Gold.Chemscore.DEInternal.Weighted>
0.6521

> <Gold.Chemscore.Rot.Weighted>
4.7581

> <Gold.Chemscore.Internal.Correction.Weighted>
   9.000000E+99

> <Gold.Protein.RotatedTorsions>
[ 6907 6896 6895 6894 ] final  -15.27 input  -60.11 | X-H torsion
[ 7974 7965 7964 7962 ] final  -85.51 input  175.53 | X-H torsion
[ 8008 7997 7996 7995 ] final  -27.44 input   59.86 | X-H torsion
[ 10167 10162 10161 10158 ] final  -54.46 input  -65.29 | X-H torsion
[ 10718 10713 10712 10709 ] final   94.22 input   66.30 | X-H torsion
[ 10763 10752 10751 10750 ] final  162.01 input  -60.55 | X-H torsion
[ 11005 11000 10999 10996 ] final  107.53 input  -57.11 | X-H torsion

> <Gold.Protein.ActiveResidues>
 VAL166  LYS551  ARG553  GLY616  TRP617  ASP618  TYR619  PRO620  LYS621  CYS622 
 ASP623  PHE694  ASN695  SER759  ASP760  ASP761  ALA762  ILE779  LEU786  VAL792 
 PHE793  MET794  SER795  GLU796  ALA797  LYS798  CYS799  TRP800  GLU811  SER814 

> <Gold.Protein.RotatedAtoms>
  151.3265  135.0831  159.9323 H   0  0  0  0  0  0  0  0  0  0  0  0  # atno 6907 bound_to 6896
  152.5244  133.9585  159.7716 H   0  0  0  0  0  0  0  0  0  0  0  0  # atno 6908 bound_to 6896
  150.9916  133.6091  159.2737 H   0  0  0  0  0  0  0  0  0  0  0  0  # atno 6909 bound_to 6896
  145.4923  140.9552  143.1805 H   0  0  0  0  0  0  0  0  0  0  0  0  # atno 7974 bound_to 7965
  154.4377  140.1872  156.0932 H   0  0  0  0  0  0  0  0  0  0  0  0  # atno 8008 bound_to 7997
  156.0350  140.3326  155.7154 H   0  0  0  0  0  0  0  0  0  0  0  0  # atno 8009 bound_to 7997
  155.5784  140.0619  157.2780 H   0  0  0  0  0  0  0  0  0  0  0  0  # atno 8010 bound_to 7997
  140.6429  143.2518  151.4939 H   0  0  0  0  0  0  0  0  0  0  0  0  # atno 10167 bound_to 10162
  157.6949  131.0505  150.4153 H   0  0  0  0  0  0  0  0  0  0  0  0  # atno 10718 bound_to 10713
  154.2718  135.2765  155.2735 H   0  0  0  0  0  0  0  0  0  0  0  0  # atno 10763 bound_to 10752
  154.5295  135.5734  153.6750 H   0  0  0  0  0  0  0  0  0  0  0  0  # atno 10764 bound_to 10752
  152.9944  135.6224  154.2873 H   0  0  0  0  0  0  0  0  0  0  0  0  # atno 10765 bound_to 10752
  139.8829  134.9403  156.5834 H   0  0  0  0  0  0  0  0  0  0  0  0  # atno 11005 bound_to 11000
  144.7827  139.6492  143.7147 LP  0  0  0  0  0  0  0  0  0  0  0  0  # atno 17320 bound_to 7965
  146.2277  139.5753  142.9576 LP  0  0  0  0  0  0  0  0  0  0  0  0  # atno 17321 bound_to 7965
  139.5639  144.2090  152.1734 LP  0  0  0  0  0  0  0  0  0  0  0  0  # atno 17342 bound_to 10162
  140.1366  144.5240  150.6769 LP  0  0  0  0  0  0  0  0  0  0  0  0  # atno 17343 bound_to 10162
  156.4533  130.4016  149.6622 LP  0  0  0  0  0  0  0  0  0  0  0  0  # atno 17370 bound_to 10713
  156.3763  130.7556  151.2545 LP  0  0  0  0  0  0  0  0  0  0  0  0  # atno 17371 bound_to 10713
  140.8010  133.8505  155.8726 LP  0  0  0  0  0  0  0  0  0  0  0  0  # atno 17394 bound_to 11000
  140.9592  134.1677  157.4667 LP  0  0  0  0  0  0  0  0  0  0  0  0  # atno 17395 bound_to 11000

$$$$
