AV-unprocessed.smi:1575|AV-procd|sdf|6342|dock6
  -GOLD-   22720 6563D 1   1.00000     0.00000
 Structure written by MMmdl.
 40 40  0  0  0  0  0  0  0  0  2 V2000
  146.2584  137.9838  152.0935 C   0  0  0  0  0  0  0  0  0  0  0  0
  146.4999  136.5504  152.0414 N   0  0  0  0  0  0  0  0  0  0  0  0
  145.6692  135.6272  152.5464 C   0  0  0  0  0  0  0  0  0  0  0  0
  144.6189  135.9128  153.1238 O   0  0  0  0  0  0  0  0  0  0  0  0
  146.1059  134.1605  152.3932 C   0  0  1  0  0  0  0  0  0  0  0  0
  145.8641  133.7451  150.9223 C   0  0  0  0  0  0  0  0  0  0  0  0
  144.3802  133.6696  150.4942 C   0  0  0  0  0  0  0  0  0  0  0  0
  143.5150  133.1288  151.6427 C   0  0  0  0  0  0  0  0  0  0  0  0
  144.1750  132.8241  149.2261 C   0  0  0  0  0  0  0  0  0  0  0  0
  147.5331  134.0384  152.6894 N   0  0  0  0  0  0  0  0  0  0  0  0
  148.0892  133.0747  153.4395 C   0  0  0  0  0  0  0  0  0  0  0  0
  147.4446  132.1493  153.9350 O   0  0  0  0  0  0  0  0  0  0  0  0
  149.6090  133.1631  153.6313 C   0  0  0  0  0  0  0  0  0  0  0  0
  149.9913  133.8574  154.8714 N   0  0  0  0  0  0  0  0  0  0  0  0
  149.9530  135.2628  154.8740 C   0  0  0  0  0  0  0  0  0  0  0  0
  150.2885  135.9806  155.9628 C   0  0  0  0  0  0  0  0  0  0  0  0
  150.7002  135.2630  157.1629 C   0  0  0  0  0  0  0  0  0  0  0  0
  151.0047  135.9019  158.1682 O   0  0  0  0  0  0  0  0  0  0  0  0
  150.7264  133.8993  157.1089 N   0  5  0  0  0  0  0  0  0  0  0  0
  150.3844  133.1823  155.9937 C   0  0  0  0  0  0  0  0  0  0  0  0
  150.4166  131.9515  155.9663 O   0  0  0  0  0  0  0  0  0  0  0  0
  147.0764  138.5166  151.6093 H   0  0  0  0  0  0  0  0  0  0  0  0
  146.1895  138.3290  153.1255 H   0  0  0  0  0  0  0  0  0  0  0  0
  145.3321  138.2398  151.5778 H   0  0  0  0  0  0  0  0  0  0  0  0
  147.3447  136.2386  151.5848 H   0  0  0  0  0  0  0  0  0  0  0  0
  145.5201  133.5335  153.0670 H   0  0  0  0  0  0  0  0  0  0  0  0
  146.3815  134.4406  150.2591 H   0  0  0  0  0  0  0  0  0  0  0  0
  146.3264  132.7718  150.7462 H   0  0  0  0  0  0  0  0  0  0  0  0
  144.0262  134.6788  150.2814 H   0  0  0  0  0  0  0  0  0  0  0  0
  143.8050  132.1127  151.9122 H   0  0  0  0  0  0  0  0  0  0  0  0
  142.4600  133.1120  151.3673 H   0  0  0  0  0  0  0  0  0  0  0  0
  143.6095  133.7498  152.5340 H   0  0  0  0  0  0  0  0  0  0  0  0
  144.5538  131.8105  149.3591 H   0  0  0  0  0  0  0  0  0  0  0  0
  144.6800  133.2612  148.3651 H   0  0  0  0  0  0  0  0  0  0  0  0
  143.1173  132.7518  148.9712 H   0  0  0  0  0  0  0  0  0  0  0  0
  148.1365  134.7615  152.3259 H   0  0  0  0  0  0  0  0  0  0  0  0
  150.0107  132.1491  153.6206 H   0  0  0  0  0  0  0  0  0  0  0  0
  150.0625  133.6601  152.7718 H   0  0  0  0  0  0  0  0  0  0  0  0
  149.6435  135.7168  153.9440 H   0  0  0  0  0  0  0  0  0  0  0  0
  150.2569  137.0600  155.9477 H   0  0  0  0  0  0  0  0  0  0  0  0
  1  2  1  0  0  0  0
  1 22  1  0  0  0  0
  1 23  1  0  0  0  0
  1 24  1  0  0  0  0
  2  3  1  0  0  0  0
  2 25  1  0  0  0  0
  3  4  2  0  0  0  0
  3  5  1  0  0  0  0
  5  6  1  0  0  0  0
  5 10  1  0  0  0  0
  5 26  1  0  0  0  0
  6  7  1  0  0  0  0
  6 27  1  0  0  0  0
  6 28  1  0  0  0  0
  7  8  1  0  0  0  0
  7  9  1  0  0  0  0
  7 29  1  0  0  0  0
  8 30  1  0  0  0  0
  8 31  1  0  0  0  0
  8 32  1  0  0  0  0
  9 33  1  0  0  0  0
  9 34  1  0  0  0  0
  9 35  1  0  0  0  0
 10 11  1  0  0  0  0
 10 36  1  0  0  0  0
 11 12  2  0  0  0  0
 11 13  1  0  0  0  0
 13 14  1  0  0  0  0
 13 37  1  0  0  0  0
 13 38  1  0  0  0  0
 14 20  1  0  0  0  0
 14 15  1  0  0  0  0
 15 16  2  0  0  0  0
 15 39  1  0  0  0  0
 16 17  1  0  0  0  0
 16 40  1  0  0  0  0
 17 18  2  0  0  0  0
 17 19  1  0  0  0  0
 19 20  1  0  0  0  0
 20 21  2  0  0  0  0
M  CHG  1  19  -1
M  END
> <s_m_source_file>
AV-unprocessed.smi

> <i_m_source_file_index>
1575

> <i_lp_mmshare_version>
43012

> <i_f3d_flags>
0

> <s_epik_input>
W0NIM11bTkhdQyg9TylbQ0BIXShbQ0gyXVtDSF0oW0NIM10pW0NIM10pW05IXUMoPU8pW0NIMl1uMVtjSF1bY0hdYyg9TylbbkhdYzE9Tw==

> <s_epik_cmdline>
J2VwaWtfcHl0aG9uJywgJy1waCcsICc3LjAnLCAnLXRuJywgJzgnLCAnLW1hJywgJzIwMCcsICctbWV0YWxfYmluZGluZycsICctaW1hZScsICc8aW5maWxlLm1hZT4nLCAnLW9tYWUnLCAnPG91dGZpbGUubWFlPic=

> <r_lp_tautomer_probability>
0.999537

> <r_epik_Ionization_Penalty>
3.03017

> <r_epik_Ionization_Penalty_Charging>
2.35557e-08

> <r_epik_Ionization_Penalty_Neutral>
3.03017

> <r_epik_State_Penalty>
3.02913

> <r_epik_Charging_Adjusted_Penalty>
3.02913

> <i_epik_Tot_Q>
-1

> <i_epik_Tot_abs_Q>
1

> <r_epik_Metal_State_Penalty>
0.455824

> <b_epik_Metal_Only>
1

> <s_lp_Force_Field>
OPLS_2005

> <r_lp_Energy>
14.624

> <b_lp_Chiralities_Consistent>
1

> <s_lp_Variant>
AV-unprocessed.smi:1575-4

> <Gold.Version>
5.8.1

> <Gold.Id.Protein>
6NUR|6NUR_protein|mol2

> <Gold.PLP.Fitness>
44.2708

> <Gold.PLP.PLP>
-33.1324

> <Gold.PLP.part.hbond>
-3.8752

> <Gold.PLP.part.metal>
0.0000

> <Gold.PLP.part.buried>
-3.8533

> <Gold.PLP.part.nonpolar>
-26.7971

> <Gold.PLP.part.repulsive>
0.2021

> <Gold.PLP.ligand.clash>
0.0000

> <Gold.PLP.ligand.torsion>
1.4503

> <Gold.PLP.Chemscore.Hbond>
3.6400

> <Gold.PLP.Chemscore.CHOScore>
1.0000

> <Gold.PLP.Chemscore.Metal>
0.0000

> <Gold.Chemscore.Hbonds>
donor molecule, donor type, donor heavy atom, donor atom, acceptor molecule, acceptor atom, score
      L1  H     2    25       P1  7948  0.82
      L1  H    10    36       P1  7948  1.00
      P1  H  6896  6907       L1    18  0.35
      P1  H  6896  6909       L1    19  0.74
      L1  C    15    39       P1  7948  1.00

> <Gold.PLP.Chemscore.Internal.Correction>
0.1190

> <Gold.Rescore>
     Score         DG    S(hbond)    S(metal)    S(lipo)     H(rot)  DE(clash)    DE(int)     intcor
     12.72     -14.05       2.79        0.00      53.68       2.74       0.01       1.32       ----

> <Gold.Chemscore.Fitness>
12.7220

> <Gold.Chemscore.DG>
-14.0476

> <Gold.Chemscore.ZeroCoef>
-5.4800

> <Gold.Chemscore.Hbond>
2.7875

> <Gold.Chemscore.Metal>
0.0000

> <Gold.Chemscore.Lipo>
53.6795

> <Gold.Chemscore.Internal_Hbond>
0.0000

> <Gold.Chemscore.DEClash>
0.0088

> <Gold.Chemscore.DEInternal>
1.3168

> <Gold.Chemscore.Rot>
2.7435

> <Gold.Chemscore.Internal.Correction>
   9.000000E+99

> <Gold.Chemscore.Hbonds>
donor molecule, donor type, donor heavy atom, donor atom, acceptor molecule, acceptor atom, score
      L1  H     2    25       P1  7948  0.80
      L1  H    10    36       P1  7948  0.40
      P1  H  6896  6907       L1    18  0.36
      P1  H  6896  6909       L1    19  0.05

> <Gold.Chemscore.Hbond.Weighted>
-9.3103

> <Gold.Chemscore.Metal.Weighted>
-0.0000

> <Gold.Chemscore.Lipo.Weighted>
-6.2805

> <Gold.Chemscore.Internal_Hbond.Weighted>
0.0000

> <Gold.Chemscore.DEClash.Weighted>
0.0088

> <Gold.Chemscore.DEInternal.Weighted>
1.3168

> <Gold.Chemscore.Rot.Weighted>
7.0233

> <Gold.Chemscore.Internal.Correction.Weighted>
   9.000000E+99

> <Gold.Protein.RotatedTorsions>
[ 6907 6896 6895 6894 ] final  -15.05 input  -60.11 | X-H torsion
[ 7974 7965 7964 7962 ] final -124.28 input  175.53 | X-H torsion
[ 8008 7997 7996 7995 ] final -159.75 input   59.86 | X-H torsion
[ 10167 10162 10161 10158 ] final   26.66 input  -65.29 | X-H torsion
[ 10718 10713 10712 10709 ] final  -72.87 input   66.30 | X-H torsion
[ 10763 10752 10751 10750 ] final  -38.46 input  -60.55 | X-H torsion
[ 11005 11000 10999 10996 ] final   23.23 input  -57.11 | X-H torsion

> <Gold.Protein.ActiveResidues>
 VAL166  LYS551  ARG553  GLY616  TRP617  ASP618  TYR619  PRO620  LYS621  CYS622 
 ASP623  PHE694  ASN695  SER759  ASP760  ASP761  ALA762  ILE779  LEU786  VAL792 
 PHE793  MET794  SER795  GLU796  ALA797  LYS798  CYS799  TRP800  GLU811  SER814 

> <Gold.Protein.RotatedAtoms>
  151.3299  135.0839  159.9334 H   0  0  0  0  0  0  0  0  0  0  0  0  # atno 6907 bound_to 6896
  152.5237  133.9553  159.7701 H   0  0  0  0  0  0  0  0  0  0  0  0  # atno 6908 bound_to 6896
  150.9890  133.6116  159.2741 H   0  0  0  0  0  0  0  0  0  0  0  0  # atno 6909 bound_to 6896
  145.0097  140.7895  143.4446 H   0  0  0  0  0  0  0  0  0  0  0  0  # atno 7974 bound_to 7965
  155.7673  140.0847  157.2125 H   0  0  0  0  0  0  0  0  0  0  0  0  # atno 8008 bound_to 7997
  154.3999  140.1532  156.2958 H   0  0  0  0  0  0  0  0  0  0  0  0  # atno 8009 bound_to 7997
  155.8781  140.3422  155.5871 H   0  0  0  0  0  0  0  0  0  0  0  0  # atno 8010 bound_to 7997
  140.5004  144.0324  150.6330 H   0  0  0  0  0  0  0  0  0  0  0  0  # atno 10167 bound_to 10162
  156.0303  130.4381  150.2657 H   0  0  0  0  0  0  0  0  0  0  0  0  # atno 10718 bound_to 10713
  153.9131  135.6790  153.4750 H   0  0  0  0  0  0  0  0  0  0  0  0  # atno 10763 bound_to 10752
  153.1068  135.4802  154.8962 H   0  0  0  0  0  0  0  0  0  0  0  0  # atno 10764 bound_to 10752
  154.7516  135.3186  154.8502 H   0  0  0  0  0  0  0  0  0  0  0  0  # atno 10765 bound_to 10752
  140.3719  134.2014  155.7666 H   0  0  0  0  0  0  0  0  0  0  0  0  # atno 11005 bound_to 11000
  145.2039  139.2238  143.5178 LP  0  0  0  0  0  0  0  0  0  0  0  0  # atno 17320 bound_to 7965
  146.3468  140.1863  142.8589 LP  0  0  0  0  0  0  0  0  0  0  0  0  # atno 17321 bound_to 7965
  140.3618  143.2903  152.0375 LP  0  0  0  0  0  0  0  0  0  0  0  0  # atno 17342 bound_to 10162
  139.4871  144.6297  151.7095 LP  0  0  0  0  0  0  0  0  0  0  0  0  # atno 17343 bound_to 10162
  157.0760  131.0130  151.3173 LP  0  0  0  0  0  0  0  0  0  0  0  0  # atno 17370 bound_to 10713
  157.4963  130.7853  149.7559 LP  0  0  0  0  0  0  0  0  0  0  0  0  # atno 17371 bound_to 10713
  141.1952  133.8111  157.0726 LP  0  0  0  0  0  0  0  0  0  0  0  0  # atno 17394 bound_to 11000
  140.0545  134.9788  157.1196 LP  0  0  0  0  0  0  0  0  0  0  0  0  # atno 17395 bound_to 11000

$$$$
