AV-unprocessed.smi:1736|AV-procd|sdf|6992|dock8
  -GOLD-   22720 8203D 1   1.00000     0.00000
 Structure written by MMmdl.
 44 45  0  0  0  0  0  0  0  0  1 V2000
  152.3383  142.5027  160.3968 C   0  0  0  0  0  0  0  0  0  0  0  0
  151.8578  141.4827  159.4774 N   0  0  0  0  0  0  0  0  0  0  0  0
  151.0798  142.0650  158.3879 C   0  0  0  0  0  0  0  0  0  0  0  0
  150.5615  140.9828  157.4228 C   0  0  0  0  0  0  0  0  0  0  0  0
  151.6612  140.1950  156.8412 N   0  0  0  0  0  0  0  0  0  0  0  0
  151.2463  139.2157  155.7973 C   0  0  0  0  0  0  0  0  0  0  0  0
  150.2743  139.8181  154.7540 C   0  0  0  0  0  0  0  0  0  0  0  0
  152.4751  138.6803  155.0191 C   0  0  0  0  0  0  0  0  0  0  0  0
  150.5381  137.9758  156.4196 C   0  0  0  0  0  0  0  0  0  0  0  0
  149.9942  137.0652  155.4123 N   0  0  0  0  0  0  0  0  0  0  0  0
  149.9968  135.7267  155.4821 C   0  0  0  0  0  0  0  0  0  0  0  0
  150.4827  135.0918  156.4182 O   0  0  0  0  0  0  0  0  0  0  0  0
  149.3981  135.1842  154.4098 N   0  0  0  0  0  0  0  0  0  0  0  0
  149.2094  133.8062  154.1380 C   0  0  0  0  0  0  0  0  0  0  0  0
  149.6553  132.6711  154.8768 C   0  0  0  0  0  0  0  0  0  0  0  0
  149.2771  131.5416  154.2949 N   0  0  0  0  0  0  0  0  0  0  0  0
  148.5973  131.9428  153.1971 N   0  0  0  0  0  0  0  0  0  0  0  0
  148.5328  133.3120  153.0631 C   0  0  0  0  0  0  0  0  0  0  0  0
  152.4460  139.6233  157.9477 C   0  0  0  0  0  0  0  0  0  0  0  0
  152.9588  140.7131  158.9066 C   0  0  0  0  0  0  0  0  0  0  0  0
  148.1881  131.2773  152.5568 H   0  0  0  0  0  0  0  0  0  0  0  0
  151.5044  143.0561  160.8295 H   0  0  0  0  0  0  0  0  0  0  0  0
  152.9924  143.2139  159.8907 H   0  0  0  0  0  0  0  0  0  0  0  0
  152.8974  142.0505  161.2166 H   0  0  0  0  0  0  0  0  0  0  0  0
  150.2329  142.6181  158.7958 H   0  0  0  0  0  0  0  0  0  0  0  0
  151.6866  142.7857  157.8372 H   0  0  0  0  0  0  0  0  0  0  0  0
  149.8666  140.3333  157.9554 H   0  0  0  0  0  0  0  0  0  0  0  0
  149.9909  141.4855  156.6440 H   0  0  0  0  0  0  0  0  0  0  0  0
  150.0032  139.0781  153.9999 H   0  0  0  0  0  0  0  0  0  0  0  0
  150.7119  140.6616  154.2206 H   0  0  0  0  0  0  0  0  0  0  0  0
  149.3436  140.1591  155.2065 H   0  0  0  0  0  0  0  0  0  0  0  0
  152.2101  137.8323  154.3864 H   0  0  0  0  0  0  0  0  0  0  0  0
  153.2654  138.3476  155.6928 H   0  0  0  0  0  0  0  0  0  0  0  0
  152.9039  139.4312  154.3558 H   0  0  0  0  0  0  0  0  0  0  0  0
  151.2262  137.4052  157.0430 H   0  0  0  0  0  0  0  0  0  0  0  0
  149.7541  138.2950  157.1089 H   0  0  0  0  0  0  0  0  0  0  0  0
  149.5618  137.4953  154.6080 H   0  0  0  0  0  0  0  0  0  0  0  0
  149.0368  135.8237  153.7175 H   0  0  0  0  0  0  0  0  0  0  0  0
  150.2257  132.6196  155.7924 H   0  0  0  0  0  0  0  0  0  0  0  0
  148.0271  133.7967  152.2408 H   0  0  0  0  0  0  0  0  0  0  0  0
  151.8470  138.9065  158.5097 H   0  0  0  0  0  0  0  0  0  0  0  0
  153.3128  139.0841  157.5708 H   0  0  0  0  0  0  0  0  0  0  0  0
  153.6438  141.3758  158.3751 H   0  0  0  0  0  0  0  0  0  0  0  0
  153.5349  140.2461  159.7062 H   0  0  0  0  0  0  0  0  0  0  0  0
  1  2  1  0  0  0  0
  1 22  1  0  0  0  0
  1 23  1  0  0  0  0
  1 24  1  0  0  0  0
  2 20  1  0  0  0  0
  2  3  1  0  0  0  0
  3  4  1  0  0  0  0
  3 25  1  0  0  0  0
  3 26  1  0  0  0  0
  4  5  1  0  0  0  0
  4 27  1  0  0  0  0
  4 28  1  0  0  0  0
  5  6  1  0  0  0  0
  5 19  1  0  0  0  0
  6  7  1  0  0  0  0
  6  8  1  0  0  0  0
  6  9  1  0  0  0  0
  7 29  1  0  0  0  0
  7 30  1  0  0  0  0
  7 31  1  0  0  0  0
  8 32  1  0  0  0  0
  8 33  1  0  0  0  0
  8 34  1  0  0  0  0
  9 10  1  0  0  0  0
  9 35  1  0  0  0  0
  9 36  1  0  0  0  0
 10 11  1  0  0  0  0
 10 37  1  0  0  0  0
 11 12  2  0  0  0  0
 11 13  1  0  0  0  0
 13 14  1  0  0  0  0
 13 38  1  0  0  0  0
 14 18  2  0  0  0  0
 14 15  1  0  0  0  0
 15 16  2  0  0  0  0
 15 39  1  0  0  0  0
 16 17  1  0  0  0  0
 17 21  1  0  0  0  0
 17 18  1  0  0  0  0
 18 40  1  0  0  0  0
 19 20  1  0  0  0  0
 19 41  1  0  0  0  0
 19 42  1  0  0  0  0
 20 43  1  0  0  0  0
 20 44  1  0  0  0  0
M  END
> <s_m_source_file>
AV-unprocessed.smi

> <i_m_source_file_index>
1736

> <i_lp_mmshare_version>
43012

> <i_f3d_flags>
0

> <s_epik_input>
W0NIM11OMVtDSDJdW0NIMl1OKFtDSDJdW0NIMl0xKUMoW0NIM10pKFtDSDNdKVtDSDJdW05IXUMoPU8pW05IXWMyW2NIXW5bbkhdW2NIXTI=

> <s_epik_cmdline>
J2VwaWtfcHl0aG9uJywgJy1waCcsICc3LjAnLCAnLXRuJywgJzgnLCAnLW1hJywgJzIwMCcsICctbWV0YWxfYmluZGluZycsICctaW1hZScsICc8aW5maWxlLm1hZT4nLCAnLW9tYWUnLCAnPG91dGZpbGUubWFlPic=

> <r_lp_tautomer_probability>
0.5

> <r_epik_Ionization_Penalty>
3.08539

> <r_epik_Ionization_Penalty_Charging>
0

> <r_epik_Ionization_Penalty_Neutral>
3.08539

> <r_epik_State_Penalty>
2.1584

> <r_epik_Charging_Adjusted_Penalty>
2.1584

> <i_epik_Tot_Q>
0

> <i_epik_Tot_abs_Q>
0

> <r_epik_Metal_State_Penalty>
2.1584

> <b_epik_Metal_Only>
0

> <s_lp_Force_Field>
OPLS_2005

> <r_lp_Energy>
53.1153

> <b_lp_Chiralities_Consistent>
1

> <s_lp_Variant>
AV-unprocessed.smi:1736-3

> <Gold.Version>
5.8.1

> <Gold.Id.Protein>
6NUR|6NUR_protein|mol2

> <Gold.PLP.Fitness>
35.3288

> <Gold.PLP.PLP>
-32.1145

> <Gold.PLP.part.hbond>
-1.8615

> <Gold.PLP.part.metal>
0.0000

> <Gold.PLP.part.buried>
-2.8402

> <Gold.PLP.part.nonpolar>
-26.1871

> <Gold.PLP.part.repulsive>
0.1276

> <Gold.PLP.ligand.clash>
0.0000

> <Gold.PLP.ligand.torsion>
0.3798

> <Gold.PLP.Chemscore.Hbond>
1.1230

> <Gold.PLP.Chemscore.CHOScore>
0.1883

> <Gold.PLP.Chemscore.Metal>
0.0000

> <Gold.Chemscore.Hbonds>
donor molecule, donor type, donor heavy atom, donor atom, acceptor molecule, acceptor atom, score
      L1  H    13    38       P1  7948  0.88
      L1  C    18    40       P1  7948  0.34

> <Gold.PLP.Chemscore.Internal.Correction>
0.0401

> <Gold.Rescore>
     Score         DG    S(hbond)    S(metal)    S(lipo)     H(rot)  DE(clash)    DE(int)     intcor
     13.01     -14.43       1.18        0.00      77.62       1.59       0.05       1.37       ----

> <Gold.Chemscore.Fitness>
13.0123

> <Gold.Chemscore.DG>
-14.4344

> <Gold.Chemscore.ZeroCoef>
-5.4800

> <Gold.Chemscore.Hbond>
1.1807

> <Gold.Chemscore.Metal>
0.0000

> <Gold.Chemscore.Lipo>
77.6194

> <Gold.Chemscore.Internal_Hbond>
0.0000

> <Gold.Chemscore.DEClash>
0.0492

> <Gold.Chemscore.DEInternal>
1.3729

> <Gold.Chemscore.Rot>
1.5901

> <Gold.Chemscore.Internal.Correction>
   9.000000E+99

> <Gold.Chemscore.Hbonds>
donor molecule, donor type, donor heavy atom, donor atom, acceptor molecule, acceptor atom, score
      L1  H    13    38       P1  7948  0.78
      L1  H    17    21       P1 10747  0.03

> <Gold.Chemscore.Hbond.Weighted>
-3.9436

> <Gold.Chemscore.Metal.Weighted>
-0.0000

> <Gold.Chemscore.Lipo.Weighted>
-9.0815

> <Gold.Chemscore.Internal_Hbond.Weighted>
0.0000

> <Gold.Chemscore.DEClash.Weighted>
0.0492

> <Gold.Chemscore.DEInternal.Weighted>
1.3729

> <Gold.Chemscore.Rot.Weighted>
4.0706

> <Gold.Chemscore.Internal.Correction.Weighted>
   9.000000E+99

> <Gold.Protein.RotatedTorsions>
[ 6907 6896 6895 6894 ] final -102.46 input  -60.11 | X-H torsion
[ 7974 7965 7964 7962 ] final   53.95 input  175.53 | X-H torsion
[ 8008 7997 7996 7995 ] final   92.84 input   59.86 | X-H torsion
[ 10167 10162 10161 10158 ] final -170.13 input  -65.29 | X-H torsion
[ 10718 10713 10712 10709 ] final  -13.98 input   66.30 | X-H torsion
[ 10763 10752 10751 10750 ] final -115.95 input  -60.55 | X-H torsion
[ 11005 11000 10999 10996 ] final   38.88 input  -57.11 | X-H torsion

> <Gold.Protein.ActiveResidues>
 VAL166  LYS551  ARG553  GLY616  TRP617  ASP618  TYR619  PRO620  LYS621  CYS622 
 ASP623  PHE694  ASN695  SER759  ASP760  ASP761  ALA762  ILE779  LEU786  VAL792 
 PHE793  MET794  SER795  GLU796  ALA797  LYS798  CYS799  TRP800  GLU811  SER814 

> <Gold.Protein.RotatedAtoms>
  150.7197  134.0578  159.3820 H   0  0  0  0  0  0  0  0  0  0  0  0  # atno 6907 bound_to 6896
  151.8557  135.0540  160.0473 H   0  0  0  0  0  0  0  0  0  0  0  0  # atno 6908 bound_to 6896
  152.2756  133.5386  159.5502 H   0  0  0  0  0  0  0  0  0  0  0  0  # atno 6909 bound_to 6896
  145.9659  139.4102  143.0220 H   0  0  0  0  0  0  0  0  0  0  0  0  # atno 7974 bound_to 7965
  156.0399  140.3320  155.7232 H   0  0  0  0  0  0  0  0  0  0  0  0  # atno 8008 bound_to 7997
  155.5759  140.0632  157.2813 H   0  0  0  0  0  0  0  0  0  0  0  0  # atno 8009 bound_to 7997
  154.4389  140.1852  156.0915 H   0  0  0  0  0  0  0  0  0  0  0  0  # atno 8010 bound_to 7997
  139.5880  144.1275  152.1600 H   0  0  0  0  0  0  0  0  0  0  0  0  # atno 10167 bound_to 10162
  156.6225  130.4879  149.6159 H   0  0  0  0  0  0  0  0  0  0  0  0  # atno 10718 bound_to 10713
  154.8501  135.4363  154.1745 H   0  0  0  0  0  0  0  0  0  0  0  0  # atno 10763 bound_to 10752
  153.2850  135.6957  153.7354 H   0  0  0  0  0  0  0  0  0  0  0  0  # atno 10764 bound_to 10752
  153.6543  135.3446  155.3084 H   0  0  0  0  0  0  0  0  0  0  0  0  # atno 10765 bound_to 10752
  140.2083  134.3787  155.8062 H   0  0  0  0  0  0  0  0  0  0  0  0  # atno 11005 bound_to 11000
  145.7975  140.9786  143.1016 LP  0  0  0  0  0  0  0  0  0  0  0  0  # atno 17320 bound_to 7965
  144.6825  139.9760  143.7483 LP  0  0  0  0  0  0  0  0  0  0  0  0  # atno 17321 bound_to 7965
  140.0843  144.5675  150.7100 LP  0  0  0  0  0  0  0  0  0  0  0  0  # atno 17342 bound_to 10162
  140.7149  143.2536  151.4466 LP  0  0  0  0  0  0  0  0  0  0  0  0  # atno 17343 bound_to 10162
  156.2300  130.6788  151.1454 LP  0  0  0  0  0  0  0  0  0  0  0  0  # atno 17370 bound_to 10713
  157.7223  131.0673  150.6082 LP  0  0  0  0  0  0  0  0  0  0  0  0  # atno 17371 bound_to 10713
  141.2226  133.7129  156.8374 LP  0  0  0  0  0  0  0  0  0  0  0  0  # atno 17394 bound_to 11000
  140.1979  134.8918  157.3135 LP  0  0  0  0  0  0  0  0  0  0  0  0  # atno 17395 bound_to 11000

$$$$
