AV-unprocessed.smi:2772|AV-procd|sdf|10671|dock3
  -GOLD-   2272015113D 1   1.00000     0.00000
 Structure written by MMmdl.
 54 56  0  0  0  0  0  0  0  0  2 V2000
  144.4006  132.5740  149.6982 C   0  0  0  0  0  0  0  0  0  0  0  0
  144.7547  133.5901  150.7635 C   0  0  0  0  0  0  0  0  0  0  0  0
  145.0982  133.1814  152.0684 C   0  0  0  0  0  0  0  0  0  0  0  0
  145.4249  134.1677  153.0188 C   0  0  0  0  0  0  0  0  0  0  0  0
  145.4013  135.5285  152.6284 C   0  0  0  0  0  0  0  0  0  0  0  0
  145.6876  136.6139  153.4997 N   0  0  0  0  0  0  0  0  0  0  0  0
  146.0794  137.8594  153.1803 C   0  0  0  0  0  0  0  0  0  0  0  0
  146.2159  138.2896  152.0355 O   0  0  0  0  0  0  0  0  0  0  0  0
  146.2872  138.5975  154.2804 N   0  0  0  0  0  0  0  0  0  0  0  0
  146.7115  139.9953  154.3029 C   0  0  2  0  0  0  0  0  0  0  0  0
  148.1959  140.0977  153.9071 C   0  0  0  0  0  0  0  0  0  0  0  0
  148.7211  141.5348  154.0876 C   0  0  0  0  0  0  0  0  0  0  0  0
  148.5321  142.0212  155.4842 N   0  3  2  0  0  0  0  0  0  0  0  0
  149.4269  141.3892  156.5127 C   0  0  0  0  0  0  0  0  0  0  0  0
  149.6255  142.2984  157.7494 C   0  0  0  0  0  0  0  0  0  0  0  0
  150.6397  141.7144  158.7469 C   0  0  0  0  0  0  0  0  0  0  0  0
  151.9297  141.5157  158.0931 N   0  0  0  0  0  0  0  0  0  0  0  0
  152.8948  141.0307  159.0698 C   0  0  0  0  0  0  0  0  0  0  0  0
  151.7858  140.5291  157.0267 C   0  0  0  0  0  0  0  0  0  0  0  0
  150.8276  141.0555  155.9452 C   0  0  0  0  0  0  0  0  0  0  0  0
  147.0775  142.0087  155.8121 C   0  0  0  0  0  0  0  0  0  0  0  0
  146.4767  140.5939  155.7025 C   0  0  0  0  0  0  0  0  0  0  0  0
  145.0274  135.8249  151.3005 C   0  0  0  0  0  0  0  0  0  0  0  0
  144.7155  134.8852  150.3826 N   0  0  0  0  0  0  0  0  0  0  0  0
  144.4651  131.5566  150.0853 H   0  0  0  0  0  0  0  0  0  0  0  0
  145.0828  132.6590  148.8517 H   0  0  0  0  0  0  0  0  0  0  0  0
  143.3840  132.7376  149.3399 H   0  0  0  0  0  0  0  0  0  0  0  0
  145.1092  132.1363  152.3408 H   0  0  0  0  0  0  0  0  0  0  0  0
  145.6705  133.8624  154.0241 H   0  0  0  0  0  0  0  0  0  0  0  0
  145.5299  136.4333  154.4804 H   0  0  0  0  0  0  0  0  0  0  0  0
  146.1414  138.1549  155.1760 H   0  0  0  0  0  0  0  0  0  0  0  0
  146.1349  140.5824  153.5856 H   0  0  0  0  0  0  0  0  0  0  0  0
  148.7950  139.4059  154.5002 H   0  0  0  0  0  0  0  0  0  0  0  0
  148.3210  139.7911  152.8678 H   0  0  0  0  0  0  0  0  0  0  0  0
  149.7550  141.6176  153.7593 H   0  0  0  0  0  0  0  0  0  0  0  0
  148.1683  142.1980  153.4205 H   0  0  0  0  0  0  0  0  0  0  0  0
  148.9754  140.4570  156.8524 H   0  0  0  0  0  0  0  0  0  0  0  0
  149.9528  143.2905  157.4349 H   0  0  0  0  0  0  0  0  0  0  0  0
  148.6892  142.4321  158.2891 H   0  0  0  0  0  0  0  0  0  0  0  0
  150.7595  142.4020  159.5854 H   0  0  0  0  0  0  0  0  0  0  0  0
  150.2718  140.7718  159.1558 H   0  0  0  0  0  0  0  0  0  0  0  0
  153.8690  140.8811  158.6034 H   0  0  0  0  0  0  0  0  0  0  0  0
  152.5770  140.0839  159.5093 H   0  0  0  0  0  0  0  0  0  0  0  0
  153.0220  141.7555  159.8746 H   0  0  0  0  0  0  0  0  0  0  0  0
  152.7614  140.3311  156.5807 H   0  0  0  0  0  0  0  0  0  0  0  0
  151.4205  139.5833  157.4309 H   0  0  0  0  0  0  0  0  0  0  0  0
  150.7631  140.2867  155.1765 H   0  0  0  0  0  0  0  0  0  0  0  0
  151.2603  141.9390  155.4733 H   0  0  0  0  0  0  0  0  0  0  0  0
  146.8718  142.4451  156.7872 H   0  0  0  0  0  0  0  0  0  0  0  0
  146.5659  142.6638  155.1053 H   0  0  0  0  0  0  0  0  0  0  0  0
  145.4067  140.6348  155.9098 H   0  0  0  0  0  0  0  0  0  0  0  0
  146.9071  139.9473  156.4680 H   0  0  0  0  0  0  0  0  0  0  0  0
  144.9807  136.8491  150.9601 H   0  0  0  0  0  0  0  0  0  0  0  0
  148.8010  142.9950  155.4719 H   0  0  0  0  0  0  0  0  0  0  0  0
  1  2  1  0  0  0  0
  1 25  1  0  0  0  0
  1 26  1  0  0  0  0
  1 27  1  0  0  0  0
  2 24  1  0  0  0  0
  2  3  2  0  0  0  0
  3  4  1  0  0  0  0
  3 28  1  0  0  0  0
  4  5  2  0  0  0  0
  4 29  1  0  0  0  0
  5  6  1  0  0  0  0
  5 23  1  0  0  0  0
  6  7  1  0  0  0  0
  6 30  1  0  0  0  0
  7  8  2  0  0  0  0
  7  9  1  0  0  0  0
  9 10  1  0  0  0  0
  9 31  1  0  0  0  0
 10 22  1  0  0  0  0
 10 11  1  0  0  0  0
 10 32  1  0  0  0  0
 11 12  1  0  0  0  0
 11 33  1  0  0  0  0
 11 34  1  0  0  0  0
 12 13  1  0  0  0  0
 12 35  1  0  0  0  0
 12 36  1  0  0  0  0
 13 14  1  0  0  0  0
 13 21  1  0  0  0  0
 13 54  1  0  0  0  0
 14 20  1  0  0  0  0
 14 15  1  0  0  0  0
 14 37  1  0  0  0  0
 15 16  1  0  0  0  0
 15 38  1  0  0  0  0
 15 39  1  0  0  0  0
 16 17  1  0  0  0  0
 16 40  1  0  0  0  0
 16 41  1  0  0  0  0
 17 18  1  0  0  0  0
 17 19  1  0  0  0  0
 18 42  1  0  0  0  0
 18 43  1  0  0  0  0
 18 44  1  0  0  0  0
 19 20  1  0  0  0  0
 19 45  1  0  0  0  0
 19 46  1  0  0  0  0
 20 47  1  0  0  0  0
 20 48  1  0  0  0  0
 21 22  1  0  0  0  0
 21 49  1  0  0  0  0
 21 50  1  0  0  0  0
 22 51  1  0  0  0  0
 22 52  1  0  0  0  0
 23 24  2  0  0  0  0
 23 53  1  0  0  0  0
M  CHG  1  13   1
M  END
> <s_m_source_file>
AV-unprocessed.smi

> <i_m_source_file_index>
2772

> <i_lp_mmshare_version>
43012

> <i_f3d_flags>
0

> <s_epik_input>
W0NIM11jMVtjSF1bY0hdYyhbY0hdbjEpW05IXUMoPU8pW05IXVtDSF0yW0NIMl1bQ0gyXU4oW0NIMl1bQ0gyXTIpW0NIXTNbQ0gyXVtDSDJdTihbQ0gzXSlbQ0gyXVtDSDJdMw==

> <s_epik_cmdline>
J2VwaWtfcHl0aG9uJywgJy1waCcsICc3LjAnLCAnLXRuJywgJzgnLCAnLW1hJywgJzIwMCcsICctbWV0YWxfYmluZGluZycsICctaW1hZScsICc8aW5maWxlLm1hZT4nLCAnLW9tYWUnLCAnPG91dGZpbGUubWFlPic=

> <r_epik_Ionization_Penalty>
1.38854

> <r_epik_Ionization_Penalty_Charging>
0.00081195

> <r_epik_Ionization_Penalty_Neutral>
1.38772

> <r_epik_State_Penalty>
1.56122

> <r_epik_Charging_Adjusted_Penalty>
1.56203

> <i_epik_Tot_Q>
1

> <i_epik_Tot_abs_Q>
1

> <r_epik_Metal_State_Penalty>
1.5614

> <b_epik_Metal_Only>
0

> <s_lp_Force_Field>
OPLS_2005

> <r_lp_Energy>
35.2305

> <b_lp_Chiralities_Consistent>
1

> <s_lp_Variant>
AV-unprocessed.smi:2772-8

> <Gold.Version>
5.8.1

> <Gold.Id.Protein>
6NUR|6NUR_protein|mol2

> <Gold.PLP.Fitness>
40.2059

> <Gold.PLP.PLP>
-32.5412

> <Gold.PLP.part.hbond>
-1.0000

> <Gold.PLP.part.metal>
0.0000

> <Gold.PLP.part.buried>
-4.4334

> <Gold.PLP.part.nonpolar>
-27.7720

> <Gold.PLP.part.repulsive>
0.8701

> <Gold.PLP.ligand.clash>
0.0000

> <Gold.PLP.ligand.torsion>
0.6892

> <Gold.PLP.Chemscore.Hbond>
2.0000

> <Gold.PLP.Chemscore.CHOScore>
1.0000

> <Gold.PLP.Chemscore.Metal>
0.0000

> <Gold.Chemscore.Hbonds>
donor molecule, donor type, donor heavy atom, donor atom, acceptor molecule, acceptor atom, score
      L1  H    13    54       P1  8028  2.00
      L1  C    23    53       P1 10171  1.00

> <Gold.PLP.Chemscore.Internal.Correction>
0.0430

> <Gold.Rescore>
     Score         DG    S(hbond)    S(metal)    S(lipo)     H(rot)  DE(clash)    DE(int)     intcor
     14.63     -16.71       0.99        0.00      93.76       1.19       0.24       1.84       ----

> <Gold.Chemscore.Fitness>
14.6258

> <Gold.Chemscore.DG>
-16.7053

> <Gold.Chemscore.ZeroCoef>
-5.4800

> <Gold.Chemscore.Hbond>
0.9893

> <Gold.Chemscore.Metal>
0.0000

> <Gold.Chemscore.Lipo>
93.7594

> <Gold.Chemscore.Internal_Hbond>
0.0000

> <Gold.Chemscore.DEClash>
0.2386

> <Gold.Chemscore.DEInternal>
1.8409

> <Gold.Chemscore.Rot>
1.1910

> <Gold.Chemscore.Internal.Correction>
   9.000000E+99

> <Gold.Chemscore.Hbonds>
donor molecule, donor type, donor heavy atom, donor atom, acceptor molecule, acceptor atom, score
      L1  H    13    54       P1  8028  1.00

> <Gold.Chemscore.Hbond.Weighted>
-3.3044

> <Gold.Chemscore.Metal.Weighted>
-0.0000

> <Gold.Chemscore.Lipo.Weighted>
-10.9698

> <Gold.Chemscore.Internal_Hbond.Weighted>
0.0000

> <Gold.Chemscore.DEClash.Weighted>
0.2386

> <Gold.Chemscore.DEInternal.Weighted>
1.8409

> <Gold.Chemscore.Rot.Weighted>
3.0489

> <Gold.Chemscore.Internal.Correction.Weighted>
   9.000000E+99

> <Gold.Protein.RotatedTorsions>
[ 6907 6896 6895 6894 ] final  151.18 input  -60.11 | X-H torsion
[ 7974 7965 7964 7962 ] final   24.26 input  175.53 | X-H torsion
[ 8008 7997 7996 7995 ] final  161.37 input   59.86 | X-H torsion
[ 10167 10162 10161 10158 ] final -153.36 input  -65.29 | X-H torsion
[ 10718 10713 10712 10709 ] final   48.52 input   66.30 | X-H torsion
[ 10763 10752 10751 10750 ] final  115.07 input  -60.55 | X-H torsion
[ 11005 11000 10999 10996 ] final  -66.31 input  -57.11 | X-H torsion

> <Gold.Protein.ActiveResidues>
 VAL166  LYS551  ARG553  GLY616  TRP617  ASP618  TYR619  PRO620  LYS621  CYS622 
 ASP623  PHE694  ASN695  SER759  ASP760  ASP761  ALA762  ILE779  LEU786  VAL792 
 PHE793  MET794  SER795  GLU796  ALA797  LYS798  CYS799  TRP800  GLU811  SER814 

> <Gold.Protein.RotatedAtoms>
  152.1042  133.4266  159.4600 H   0  0  0  0  0  0  0  0  0  0  0  0  # atno 6907 bound_to 6896
  150.6865  134.2724  159.4603 H   0  0  0  0  0  0  0  0  0  0  0  0  # atno 6908 bound_to 6896
  152.0587  134.9607  160.0625 H   0  0  0  0  0  0  0  0  0  0  0  0  # atno 6909 bound_to 6896
  146.1946  139.7630  142.8807 H   0  0  0  0  0  0  0  0  0  0  0  0  # atno 7974 bound_to 7965
  156.2107  140.1779  156.7700 H   0  0  0  0  0  0  0  0  0  0  0  0  # atno 8008 bound_to 7997
  154.5719  140.0681  156.9006 H   0  0  0  0  0  0  0  0  0  0  0  0  # atno 8009 bound_to 7997
  155.2658  140.3339  155.4272 H   0  0  0  0  0  0  0  0  0  0  0  0  # atno 8010 bound_to 7997
  139.7103  143.9119  152.2465 H   0  0  0  0  0  0  0  0  0  0  0  0  # atno 10167 bound_to 10162
  157.4695  130.8246  149.7972 H   0  0  0  0  0  0  0  0  0  0  0  0  # atno 10718 bound_to 10713
  153.5167  135.3606  155.2612 H   0  0  0  0  0  0  0  0  0  0  0  0  # atno 10763 bound_to 10752
  154.8738  135.4036  154.3306 H   0  0  0  0  0  0  0  0  0  0  0  0  # atno 10764 bound_to 10752
  153.3969  135.7073  153.6521 H   0  0  0  0  0  0  0  0  0  0  0  0  # atno 10765 bound_to 10752
  141.1478  133.6697  156.6119 H   0  0  0  0  0  0  0  0  0  0  0  0  # atno 11005 bound_to 11000
  145.3685  141.0338  143.3245 LP  0  0  0  0  0  0  0  0  0  0  0  0  # atno 17320 bound_to 7965
  144.8554  139.5257  143.6837 LP  0  0  0  0  0  0  0  0  0  0  0  0  # atno 17321 bound_to 7965
  139.8987  144.6924  150.8690 LP  0  0  0  0  0  0  0  0  0  0  0  0  # atno 17342 bound_to 10162
  140.7731  143.3530  151.1976 LP  0  0  0  0  0  0  0  0  0  0  0  0  # atno 17343 bound_to 10162
  156.0066  130.3852  150.2409 LP  0  0  0  0  0  0  0  0  0  0  0  0  # atno 17370 bound_to 10713
  157.0590  131.0084  151.3229 LP  0  0  0  0  0  0  0  0  0  0  0  0  # atno 17371 bound_to 10713
  140.3607  134.7690  157.4532 LP  0  0  0  0  0  0  0  0  0  0  0  0  # atno 17394 bound_to 11000
  140.0787  134.5761  155.8563 LP  0  0  0  0  0  0  0  0  0  0  0  0  # atno 17395 bound_to 11000

$$$$
