AV-unprocessed.smi:1330|AV-procd|sdf|5485|dock2
  -GOLD-   22720 5 63D 1   1.00000     0.00000
 Structure written by MMmdl.
 42 43  0  0  0  0  0  0  0  0  1 V2000
  153.1356  142.4729  160.6927 C   0  0  0  0  0  0  0  0  0  0  0  0
  152.8012  141.3821  159.7111 C   0  0  0  0  0  0  0  0  0  0  0  0
  153.0492  140.1694  160.0839 N   0  0  0  0  0  0  0  0  0  0  0  0
  152.7794  139.0954  159.2598 N   0  0  0  0  0  0  0  0  0  0  0  0
  153.1204  137.7944  159.8462 C   0  0  0  0  0  0  0  0  0  0  0  0
  154.0076  136.9512  158.9030 C   0  0  2  0  0  0  0  0  0  0  0  0
  154.1003  135.6390  159.4198 O   0  0  0  0  0  0  0  0  0  0  0  0
  155.4362  137.5052  158.8012 C   0  0  0  0  0  0  0  0  0  0  0  0
  155.7706  137.6418  157.4302 O   0  0  0  0  0  0  0  0  0  0  0  0
  157.1478  137.9013  157.2152 C   0  0  0  0  0  0  0  0  0  0  0  0
  157.6024  137.4654  155.8345 C   0  0  0  0  0  0  0  0  0  0  0  0
  158.5321  136.4134  155.6832 C   0  0  0  0  0  0  0  0  0  0  0  0
  158.9624  136.0273  154.3988 C   0  0  0  0  0  0  0  0  0  0  0  0
  158.4709  136.6946  153.2602 C   0  0  0  0  0  0  0  0  0  0  0  0
  158.9996  136.2224  151.6872 Cl  0  0  0  0  0  0  0  0  0  0  0  0
  157.5500  137.7502  153.4070 C   0  0  0  0  0  0  0  0  0  0  0  0
  157.1193  138.1363  154.6914 C   0  0  0  0  0  0  0  0  0  0  0  0
  152.2352  139.1889  158.0125 C   0  0  0  0  0  0  0  0  0  0  0  0
  151.9975  138.2000  157.3170 O   0  0  0  0  0  0  0  0  0  0  0  0
  151.9605  140.5655  157.5949 C   0  0  0  0  0  0  0  0  0  0  0  0
  151.3933  140.7095  156.2930 C   0  0  0  0  0  0  0  0  0  0  0  0
  150.9250  140.8084  155.2390 N   0  0  0  0  0  0  0  0  0  0  0  0
  152.2254  141.6301  158.3931 C   0  0  0  0  0  0  0  0  0  0  0  0
  151.9559  143.0783  158.0082 C   0  0  0  0  0  0  0  0  0  0  0  0
  152.2549  143.0744  160.9188 H   0  0  0  0  0  0  0  0  0  0  0  0
  153.9024  143.1339  160.2885 H   0  0  0  0  0  0  0  0  0  0  0  0
  153.5098  142.0714  161.6358 H   0  0  0  0  0  0  0  0  0  0  0  0
  153.6389  137.9691  160.7908 H   0  0  0  0  0  0  0  0  0  0  0  0
  152.2218  137.2412  160.1269 H   0  0  0  0  0  0  0  0  0  0  0  0
  153.5808  136.8982  157.9006 H   0  0  0  0  0  0  0  0  0  0  0  0
  154.9329  135.2743  159.1611 H   0  0  0  0  0  0  0  0  0  0  0  0
  155.5152  138.4648  159.3151 H   0  0  0  0  0  0  0  0  0  0  0  0
  156.1401  136.8182  159.2745 H   0  0  0  0  0  0  0  0  0  0  0  0
  157.3410  138.9683  157.3377 H   0  0  0  0  0  0  0  0  0  0  0  0
  157.7477  137.3727  157.9573 H   0  0  0  0  0  0  0  0  0  0  0  0
  158.9200  135.8975  156.5494 H   0  0  0  0  0  0  0  0  0  0  0  0
  159.6716  135.2201  154.2894 H   0  0  0  0  0  0  0  0  0  0  0  0
  157.1742  138.2660  152.5355 H   0  0  0  0  0  0  0  0  0  0  0  0
  156.4161  138.9496  154.7958 H   0  0  0  0  0  0  0  0  0  0  0  0
  151.5896  143.1723  156.9865 H   0  0  0  0  0  0  0  0  0  0  0  0
  152.8670  143.6726  158.0821 H   0  0  0  0  0  0  0  0  0  0  0  0
  151.2060  143.5146  158.6685 H   0  0  0  0  0  0  0  0  0  0  0  0
  1  2  1  0  0  0  0
  1 25  1  0  0  0  0
  1 26  1  0  0  0  0
  1 27  1  0  0  0  0
  2 23  1  0  0  0  0
  2  3  2  0  0  0  0
  3  4  1  0  0  0  0
  4  5  1  0  0  0  0
  4 18  1  0  0  0  0
  5  6  1  0  0  0  0
  5 28  1  0  0  0  0
  5 29  1  0  0  0  0
  6  7  1  0  0  0  0
  6  8  1  0  0  0  0
  6 30  1  0  0  0  0
  7 31  1  0  0  0  0
  8  9  1  0  0  0  0
  8 32  1  0  0  0  0
  8 33  1  0  0  0  0
  9 10  1  0  0  0  0
 10 11  1  0  0  0  0
 10 34  1  0  0  0  0
 10 35  1  0  0  0  0
 11 17  1  0  0  0  0
 11 12  2  0  0  0  0
 12 13  1  0  0  0  0
 12 36  1  0  0  0  0
 13 14  2  0  0  0  0
 13 37  1  0  0  0  0
 14 15  1  0  0  0  0
 14 16  1  0  0  0  0
 16 17  2  0  0  0  0
 16 38  1  0  0  0  0
 17 39  1  0  0  0  0
 18 19  2  0  0  0  0
 18 20  1  0  0  0  0
 20 21  1  0  0  0  0
 20 23  2  0  0  0  0
 21 22  3  0  0  0  0
 23 24  1  0  0  0  0
 24 40  1  0  0  0  0
 24 41  1  0  0  0  0
 24 42  1  0  0  0  0
M  END
> <s_m_source_file>
AV-unprocessed.smi

> <i_m_source_file_index>
1330

> <i_lp_mmshare_version>
43012

> <i_f3d_flags>
0

> <s_epik_input>
TiNDYyhjMVtDSDNdKWMoPU8pbihuYzFbQ0gzXSlbQ0gyXVtDQEhdKFtPSF0pW0NIMl1PW0NIMl1jMltjSF1bY0hdYyhDbClbY0hdW2NIXTI=

> <s_epik_cmdline>
J2VwaWtfcHl0aG9uJywgJy1waCcsICc3LjAnLCAnLXRuJywgJzgnLCAnLW1hJywgJzIwMCcsICctbWV0YWxfYmluZGluZycsICctaW1hZScsICc8aW5maWxlLm1hZT4nLCAnLW9tYWUnLCAnPG91dGZpbGUubWFlPic=

> <r_lp_tautomer_probability>
1

> <r_epik_Ionization_Penalty>
6.27695e-08

> <r_epik_Ionization_Penalty_Charging>
2.19172e-10

> <r_epik_Ionization_Penalty_Neutral>
6.25504e-08

> <r_epik_State_Penalty>
-0

> <r_epik_Charging_Adjusted_Penalty>
2.19172e-10

> <i_epik_Tot_Q>
0

> <i_epik_Tot_abs_Q>
0

> <r_epik_Metal_State_Penalty>
-0

> <b_epik_Metal_Only>
0

> <s_lp_Force_Field>
OPLS_2005

> <r_lp_Energy>
28.5495

> <b_lp_Chiralities_Consistent>
1

> <s_lp_Variant>
AV-unprocessed.smi:1330-1

> <Gold.Version>
5.8.1

> <Gold.Id.Protein>
6NUR|6NUR_protein|mol2

> <Gold.PLP.Fitness>
44.1650

> <Gold.PLP.PLP>
-40.5698

> <Gold.PLP.part.hbond>
-3.0000

> <Gold.PLP.part.metal>
0.0000

> <Gold.PLP.part.buried>
-5.2203

> <Gold.PLP.part.nonpolar>
-32.6147

> <Gold.PLP.part.repulsive>
0.0800

> <Gold.PLP.ligand.clash>
0.0000

> <Gold.PLP.ligand.torsion>
1.0412

> <Gold.PLP.Chemscore.Hbond>
1.8640

> <Gold.PLP.Chemscore.CHOScore>
0.0000

> <Gold.PLP.Chemscore.Metal>
0.0000

> <Gold.Chemscore.Hbonds>
donor molecule, donor type, donor heavy atom, donor atom, acceptor molecule, acceptor atom, score
      P1  H  6896  6907       L1     7  1.00
      P1  H  7989  7998       L1    22  0.82

> <Gold.PLP.Chemscore.Internal.Correction>
0.0856

> <Gold.Rescore>
     Score         DG    S(hbond)    S(metal)    S(lipo)     H(rot)  DE(clash)    DE(int)     intcor
     17.52     -20.06       1.84        0.00     126.27       2.48       0.13       2.41       ----

> <Gold.Chemscore.Fitness>
17.5210

> <Gold.Chemscore.DG>
-20.0631

> <Gold.Chemscore.ZeroCoef>
-5.4800

> <Gold.Chemscore.Hbond>
1.8419

> <Gold.Chemscore.Metal>
0.0000

> <Gold.Chemscore.Lipo>
126.2724

> <Gold.Chemscore.Internal_Hbond>
0.0000

> <Gold.Chemscore.DEClash>
0.1303

> <Gold.Chemscore.DEInternal>
2.4118

> <Gold.Chemscore.Rot>
2.4777

> <Gold.Chemscore.Internal.Correction>
   9.000000E+99

> <Gold.Chemscore.Hbonds>
donor molecule, donor type, donor heavy atom, donor atom, acceptor molecule, acceptor atom, score
      P1  H  6896  6907       L1     7  0.94
      P1  H  7989  7998       L1    22  0.81

> <Gold.Chemscore.Hbond.Weighted>
-6.1521

> <Gold.Chemscore.Metal.Weighted>
-0.0000

> <Gold.Chemscore.Lipo.Weighted>
-14.7739

> <Gold.Chemscore.Internal_Hbond.Weighted>
0.0000

> <Gold.Chemscore.DEClash.Weighted>
0.1303

> <Gold.Chemscore.DEInternal.Weighted>
2.4118

> <Gold.Chemscore.Rot.Weighted>
6.3428

> <Gold.Chemscore.Internal.Correction.Weighted>
   9.000000E+99

> <Gold.Protein.RotatedTorsions>
[ 6907 6896 6895 6894 ] final   59.69 input  -60.11 | X-H torsion
[ 7974 7965 7964 7962 ] final  -55.38 input  175.53 | X-H torsion
[ 8008 7997 7996 7995 ] final  164.17 input   59.86 | X-H torsion
[ 10167 10162 10161 10158 ] final -120.65 input  -65.29 | X-H torsion
[ 10718 10713 10712 10709 ] final   66.82 input   66.30 | X-H torsion
[ 10763 10752 10751 10750 ] final  -35.26 input  -60.55 | X-H torsion
[ 11005 11000 10999 10996 ] final  158.68 input  -57.11 | X-H torsion

> <Gold.Protein.ActiveResidues>
 VAL166  LYS551  ARG553  GLY616  TRP617  ASP618  TYR619  PRO620  LYS621  CYS622 
 ASP623  PHE694  ASN695  SER759  ASP760  ASP761  ALA762  ILE779  LEU786  VAL792 
 PHE793  MET794  SER795  GLU796  ALA797  LYS798  CYS799  TRP800  GLU811  SER814 

> <Gold.Protein.RotatedAtoms>
  152.3937  134.6400  160.0097 H   0  0  0  0  0  0  0  0  0  0  0  0  # atno 6907 bound_to 6896
  151.6626  133.3311  159.3185 H   0  0  0  0  0  0  0  0  0  0  0  0  # atno 6908 bound_to 6896
  150.7848  134.6867  159.6519 H   0  0  0  0  0  0  0  0  0  0  0  0  # atno 6909 bound_to 6896
  145.8748  140.8189  142.9869 H   0  0  0  0  0  0  0  0  0  0  0  0  # atno 7974 bound_to 7965
  156.1900  140.1704  156.8110 H   0  0  0  0  0  0  0  0  0  0  0  0  # atno 8008 bound_to 7997
  154.5460  140.0727  156.8622 H   0  0  0  0  0  0  0  0  0  0  0  0  # atno 8009 bound_to 7997
  155.3121  140.3368  155.4246 H   0  0  0  0  0  0  0  0  0  0  0  0  # atno 8010 bound_to 7997
  140.0335  143.5224  152.2165 H   0  0  0  0  0  0  0  0  0  0  0  0  # atno 10167 bound_to 10162
  157.6192  130.9288  150.0159 H   0  0  0  0  0  0  0  0  0  0  0  0  # atno 10718 bound_to 10713
  153.8604  135.6840  153.4783 H   0  0  0  0  0  0  0  0  0  0  0  0  # atno 10763 bound_to 10752
  153.1345  135.4683  154.9399 H   0  0  0  0  0  0  0  0  0  0  0  0  # atno 10764 bound_to 10752
  154.7761  135.3254  154.8037 H   0  0  0  0  0  0  0  0  0  0  0  0  # atno 10765 bound_to 10752
  140.1889  134.8422  157.2889 H   0  0  0  0  0  0  0  0  0  0  0  0  # atno 11005 bound_to 11000
  144.6726  140.1294  143.7444 LP  0  0  0  0  0  0  0  0  0  0  0  0  # atno 17320 bound_to 7965
  145.9093  139.2477  143.1447 LP  0  0  0  0  0  0  0  0  0  0  0  0  # atno 17321 bound_to 7965
  139.6060  144.7596  151.3060 LP  0  0  0  0  0  0  0  0  0  0  0  0  # atno 17342 bound_to 10162
  140.7292  143.6915  150.7918 LP  0  0  0  0  0  0  0  0  0  0  0  0  # atno 17343 bound_to 10162
  156.1329  130.3643  149.9703 LP  0  0  0  0  0  0  0  0  0  0  0  0  # atno 17370 bound_to 10713
  156.7760  130.9204  151.3645 LP  0  0  0  0  0  0  0  0  0  0  0  0  # atno 17371 bound_to 10713
  140.2183  134.4055  155.7578 LP  0  0  0  0  0  0  0  0  0  0  0  0  # atno 17394 bound_to 11000
  141.2225  133.7153  156.8449 LP  0  0  0  0  0  0  0  0  0  0  0  0  # atno 17395 bound_to 11000

$$$$
