AV-unprocessed.smi:2005|AV-procd|sdf|8128|dock5
  -GOLD-   2272010363D 1   1.00000     0.00000
 Structure written by MMmdl.
 38 39  0  0  0  0  0  0  0  0  2 V2000
  152.5496  143.3972  161.7736 C   0  0  0  0  0  0  0  0  0  0  0  0
  152.8569  143.5065  160.2729 C   0  0  0  0  0  0  0  0  0  0  0  0
  151.9908  144.5514  159.5542 C   0  0  0  0  0  0  0  0  0  0  0  0
  152.8172  142.1744  159.5911 C   0  0  0  0  0  0  0  0  0  0  0  0
  153.4855  141.1055  160.0358 N   0  0  0  0  0  0  0  0  0  0  0  0
  153.2896  139.9924  159.2321 N   0  0  0  0  0  0  0  0  0  0  0  0
  152.4875  140.2340  158.1857 C   0  0  0  0  0  0  0  0  0  0  0  0
  152.1710  139.2878  157.2864 N   0  5  0  0  0  0  0  0  0  0  0  0
  151.7442  139.6435  156.0530 C   0  0  0  0  0  0  0  0  0  0  0  0
  152.4573  139.9110  155.0829 O   0  0  0  0  0  0  0  0  0  0  0  0
  150.4089  139.6922  155.9370 N   0  0  0  0  0  0  0  0  0  0  0  0
  149.6606  140.0444  154.7331 C   0  0  2  0  0  0  0  0  0  0  0  0
  148.7274  141.2312  155.0337 C   0  0  0  0  0  0  0  0  0  0  0  0
  147.8841  141.6124  153.8041 C   0  0  0  0  0  0  0  0  0  0  0  0
  147.0945  140.4145  153.2430 C   0  0  2  0  0  0  0  0  0  0  0  0
  146.0533  140.0606  154.1321 O   0  0  0  0  0  0  0  0  0  0  0  0
  148.0089  139.2014  152.9876 C   0  0  0  0  0  0  0  0  0  0  0  0
  148.8529  138.8349  154.2210 C   0  0  0  0  0  0  0  0  0  0  0  0
  151.8829  141.8893  158.1314 S   0  0  0  0  0  0  0  0  0  0  0  0
  153.2400  142.7111  162.2654 H   0  0  0  0  0  0  0  0  0  0  0  0
  151.5367  143.0311  161.9460 H   0  0  0  0  0  0  0  0  0  0  0  0
  152.6409  144.3662  162.2650 H   0  0  0  0  0  0  0  0  0  0  0  0
  153.8863  143.8590  160.1966 H   0  0  0  0  0  0  0  0  0  0  0  0
  152.2916  144.6599  158.5116 H   0  0  0  0  0  0  0  0  0  0  0  0
  152.0815  145.5291  160.0278 H   0  0  0  0  0  0  0  0  0  0  0  0
  150.9369  144.2711  159.5700 H   0  0  0  0  0  0  0  0  0  0  0  0
  149.8668  139.4630  156.7572 H   0  0  0  0  0  0  0  0  0  0  0  0
  150.3624  140.3560  153.9569 H   0  0  0  0  0  0  0  0  0  0  0  0
  148.0667  140.9814  155.8653 H   0  0  0  0  0  0  0  0  0  0  0  0
  149.3129  142.0933  155.3557 H   0  0  0  0  0  0  0  0  0  0  0  0
  147.2063  142.4298  154.0528 H   0  0  0  0  0  0  0  0  0  0  0  0
  148.5478  141.9944  153.0275 H   0  0  0  0  0  0  0  0  0  0  0  0
  146.6229  140.7081  152.3046 H   0  0  0  0  0  0  0  0  0  0  0  0
  145.2807  139.8616  153.6256 H   0  0  0  0  0  0  0  0  0  0  0  0
  147.4189  138.3417  152.6680 H   0  0  0  0  0  0  0  0  0  0  0  0
  148.6807  139.4321  152.1599 H   0  0  0  0  0  0  0  0  0  0  0  0
  149.5244  138.0134  153.9691 H   0  0  0  0  0  0  0  0  0  0  0  0
  148.2006  138.4648  155.0134 H   0  0  0  0  0  0  0  0  0  0  0  0
  1  2  1  0  0  0  0
  1 20  1  0  0  0  0
  1 21  1  0  0  0  0
  1 22  1  0  0  0  0
  2  3  1  0  0  0  0
  2  4  1  0  0  0  0
  2 23  1  0  0  0  0
  3 24  1  0  0  0  0
  3 25  1  0  0  0  0
  3 26  1  0  0  0  0
  4 19  1  0  0  0  0
  4  5  2  0  0  0  0
  5  6  1  0  0  0  0
  6  7  2  0  0  0  0
  7  8  1  0  0  0  0
  7 19  1  0  0  0  0
  8  9  1  0  0  0  0
  9 10  2  0  0  0  0
  9 11  1  0  0  0  0
 11 12  1  0  0  0  0
 11 27  1  0  0  0  0
 12 18  1  0  0  0  0
 12 13  1  0  0  0  0
 12 28  1  0  0  0  0
 13 14  1  0  0  0  0
 13 29  1  0  0  0  0
 13 30  1  0  0  0  0
 14 15  1  0  0  0  0
 14 31  1  0  0  0  0
 14 32  1  0  0  0  0
 15 16  1  0  0  0  0
 15 17  1  0  0  0  0
 15 33  1  0  0  0  0
 16 34  1  0  0  0  0
 17 18  1  0  0  0  0
 17 35  1  0  0  0  0
 17 36  1  0  0  0  0
 18 37  1  0  0  0  0
 18 38  1  0  0  0  0
M  CHG  1   8  -1
M  END
> <s_m_source_file>
AV-unprocessed.smi

> <i_m_source_file_index>
2005

> <i_lp_mmshare_version>
43012

> <i_f3d_flags>
0

> <s_epik_input>
W0NIM11bQ0hdKFtDSDNdKWMxbm5jKHMxKVtOSF1DKD1PKVtOSF1bQ0BASF0yW0NIMl1bQ0gyXVtDQEBIXShbT0hdKVtDSDJdW0NIMl0y

> <s_epik_cmdline>
J2VwaWtfcHl0aG9uJywgJy1waCcsICc3LjAnLCAnLXRuJywgJzgnLCAnLW1hJywgJzIwMCcsICctbWV0YWxfYmluZGluZycsICctaW1hZScsICc8aW5maWxlLm1hZT4nLCAnLW9tYWUnLCAnPG91dGZpbGUubWFlPic=

> <r_lp_tautomer_probability>
1

> <r_epik_Ionization_Penalty>
4.58298

> <r_epik_Ionization_Penalty_Charging>
4.41114

> <r_epik_Ionization_Penalty_Neutral>
0.171842

> <r_epik_State_Penalty>
4.41079

> <r_epik_Charging_Adjusted_Penalty>
8.82193

> <i_epik_Tot_Q>
-1

> <i_epik_Tot_abs_Q>
1

> <r_epik_Metal_State_Penalty>
0.7766

> <b_epik_Metal_Only>
1

> <s_lp_Force_Field>
OPLS_2005

> <r_lp_Energy>
2.0831

> <b_lp_Chiralities_Consistent>
1

> <s_lp_Variant>
AV-unprocessed.smi:2005-4

> <Gold.Version>
5.8.1

> <Gold.Id.Protein>
6NUR|6NUR_protein|mol2

> <Gold.PLP.Fitness>
43.8702

> <Gold.PLP.PLP>
-38.8320

> <Gold.PLP.part.hbond>
-2.5356

> <Gold.PLP.part.metal>
0.0000

> <Gold.PLP.part.buried>
-1.0149

> <Gold.PLP.part.nonpolar>
-34.1443

> <Gold.PLP.part.repulsive>
0.0683

> <Gold.PLP.ligand.clash>
0.0000

> <Gold.PLP.ligand.torsion>
0.9510

> <Gold.PLP.Chemscore.Hbond>
2.2840

> <Gold.PLP.Chemscore.CHOScore>
0.0000

> <Gold.PLP.Chemscore.Metal>
0.0000

> <Gold.Chemscore.Hbonds>
donor molecule, donor type, donor heavy atom, donor atom, acceptor molecule, acceptor atom, score
      L1  H    16    34       P1 10175  0.91
      P1  H  7989  7998       L1    10  0.62
      P1  H  7997  8010       L1    10  0.65

> <Gold.PLP.Chemscore.Internal.Correction>
0.0883

> <Gold.Rescore>
     Score         DG    S(hbond)    S(metal)    S(lipo)     H(rot)  DE(clash)    DE(int)     intcor
     16.99     -19.80       2.07        0.00     100.54       1.70       1.90       0.91       ----

> <Gold.Chemscore.Fitness>
16.9896

> <Gold.Chemscore.DG>
-19.8038

> <Gold.Chemscore.ZeroCoef>
-5.4800

> <Gold.Chemscore.Hbond>
2.0673

> <Gold.Chemscore.Metal>
0.0000

> <Gold.Chemscore.Lipo>
100.5377

> <Gold.Chemscore.Internal_Hbond>
0.0000

> <Gold.Chemscore.DEClash>
1.8997

> <Gold.Chemscore.DEInternal>
0.9145

> <Gold.Chemscore.Rot>
1.6968

> <Gold.Chemscore.Internal.Correction>
   9.000000E+99

> <Gold.Chemscore.Hbonds>
donor molecule, donor type, donor heavy atom, donor atom, acceptor molecule, acceptor atom, score
      L1  H    16    34       P1 10175  0.84
      P1  H  7989  7998       L1    10  0.58
      P1  H  7997  8010       L1    10  0.19

> <Gold.Chemscore.Hbond.Weighted>
-6.9048

> <Gold.Chemscore.Metal.Weighted>
-0.0000

> <Gold.Chemscore.Lipo.Weighted>
-11.7629

> <Gold.Chemscore.Internal_Hbond.Weighted>
0.0000

> <Gold.Chemscore.DEClash.Weighted>
1.8997

> <Gold.Chemscore.DEInternal.Weighted>
0.9145

> <Gold.Chemscore.Rot.Weighted>
4.3439

> <Gold.Chemscore.Internal.Correction.Weighted>
   9.000000E+99

> <Gold.Protein.RotatedTorsions>
[ 6907 6896 6895 6894 ] final    4.99 input  -60.11 | X-H torsion
[ 7974 7965 7964 7962 ] final -114.15 input  175.53 | X-H torsion
[ 8008 7997 7996 7995 ] final   93.38 input   59.86 | X-H torsion
[ 10167 10162 10161 10158 ] final   11.91 input  -65.29 | X-H torsion
[ 10718 10713 10712 10709 ] final -118.09 input   66.30 | X-H torsion
[ 10763 10752 10751 10750 ] final   95.48 input  -60.55 | X-H torsion
[ 11005 11000 10999 10996 ] final   79.47 input  -57.11 | X-H torsion

> <Gold.Protein.ActiveResidues>
 VAL166  LYS551  ARG553  GLY616  TRP617  ASP618  TYR619  PRO620  LYS621  CYS622 
 ASP623  PHE694  ASN695  SER759  ASP760  ASP761  ALA762  ILE779  LEU786  VAL792 
 PHE793  MET794  SER795  GLU796  ALA797  LYS798  CYS799  TRP800  GLU811  SER814 

> <Gold.Protein.RotatedAtoms>
  151.6503  135.1002  160.0159 H   0  0  0  0  0  0  0  0  0  0  0  0  # atno 6907 bound_to 6896
  152.4004  133.6806  159.6320 H   0  0  0  0  0  0  0  0  0  0  0  0  # atno 6908 bound_to 6896
  150.7905  133.8717  159.3301 H   0  0  0  0  0  0  0  0  0  0  0  0  # atno 6909 bound_to 6896
  145.1236  140.8683  143.3799 H   0  0  0  0  0  0  0  0  0  0  0  0  # atno 7974 bound_to 7965
  156.0461  140.3313  155.7298 H   0  0  0  0  0  0  0  0  0  0  0  0  # atno 8008 bound_to 7997
  155.5672  140.0624  157.2833 H   0  0  0  0  0  0  0  0  0  0  0  0  # atno 8009 bound_to 7997
  154.4414  140.1867  156.0830 H   0  0  0  0  0  0  0  0  0  0  0  0  # atno 8010 bound_to 7997
  140.6102  143.8424  150.7057 H   0  0  0  0  0  0  0  0  0  0  0  0  # atno 10167 bound_to 10162
  156.1081  130.6226  150.9247 H   0  0  0  0  0  0  0  0  0  0  0  0  # atno 10718 bound_to 10713
  153.2537  135.4252  155.0824 H   0  0  0  0  0  0  0  0  0  0  0  0  # atno 10763 bound_to 10752
  154.8392  135.3432  154.6476 H   0  0  0  0  0  0  0  0  0  0  0  0  # atno 10764 bound_to 10752
  153.6897  135.7034  153.5150 H   0  0  0  0  0  0  0  0  0  0  0  0  # atno 10765 bound_to 10752
  139.9171  134.7845  156.1783 H   0  0  0  0  0  0  0  0  0  0  0  0  # atno 11005 bound_to 11000
  145.0713  139.3029  143.5830 LP  0  0  0  0  0  0  0  0  0  0  0  0  # atno 17320 bound_to 7965
  146.3519  140.0188  142.8660 LP  0  0  0  0  0  0  0  0  0  0  0  0  # atno 17321 bound_to 7965
  140.1991  143.3974  152.1805 LP  0  0  0  0  0  0  0  0  0  0  0  0  # atno 17342 bound_to 10162
  139.5355  144.7205  151.4908 LP  0  0  0  0  0  0  0  0  0  0  0  0  # atno 17343 bound_to 10162
  157.6260  131.0925  150.8533 LP  0  0  0  0  0  0  0  0  0  0  0  0  # atno 17370 bound_to 10713
  156.8649  130.5126  149.5301 LP  0  0  0  0  0  0  0  0  0  0  0  0  # atno 17371 bound_to 10713
  141.0658  133.6820  156.2041 LP  0  0  0  0  0  0  0  0  0  0  0  0  # atno 17394 bound_to 11000
  140.6588  134.4990  157.5582 LP  0  0  0  0  0  0  0  0  0  0  0  0  # atno 17395 bound_to 11000

$$$$
