#       Name:                AV-unprocessed.smi:818
#       Creating user name   scv26
#       Creation time:       Fri Mar 27 01:27:38 2020


#       File generated by GOLD software.
#

@<TRIPOS>MOLECULE
AV-unprocessed.smi:818
    49    50     1
SMALL
NO_CHARGES


@<TRIPOS>ATOM
      1 ****        -6.7375   2.9099   2.6739 C.3            1 S1                 0.0000
      2 ****        -6.4624   2.0275   1.4504 C.3            1 S1                 0.0000
      3 ****        -5.0439   1.7888   1.2710 N.pl3          1 S1                 0.0000
      4 ****        -4.3051   0.6939   1.6730 C.2            1 S1                 0.0000
      5 ****        -3.0246   0.9461   1.2818 C.2            1 S1                 0.0000
      6 ****        -1.9255   0.0798   1.5037 N.am           1 S1                 0.0000
      7 ****        -0.6535   0.2649   1.1158 C.2            1 S1                 0.0000
      8 ****        -0.2457   1.2191   0.4533 O.2            1 S1                 0.0000
      9 ****         0.1337  -0.7342   1.5406 N.am           1 S1                 0.0000
     10 ****         1.5670  -0.8522   1.2759 C.3            1 S1                 0.0000
     11 ****         2.1735  -1.7591   2.3597 C.3            1 S1                 0.0000
     12 ****         1.8208  -1.5139  -0.0887 C.2            1 S1                 0.0000
     13 ****         1.0312  -2.3425  -0.5453 O.2            1 S1                 0.0000
     14 ****         2.9466  -1.1467  -0.7196 N.am           1 S1                 0.0000
     15 ****         3.3973  -1.6619  -2.0096 C.3            1 S1                 0.0000
     16 ****         4.9199  -1.4852  -2.1671 C.3            1 S1                 0.0000
     17 ****         5.1341  -0.8548  -3.5445 C.3            1 S1                 0.0000
     18 ****         3.8670  -0.0416  -3.7892 C.3            1 S1                 0.0000
     19 ****         2.7523  -0.8927  -3.1795 C.3            1 S1                 0.0000
     20 ****        -3.0559   2.2196   0.6460 C.2            1 S1                 0.0000
     21 ****        -4.2823   2.7203   0.6461 N.2            1 S1                 0.0000
     22 ****        -7.8074   3.0783   2.7972 H              1 S1                 0.0000
     23 ****        -6.2573   3.8839   2.5747 H              1 S1                 0.0000
     24 ****        -6.3659   2.4441   3.5871 H              1 S1                 0.0000
     25 ****        -6.9667   1.0666   1.5576 H              1 S1                 0.0000
     26 ****        -6.8592   2.4944   0.5477 H              1 S1                 0.0000
     27 ****        -4.7452  -0.1458   2.1908 H              1 S1                 0.0000
     28 ****        -2.1258  -0.7626   2.0225 H              1 S1                 0.0000
     29 ****        -0.2908  -1.4806   2.0712 H              1 S1                 0.0000
     30 ****         2.0392   0.1317   1.3116 H              1 S1                 0.0000
     31 ****         3.2492  -1.8767   2.2225 H              1 S1                 0.0000
     32 ****         1.7262  -2.7543   2.3544 H              1 S1                 0.0000
     33 ****         2.0199  -1.3346   3.3524 H              1 S1                 0.0000
     34 ****         3.5371  -0.4605  -0.2723 H              1 S1                 0.0000
     35 ****         3.1478  -2.7217  -2.0905 H              1 S1                 0.0000
     36 ****         5.3108  -0.8100  -1.4038 H              1 S1                 0.0000
     37 ****         5.4562  -2.4292  -2.0637 H              1 S1                 0.0000
     38 ****         6.0393  -0.2490  -3.5929 H              1 S1                 0.0000
     39 ****         5.2174  -1.6383  -4.2987 H              1 S1                 0.0000
     40 ****         3.9336   0.9110  -3.2616 H              1 S1                 0.0000
     41 ****         3.7022   0.1723  -4.8456 H              1 S1                 0.0000
     42 ****         2.3982  -1.6068  -3.9243 H              1 S1                 0.0000
     43 ****         1.8931  -0.2890  -2.8832 H              1 S1                 0.0000
     44 ****        -2.2579   2.7921   0.1976 H              1 S1                 0.0000
     45 ****        -0.8817   1.9337   0.1619 LP             1 S1                 0.0000
     46 ****         0.7215   1.2796   0.2067 LP             1 S1                 0.0000
     47 ****         0.2132  -2.5922  -0.0270 LP             1 S1                 0.0000
     48 ****         1.2084  -2.7652  -1.4340 LP             1 S1                 0.0000
     49 ****        -4.5817   3.5960   0.2672 LP             1 S1                 0.0000
@<TRIPOS>BOND
    1    1    2 1     
    2    1   22 1     
    3    1   23 1     
    4    1   24 1     
    5    2    3 1     
    6    2   25 1     
    7    2   26 1     
    8    3   21 1     
    9    3    4 1     
   10    4    5 2     
   11    4   27 1     
   12    5    6 1     
   13    5   20 1     
   14    6    7 am    
   15    6   28 1     
   16    7    8 2     
   17    7    9 am    
   18    9   10 1     
   19    9   29 1     
   20   10   11 1     
   21   10   12 1     
   22   10   30 1     
   23   11   31 1     
   24   11   32 1     
   25   11   33 1     
   26   12   13 2     
   27   12   14 am    
   28   14   15 1     
   29   14   34 1     
   30   15   19 1     
   31   15   16 1     
   32   15   35 1     
   33   16   17 1     
   34   16   36 1     
   35   16   37 1     
   36   17   18 1     
   37   17   38 1     
   38   17   39 1     
   39   18   19 1     
   40   18   40 1     
   41   18   41 1     
   42   19   42 1     
   43   19   43 1     
   44   20   21 2     
   45   20   44 1     
   46    8   45 1     
   47    8   46 1     
   48   13   47 1     
   49   13   48 1     
   50   21   49 1     
@<TRIPOS>SUBSTRUCTURE
      1 S1             1
@<TRIPOS>SET
LONE_PAIRS      STATIC     ATOMS    <user>   **** ""
5 45 46 47 48 49
DONOR_HYDROGENS      STATIC     ATOMS    <user>   **** ""
3 28 29 34
ATOM$BLUE        STATIC     ATOMS    COLORGROUP SYSTEM
5 45 46 47 48 49
ATOM$RED        STATIC     ATOMS    COLORGROUP SYSTEM
3 28 29 34
