AV-unprocessed.smi:3012|AV-procd|sdf|11462|dock5
  -GOLD-   2272016403D 1   1.00000     0.00000
 Structure written by MMmdl.
 16 16  0  0  0  0  0  0  0  0  3 V2000
  149.5907  135.9847  159.0706 O   0  0  0  0  0  0  0  0  0  0  0  0
  148.6482  136.8009  159.1708 C   0  0  0  0  0  0  0  0  0  0  0  0
  147.7986  136.8217  160.0884 O   0  5  0  0  0  0  0  0  0  0  0  0
  148.5328  137.8745  158.0873 C   0  0  0  0  0  0  0  0  0  0  0  0
  149.8802  138.3621  157.5791 C   0  0  0  0  0  0  0  0  0  0  0  0
  151.0181  138.3963  158.3067 C   0  0  0  0  0  0  0  0  0  0  0  0
  152.2330  138.9242  157.6886 C   0  0  0  0  0  0  0  0  0  0  0  0
  153.2743  138.9539  158.3423 O   0  0  0  0  0  0  0  0  0  0  0  0
  152.1507  139.3689  156.3982 N   0  5  0  0  0  0  0  0  0  0  0  0
  150.9894  139.3390  155.6742 C   0  0  0  0  0  0  0  0  0  0  0  0
  150.8894  139.7376  154.5156 O   0  0  0  0  0  0  0  0  0  0  0  0
  149.8776  138.8439  156.2636 N   0  0  0  0  0  0  0  0  0  0  0  0
  149.0088  138.8109  155.7505 H   0  0  0  0  0  0  0  0  0  0  0  0
  147.9376  137.4843  157.2601 H   0  0  0  0  0  0  0  0  0  0  0  0
  147.9801  138.7259  158.4861 H   0  0  0  0  0  0  0  0  0  0  0  0
  151.0316  138.0433  159.3276 H   0  0  0  0  0  0  0  0  0  0  0  0
  1  2  2  0  0  0  0
  2  3  1  0  0  0  0
  2  4  1  0  0  0  0
  4  5  1  0  0  0  0
  4 14  1  0  0  0  0
  4 15  1  0  0  0  0
  5 12  1  0  0  0  0
  5  6  2  0  0  0  0
  6  7  1  0  0  0  0
  6 16  1  0  0  0  0
  7  8  2  0  0  0  0
  7  9  1  0  0  0  0
  9 10  1  0  0  0  0
 10 11  2  0  0  0  0
 10 12  1  0  0  0  0
 12 13  1  0  0  0  0
M  CHG  1   3  -1
M  CHG  1   9  -1
M  END
> <s_m_source_file>
AV-unprocessed.smi

> <i_m_source_file_index>
3012

> <i_lp_mmshare_version>
43012

> <i_f3d_flags>
0

> <s_epik_input>
Tz1DKFtPSF0pW0NIMl1jMVtjSF1jKD1PKVtuSF1jKD1PKVtuSF0x

> <s_epik_cmdline>
J2VwaWtfcHl0aG9uJywgJy1waCcsICc3LjAnLCAnLXRuJywgJzgnLCAnLW1hJywgJzIwMCcsICctbWV0YWxfYmluZGluZycsICctaW1hZScsICc8aW5maWxlLm1hZT4nLCAnLW9tYWUnLCAnPG91dGZpbGUubWFlPic=

> <r_lp_tautomer_probability>
1

> <r_epik_Ionization_Penalty>
3.84851

> <r_epik_Ionization_Penalty_Charging>
0.000432965

> <r_epik_Ionization_Penalty_Neutral>
3.84808

> <r_epik_State_Penalty>
3.84718

> <r_epik_Charging_Adjusted_Penalty>
3.84761

> <i_epik_Tot_Q>
-2

> <i_epik_Tot_abs_Q>
2

> <r_epik_Metal_State_Penalty>
0.579588

> <b_epik_Metal_Only>
1

> <s_lp_Force_Field>
OPLS_2005

> <r_lp_Energy>
14.5502

> <b_lp_Chiralities_Consistent>
1

> <s_lp_Variant>
AV-unprocessed.smi:3012-2

> <Gold.Version>
5.8.1

> <Gold.Id.Protein>
6NUR|6NUR_protein|mol2

> <Gold.PLP.Fitness>
33.3778

> <Gold.PLP.PLP>
-14.0691

> <Gold.PLP.part.hbond>
-5.4359

> <Gold.PLP.part.metal>
0.0000

> <Gold.PLP.part.buried>
-3.1672

> <Gold.PLP.part.nonpolar>
-6.6317

> <Gold.PLP.part.repulsive>
0.1047

> <Gold.PLP.ligand.clash>
0.0000

> <Gold.PLP.ligand.torsion>
0.7151

> <Gold.PLP.Chemscore.Hbond>
6.9120

> <Gold.PLP.Chemscore.CHOScore>
0.0000

> <Gold.PLP.Chemscore.Metal>
0.0000

> <Gold.Chemscore.Hbonds>
donor molecule, donor type, donor heavy atom, donor atom, acceptor molecule, acceptor atom, score
      P1  H  6896  6909       L1     1  2.00
      P1  H  7989  7998       L1    11  1.00
      P1  H  7997  8009       L1     8  0.71

> <Gold.PLP.Chemscore.Internal.Correction>
0.0029

> <Gold.Rescore>
     Score         DG    S(hbond)    S(metal)    S(lipo)     H(rot)  DE(clash)    DE(int)     intcor
     15.61     -16.16       4.21        0.00       7.88       1.68       0.00       0.55       ----

> <Gold.Chemscore.Fitness>
15.6080

> <Gold.Chemscore.DG>
-16.1633

> <Gold.Chemscore.ZeroCoef>
-5.4800

> <Gold.Chemscore.Hbond>
4.2139

> <Gold.Chemscore.Metal>
0.0000

> <Gold.Chemscore.Lipo>
7.8756

> <Gold.Chemscore.Internal_Hbond>
0.0000

> <Gold.Chemscore.DEClash>
0.0029

> <Gold.Chemscore.DEInternal>
0.5524

> <Gold.Chemscore.Rot>
1.6846

> <Gold.Chemscore.Internal.Correction>
   9.000000E+99

> <Gold.Chemscore.Hbonds>
donor molecule, donor type, donor heavy atom, donor atom, acceptor molecule, acceptor atom, score
      P1  H  6896  6909       L1     1  1.00
      P1  H  6934  6947       L1     3  0.06
      P1  H  7989  7998       L1    11  1.00
      P1  H  7997  8009       L1     8  0.32

> <Gold.Chemscore.Hbond.Weighted>
-14.0744

> <Gold.Chemscore.Metal.Weighted>
-0.0000

> <Gold.Chemscore.Lipo.Weighted>
-0.9214

> <Gold.Chemscore.Internal_Hbond.Weighted>
0.0000

> <Gold.Chemscore.DEClash.Weighted>
0.0029

> <Gold.Chemscore.DEInternal.Weighted>
0.5524

> <Gold.Chemscore.Rot.Weighted>
4.3126

> <Gold.Chemscore.Internal.Correction.Weighted>
   9.000000E+99

> <Gold.Protein.RotatedTorsions>
[ 6907 6896 6895 6894 ] final   60.72 input  -60.11 | X-H torsion
[ 7974 7965 7964 7962 ] final -174.52 input  175.53 | X-H torsion
[ 8008 7997 7996 7995 ] final  151.10 input   59.86 | X-H torsion
[ 10167 10162 10161 10158 ] final  -43.22 input  -65.29 | X-H torsion
[ 10718 10713 10712 10709 ] final   92.38 input   66.30 | X-H torsion
[ 10763 10752 10751 10750 ] final   13.16 input  -60.55 | X-H torsion
[ 11005 11000 10999 10996 ] final   55.77 input  -57.11 | X-H torsion

> <Gold.Protein.ActiveResidues>
 VAL166  LYS551  ARG553  GLY616  TRP617  ASP618  TYR619  PRO620  LYS621  CYS622 
 ASP623  PHE694  ASN695  SER759  ASP760  ASP761  ALA762  ILE779  LEU786  VAL792 
 PHE793  MET794  SER795  GLU796  ALA797  LYS798  CYS799  TRP800  GLU811  SER814 

> <Gold.Protein.RotatedAtoms>
  152.4027  134.6258  160.0062 H   0  0  0  0  0  0  0  0  0  0  0  0  # atno 6907 bound_to 6896
  151.6459  133.3318  159.3148 H   0  0  0  0  0  0  0  0  0  0  0  0  # atno 6908 bound_to 6896
  150.7926  134.7003  159.6591 H   0  0  0  0  0  0  0  0  0  0  0  0  # atno 6909 bound_to 6896
  144.7131  140.1458  143.6388 H   0  0  0  0  0  0  0  0  0  0  0  0  # atno 7974 bound_to 7965
  156.2688  140.2057  156.6122 H   0  0  0  0  0  0  0  0  0  0  0  0  # atno 8008 bound_to 7997
  154.6822  140.0539  157.0302 H   0  0  0  0  0  0  0  0  0  0  0  0  # atno 8009 bound_to 7997
  155.0984  140.3203  155.4557 H   0  0  0  0  0  0  0  0  0  0  0  0  # atno 8010 bound_to 7997
  140.6941  143.2995  151.3321 H   0  0  0  0  0  0  0  0  0  0  0  0  # atno 10167 bound_to 10162
  157.6958  131.0441  150.3872 H   0  0  0  0  0  0  0  0  0  0  0  0  # atno 10718 bound_to 10713
  153.1749  135.6818  153.8557 H   0  0  0  0  0  0  0  0  0  0  0  0  # atno 10763 bound_to 10752
  153.7909  135.3169  155.3379 H   0  0  0  0  0  0  0  0  0  0  0  0  # atno 10764 bound_to 10752
  154.8022  135.4771  154.0397 H   0  0  0  0  0  0  0  0  0  0  0  0  # atno 10765 bound_to 10752
  140.0581  134.5641  155.9184 H   0  0  0  0  0  0  0  0  0  0  0  0  # atno 11005 bound_to 11000
  145.9160  139.2516  143.1409 LP  0  0  0  0  0  0  0  0  0  0  0  0  # atno 17320 bound_to 7965
  145.9668  140.8792  143.0183 LP  0  0  0  0  0  0  0  0  0  0  0  0  # atno 17321 bound_to 7965
  139.6377  144.0599  152.2529 LP  0  0  0  0  0  0  0  0  0  0  0  0  # atno 17342 bound_to 10162
  140.0094  144.6235  150.7660 LP  0  0  0  0  0  0  0  0  0  0  0  0  # atno 17343 bound_to 10162
  156.4280  130.3966  149.6780 LP  0  0  0  0  0  0  0  0  0  0  0  0  # atno 17370 bound_to 10713
  156.4007  130.7673  151.2681 LP  0  0  0  0  0  0  0  0  0  0  0  0  # atno 17371 bound_to 10713
  141.1961  133.6590  156.5675 LP  0  0  0  0  0  0  0  0  0  0  0  0  # atno 17394 bound_to 11000
  140.3813  134.7521  157.4663 LP  0  0  0  0  0  0  0  0  0  0  0  0  # atno 17395 bound_to 11000

$$$$
