#       Name:                AV-unprocessed.smi:113
#       Creating user name   scv26
#       Creation time:       Thu Mar 26 18:19:36 2020


#       File generated by GOLD software.
#

@<TRIPOS>MOLECULE
AV-unprocessed.smi:113
    63    66     1
SMALL
NO_CHARGES


@<TRIPOS>ATOM
      1 ****        -1.1940  -1.2136   3.7870 C.3            1 S1                 0.0000
      2 ****        -1.8721  -1.6599   2.5084 C.ar           1 S1                 0.0000
      3 ****        -1.6529  -0.9735   1.3010 C.ar           1 S1                 0.0000
      4 ****        -2.3082  -1.4184   0.1298 C.ar           1 S1                 0.0000
      5 ****        -2.1059  -0.7043  -1.2114 C.3            1 S1                 0.0000
      6 ****        -1.2456   0.4705  -1.2064 N.am           1 S1                 0.0000
      7 ****        -1.8410   1.7219  -0.9197 C.2            1 S1                 0.0000
      8 ****        -3.0479   1.8247  -0.6890 O.2            1 S1                 0.0000
      9 ****        -0.9191   2.8594  -0.9043 C.2            1 S1                 0.0000
     10 ****        -1.4954   4.2408  -0.6335 C.3            1 S1                 0.0000
     11 ****         0.4028   2.6609  -1.1284 C.2            1 S1                 0.0000
     12 ****         0.9678   1.4172  -1.3756 N.am           1 S1                 0.0000
     13 ****         2.4571   1.1978  -1.5695 C.3            1 S1                 0.0000
     14 ****         3.3336   2.4455  -1.4968 C.3            1 S1                 0.0000
     15 ****         4.6839   1.7993  -1.2644 C.3            1 S1                 0.0000
     16 ****         5.5931   2.7151  -0.6861 O.3            1 S1                 0.0000
     17 ****         4.3355   0.5692  -0.3938 C.3            1 S1                 0.0000
     18 ****         4.6394   0.6823   1.1125 C.3            1 S1                 0.0000
     19 ****         6.0166   0.4895   1.3616 O.3            1 S1                 0.0000
     20 ****         2.9225   0.4047  -0.5243 O.3            1 S1                 0.0000
     21 ****         0.1363   0.2779  -1.4273 C.2            1 S1                 0.0000
     22 ****         0.6095  -0.8407  -1.6442 O.2            1 S1                 0.0000
     23 ****        -3.1620  -2.5495   0.2346 C.ar           1 S1                 0.0000
     24 ****        -3.8520  -3.0619  -0.8907 C.2            1 S1                 0.0000
     25 ****        -4.6945  -4.1809  -0.7654 C.2            1 S1                 0.0000
     26 ****        -4.8571  -4.7989   0.4853 C.2            1 S1                 0.0000
     27 ****        -4.1743  -4.2971   1.6078 C.2            1 S1                 0.0000
     28 ****        -3.3224  -3.1763   1.5058 C.ar           1 S1                 0.0000
     29 ****        -2.6848  -2.7294   2.6102 N.ar           1 S1                 0.0000
     30 ****        -0.3315  -0.5812   3.5734 H              1 S1                 0.0000
     31 ****        -0.8475  -2.0728   4.3623 H              1 S1                 0.0000
     32 ****        -1.8911  -0.6450   4.4030 H              1 S1                 0.0000
     33 ****        -0.9909  -0.1209   1.2901 H              1 S1                 0.0000
     34 ****        -1.7066  -1.4005  -1.9504 H              1 S1                 0.0000
     35 ****        -3.0681  -0.3968  -1.6242 H              1 S1                 0.0000
     36 ****        -0.7268   5.0141  -0.6441 H              1 S1                 0.0000
     37 ****        -1.9773   4.2660   0.3446 H              1 S1                 0.0000
     38 ****        -2.2386   4.4996  -1.3884 H              1 S1                 0.0000
     39 ****         1.0248   3.5409  -1.1215 H              1 S1                 0.0000
     40 ****         2.5556   0.6805  -2.5266 H              1 S1                 0.0000
     41 ****         3.2692   3.0450  -2.4055 H              1 S1                 0.0000
     42 ****         3.0708   3.0448  -0.6245 H              1 S1                 0.0000
     43 ****         5.0891   1.4605  -2.2190 H              1 S1                 0.0000
     44 ****         6.3964   2.2575  -0.4884 H              1 S1                 0.0000
     45 ****         4.8174  -0.3203  -0.8020 H              1 S1                 0.0000
     46 ****         4.3124   1.6424   1.5134 H              1 S1                 0.0000
     47 ****         4.0973  -0.0903   1.6587 H              1 S1                 0.0000
     48 ****         6.2541  -0.3814   1.0813 H              1 S1                 0.0000
     49 ****        -3.7497  -2.6110  -1.8659 H              1 S1                 0.0000
     50 ****        -5.2163  -4.5643  -1.6299 H              1 S1                 0.0000
     51 ****        -5.5044  -5.6577   0.5849 H              1 S1                 0.0000
     52 ****        -4.3069  -4.7818   2.5642 H              1 S1                 0.0000
     53 ****        -3.6304   1.0120  -0.7018 LP             1 S1                 0.0000
     54 ****        -3.4442   2.7208  -0.4891 LP             1 S1                 0.0000
     55 ****         5.2037   3.0912   0.1547 LP             1 S1                 0.0000
     56 ****         5.7780   3.4582  -1.3293 LP             1 S1                 0.0000
     57 ****         6.1996   0.5905   2.3395 LP             1 S1                 0.0000
     58 ****         6.5492   1.1648   0.8514 LP             1 S1                 0.0000
     59 ****         2.7150  -0.5546  -0.7159 LP             1 S1                 0.0000
     60 ****         2.4750   0.6790   0.3269 LP             1 S1                 0.0000
     61 ****         0.0105  -1.6411  -1.6670 LP             1 S1                 0.0000
     62 ****         1.5920  -0.9469  -1.7971 LP             1 S1                 0.0000
     63 ****        -2.8144  -3.1860   3.4904 LP             1 S1                 0.0000
@<TRIPOS>BOND
    1    1    2 1     
    2    1   30 1     
    3    1   31 1     
    4    1   32 1     
    5    2   29 ar    
    6    2    3 ar    
    7    3    4 ar    
    8    3   33 1     
    9    4    5 1     
   10    4   23 ar    
   11    5    6 1     
   12    5   34 1     
   13    5   35 1     
   14    6   21 am    
   15    6    7 am    
   16    7    8 2     
   17    7    9 1     
   18    9   10 1     
   19    9   11 2     
   20   10   36 1     
   21   10   37 1     
   22   10   38 1     
   23   11   12 1     
   24   11   39 1     
   25   12   13 1     
   26   12   21 am    
   27   13   20 1     
   28   13   14 1     
   29   13   40 1     
   30   14   15 1     
   31   14   41 1     
   32   14   42 1     
   33   15   16 1     
   34   15   17 1     
   35   15   43 1     
   36   16   44 1     
   37   17   18 1     
   38   17   20 1     
   39   17   45 1     
   40   18   19 1     
   41   18   46 1     
   42   18   47 1     
   43   19   48 1     
   44   21   22 2     
   45   23   28 ar    
   46   23   24 1     
   47   24   25 2     
   48   24   49 1     
   49   25   26 1     
   50   25   50 1     
   51   26   27 2     
   52   26   51 1     
   53   27   28 1     
   54   27   52 1     
   55   28   29 ar    
   56    8   53 1     
   57    8   54 1     
   58   16   55 1     
   59   16   56 1     
   60   19   57 1     
   61   19   58 1     
   62   20   59 1     
   63   20   60 1     
   64   22   61 1     
   65   22   62 1     
   66   29   63 1     
@<TRIPOS>SUBSTRUCTURE
      1 S1             1
@<TRIPOS>SET
LONE_PAIRS      STATIC     ATOMS    <user>   **** ""
11 53 54 55 56 57 58 59 60 61 62 63
DONOR_HYDROGENS      STATIC     ATOMS    <user>   **** ""
2 44 48
ATOM$BLUE        STATIC     ATOMS    COLORGROUP SYSTEM
11 53 54 55 56 57 58 59 60 61 62 63
ATOM$RED        STATIC     ATOMS    COLORGROUP SYSTEM
2 44 48
