AV-unprocessed.smi:3311|AV-procd|sdf|12724|dock5
  -GOLD-   2272019 63D 1   1.00000     0.00000
 Structure written by MMmdl.
 43 44  0  0  0  0  0  0  0  0  1 V2000
  143.7192  136.2432  152.2988 C   0  0  0  0  0  0  0  0  0  0  0  0
  145.1905  135.8333  152.0689 C   0  0  1  0  0  0  0  0  0  0  0  0
  146.1032  136.6097  152.9162 N   0  0  0  0  0  0  0  0  0  0  0  0
  145.8383  138.0479  153.0035 C   0  0  0  0  0  0  0  0  0  0  0  0
  147.1369  138.8796  153.1074 C   0  0  0  0  0  0  0  0  0  0  0  0
  147.8050  138.7627  151.8634 O   0  0  0  0  0  0  0  0  0  0  0  0
  146.8656  140.3737  153.4206 C   0  0  0  0  0  0  0  0  0  0  0  0
  148.1529  141.1791  153.6724 C   0  0  0  0  0  0  0  0  0  0  0  0
  149.0087  140.5406  154.7745 C   0  0  0  0  0  0  0  0  0  0  0  0
  149.3367  139.0805  154.4346 C   0  0  0  0  0  0  0  0  0  0  0  0
  148.0553  138.2634  154.1898 C   0  0  0  0  0  0  0  0  0  0  0  0
  145.4513  134.3176  152.2832 C   0  0  2  0  0  0  0  0  0  0  0  0
  146.9516  133.9892  152.3939 C   0  0  0  0  0  0  0  0  0  0  0  0
  144.7954  133.4787  151.2821 N   0  0  0  0  0  0  0  0  0  0  0  0
  145.0354  133.3816  149.9241 C   0  0  0  0  0  0  0  0  0  0  0  0
  144.1406  132.4874  149.4104 C   0  0  0  0  0  0  0  0  0  0  0  0
  143.3747  132.0902  150.5407 C   0  0  0  0  0  0  0  0  0  0  0  0
  143.7637  132.6880  151.6545 N   0  0  0  0  0  0  0  0  0  0  0  0
  143.0351  135.5919  151.7557 H   0  0  0  0  0  0  0  0  0  0  0  0
  143.5246  137.2559  151.9472 H   0  0  0  0  0  0  0  0  0  0  0  0
  143.4481  136.2023  153.3543 H   0  0  0  0  0  0  0  0  0  0  0  0
  145.4321  136.0547  151.0287 H   0  0  0  0  0  0  0  0  0  0  0  0
  146.1259  136.2125  153.8506 H   0  0  0  0  0  0  0  0  0  0  0  0
  145.2774  138.3625  152.1225 H   0  0  0  0  0  0  0  0  0  0  0  0
  145.2090  138.2711  153.8651 H   0  0  0  0  0  0  0  0  0  0  0  0
  148.5745  139.3104  151.8857 H   0  0  0  0  0  0  0  0  0  0  0  0
  146.3076  140.8431  152.6094 H   0  0  0  0  0  0  0  0  0  0  0  0
  146.2298  140.4436  154.3043 H   0  0  0  0  0  0  0  0  0  0  0  0
  148.7325  141.2455  152.7510 H   0  0  0  0  0  0  0  0  0  0  0  0
  147.8992  142.2032  153.9480 H   0  0  0  0  0  0  0  0  0  0  0  0
  149.9299  141.1087  154.9069 H   0  0  0  0  0  0  0  0  0  0  0  0
  148.4768  140.5857  155.7256 H   0  0  0  0  0  0  0  0  0  0  0  0
  149.9758  139.0430  153.5517 H   0  0  0  0  0  0  0  0  0  0  0  0
  149.9102  138.6326  155.2464 H   0  0  0  0  0  0  0  0  0  0  0  0
  147.5058  138.1962  155.1297 H   0  0  0  0  0  0  0  0  0  0  0  0
  148.3196  137.2388  153.9235 H   0  0  0  0  0  0  0  0  0  0  0  0
  145.0269  134.0455  153.2522 H   0  0  0  0  0  0  0  0  0  0  0  0
  147.4119  134.5456  153.2107 H   0  0  0  0  0  0  0  0  0  0  0  0
  147.4962  134.2351  151.4827 H   0  0  0  0  0  0  0  0  0  0  0  0
  147.1050  132.9287  152.5958 H   0  0  0  0  0  0  0  0  0  0  0  0
  145.8120  133.9520  149.4368 H   0  0  0  0  0  0  0  0  0  0  0  0
  144.0447  132.1696  148.3829 H   0  0  0  0  0  0  0  0  0  0  0  0
  142.5510  131.3929  150.5845 H   0  0  0  0  0  0  0  0  0  0  0  0
  1  2  1  0  0  0  0
  1 19  1  0  0  0  0
  1 20  1  0  0  0  0
  1 21  1  0  0  0  0
  2  3  1  0  0  0  0
  2 12  1  0  0  0  0
  2 22  1  0  0  0  0
  3  4  1  0  0  0  0
  3 23  1  0  0  0  0
  4  5  1  0  0  0  0
  4 24  1  0  0  0  0
  4 25  1  0  0  0  0
  5 11  1  0  0  0  0
  5  6  1  0  0  0  0
  5  7  1  0  0  0  0
  6 26  1  0  0  0  0
  7  8  1  0  0  0  0
  7 27  1  0  0  0  0
  7 28  1  0  0  0  0
  8  9  1  0  0  0  0
  8 29  1  0  0  0  0
  8 30  1  0  0  0  0
  9 10  1  0  0  0  0
  9 31  1  0  0  0  0
  9 32  1  0  0  0  0
 10 11  1  0  0  0  0
 10 33  1  0  0  0  0
 10 34  1  0  0  0  0
 11 35  1  0  0  0  0
 11 36  1  0  0  0  0
 12 13  1  0  0  0  0
 12 14  1  0  0  0  0
 12 37  1  0  0  0  0
 13 38  1  0  0  0  0
 13 39  1  0  0  0  0
 13 40  1  0  0  0  0
 14 18  1  0  0  0  0
 14 15  1  0  0  0  0
 15 16  2  0  0  0  0
 15 41  1  0  0  0  0
 16 17  1  0  0  0  0
 16 42  1  0  0  0  0
 17 18  2  0  0  0  0
 17 43  1  0  0  0  0
M  END
> <s_m_source_file>
AV-unprocessed.smi

> <i_m_source_file_index>
3311

> <i_lp_mmshare_version>
43012

> <i_f3d_flags>
0

> <s_epik_input>
bjFbY0hdW2NIXVtjSF1uMVtDQEBIXShbQ0gzXSlbQ0BIXShbQ0gzXSlbTkhdW0NIMl1DMihbT0hdKVtDSDJdW0NIMl1bQ0gyXVtDSDJdW0NIMl0y

> <s_epik_cmdline>
J2VwaWtfcHl0aG9uJywgJy1waCcsICc3LjAnLCAnLXRuJywgJzgnLCAnLW1hJywgJzIwMCcsICctbWV0YWxfYmluZGluZycsICctaW1hZScsICc8aW5maWxlLm1hZT4nLCAnLW9tYWUnLCAnPG91dGZpbGUubWFlPic=

> <r_lp_tautomer_probability>
1

> <r_epik_Ionization_Penalty>
2.222

> <r_epik_Ionization_Penalty_Charging>
0

> <r_epik_Ionization_Penalty_Neutral>
2.222

> <r_epik_State_Penalty>
2.36562

> <r_epik_Charging_Adjusted_Penalty>
2.36562

> <i_epik_Tot_Q>
0

> <i_epik_Tot_abs_Q>
0

> <r_epik_Metal_State_Penalty>
2.36435

> <b_epik_Metal_Only>
0

> <s_lp_Force_Field>
OPLS_2005

> <r_lp_Energy>
28.1428

> <b_lp_Chiralities_Consistent>
1

> <s_lp_Variant>
AV-unprocessed.smi:3311-6

> <Gold.Version>
5.8.1

> <Gold.Id.Protein>
6NUR|6NUR_protein|mol2

> <Gold.PLP.Fitness>
38.3841

> <Gold.PLP.PLP>
-29.7620

> <Gold.PLP.part.hbond>
-3.0458

> <Gold.PLP.part.metal>
0.0000

> <Gold.PLP.part.buried>
2.9549

> <Gold.PLP.part.nonpolar>
-29.7551

> <Gold.PLP.part.repulsive>
0.2136

> <Gold.PLP.ligand.clash>
0.0000

> <Gold.PLP.ligand.torsion>
0.6430

> <Gold.PLP.Chemscore.Hbond>
1.2534

> <Gold.PLP.Chemscore.CHOScore>
2.0000

> <Gold.PLP.Chemscore.Metal>
0.0000

> <Gold.Chemscore.Hbonds>
donor molecule, donor type, donor heavy atom, donor atom, acceptor molecule, acceptor atom, score
      L1  H     6    26       P1  7957  0.72
      P1  H  7954  7966       L1     6  0.43
      L1  C    15    41       P1  7921  0.97
      L1  C    17    43       P1 10952  1.00

> <Gold.PLP.Chemscore.Internal.Correction>
0.1480

> <Gold.Rescore>
     Score         DG    S(hbond)    S(metal)    S(lipo)     H(rot)  DE(clash)    DE(int)     intcor
     12.76     -13.45       0.92        0.00      86.99       2.07       0.15       0.54       ----

> <Gold.Chemscore.Fitness>
12.7595

> <Gold.Chemscore.DG>
-13.4479

> <Gold.Chemscore.ZeroCoef>
-5.4800

> <Gold.Chemscore.Hbond>
0.9238

> <Gold.Chemscore.Metal>
0.0000

> <Gold.Chemscore.Lipo>
86.9923

> <Gold.Chemscore.Internal_Hbond>
0.0000

> <Gold.Chemscore.DEClash>
0.1522

> <Gold.Chemscore.DEInternal>
0.5363

> <Gold.Chemscore.Rot>
2.0686

> <Gold.Chemscore.Internal.Correction>
   9.000000E+99

> <Gold.Chemscore.Hbonds>
donor molecule, donor type, donor heavy atom, donor atom, acceptor molecule, acceptor atom, score
      L1  H     6    26       P1  7957  0.68
      P1  H  7954  7966       L1     6  0.06

> <Gold.Chemscore.Hbond.Weighted>
-3.0855

> <Gold.Chemscore.Metal.Weighted>
-0.0000

> <Gold.Chemscore.Lipo.Weighted>
-10.1781

> <Gold.Chemscore.Internal_Hbond.Weighted>
0.0000

> <Gold.Chemscore.DEClash.Weighted>
0.1522

> <Gold.Chemscore.DEInternal.Weighted>
0.5363

> <Gold.Chemscore.Rot.Weighted>
5.2957

> <Gold.Chemscore.Internal.Correction.Weighted>
   9.000000E+99

> <Gold.Protein.RotatedTorsions>
[ 6907 6896 6895 6894 ] final  161.64 input  -60.11 | X-H torsion
[ 7974 7965 7964 7962 ] final   95.93 input  175.53 | X-H torsion
[ 8008 7997 7996 7995 ] final -163.09 input   59.86 | X-H torsion
[ 10167 10162 10161 10158 ] final  -90.07 input  -65.29 | X-H torsion
[ 10718 10713 10712 10709 ] final  132.14 input   66.30 | X-H torsion
[ 10763 10752 10751 10750 ] final  -55.50 input  -60.55 | X-H torsion
[ 11005 11000 10999 10996 ] final  -53.18 input  -57.11 | X-H torsion

> <Gold.Protein.ActiveResidues>
 VAL166  LYS551  ARG553  GLY616  TRP617  ASP618  TYR619  PRO620  LYS621  CYS622 
 ASP623  PHE694  ASN695  SER759  ASP760  ASP761  ALA762  ILE779  LEU786  VAL792 
 PHE793  MET794  SER795  GLU796  ALA797  LYS798  CYS799  TRP800  GLU811  SER814 

> <Gold.Protein.RotatedAtoms>
  151.9525  133.3670  159.4005 H   0  0  0  0  0  0  0  0  0  0  0  0  # atno 6907 bound_to 6896
  150.6978  134.4325  159.5264 H   0  0  0  0  0  0  0  0  0  0  0  0  # atno 6908 bound_to 6896
  152.2000  134.8596  160.0559 H   0  0  0  0  0  0  0  0  0  0  0  0  # atno 6909 bound_to 6896
  145.4456  139.2297  143.3068 H   0  0  0  0  0  0  0  0  0  0  0  0  # atno 7974 bound_to 7965
  155.8162  140.0913  157.1875 H   0  0  0  0  0  0  0  0  0  0  0  0  # atno 8008 bound_to 7997
  154.3979  140.1445  156.3505 H   0  0  0  0  0  0  0  0  0  0  0  0  # atno 8009 bound_to 7997
  155.8314  140.3442  155.5577 H   0  0  0  0  0  0  0  0  0  0  0  0  # atno 8010 bound_to 7997
  140.3585  143.2854  151.9642 H   0  0  0  0  0  0  0  0  0  0  0  0  # atno 10167 bound_to 10162
  157.4900  131.1090  150.9569 H   0  0  0  0  0  0  0  0  0  0  0  0  # atno 10718 bound_to 10713
  154.1918  135.6426  153.5062 H   0  0  0  0  0  0  0  0  0  0  0  0  # atno 10763 bound_to 10752
  153.0033  135.5430  154.6408 H   0  0  0  0  0  0  0  0  0  0  0  0  # atno 10764 bound_to 10752
  154.5798  135.2924  155.0717 H   0  0  0  0  0  0  0  0  0  0  0  0  # atno 10765 bound_to 10752
  141.0963  133.6624  156.4134 H   0  0  0  0  0  0  0  0  0  0  0  0  # atno 11005 bound_to 11000
  146.2532  140.5209  142.8884 LP  0  0  0  0  0  0  0  0  0  0  0  0  # atno 17320 bound_to 7965
  144.8094  140.6358  143.6425 LP  0  0  0  0  0  0  0  0  0  0  0  0  # atno 17321 bound_to 7965
  139.4817  144.6014  151.7599 LP  0  0  0  0  0  0  0  0  0  0  0  0  # atno 17342 bound_to 10162
  140.5150  144.0967  150.6006 LP  0  0  0  0  0  0  0  0  0  0  0  0  # atno 17343 bound_to 10162
  157.0274  130.5698  149.5339 LP  0  0  0  0  0  0  0  0  0  0  0  0  # atno 17370 bound_to 10713
  156.0168  130.5262  150.8158 LP  0  0  0  0  0  0  0  0  0  0  0  0  # atno 17371 bound_to 10713
  140.5133  134.6374  157.5292 LP  0  0  0  0  0  0  0  0  0  0  0  0  # atno 17394 bound_to 11000
  139.9800  134.7152  155.9877 LP  0  0  0  0  0  0  0  0  0  0  0  0  # atno 17395 bound_to 11000

$$$$
