AV-unprocessed.smi:3131|AV-procd|sdf|11927|dock9
  -GOLD-   2272017313D 1   1.00000     0.00000
 Structure written by MMmdl.
 43 43  0  0  0  0  0  0  0  0  2 V2000
  152.7920  143.0954  161.0670 C   0  0  0  0  0  0  0  0  0  0  0  0
  152.2702  143.3501  159.6449 C   0  0  0  0  0  0  0  0  0  0  0  0
  151.5671  142.1346  158.9947 C   0  0  0  0  0  0  0  0  0  0  0  0
  152.5987  141.1334  158.4198 C   0  0  0  0  0  0  0  0  0  0  0  0
  153.6639  140.6733  159.4262 C   0  0  0  0  0  0  0  0  0  0  0  0
  150.5754  142.5852  157.8987 C   0  0  0  0  0  0  0  0  0  0  0  0
  150.0308  141.4368  157.1470 N   0  3  0  0  0  0  0  0  0  0  0  0
  149.9581  141.6460  155.6853 C   0  0  0  0  0  0  0  0  0  0  0  0
  149.5960  140.3460  154.9350 C   0  0  1  0  0  0  0  0  0  0  0  0
  148.3737  139.6725  155.5833 C   0  0  0  0  0  0  0  0  0  0  0  0
  149.1895  140.7124  153.6295 O   0  0  0  0  0  0  0  0  0  0  0  0
  150.7681  139.3875  154.9133 C   0  0  0  0  0  0  0  0  0  0  0  0
  150.8770  138.1364  154.2369 C   0  0  0  0  0  0  0  0  0  0  0  0
  152.0507  137.5526  154.4128 N   0  0  0  0  0  0  0  0  0  0  0  0
  152.7307  138.3998  155.2103 N   0  0  0  0  0  0  0  0  0  0  0  0
  154.0796  138.0693  155.6172 C   0  0  0  0  0  0  0  0  0  0  0  0
  151.9837  139.5127  155.5285 C   0  0  0  0  0  0  0  0  0  0  0  0
  153.3587  143.9552  161.4254 H   0  0  0  0  0  0  0  0  0  0  0  0
  153.4553  142.2306  161.0948 H   0  0  0  0  0  0  0  0  0  0  0  0
  151.9844  142.9253  161.7780 H   0  0  0  0  0  0  0  0  0  0  0  0
  151.5988  144.2096  159.6490 H   0  0  0  0  0  0  0  0  0  0  0  0
  153.1271  143.6473  159.0422 H   0  0  0  0  0  0  0  0  0  0  0  0
  150.9982  141.6218  159.7721 H   0  0  0  0  0  0  0  0  0  0  0  0
  152.0870  140.2380  158.0667 H   0  0  0  0  0  0  0  0  0  0  0  0
  153.0841  141.5623  157.5422 H   0  0  0  0  0  0  0  0  0  0  0  0
  154.2971  139.9018  158.9870 H   0  0  0  0  0  0  0  0  0  0  0  0
  153.2056  140.2520  160.3213 H   0  0  0  0  0  0  0  0  0  0  0  0
  154.3181  141.4880  159.7343 H   0  0  0  0  0  0  0  0  0  0  0  0
  149.7307  143.1149  158.3368 H   0  0  0  0  0  0  0  0  0  0  0  0
  151.0613  143.2786  157.2108 H   0  0  0  0  0  0  0  0  0  0  0  0
  150.6130  140.6302  157.3229 H   0  0  0  0  0  0  0  0  0  0  0  0
  149.2066  142.4107  155.4831 H   0  0  0  0  0  0  0  0  0  0  0  0
  150.9112  142.0399  155.3285 H   0  0  0  0  0  0  0  0  0  0  0  0
  148.5787  139.3829  156.6144 H   0  0  0  0  0  0  0  0  0  0  0  0
  148.0837  138.7712  155.0414 H   0  0  0  0  0  0  0  0  0  0  0  0
  147.5105  140.3392  155.5987 H   0  0  0  0  0  0  0  0  0  0  0  0
  149.3173  139.9742  153.0530 H   0  0  0  0  0  0  0  0  0  0  0  0
  150.1426  137.6399  153.6198 H   0  0  0  0  0  0  0  0  0  0  0  0
  154.5149  138.8973  156.1778 H   0  0  0  0  0  0  0  0  0  0  0  0
  154.6948  137.8750  154.7379 H   0  0  0  0  0  0  0  0  0  0  0  0
  154.0664  137.1810  156.2495 H   0  0  0  0  0  0  0  0  0  0  0  0
  152.3754  140.2972  156.1592 H   0  0  0  0  0  0  0  0  0  0  0  0
  149.1002  141.2397  157.4868 H   0  0  0  0  0  0  0  0  0  0  0  0
  1  2  1  0  0  0  0
  1 18  1  0  0  0  0
  1 19  1  0  0  0  0
  1 20  1  0  0  0  0
  2  3  1  0  0  0  0
  2 21  1  0  0  0  0
  2 22  1  0  0  0  0
  3  4  1  0  0  0  0
  3  6  1  0  0  0  0
  3 23  1  0  0  0  0
  4  5  1  0  0  0  0
  4 24  1  0  0  0  0
  4 25  1  0  0  0  0
  5 26  1  0  0  0  0
  5 27  1  0  0  0  0
  5 28  1  0  0  0  0
  6  7  1  0  0  0  0
  6 29  1  0  0  0  0
  6 30  1  0  0  0  0
  7  8  1  0  0  0  0
  7 31  1  0  0  0  0
  7 43  1  0  0  0  0
  8  9  1  0  0  0  0
  8 32  1  0  0  0  0
  8 33  1  0  0  0  0
  9 10  1  0  0  0  0
  9 11  1  0  0  0  0
  9 12  1  0  0  0  0
 10 34  1  0  0  0  0
 10 35  1  0  0  0  0
 10 36  1  0  0  0  0
 11 37  1  0  0  0  0
 12 17  2  0  0  0  0
 12 13  1  0  0  0  0
 13 14  2  0  0  0  0
 13 38  1  0  0  0  0
 14 15  1  0  0  0  0
 15 16  1  0  0  0  0
 15 17  1  0  0  0  0
 16 39  1  0  0  0  0
 16 40  1  0  0  0  0
 16 41  1  0  0  0  0
 17 42  1  0  0  0  0
M  CHG  1   7   1
M  END
> <s_m_source_file>
AV-unprocessed.smi

> <i_m_source_file_index>
3131

> <i_lp_mmshare_version>
43012

> <i_f3d_flags>
0

> <s_epik_input>
W0NIM11bQ0gyXVtDSF0oW0NIMl1bQ0gzXSlbQ0gyXVtOSF1bQ0gyXVtDQEBdKFtDSDNdKShbT0hdKWMxW2NIXW5uKFtDSDNdKVtjSF0x

> <s_epik_cmdline>
J2VwaWtfcHl0aG9uJywgJy1waCcsICc3LjAnLCAnLXRuJywgJzgnLCAnLW1hJywgJzIwMCcsICctbWV0YWxfYmluZGluZycsICctaW1hZScsICc8aW5maWxlLm1hZT4nLCAnLW9tYWUnLCAnPG91dGZpbGUubWFlPic=

> <r_lp_tautomer_probability>
1

> <r_epik_Ionization_Penalty>
0.00304809

> <r_epik_Ionization_Penalty_Charging>
0.00302982

> <r_epik_Ionization_Penalty_Neutral>
1.82731e-05

> <r_epik_State_Penalty>
0.00212874

> <r_epik_Charging_Adjusted_Penalty>
0.00515857

> <i_epik_Tot_Q>
1

> <i_epik_Tot_abs_Q>
1

> <r_epik_Metal_State_Penalty>
-0

> <b_epik_Metal_Only>
0

> <s_lp_Force_Field>
OPLS_2005

> <r_lp_Energy>
10.206

> <b_lp_Chiralities_Consistent>
1

> <s_lp_Variant>
AV-unprocessed.smi:3131-1

> <Gold.Version>
5.8.1

> <Gold.Id.Protein>
6NUR|6NUR_protein|mol2

> <Gold.PLP.Fitness>
45.0737

> <Gold.PLP.PLP>
-35.9100

> <Gold.PLP.part.hbond>
-3.7130

> <Gold.PLP.part.metal>
0.0000

> <Gold.PLP.part.buried>
-0.2383

> <Gold.PLP.part.nonpolar>
-32.1705

> <Gold.PLP.part.repulsive>
0.1696

> <Gold.PLP.ligand.clash>
0.0000

> <Gold.PLP.ligand.torsion>
0.8106

> <Gold.PLP.Chemscore.Hbond>
2.4508

> <Gold.PLP.Chemscore.CHOScore>
1.0745

> <Gold.PLP.Chemscore.Metal>
0.0000

> <Gold.Chemscore.Hbonds>
donor molecule, donor type, donor heavy atom, donor atom, acceptor molecule, acceptor atom, score
      L1  H    11    37       P1  7957  0.53
      P1  H  8011  8017       L1    11  0.52
      P1  H 10752 10763       L1    14  0.68
      L1  C    13    38       P1  7948  1.00
      L1  C    13    38       P1  7949  0.02

> <Gold.PLP.Chemscore.Internal.Correction>
0.2090

> <Gold.Rescore>
     Score         DG    S(hbond)    S(metal)    S(lipo)     H(rot)  DE(clash)    DE(int)     intcor
     16.65     -17.91       1.93        0.00     102.44       2.34       0.35       0.91       ----

> <Gold.Chemscore.Fitness>
16.6527

> <Gold.Chemscore.DG>
-17.9067

> <Gold.Chemscore.ZeroCoef>
-5.4800

> <Gold.Chemscore.Hbond>
1.9277

> <Gold.Chemscore.Metal>
0.0000

> <Gold.Chemscore.Lipo>
102.4372

> <Gold.Chemscore.Internal_Hbond>
0.0000

> <Gold.Chemscore.DEClash>
0.3474

> <Gold.Chemscore.DEInternal>
0.9066

> <Gold.Chemscore.Rot>
2.3426

> <Gold.Chemscore.Internal.Correction>
   9.000000E+99

> <Gold.Chemscore.Hbonds>
donor molecule, donor type, donor heavy atom, donor atom, acceptor molecule, acceptor atom, score
      L1  H    11    37       P1  7957  0.54
      P1  H  8011  8017       L1    11  0.18
      P1  H 10752 10763       L1    14  0.59

> <Gold.Chemscore.Hbond.Weighted>
-6.4387

> <Gold.Chemscore.Metal.Weighted>
-0.0000

> <Gold.Chemscore.Lipo.Weighted>
-11.9852

> <Gold.Chemscore.Internal_Hbond.Weighted>
0.0000

> <Gold.Chemscore.DEClash.Weighted>
0.3474

> <Gold.Chemscore.DEInternal.Weighted>
0.9066

> <Gold.Chemscore.Rot.Weighted>
5.9972

> <Gold.Chemscore.Internal.Correction.Weighted>
   9.000000E+99

> <Gold.Protein.RotatedTorsions>
[ 6907 6896 6895 6894 ] final   37.05 input  -60.11 | X-H torsion
[ 7974 7965 7964 7962 ] final -165.30 input  175.53 | X-H torsion
[ 8008 7997 7996 7995 ] final  164.47 input   59.86 | X-H torsion
[ 10167 10162 10161 10158 ] final -108.17 input  -65.29 | X-H torsion
[ 10718 10713 10712 10709 ] final   52.49 input   66.30 | X-H torsion
[ 10763 10752 10751 10750 ] final   30.96 input  -60.55 | X-H torsion
[ 11005 11000 10999 10996 ] final -116.23 input  -57.11 | X-H torsion

> <Gold.Protein.ActiveResidues>
 VAL166  LYS551  ARG553  GLY616  TRP617  ASP618  TYR619  PRO620  LYS621  CYS622 
 ASP623  PHE694  ASN695  SER759  ASP760  ASP761  ALA762  ILE779  LEU786  VAL792 
 PHE793  MET794  SER795  GLU796  ALA797  LYS798  CYS799  TRP800  GLU811  SER814 

> <Gold.Protein.RotatedAtoms>
  152.1379  134.9085  160.0555 H   0  0  0  0  0  0  0  0  0  0  0  0  # atno 6907 bound_to 6896
  152.0164  133.3876  159.4248 H   0  0  0  0  0  0  0  0  0  0  0  0  # atno 6908 bound_to 6896
  150.6862  134.3596  159.4988 H   0  0  0  0  0  0  0  0  0  0  0  0  # atno 6909 bound_to 6896
  144.7273  140.2834  143.6232 H   0  0  0  0  0  0  0  0  0  0  0  0  # atno 7974 bound_to 7965
  156.1877  140.1696  156.8152 H   0  0  0  0  0  0  0  0  0  0  0  0  # atno 8008 bound_to 7997
  154.5434  140.0732  156.8580 H   0  0  0  0  0  0  0  0  0  0  0  0  # atno 8009 bound_to 7997
  155.3170  140.3371  155.4244 H   0  0  0  0  0  0  0  0  0  0  0  0  # atno 8010 bound_to 7997
  140.1690  143.4058  152.1369 H   0  0  0  0  0  0  0  0  0  0  0  0  # atno 10167 bound_to 10162
  157.5080  130.8481  149.8398 H   0  0  0  0  0  0  0  0  0  0  0  0  # atno 10718 bound_to 10713
  153.0342  135.6451  154.1126 H   0  0  0  0  0  0  0  0  0  0  0  0  # atno 10763 bound_to 10752
  154.0843  135.2871  155.3286 H   0  0  0  0  0  0  0  0  0  0  0  0  # atno 10764 bound_to 10752
  154.6508  135.5426  153.7964 H   0  0  0  0  0  0  0  0  0  0  0  0  # atno 10765 bound_to 10752
  141.0435  133.9798  157.2955 H   0  0  0  0  0  0  0  0  0  0  0  0  # atno 11005 bound_to 11000
  145.7927  139.1933  143.2093 LP  0  0  0  0  0  0  0  0  0  0  0  0  # atno 17320 bound_to 7965
  146.0742  140.7835  142.9673 LP  0  0  0  0  0  0  0  0  0  0  0  0  # atno 17321 bound_to 7965
  139.5346  144.7196  151.4936 LP  0  0  0  0  0  0  0  0  0  0  0  0  # atno 17342 bound_to 10162
  140.6594  143.8530  150.6871 LP  0  0  0  0  0  0  0  0  0  0  0  0  # atno 17343 bound_to 10162
  156.0270  130.3776  150.1794 LP  0  0  0  0  0  0  0  0  0  0  0  0  # atno 17370 bound_to 10713
  156.9984  130.9914  151.3397 LP  0  0  0  0  0  0  0  0  0  0  0  0  # atno 17371 bound_to 10713
  139.9294  135.0200  156.8348 LP  0  0  0  0  0  0  0  0  0  0  0  0  # atno 17394 bound_to 11000
  140.6189  134.0012  155.7609 LP  0  0  0  0  0  0  0  0  0  0  0  0  # atno 17395 bound_to 11000

$$$$
