AV-unprocessed.smi:2859|AV-procd|sdf|11004|dock4
  -GOLD-   2272015463D 1   1.00000     0.00000
 Structure written by MMmdl.
 51 52  0  0  0  0  0  0  0  0  1 V2000
  152.7487  143.3871  160.1022 C   0  0  0  0  0  0  0  0  0  0  0  0
  151.7607  144.3269  159.3753 C   0  0  0  0  0  0  0  0  0  0  0  0
  151.6211  145.6051  160.2281 C   0  0  0  0  0  0  0  0  0  0  0  0
  152.3740  144.6763  158.0035 C   0  0  0  0  0  0  0  0  0  0  0  0
  150.3773  143.6847  159.1752 C   0  0  0  0  0  0  0  0  0  0  0  0
  150.1544  142.5397  158.3728 C   0  0  0  0  0  0  0  0  0  0  0  0
  148.8280  142.0459  158.2990 C   0  0  0  0  0  0  0  0  0  0  0  0
  148.4756  140.9078  157.5381 N   0  0  0  0  0  0  0  0  0  0  0  0
  147.0845  140.4655  157.5466 C   0  0  0  0  0  0  0  0  0  0  0  0
  146.9645  139.0532  156.9542 C   0  0  0  0  0  0  0  0  0  0  0  0
  147.5460  139.0267  155.6567 O   0  0  0  0  0  0  0  0  0  0  0  0
  148.9422  139.3219  155.6875 C   0  0  1  0  0  0  0  0  0  0  0  0
  149.5122  139.1625  154.2701 C   0  0  0  0  0  0  0  0  0  0  0  0
  148.6541  138.8332  153.3002 N   0  0  0  0  0  0  0  0  0  0  0  0
  150.7121  139.3152  154.0480 O   0  0  0  0  0  0  0  0  0  0  0  0
  149.1497  140.7469  156.2490 C   0  0  0  0  0  0  0  0  0  0  0  0
  147.8341  142.6721  158.9705 N   0  0  0  0  0  0  0  0  0  0  0  0
  148.1247  143.7731  159.6709 C   0  0  0  0  0  0  0  0  0  0  0  0
  147.0059  144.3712  160.5399 C   0  0  0  0  0  0  0  0  0  0  0  0
  146.4754  143.2942  161.5035 C   0  0  0  0  0  0  0  0  0  0  0  0
  145.8437  144.8996  159.6658 C   0  0  0  0  0  0  0  0  0  0  0  0
  147.5217  145.5851  161.3482 C   0  0  0  0  0  0  0  0  0  0  0  0
  149.3520  144.2778  159.8276 N   0  0  0  0  0  0  0  0  0  0  0  0
  153.7218  143.8619  160.2328 H   0  0  0  0  0  0  0  0  0  0  0  0
  152.9162  142.4668  159.5413 H   0  0  0  0  0  0  0  0  0  0  0  0
  152.3910  143.1169  161.0965 H   0  0  0  0  0  0  0  0  0  0  0  0
  151.1817  145.3844  161.2016 H   0  0  0  0  0  0  0  0  0  0  0  0
  150.9875  146.3486  159.7430 H   0  0  0  0  0  0  0  0  0  0  0  0
  152.5898  146.0744  160.4031 H   0  0  0  0  0  0  0  0  0  0  0  0
  153.3648  145.1186  158.1122 H   0  0  0  0  0  0  0  0  0  0  0  0
  151.7610  145.3929  157.4557 H   0  0  0  0  0  0  0  0  0  0  0  0
  152.4767  143.7877  157.3795 H   0  0  0  0  0  0  0  0  0  0  0  0
  150.9646  142.0537  157.8548 H   0  0  0  0  0  0  0  0  0  0  0  0
  146.6970  140.4470  158.5657 H   0  0  0  0  0  0  0  0  0  0  0  0
  146.4785  141.1682  156.9733 H   0  0  0  0  0  0  0  0  0  0  0  0
  147.4495  138.3178  157.5980 H   0  0  0  0  0  0  0  0  0  0  0  0
  145.9153  138.7669  156.8789 H   0  0  0  0  0  0  0  0  0  0  0  0
  149.4483  138.5968  156.3272 H   0  0  0  0  0  0  0  0  0  0  0  0
  148.9901  138.7098  152.3559 H   0  0  0  0  0  0  0  0  0  0  0  0
  147.6771  138.7005  153.5164 H   0  0  0  0  0  0  0  0  0  0  0  0
  148.7541  141.4907  155.5556 H   0  0  0  0  0  0  0  0  0  0  0  0
  150.2201  140.9331  156.3395 H   0  0  0  0  0  0  0  0  0  0  0  0
  145.6770  143.6836  162.1358 H   0  0  0  0  0  0  0  0  0  0  0  0
  147.2653  142.9261  162.1594 H   0  0  0  0  0  0  0  0  0  0  0  0
  146.0763  142.4381  160.9579 H   0  0  0  0  0  0  0  0  0  0  0  0
  145.3602  144.1008  159.1019 H   0  0  0  0  0  0  0  0  0  0  0  0
  146.1923  145.6453  158.9501 H   0  0  0  0  0  0  0  0  0  0  0  0
  145.0694  145.3671  160.2747 H   0  0  0  0  0  0  0  0  0  0  0  0
  146.7216  146.0427  161.9313 H   0  0  0  0  0  0  0  0  0  0  0  0
  147.9299  146.3545  160.6917 H   0  0  0  0  0  0  0  0  0  0  0  0
  148.3041  145.3042  162.0544 H   0  0  0  0  0  0  0  0  0  0  0  0
  1  2  1  0  0  0  0
  1 24  1  0  0  0  0
  1 25  1  0  0  0  0
  1 26  1  0  0  0  0
  2  3  1  0  0  0  0
  2  4  1  0  0  0  0
  2  5  1  0  0  0  0
  3 27  1  0  0  0  0
  3 28  1  0  0  0  0
  3 29  1  0  0  0  0
  4 30  1  0  0  0  0
  4 31  1  0  0  0  0
  4 32  1  0  0  0  0
  5 23  1  0  0  0  0
  5  6  2  0  0  0  0
  6  7  1  0  0  0  0
  6 33  1  0  0  0  0
  7  8  1  0  0  0  0
  7 17  2  0  0  0  0
  8 16  1  0  0  0  0
  8  9  1  0  0  0  0
  9 10  1  0  0  0  0
  9 34  1  0  0  0  0
  9 35  1  0  0  0  0
 10 11  1  0  0  0  0
 10 36  1  0  0  0  0
 10 37  1  0  0  0  0
 11 12  1  0  0  0  0
 12 13  1  0  0  0  0
 12 16  1  0  0  0  0
 12 38  1  0  0  0  0
 13 14  1  0  0  0  0
 13 15  2  0  0  0  0
 14 39  1  0  0  0  0
 14 40  1  0  0  0  0
 16 41  1  0  0  0  0
 16 42  1  0  0  0  0
 17 18  1  0  0  0  0
 18 19  1  0  0  0  0
 18 23  2  0  0  0  0
 19 20  1  0  0  0  0
 19 21  1  0  0  0  0
 19 22  1  0  0  0  0
 20 43  1  0  0  0  0
 20 44  1  0  0  0  0
 20 45  1  0  0  0  0
 21 46  1  0  0  0  0
 21 47  1  0  0  0  0
 21 48  1  0  0  0  0
 22 49  1  0  0  0  0
 22 50  1  0  0  0  0
 22 51  1  0  0  0  0
M  END
> <s_m_source_file>
AV-unprocessed.smi

> <i_m_source_file_index>
2859

> <i_lp_mmshare_version>
43012

> <i_f3d_flags>
0

> <s_epik_input>
W0NIM11DKFtDSDNdKShbQ0gzXSljMVtjSF1jKG5jKG4xKUMoW0NIM10pKFtDSDNdKVtDSDNdKU4yW0NIMl1bQ0gyXU9bQ0BIXShbQ0gyXTIpQyg9TylbTkgyXQ==

> <s_epik_cmdline>
J2VwaWtfcHl0aG9uJywgJy1waCcsICc3LjAnLCAnLXRuJywgJzgnLCAnLW1hJywgJzIwMCcsICctbWV0YWxfYmluZGluZycsICctaW1hZScsICc8aW5maWxlLm1hZT4nLCAnLW9tYWUnLCAnPG91dGZpbGUubWFlPic=

> <r_lp_tautomer_probability>
1

> <r_epik_Ionization_Penalty>
0.0011326

> <r_epik_Ionization_Penalty_Charging>
0

> <r_epik_Ionization_Penalty_Neutral>
0.0011326

> <r_epik_State_Penalty>
0.000721507

> <r_epik_Charging_Adjusted_Penalty>
0.000721507

> <i_epik_Tot_Q>
0

> <i_epik_Tot_abs_Q>
0

> <r_epik_Metal_State_Penalty>
-0

> <b_epik_Metal_Only>
0

> <s_lp_Force_Field>
OPLS_2005

> <r_lp_Energy>
9.66703

> <b_lp_Chiralities_Consistent>
1

> <s_lp_Variant>
AV-unprocessed.smi:2859-1

> <Gold.Version>
5.8.1

> <Gold.Id.Protein>
6NUR|6NUR_protein|mol2

> <Gold.PLP.Fitness>
43.6308

> <Gold.PLP.PLP>
-39.1154

> <Gold.PLP.part.hbond>
-3.1915

> <Gold.PLP.part.metal>
0.0000

> <Gold.PLP.part.buried>
-3.1366

> <Gold.PLP.part.nonpolar>
-32.9247

> <Gold.PLP.part.repulsive>
0.6169

> <Gold.PLP.ligand.clash>
0.0000

> <Gold.PLP.ligand.torsion>
0.4386

> <Gold.PLP.Chemscore.Hbond>
1.5920

> <Gold.PLP.Chemscore.CHOScore>
0.0000

> <Gold.PLP.Chemscore.Metal>
0.0000

> <Gold.Chemscore.Hbonds>
donor molecule, donor type, donor heavy atom, donor atom, acceptor molecule, acceptor atom, score
      L1  H    14    39       P1  7957  0.59
      P1  H  7989  7998       L1    15  1.00

> <Gold.PLP.Chemscore.Internal.Correction>
0.6165

> <Gold.Rescore>
     Score         DG    S(hbond)    S(metal)    S(lipo)     H(rot)  DE(clash)    DE(int)     intcor
     16.76     -17.56       1.84        0.00      90.74       1.83       0.09       0.70       ----

> <Gold.Chemscore.Fitness>
16.7645

> <Gold.Chemscore.DG>
-17.5557

> <Gold.Chemscore.ZeroCoef>
-5.4800

> <Gold.Chemscore.Hbond>
1.8414

> <Gold.Chemscore.Metal>
0.0000

> <Gold.Chemscore.Lipo>
90.7355

> <Gold.Chemscore.Internal_Hbond>
0.0000

> <Gold.Chemscore.DEClash>
0.0907

> <Gold.Chemscore.DEInternal>
0.7006

> <Gold.Chemscore.Rot>
1.8323

> <Gold.Chemscore.Internal.Correction>
   9.000000E+99

> <Gold.Chemscore.Hbonds>
donor molecule, donor type, donor heavy atom, donor atom, acceptor molecule, acceptor atom, score
      L1  H    14    39       P1  7957  0.49
      P1  H  7989  7998       L1    15  0.99

> <Gold.Chemscore.Hbond.Weighted>
-6.1504

> <Gold.Chemscore.Metal.Weighted>
-0.0000

> <Gold.Chemscore.Lipo.Weighted>
-10.6161

> <Gold.Chemscore.Internal_Hbond.Weighted>
0.0000

> <Gold.Chemscore.DEClash.Weighted>
0.0907

> <Gold.Chemscore.DEInternal.Weighted>
0.7006

> <Gold.Chemscore.Rot.Weighted>
4.6907

> <Gold.Chemscore.Internal.Correction.Weighted>
   9.000000E+99

> <Gold.Protein.RotatedTorsions>
[ 6907 6896 6895 6894 ] final  -53.04 input  -60.11 | X-H torsion
[ 7974 7965 7964 7962 ] final   -8.74 input  175.53 | X-H torsion
[ 8008 7997 7996 7995 ] final -115.16 input   59.86 | X-H torsion
[ 10167 10162 10161 10158 ] final  -59.57 input  -65.29 | X-H torsion
[ 10718 10713 10712 10709 ] final   72.78 input   66.30 | X-H torsion
[ 10763 10752 10751 10750 ] final  100.83 input  -60.55 | X-H torsion
[ 11005 11000 10999 10996 ] final  151.81 input  -57.11 | X-H torsion

> <Gold.Protein.ActiveResidues>
 VAL166  LYS551  ARG553  GLY616  TRP617  ASP618  TYR619  PRO620  LYS621  CYS622 
 ASP623  PHE694  ASN695  SER759  ASP760  ASP761  ALA762  ILE779  LEU786  VAL792 
 PHE793  MET794  SER795  GLU796  ALA797  LYS798  CYS799  TRP800  GLU811  SER814 

> <Gold.Protein.RotatedAtoms>
  150.8462  134.7772  159.6972 H   0  0  0  0  0  0  0  0  0  0  0  0  # atno 6907 bound_to 6896
  152.4538  134.5332  159.9827 H   0  0  0  0  0  0  0  0  0  0  0  0  # atno 6908 bound_to 6896
  151.5462  133.3387  159.2980 H   0  0  0  0  0  0  0  0  0  0  0  0  # atno 6909 bound_to 6896
  146.2272  140.2513  142.8347 H   0  0  0  0  0  0  0  0  0  0  0  0  # atno 7974 bound_to 7965
  155.0476  140.0392  157.2532 H   0  0  0  0  0  0  0  0  0  0  0  0  # atno 8008 bound_to 7997
  154.7164  140.2703  155.6557 H   0  0  0  0  0  0  0  0  0  0  0  0  # atno 8009 bound_to 7997
  156.2804  140.2711  156.1822 H   0  0  0  0  0  0  0  0  0  0  0  0  # atno 8010 bound_to 7997
  140.6126  143.2392  151.5673 H   0  0  0  0  0  0  0  0  0  0  0  0  # atno 10167 bound_to 10162
  157.6517  130.9595  150.0976 H   0  0  0  0  0  0  0  0  0  0  0  0  # atno 10718 bound_to 10713
  153.3189  135.4065  155.1400 H   0  0  0  0  0  0  0  0  0  0  0  0  # atno 10763 bound_to 10752
  154.8595  135.3582  154.5623 H   0  0  0  0  0  0  0  0  0  0  0  0  # atno 10764 bound_to 10752
  153.6055  135.7069  153.5426 H   0  0  0  0  0  0  0  0  0  0  0  0  # atno 10765 bound_to 10752
  140.1252  134.8838  157.2128 H   0  0  0  0  0  0  0  0  0  0  0  0  # atno 11005 bound_to 11000
  144.9409  140.8077  143.5631 LP  0  0  0  0  0  0  0  0  0  0  0  0  # atno 17320 bound_to 7965
  145.2465  139.2050  143.4965 LP  0  0  0  0  0  0  0  0  0  0  0  0  # atno 17321 bound_to 7965
  139.5373  144.2745  152.1278 LP  0  0  0  0  0  0  0  0  0  0  0  0  # atno 17342 bound_to 10162
  140.1947  144.4717  150.6461 LP  0  0  0  0  0  0  0  0  0  0  0  0  # atno 17343 bound_to 10162
  156.1908  130.3654  149.8913 LP  0  0  0  0  0  0  0  0  0  0  0  0  # atno 17370 bound_to 10713
  156.6842  130.8870  151.3580 LP  0  0  0  0  0  0  0  0  0  0  0  0  # atno 17371 bound_to 10713
  140.2913  134.3237  155.7314 LP  0  0  0  0  0  0  0  0  0  0  0  0  # atno 17394 bound_to 11000
  141.2160  133.7536  156.9507 LP  0  0  0  0  0  0  0  0  0  0  0  0  # atno 17395 bound_to 11000

$$$$
