AV-unprocessed.smi:114|AV-procd|sdf|1116|dock10
  -GOLD-   2262018233D 1   1.00000     0.00000
 Structure written by MMmdl.
 32 34  0  0  0  0  0  0  0  0  1 V2000
  154.1336  140.6249  161.8937 N   0  0  0  0  0  0  0  0  0  0  0  0
  153.4984  139.8055  161.0441 C   0  0  0  0  0  0  0  0  0  0  0  0
  153.7508  138.4774  161.1179 N   0  0  0  0  0  0  0  0  0  0  0  0
  153.1389  137.6247  160.2860 C   0  0  0  0  0  0  0  0  0  0  0  0
  153.4523  136.3158  160.4298 F   0  0  0  0  0  0  0  0  0  0  0  0
  152.2537  137.9203  159.3274 N   0  0  0  0  0  0  0  0  0  0  0  0
  151.9974  139.2582  159.2538 C   0  0  0  0  0  0  0  0  0  0  0  0
  152.5767  140.2636  160.0715 C   0  0  0  0  0  0  0  0  0  0  0  0
  152.0835  141.5097  159.7086 N   0  0  0  0  0  0  0  0  0  0  0  0
  151.2594  141.2488  158.7283 C   0  0  0  0  0  0  0  0  0  0  0  0
  151.1514  139.9157  158.3887 N   0  0  0  0  0  0  0  0  0  0  0  0
  150.3136  139.2656  157.3293 C   0  0  1  0  0  0  0  0  0  0  0  0
  149.3610  140.1892  156.8928 O   0  0  0  0  0  0  0  0  0  0  0  0
  149.7447  140.7180  155.6278 C   0  0  2  0  0  0  0  0  0  0  0  0
  148.5134  141.2851  154.9056 C   0  0  0  0  0  0  0  0  0  0  0  0
  148.8329  141.5651  153.5595 O   0  0  0  0  0  0  0  0  0  0  0  0
  150.3394  139.4797  154.9578 C   0  0  1  0  0  0  0  0  0  0  0  0
  151.1170  139.7860  153.8152 O   0  0  0  0  0  0  0  0  0  0  0  0
  151.1414  138.8446  156.0910 C   0  0  1  0  0  0  0  0  0  0  0  0
  152.4876  139.2976  156.1171 O   0  0  0  0  0  0  0  0  0  0  0  0
  149.8235  138.4331  157.8358 H   0  0  0  0  0  0  0  0  0  0  0  0
  150.5176  141.4790  155.7536 H   0  0  0  0  0  0  0  0  0  0  0  0
  149.5354  138.8021  154.6661 H   0  0  0  0  0  0  0  0  0  0  0  0
  151.1460  137.7572  156.0103 H   0  0  0  0  0  0  0  0  0  0  0  0
  153.9606  141.6193  161.8545 H   0  0  0  0  0  0  0  0  0  0  0  0
  154.7829  140.2483  162.5691 H   0  0  0  0  0  0  0  0  0  0  0  0
  150.7075  142.0305  158.2270 H   0  0  0  0  0  0  0  0  0  0  0  0
  147.7071  140.5513  154.9044 H   0  0  0  0  0  0  0  0  0  0  0  0
  148.1373  142.1801  155.4021 H   0  0  0  0  0  0  0  0  0  0  0  0
  149.0582  140.7546  153.1292 H   0  0  0  0  0  0  0  0  0  0  0  0
  150.5341  139.9192  153.0833 H   0  0  0  0  0  0  0  0  0  0  0  0
  152.7289  139.5667  155.2438 H   0  0  0  0  0  0  0  0  0  0  0  0
  1  2  1  0  0  0  0
  1 25  1  0  0  0  0
  1 26  1  0  0  0  0
  2  8  1  0  0  0  0
  2  3  2  0  0  0  0
  3  4  1  0  0  0  0
  4  5  1  0  0  0  0
  4  6  2  0  0  0  0
  6  7  1  0  0  0  0
  7 11  1  0  0  0  0
  7  8  2  0  0  0  0
  8  9  1  0  0  0  0
  9 10  2  0  0  0  0
 10 11  1  0  0  0  0
 10 27  1  0  0  0  0
 11 12  1  0  0  0  0
 12 21  1  0  0  0  0
 12 19  1  0  0  0  0
 12 13  1  0  0  0  0
 13 14  1  0  0  0  0
 14 22  1  0  0  0  0
 14 15  1  0  0  0  0
 14 17  1  0  0  0  0
 15 16  1  0  0  0  0
 15 28  1  0  0  0  0
 15 29  1  0  0  0  0
 16 30  1  0  0  0  0
 17 23  1  0  0  0  0
 17 18  1  0  0  0  0
 17 19  1  0  0  0  0
 18 31  1  0  0  0  0
 19 24  1  0  0  0  0
 19 20  1  0  0  0  0
 20 32  1  0  0  0  0
M  END
> <s_m_source_file>
AV-unprocessed.smi

> <i_m_source_file_index>
114

> <i_lp_mmshare_version>
43012

> <i_f3d_flags>
0

> <s_epik_input>
RmMobjEpbmMoW05IMl0pYyhjMTIpbltjSF1uMltDQEBIXTNPW0NASF0oW0NIMl1bT0hdKVtDQEBIXShbT0hdKVtDQEBIXTNbT0hd

> <s_epik_cmdline>
J2VwaWtfcHl0aG9uJywgJy1waCcsICc3LjAnLCAnLXRuJywgJzgnLCAnLW1hJywgJzIwMCcsICctbWV0YWxfYmluZGluZycsICctaW1hZScsICc8aW5maWxlLm1hZT4nLCAnLW9tYWUnLCAnPG91dGZpbGUubWFlPic=

> <r_lp_tautomer_probability>
1

> <r_epik_Ionization_Penalty>
1.13199e-05

> <r_epik_Ionization_Penalty_Charging>
0

> <r_epik_Ionization_Penalty_Neutral>
1.13199e-05

> <r_epik_State_Penalty>
-0

> <r_epik_Charging_Adjusted_Penalty>
0

> <i_epik_Tot_Q>
0

> <i_epik_Tot_abs_Q>
0

> <r_epik_Metal_State_Penalty>
-0

> <b_epik_Metal_Only>
0

> <s_epik_Chemistry_Notes>
This compound contains an acetal/aminal-like group ( X-CH(R)-Y where X, Y are N, S, or O) that may be acid/base labile, releasing an aldehyde.

> <s_lp_Force_Field>
OPLS_2005

> <r_lp_Energy>
42.7446

> <b_lp_Chiralities_Consistent>
1

> <s_lp_Variant>
AV-unprocessed.smi:114-10

> <Gold.Version>
5.8.1

> <Gold.Id.Protein>
6NUR|6NUR_protein|mol2

> <Gold.PLP.Fitness>
37.9160

> <Gold.PLP.PLP>
-27.0251

> <Gold.PLP.part.hbond>
-5.9101

> <Gold.PLP.part.metal>
0.0000

> <Gold.PLP.part.buried>
1.6874

> <Gold.PLP.part.nonpolar>
-21.6739

> <Gold.PLP.part.repulsive>
0.0332

> <Gold.PLP.ligand.clash>
0.0000

> <Gold.PLP.ligand.torsion>
0.4186

> <Gold.PLP.Chemscore.Hbond>
3.8847

> <Gold.PLP.Chemscore.CHOScore>
0.0000

> <Gold.PLP.Chemscore.Metal>
0.0000

> <Gold.Chemscore.Hbonds>
donor molecule, donor type, donor heavy atom, donor atom, acceptor molecule, acceptor atom, score
      L1  H    16    30       P1  7957  0.51
      L1  H    18    31       P1  7957  0.76
      P1  H  7989  7998       L1    18  0.06
      P1  H  7997  8008       L1    20  0.12
      P1  H  8011  8017       L1    16  0.34

> <Gold.PLP.Chemscore.Internal.Correction>
0.0739

> <Gold.Rescore>
     Score         DG    S(hbond)    S(metal)    S(lipo)     H(rot)  DE(clash)    DE(int)     intcor
      4.18      -6.06       2.09        0.00      33.35       4.03       1.59       0.29       ----

> <Gold.Chemscore.Fitness>
4.1755

> <Gold.Chemscore.DG>
-6.0626

> <Gold.Chemscore.ZeroCoef>
-5.4800

> <Gold.Chemscore.Hbond>
2.0933

> <Gold.Chemscore.Metal>
0.0000

> <Gold.Chemscore.Lipo>
33.3505

> <Gold.Chemscore.Internal_Hbond>
0.0000

> <Gold.Chemscore.DEClash>
1.5935

> <Gold.Chemscore.DEInternal>
0.2936

> <Gold.Chemscore.Rot>
4.0277

> <Gold.Chemscore.Internal.Correction>
   9.000000E+99

> <Gold.Chemscore.Hbonds>
donor molecule, donor type, donor heavy atom, donor atom, acceptor molecule, acceptor atom, score
      L1  H    16    30       P1  7957  0.52
      L1  H    18    31       P1  7957  0.73
      P1  H  8011  8017       L1    16  0.01

> <Gold.Chemscore.Hbond.Weighted>
-6.9916

> <Gold.Chemscore.Metal.Weighted>
-0.0000

> <Gold.Chemscore.Lipo.Weighted>
-3.9020

> <Gold.Chemscore.Internal_Hbond.Weighted>
0.0000

> <Gold.Chemscore.DEClash.Weighted>
1.5935

> <Gold.Chemscore.DEInternal.Weighted>
0.2936

> <Gold.Chemscore.Rot.Weighted>
10.3110

> <Gold.Chemscore.Internal.Correction.Weighted>
   9.000000E+99

> <Gold.Protein.RotatedTorsions>
[ 6907 6896 6895 6894 ] final  159.19 input  -60.11 | X-H torsion
[ 7974 7965 7964 7962 ] final  112.33 input  175.53 | X-H torsion
[ 8008 7997 7996 7995 ] final  -59.55 input   59.86 | X-H torsion
[ 10167 10162 10161 10158 ] final  105.19 input  -65.29 | X-H torsion
[ 10718 10713 10712 10709 ] final   47.79 input   66.30 | X-H torsion
[ 10763 10752 10751 10750 ] final  164.60 input  -60.55 | X-H torsion
[ 11005 11000 10999 10996 ] final   94.52 input  -57.11 | X-H torsion

> <Gold.Protein.ActiveResidues>
 VAL166  LYS551  ARG553  GLY616  TRP617  ASP618  TYR619  PRO620  LYS621  CYS622 
 ASP623  PHE694  ASN695  SER759  ASP760  ASP761  ALA762  ILE779  LEU786  VAL792 
 PHE793  MET794  SER795  GLU796  ALA797  LYS798  CYS799  TRP800  GLU811  SER814 

> <Gold.Protein.RotatedAtoms>
  151.9892  133.3785  159.4137 H   0  0  0  0  0  0  0  0  0  0  0  0  # atno 6907 bound_to 6896
  150.6924  134.3955  159.5104 H   0  0  0  0  0  0  0  0  0  0  0  0  # atno 6908 bound_to 6896
  152.1685  134.8853  160.0587 H   0  0  0  0  0  0  0  0  0  0  0  0  # atno 6909 bound_to 6896
  145.2309  139.2820  143.4169 H   0  0  0  0  0  0  0  0  0  0  0  0  # atno 7974 bound_to 7965
  154.4357  140.1059  156.6133 H   0  0  0  0  0  0  0  0  0  0  0  0  # atno 8008 bound_to 7997
  155.5786  140.3490  155.4515 H   0  0  0  0  0  0  0  0  0  0  0  0  # atno 8009 bound_to 7997
  156.0336  140.1266  157.0221 H   0  0  0  0  0  0  0  0  0  0  0  0  # atno 8010 bound_to 7997
  139.7113  144.7077  151.1022 H   0  0  0  0  0  0  0  0  0  0  0  0  # atno 10167 bound_to 10162
  157.4620  130.8202  149.7897 H   0  0  0  0  0  0  0  0  0  0  0  0  # atno 10718 bound_to 10713
  154.3113  135.2757  155.2564 H   0  0  0  0  0  0  0  0  0  0  0  0  # atno 10763 bound_to 10752
  154.4958  135.5821  153.6497 H   0  0  0  0  0  0  0  0  0  0  0  0  # atno 10764 bound_to 10752
  152.9887  135.6145  154.3291 H   0  0  0  0  0  0  0  0  0  0  0  0  # atno 10765 bound_to 10752
  139.8798  134.8850  156.3877 H   0  0  0  0  0  0  0  0  0  0  0  0  # atno 11005 bound_to 11000
  146.3353  140.2643  142.8603 LP  0  0  0  0  0  0  0  0  0  0  0  0  # atno 17320 bound_to 7965
  144.9678  140.8338  143.5474 LP  0  0  0  0  0  0  0  0  0  0  0  0  # atno 17321 bound_to 7965
  140.7734  143.5289  150.9447 LP  0  0  0  0  0  0  0  0  0  0  0  0  # atno 17342 bound_to 10162
  139.8974  143.6878  152.3136 LP  0  0  0  0  0  0  0  0  0  0  0  0  # atno 17343 bound_to 10162
  156.0033  130.3868  150.2523 LP  0  0  0  0  0  0  0  0  0  0  0  0  # atno 17370 bound_to 10713
  157.0701  131.0114  151.3193 LP  0  0  0  0  0  0  0  0  0  0  0  0  # atno 17371 bound_to 10713
  140.9355  133.7550  156.0079 LP  0  0  0  0  0  0  0  0  0  0  0  0  # atno 17394 bound_to 11000
  140.8281  134.3210  157.5358 LP  0  0  0  0  0  0  0  0  0  0  0  0  # atno 17395 bound_to 11000

$$$$
