AV-unprocessed.smi:202|AV-procd|sdf|1581|dock4
  -GOLD-   2262019473D 1   1.00000     0.00000
 Structure written by MMmdl.
 49 52  0  0  0  0  0  0  0  0  1 V2000
  147.4139  134.6009  163.2083 C   0  0  0  0  0  0  0  0  0  0  0  0
  146.7793  135.1458  161.9206 C   0  0  0  0  0  0  0  0  0  0  0  0
  145.3608  135.6539  162.2482 C   0  0  0  0  0  0  0  0  0  0  0  0
  144.2264  134.6073  162.2062 C   0  0  0  0  0  0  0  0  0  0  0  0
  144.6389  133.5144  162.8472 F   0  0  0  0  0  0  0  0  0  0  0  0
  143.1312  135.0586  162.8160 F   0  0  0  0  0  0  0  0  0  0  0  0
  143.9214  134.2586  160.9572 F   0  0  0  0  0  0  0  0  0  0  0  0
  147.6589  136.1364  161.1386 C   0  0  0  0  0  0  0  0  0  0  0  0
  148.1074  135.0131  160.3314 N   0  0  0  0  0  0  0  0  0  0  0  0
  148.2814  135.3239  158.9552 C   0  0  0  0  0  0  0  0  0  0  0  0
  147.4860  134.7759  157.9958 N   0  0  0  0  0  0  0  0  0  0  0  0
  147.6574  135.0820  156.7064 C   0  0  0  0  0  0  0  0  0  0  0  0
  148.5494  135.9072  156.1575 N   0  0  0  0  0  0  0  0  0  0  0  0
  149.3473  136.4693  157.1087 C   0  0  0  0  0  0  0  0  0  0  0  0
  149.2799  136.2323  158.5109 C   0  0  0  0  0  0  0  0  0  0  0  0
  150.2517  136.9782  159.1649 N   0  0  0  0  0  0  0  0  0  0  0  0
  150.8586  137.6211  158.2047 C   0  0  0  0  0  0  0  0  0  0  0  0
  150.3747  137.3810  156.9380 N   0  0  0  0  0  0  0  0  0  0  0  0
  150.8631  137.9598  155.6948 C   0  0  0  0  0  0  0  0  0  0  0  0
  150.2334  139.3357  155.3438 C   0  0  0  0  0  0  0  0  0  0  0  0
  150.1304  139.4108  153.9335 O   0  0  0  0  0  0  0  0  0  0  0  0
  148.8072  139.4717  155.9135 C   0  0  0  0  0  0  0  0  0  0  0  0
  148.8244  139.7199  157.4329 C   0  0  0  0  0  0  0  0  0  0  0  0
  149.6066  140.8715  157.7291 O   0  0  0  0  0  0  0  0  0  0  0  0
  150.9692  140.7352  157.3408 C   0  0  0  0  0  0  0  0  0  0  0  0
  151.0641  140.5486  155.8160 C   0  0  0  0  0  0  0  0  0  0  0  0
  146.9175  134.2481  160.6789 C   0  0  0  0  0  0  0  0  0  0  0  0
  147.2621  135.2711  164.0551 H   0  0  0  0  0  0  0  0  0  0  0  0
  148.4908  134.4693  163.0972 H   0  0  0  0  0  0  0  0  0  0  0  0
  147.0115  133.6245  163.4760 H   0  0  0  0  0  0  0  0  0  0  0  0
  145.3569  136.1400  163.2246 H   0  0  0  0  0  0  0  0  0  0  0  0
  145.0996  136.4439  161.5427 H   0  0  0  0  0  0  0  0  0  0  0  0
  147.0887  136.8772  160.5750 H   0  0  0  0  0  0  0  0  0  0  0  0
  148.4542  136.5968  161.7252 H   0  0  0  0  0  0  0  0  0  0  0  0
  146.9822  134.5977  156.0165 H   0  0  0  0  0  0  0  0  0  0  0  0
  151.6797  138.2969  158.3956 H   0  0  0  0  0  0  0  0  0  0  0  0
  151.9469  138.0544  155.7736 H   0  0  0  0  0  0  0  0  0  0  0  0
  150.6868  137.2383  154.8975 H   0  0  0  0  0  0  0  0  0  0  0  0
  150.4740  138.6116  153.5644 H   0  0  0  0  0  0  0  0  0  0  0  0
  148.3002  140.3127  155.4377 H   0  0  0  0  0  0  0  0  0  0  0  0
  148.2131  138.5867  155.6822 H   0  0  0  0  0  0  0  0  0  0  0  0
  147.8093  139.8865  157.7934 H   0  0  0  0  0  0  0  0  0  0  0  0
  149.2092  138.8552  157.9747 H   0  0  0  0  0  0  0  0  0  0  0  0
  151.5089  141.6342  157.6394 H   0  0  0  0  0  0  0  0  0  0  0  0
  151.4275  139.9025  157.8744 H   0  0  0  0  0  0  0  0  0  0  0  0
  152.1060  140.4647  155.5067 H   0  0  0  0  0  0  0  0  0  0  0  0
  150.6860  141.4554  155.3414 H   0  0  0  0  0  0  0  0  0  0  0  0
  147.1243  133.2015  160.9041 H   0  0  0  0  0  0  0  0  0  0  0  0
  146.0872  134.3544  159.9797 H   0  0  0  0  0  0  0  0  0  0  0  0
  1  2  1  0  0  0  0
  1 28  1  0  0  0  0
  1 29  1  0  0  0  0
  1 30  1  0  0  0  0
  2 27  1  0  0  0  0
  2  3  1  0  0  0  0
  2  8  1  0  0  0  0
  3  4  1  0  0  0  0
  3 31  1  0  0  0  0
  3 32  1  0  0  0  0
  4  5  1  0  0  0  0
  4  6  1  0  0  0  0
  4  7  1  0  0  0  0
  8  9  1  0  0  0  0
  8 33  1  0  0  0  0
  8 34  1  0  0  0  0
  9 10  1  0  0  0  0
  9 27  1  0  0  0  0
 10 15  1  0  0  0  0
 10 11  2  0  0  0  0
 11 12  1  0  0  0  0
 12 13  2  0  0  0  0
 12 35  1  0  0  0  0
 13 14  1  0  0  0  0
 14 18  1  0  0  0  0
 14 15  2  0  0  0  0
 15 16  1  0  0  0  0
 16 17  2  0  0  0  0
 17 18  1  0  0  0  0
 17 36  1  0  0  0  0
 18 19  1  0  0  0  0
 19 20  1  0  0  0  0
 19 37  1  0  0  0  0
 19 38  1  0  0  0  0
 20 26  1  0  0  0  0
 20 21  1  0  0  0  0
 20 22  1  0  0  0  0
 21 39  1  0  0  0  0
 22 23  1  0  0  0  0
 22 40  1  0  0  0  0
 22 41  1  0  0  0  0
 23 24  1  0  0  0  0
 23 42  1  0  0  0  0
 23 43  1  0  0  0  0
 24 25  1  0  0  0  0
 25 26  1  0  0  0  0
 25 44  1  0  0  0  0
 25 45  1  0  0  0  0
 26 46  1  0  0  0  0
 26 47  1  0  0  0  0
 27 48  1  0  0  0  0
 27 49  1  0  0  0  0
M  END
> <s_m_source_file>
AV-unprocessed.smi

> <i_m_source_file_index>
202

> <i_lp_mmshare_version>
43012

> <i_f3d_flags>
0

> <s_epik_input>
RkMoRikoRilbQ0gyXUMxKFtDSDNdKVtDSDJdTihbQ0gyXTEpYyhuW2NIXW4yKWMoYzIzKW5bY0hdbjNbQ0gyXUM0KFtPSF0pW0NIMl1bQ0gyXU9bQ0gyXVtDSDJdNA==

> <s_epik_cmdline>
J2VwaWtfcHl0aG9uJywgJy1waCcsICc3LjAnLCAnLXRuJywgJzgnLCAnLW1hJywgJzIwMCcsICctbWV0YWxfYmluZGluZycsICctaW1hZScsICc8aW5maWxlLm1hZT4nLCAnLW9tYWUnLCAnPG91dGZpbGUubWFlPic=

> <r_lp_tautomer_probability>
1

> <r_epik_Ionization_Penalty>
0.00132063

> <r_epik_Ionization_Penalty_Charging>
0

> <r_epik_Ionization_Penalty_Neutral>
0.00132063

> <r_epik_State_Penalty>
0.000845314

> <r_epik_Charging_Adjusted_Penalty>
0.000845314

> <i_epik_Tot_Q>
0

> <i_epik_Tot_abs_Q>
0

> <r_epik_Metal_State_Penalty>
-0

> <b_epik_Metal_Only>
0

> <s_lp_Force_Field>
OPLS_2005

> <r_lp_Energy>
42.0456

> <b_lp_Chiralities_Consistent>
1

> <s_lp_Variant>
AV-unprocessed.smi:202-1

> <Gold.Version>
5.8.1

> <Gold.Id.Protein>
6NUR|6NUR_protein|mol2

> <Gold.PLP.Fitness>
38.4296

> <Gold.PLP.PLP>
-34.7094

> <Gold.PLP.part.hbond>
-2.9019

> <Gold.PLP.part.metal>
0.0000

> <Gold.PLP.part.buried>
-6.0400

> <Gold.PLP.part.nonpolar>
-26.8112

> <Gold.PLP.part.repulsive>
0.0469

> <Gold.PLP.ligand.clash>
0.0000

> <Gold.PLP.ligand.torsion>
1.7260

> <Gold.PLP.Chemscore.Hbond>
2.0000

> <Gold.PLP.Chemscore.CHOScore>
0.0000

> <Gold.PLP.Chemscore.Metal>
0.0000

> <Gold.Chemscore.Hbonds>
donor molecule, donor type, donor heavy atom, donor atom, acceptor molecule, acceptor atom, score
      P1  H  6896  6908       L1    16  0.28
      P1  H  7989  7998       L1    21  0.76

> <Gold.PLP.Chemscore.Internal.Correction>
1.1721

> <Gold.Rescore>
     Score         DG    S(hbond)    S(metal)    S(lipo)     H(rot)  DE(clash)    DE(int)     intcor
      9.35     -13.61       1.82        0.00      74.04       2.58       0.00       4.25       ----

> <Gold.Chemscore.Fitness>
9.3535

> <Gold.Chemscore.DG>
-13.6057

> <Gold.Chemscore.ZeroCoef>
-5.4800

> <Gold.Chemscore.Hbond>
1.8202

> <Gold.Chemscore.Metal>
0.0000

> <Gold.Chemscore.Lipo>
74.0396

> <Gold.Chemscore.Internal_Hbond>
0.0000

> <Gold.Chemscore.DEClash>
0.0013

> <Gold.Chemscore.DEInternal>
4.2509

> <Gold.Chemscore.Rot>
2.5845

> <Gold.Chemscore.Internal.Correction>
   9.000000E+99

> <Gold.Chemscore.Hbonds>
donor molecule, donor type, donor heavy atom, donor atom, acceptor molecule, acceptor atom, score
      P1  H  6896  6908       L1    16  0.01
      P1  H  7989  7998       L1    21  0.11

> <Gold.Chemscore.Hbond.Weighted>
-6.0794

> <Gold.Chemscore.Metal.Weighted>
-0.0000

> <Gold.Chemscore.Lipo.Weighted>
-8.6626

> <Gold.Chemscore.Internal_Hbond.Weighted>
0.0000

> <Gold.Chemscore.DEClash.Weighted>
0.0013

> <Gold.Chemscore.DEInternal.Weighted>
4.2509

> <Gold.Chemscore.Rot.Weighted>
6.6163

> <Gold.Chemscore.Internal.Correction.Weighted>
   9.000000E+99

> <Gold.Protein.RotatedTorsions>
[ 6907 6896 6895 6894 ] final -141.97 input  -60.11 | X-H torsion
[ 7974 7965 7964 7962 ] final   20.00 input  175.53 | X-H torsion
[ 8008 7997 7996 7995 ] final   77.66 input   59.86 | X-H torsion
[ 10167 10162 10161 10158 ] final    8.28 input  -65.29 | X-H torsion
[ 10718 10713 10712 10709 ] final    3.51 input   66.30 | X-H torsion
[ 10763 10752 10751 10750 ] final -133.57 input  -60.55 | X-H torsion
[ 11005 11000 10999 10996 ] final  -24.53 input  -57.11 | X-H torsion

> <Gold.Protein.ActiveResidues>
 VAL166  LYS551  ARG553  GLY616  TRP617  ASP618  TYR619  PRO620  LYS621  CYS622 
 ASP623  PHE694  ASN695  SER759  ASP760  ASP761  ALA762  ILE779  LEU786  VAL792 
 PHE793  MET794  SER795  GLU796  ALA797  LYS798  CYS799  TRP800  GLU811  SER814 

> <Gold.Protein.RotatedAtoms>
  151.0809  133.5391  159.2620 H   0  0  0  0  0  0  0  0  0  0  0  0  # atno 6907 bound_to 6896
  151.2295  135.0548  159.8992 H   0  0  0  0  0  0  0  0  0  0  0  0  # atno 6908 bound_to 6896
  152.5423  134.0600  159.8201 H   0  0  0  0  0  0  0  0  0  0  0  0  # atno 6909 bound_to 6896
  146.2128  139.8232  142.8675 H   0  0  0  0  0  0  0  0  0  0  0  0  # atno 7974 bound_to 7965
  155.8447  140.3461  155.5654 H   0  0  0  0  0  0  0  0  0  0  0  0  # atno 8008 bound_to 7997
  155.8103  140.0898  157.1927 H   0  0  0  0  0  0  0  0  0  0  0  0  # atno 8009 bound_to 7997
  154.4006  140.1449  156.3366 H   0  0  0  0  0  0  0  0  0  0  0  0  # atno 8010 bound_to 7997
  140.6323  143.7965  150.7312 H   0  0  0  0  0  0  0  0  0  0  0  0  # atno 10167 bound_to 10162
  156.8788  130.5646  149.5654 H   0  0  0  0  0  0  0  0  0  0  0  0  # atno 10718 bound_to 10713
  154.8731  135.3762  154.4594 H   0  0  0  0  0  0  0  0  0  0  0  0  # atno 10763 bound_to 10752
  153.5263  135.7028  153.5711 H   0  0  0  0  0  0  0  0  0  0  0  0  # atno 10764 bound_to 10752
  153.3935  135.3966  155.1905 H   0  0  0  0  0  0  0  0  0  0  0  0  # atno 10765 bound_to 10752
  140.8854  133.7625  156.0353 H   0  0  0  0  0  0  0  0  0  0  0  0  # atno 11005 bound_to 11000
  145.3075  141.0211  143.3573 LP  0  0  0  0  0  0  0  0  0  0  0  0  # atno 17320 bound_to 7965
  144.8960  139.4711  143.6655 LP  0  0  0  0  0  0  0  0  0  0  0  0  # atno 17321 bound_to 7965
  140.1578  143.4301  152.2087 LP  0  0  0  0  0  0  0  0  0  0  0  0  # atno 17342 bound_to 10162
  139.5536  144.7356  151.4360 LP  0  0  0  0  0  0  0  0  0  0  0  0  # atno 17343 bound_to 10162
  156.0688  130.5725  150.9341 LP  0  0  0  0  0  0  0  0  0  0  0  0  # atno 17370 bound_to 10713
  157.6152  131.0934  150.8723 LP  0  0  0  0  0  0  0  0  0  0  0  0  # atno 17371 bound_to 10713
  140.8411  134.3065  157.5313 LP  0  0  0  0  0  0  0  0  0  0  0  0  # atno 17394 bound_to 11000
  139.8724  134.9417  156.3803 LP  0  0  0  0  0  0  0  0  0  0  0  0  # atno 17395 bound_to 11000

$$$$
