AV-unprocessed.smi:40|AV-procd|sdf|382|dock1
  -GOLD-   2262016243D 1   1.00000     0.00000
 Structure written by MMmdl.
 47 48  0  0  0  0  0  0  0  0  1 V2000
  150.4252  145.2881  159.4842 C   0  0  0  0  0  0  0  0  0  0  0  0
  151.8830  145.2618  159.9622 C   0  0  0  0  0  0  0  0  0  0  0  0
  152.7259  144.1467  159.3223 C   0  0  0  0  0  0  0  0  0  0  0  0
  152.3322  142.7311  159.7817 C   0  0  0  0  0  0  0  0  0  0  0  0
  153.4384  141.6937  159.5465 C   0  0  0  0  0  0  0  0  0  0  0  0
  153.1975  140.5613  160.3641 O   0  0  0  0  0  0  0  0  0  0  0  0
  153.7276  139.3647  160.0510 C   0  0  0  0  0  0  0  0  0  0  0  0
  154.4350  139.1601  159.0649 O   0  0  0  0  0  0  0  0  0  0  0  0
  153.3921  138.3621  161.0478 N   0  0  0  0  0  0  0  0  0  0  0  0
  153.7430  137.0536  161.0749 C   0  0  0  0  0  0  0  0  0  0  0  0
  154.4565  136.4958  160.1089 N   0  0  0  0  0  0  0  0  0  0  0  0
  154.8433  135.1831  160.1040 C   0  0  0  0  0  0  0  0  0  0  0  0
  155.4753  134.7166  159.1573 O   0  0  0  0  0  0  0  0  0  0  0  0
  154.4766  134.3947  161.2193 N   0  0  0  0  0  0  0  0  0  0  0  0
  154.8723  132.9372  161.2455 C   0  0  1  0  0  0  0  0  0  0  0  0
  154.3411  132.3456  162.3960 O   0  0  0  0  0  0  0  0  0  0  0  0
  153.6284  131.1625  162.0521 C   0  0  1  0  0  0  0  0  0  0  0  0
  152.5097  130.9057  163.0687 C   0  0  0  0  0  0  0  0  0  0  0  0
  153.1350  131.4348  160.6322 C   0  0  2  0  0  0  0  0  0  0  0  0
  152.8111  130.2542  159.9228 O   0  0  0  0  0  0  0  0  0  0  0  0
  154.2972  132.2081  160.0196 C   0  0  2  0  0  0  0  0  0  0  0  0
  155.2683  131.3617  159.4317 O   0  0  0  0  0  0  0  0  0  0  0  0
  153.7331  134.9601  162.2450 C   0  0  0  0  0  0  0  0  0  0  0  0
  153.3594  136.2576  162.2208 C   0  0  0  0  0  0  0  0  0  0  0  0
  152.6451  136.7861  163.2297 F   0  0  0  0  0  0  0  0  0  0  0  0
  155.9619  132.9149  161.3060 H   0  0  0  0  0  0  0  0  0  0  0  0
  154.3361  130.3317  162.0501 H   0  0  0  0  0  0  0  0  0  0  0  0
  152.2567  132.0811  160.6660 H   0  0  0  0  0  0  0  0  0  0  0  0
  153.9590  132.9165  159.2619 H   0  0  0  0  0  0  0  0  0  0  0  0
  149.8616  146.0592  160.0097 H   0  0  0  0  0  0  0  0  0  0  0  0
  149.9327  144.3334  159.6701 H   0  0  0  0  0  0  0  0  0  0  0  0
  150.3551  145.5017  158.4179 H   0  0  0  0  0  0  0  0  0  0  0  0
  152.3496  146.2302  159.7788 H   0  0  0  0  0  0  0  0  0  0  0  0
  151.8894  145.1252  161.0440 H   0  0  0  0  0  0  0  0  0  0  0  0
  152.6103  144.2152  158.2402 H   0  0  0  0  0  0  0  0  0  0  0  0
  153.7833  144.3216  159.5232 H   0  0  0  0  0  0  0  0  0  0  0  0
  152.0945  142.7461  160.8452 H   0  0  0  0  0  0  0  0  0  0  0  0
  151.4236  142.4137  159.2685 H   0  0  0  0  0  0  0  0  0  0  0  0
  153.4697  141.3991  158.4967 H   0  0  0  0  0  0  0  0  0  0  0  0
  154.4087  142.1248  159.7966 H   0  0  0  0  0  0  0  0  0  0  0  0
  152.8004  138.6983  161.7935 H   0  0  0  0  0  0  0  0  0  0  0  0
  151.9458  130.0091  162.8104 H   0  0  0  0  0  0  0  0  0  0  0  0
  151.8106  131.7413  163.1077 H   0  0  0  0  0  0  0  0  0  0  0  0
  152.9180  130.7660  164.0697 H   0  0  0  0  0  0  0  0  0  0  0  0
  151.9690  129.9470  160.2220 H   0  0  0  0  0  0  0  0  0  0  0  0
  156.1217  131.7420  159.5733 H   0  0  0  0  0  0  0  0  0  0  0  0
  153.4338  134.3631  163.0937 H   0  0  0  0  0  0  0  0  0  0  0  0
  1  2  1  0  0  0  0
  1 30  1  0  0  0  0
  1 31  1  0  0  0  0
  1 32  1  0  0  0  0
  2  3  1  0  0  0  0
  2 33  1  0  0  0  0
  2 34  1  0  0  0  0
  3  4  1  0  0  0  0
  3 35  1  0  0  0  0
  3 36  1  0  0  0  0
  4  5  1  0  0  0  0
  4 37  1  0  0  0  0
  4 38  1  0  0  0  0
  5  6  1  0  0  0  0
  5 39  1  0  0  0  0
  5 40  1  0  0  0  0
  6  7  1  0  0  0  0
  7  8  2  0  0  0  0
  7  9  1  0  0  0  0
  9 10  1  0  0  0  0
  9 41  1  0  0  0  0
 10 24  1  0  0  0  0
 10 11  2  0  0  0  0
 11 12  1  0  0  0  0
 12 13  2  0  0  0  0
 12 14  1  0  0  0  0
 14 15  1  0  0  0  0
 14 23  1  0  0  0  0
 15 26  1  0  0  0  0
 15 21  1  0  0  0  0
 15 16  1  0  0  0  0
 16 17  1  0  0  0  0
 17 27  1  0  0  0  0
 17 18  1  0  0  0  0
 17 19  1  0  0  0  0
 18 42  1  0  0  0  0
 18 43  1  0  0  0  0
 18 44  1  0  0  0  0
 19 28  1  0  0  0  0
 19 20  1  0  0  0  0
 19 21  1  0  0  0  0
 20 45  1  0  0  0  0
 21 29  1  0  0  0  0
 21 22  1  0  0  0  0
 22 46  1  0  0  0  0
 23 24  2  0  0  0  0
 23 47  1  0  0  0  0
 24 25  1  0  0  0  0
M  END
> <s_m_source_file>
AV-unprocessed.smi

> <i_m_source_file_index>
40

> <i_lp_mmshare_version>
43012

> <i_f3d_flags>
0

> <s_epik_input>
W0NIM11bQ0gyXVtDSDJdW0NIMl1bQ0gyXU9DKD1PKVtOSF1jMW5jKD1PKW4oW2NIXWMxRilbQ0BASF0yT1tDQEhdKFtDSDNdKVtDQEBIXShbT0hdKVtDQEhdMltPSF0=

> <s_epik_cmdline>
J2VwaWtfcHl0aG9uJywgJy1waCcsICc3LjAnLCAnLXRuJywgJzgnLCAnLW1hJywgJzIwMCcsICctbWV0YWxfYmluZGluZycsICctaW1hZScsICc8aW5maWxlLm1hZT4nLCAnLW9tYWUnLCAnPG91dGZpbGUubWFlPic=

> <r_lp_tautomer_probability>
1

> <r_epik_Ionization_Penalty>
2.29506e-06

> <r_epik_Ionization_Penalty_Charging>
8.26867e-09

> <r_epik_Ionization_Penalty_Neutral>
2.2868e-06

> <r_epik_State_Penalty>
-0

> <r_epik_Charging_Adjusted_Penalty>
8.26867e-09

> <i_epik_Tot_Q>
0

> <i_epik_Tot_abs_Q>
0

> <r_epik_Metal_State_Penalty>
-0

> <b_epik_Metal_Only>
0

> <s_epik_Chemistry_Notes>
This compound has an ester and may undergo hydrolysis at high or low pH. This compound contains an acetal/aminal-like group ( X-CH(R)-Y where X, Y are N, S, or O) that may be acid/base labile, releasing an aldehyde.

> <s_lp_Force_Field>
OPLS_2005

> <r_lp_Energy>
35.629

> <b_lp_Chiralities_Consistent>
1

> <s_lp_Variant>
AV-unprocessed.smi:40-16

> <Gold.Version>
5.8.1

> <Gold.Id.Protein>
6NUR|6NUR_protein|mol2

> <Gold.PLP.Fitness>
40.7885

> <Gold.PLP.PLP>
-38.3084

> <Gold.PLP.part.hbond>
-1.0000

> <Gold.PLP.part.metal>
0.0000

> <Gold.PLP.part.buried>
-5.4031

> <Gold.PLP.part.nonpolar>
-32.1440

> <Gold.PLP.part.repulsive>
0.0198

> <Gold.PLP.ligand.clash>
0.0000

> <Gold.PLP.ligand.torsion>
0.3248

> <Gold.PLP.Chemscore.Hbond>
1.0000

> <Gold.PLP.Chemscore.CHOScore>
0.0000

> <Gold.PLP.Chemscore.Metal>
0.0000

> <Gold.Chemscore.Hbonds>
donor molecule, donor type, donor heavy atom, donor atom, acceptor molecule, acceptor atom, score
      P1  H  7997  8009       L1     8  0.98

> <Gold.PLP.Chemscore.Internal.Correction>
0.1298

> <Gold.Rescore>
     Score         DG    S(hbond)    S(metal)    S(lipo)     H(rot)  DE(clash)    DE(int)     intcor
      6.52      -9.42       1.00        0.00      86.07       3.70       0.09       2.81       ----

> <Gold.Chemscore.Fitness>
6.5216

> <Gold.Chemscore.DG>
-9.4175

> <Gold.Chemscore.ZeroCoef>
-5.4800

> <Gold.Chemscore.Hbond>
0.9966

> <Gold.Chemscore.Metal>
0.0000

> <Gold.Chemscore.Lipo>
86.0677

> <Gold.Chemscore.Internal_Hbond>
0.0000

> <Gold.Chemscore.DEClash>
0.0876

> <Gold.Chemscore.DEInternal>
2.8083

> <Gold.Chemscore.Rot>
3.6957

> <Gold.Chemscore.Internal.Correction>
   9.000000E+99

> <Gold.Chemscore.Hbonds>
donor molecule, donor type, donor heavy atom, donor atom, acceptor molecule, acceptor atom, score
      P1  H  7997  8009       L1     8  0.92

> <Gold.Chemscore.Hbond.Weighted>
-3.3286

> <Gold.Chemscore.Metal.Weighted>
-0.0000

> <Gold.Chemscore.Lipo.Weighted>
-10.0699

> <Gold.Chemscore.Internal_Hbond.Weighted>
0.0000

> <Gold.Chemscore.DEClash.Weighted>
0.0876

> <Gold.Chemscore.DEInternal.Weighted>
2.8083

> <Gold.Chemscore.Rot.Weighted>
9.4610

> <Gold.Chemscore.Internal.Correction.Weighted>
   9.000000E+99

> <Gold.Protein.RotatedTorsions>
[ 6907 6896 6895 6894 ] final   93.18 input  -60.11 | X-H torsion
[ 7974 7965 7964 7962 ] final  -55.60 input  175.53 | X-H torsion
[ 8008 7997 7996 7995 ] final  119.62 input   59.86 | X-H torsion
[ 10167 10162 10161 10158 ] final -174.05 input  -65.29 | X-H torsion
[ 10718 10713 10712 10709 ] final   49.30 input   66.30 | X-H torsion
[ 10763 10752 10751 10750 ] final   52.03 input  -60.55 | X-H torsion
[ 11005 11000 10999 10996 ] final  119.45 input  -57.11 | X-H torsion

> <Gold.Protein.ActiveResidues>
 VAL166  LYS551  ARG553  GLY616  TRP617  ASP618  TYR619  PRO620  LYS621  CYS622 
 ASP623  PHE694  ASN695  SER759  ASP760  ASP761  ALA762  ILE779  LEU786  VAL792 
 PHE793  MET794  SER795  GLU796  ALA797  LYS798  CYS799  TRP800  GLU811  SER814 

> <Gold.Protein.RotatedAtoms>
  152.5453  134.1388  159.8469 H   0  0  0  0  0  0  0  0  0  0  0  0  # atno 6907 bound_to 6896
  151.1426  133.4954  159.2604 H   0  0  0  0  0  0  0  0  0  0  0  0  # atno 6908 bound_to 6896
  151.1557  135.0259  159.8743 H   0  0  0  0  0  0  0  0  0  0  0  0  # atno 6909 bound_to 6896
  145.8723  140.8207  142.9882 H   0  0  0  0  0  0  0  0  0  0  0  0  # atno 7974 bound_to 7965
  156.2604  140.2849  156.1021 H   0  0  0  0  0  0  0  0  0  0  0  0  # atno 8008 bound_to 7997
  155.1349  140.0394  157.2801 H   0  0  0  0  0  0  0  0  0  0  0  0  # atno 8009 bound_to 7997
  154.6572  140.2558  155.7154 H   0  0  0  0  0  0  0  0  0  0  0  0  # atno 8010 bound_to 7997
  139.5655  144.1766  152.1305 H   0  0  0  0  0  0  0  0  0  0  0  0  # atno 10167 bound_to 10162
  157.4773  130.8293  149.8054 H   0  0  0  0  0  0  0  0  0  0  0  0  # atno 10718 bound_to 10713
  152.9787  135.5826  154.4513 H   0  0  0  0  0  0  0  0  0  0  0  0  # atno 10763 bound_to 10752
  154.4101  135.2770  155.2044 H   0  0  0  0  0  0  0  0  0  0  0  0  # atno 10764 bound_to 10752
  154.3837  135.6141  153.5859 H   0  0  0  0  0  0  0  0  0  0  0  0  # atno 10765 bound_to 10752
  139.9147  134.9628  156.7657 H   0  0  0  0  0  0  0  0  0  0  0  0  # atno 11005 bound_to 11000
  144.6726  140.1257  143.7447 LP  0  0  0  0  0  0  0  0  0  0  0  0  # atno 17320 bound_to 7965
  145.9122  139.2494  143.1431 LP  0  0  0  0  0  0  0  0  0  0  0  0  # atno 17321 bound_to 7965
  140.1289  144.5307  150.6815 LP  0  0  0  0  0  0  0  0  0  0  0  0  # atno 17342 bound_to 10162
  140.6938  143.2391  151.5058 LP  0  0  0  0  0  0  0  0  0  0  0  0  # atno 17343 bound_to 10162
  156.0103  130.3836  150.2286 LP  0  0  0  0  0  0  0  0  0  0  0  0  # atno 17370 bound_to 10713
  157.0471  131.0052  151.3265 LP  0  0  0  0  0  0  0  0  0  0  0  0  # atno 17371 bound_to 10713
  140.6661  133.9601  155.7831 LP  0  0  0  0  0  0  0  0  0  0  0  0  # atno 17394 bound_to 11000
  141.0610  134.0346  157.3659 LP  0  0  0  0  0  0  0  0  0  0  0  0  # atno 17395 bound_to 11000

$$$$
