AV-unprocessed.smi:1410|AV-procd|sdf|5736|dock9
  -GOLD-   22720 5373D 1   1.00000     0.00000
 Structure written by MMmdl.
 39 40  0  0  0  0  0  0  0  0  3 V2000
  142.3058  140.7769  154.9966 N   0  5  0  0  0  0  0  0  0  0  0  0
  143.0216  141.4753  155.8986 C   0  0  0  0  0  0  0  0  0  0  0  0
  142.9687  141.4048  157.1245 O   0  0  0  0  0  0  0  0  0  0  0  0
  143.9791  142.4730  155.2391 C   0  0  0  0  0  0  0  0  0  0  0  0
  145.1690  141.7685  154.6984 N   0  3  2  0  0  0  0  0  0  0  0  0
  145.9378  141.0331  155.7393 C   0  0  0  0  0  0  0  0  0  0  0  0
  147.0878  140.2242  155.1147 C   0  0  0  0  0  0  0  0  0  0  0  0
  148.0283  141.1129  154.2779 C   0  0  2  0  0  0  0  0  0  0  0  0
  148.8062  142.0215  155.1198 N   0  0  0  0  0  0  0  0  0  0  0  0
  149.7315  141.6483  156.0159 C   0  0  0  0  0  0  0  0  0  0  0  0
  150.0389  140.4746  156.2218 O   0  0  0  0  0  0  0  0  0  0  0  0
  150.2434  142.7144  156.6554 N   0  0  0  0  0  0  0  0  0  0  0  0
  151.2173  142.7488  157.6901 C   0  0  0  0  0  0  0  0  0  0  0  0
  151.5057  141.5406  158.3579 C   0  0  0  0  0  0  0  0  0  0  0  0
  152.4579  141.5490  159.3967 C   0  0  0  0  0  0  0  0  0  0  0  0
  153.1085  142.6614  159.7973 N   0  0  0  0  0  0  0  0  0  0  0  0
  152.8208  143.8197  159.1668 C   0  0  0  0  0  0  0  0  0  0  0  0
  151.8864  143.9214  158.1166 C   0  0  0  0  0  0  0  0  0  0  0  0
  147.2034  141.9055  153.2498 C   0  0  0  0  0  0  0  0  0  0  0  0
  146.0421  142.6737  153.9080 C   0  0  0  0  0  0  0  0  0  0  0  0
  142.6899  140.6540  154.0520 H   0  0  0  0  0  0  0  0  0  0  0  0
  143.4271  142.9475  154.4267 H   0  0  0  0  0  0  0  0  0  0  0  0
  144.2833  143.2758  155.9146 H   0  0  0  0  0  0  0  0  0  0  0  0
  146.3266  141.7388  156.4748 H   0  0  0  0  0  0  0  0  0  0  0  0
  145.2833  140.3492  156.2798 H   0  0  0  0  0  0  0  0  0  0  0  0
  147.6431  139.7015  155.8942 H   0  0  0  0  0  0  0  0  0  0  0  0
  146.6677  139.4469  154.4750 H   0  0  0  0  0  0  0  0  0  0  0  0
  148.7269  140.4748  153.7335 H   0  0  0  0  0  0  0  0  0  0  0  0
  148.6192  143.0082  155.0173 H   0  0  0  0  0  0  0  0  0  0  0  0
  149.8366  143.6076  156.4202 H   0  0  0  0  0  0  0  0  0  0  0  0
  151.0141  140.6200  158.0792 H   0  0  0  0  0  0  0  0  0  0  0  0
  152.7021  140.6367  159.9207 H   0  0  0  0  0  0  0  0  0  0  0  0
  153.3481  144.6962  159.5133 H   0  0  0  0  0  0  0  0  0  0  0  0
  151.6984  144.8874  157.6750 H   0  0  0  0  0  0  0  0  0  0  0  0
  147.8454  142.5948  152.6996 H   0  0  0  0  0  0  0  0  0  0  0  0
  146.7973  141.2149  152.5094 H   0  0  0  0  0  0  0  0  0  0  0  0
  145.4541  143.1619  153.1298 H   0  0  0  0  0  0  0  0  0  0  0  0
  146.4261  143.4639  154.5549 H   0  0  0  0  0  0  0  0  0  0  0  0
  144.8120  141.0781  154.0534 H   0  0  0  0  0  0  0  0  0  0  0  0
  1  2  1  0  0  0  0
  1 21  1  0  0  0  0
  2  3  2  0  0  0  0
  2  4  1  0  0  0  0
  4  5  1  0  0  0  0
  4 22  1  0  0  0  0
  4 23  1  0  0  0  0
  5 20  1  0  0  0  0
  5  6  1  0  0  0  0
  5 39  1  0  0  0  0
  6  7  1  0  0  0  0
  6 24  1  0  0  0  0
  6 25  1  0  0  0  0
  7  8  1  0  0  0  0
  7 26  1  0  0  0  0
  7 27  1  0  0  0  0
  8  9  1  0  0  0  0
  8 19  1  0  0  0  0
  8 28  1  0  0  0  0
  9 10  1  0  0  0  0
  9 29  1  0  0  0  0
 10 11  2  0  0  0  0
 10 12  1  0  0  0  0
 12 13  1  0  0  0  0
 12 30  1  0  0  0  0
 13 18  1  0  0  0  0
 13 14  2  0  0  0  0
 14 15  1  0  0  0  0
 14 31  1  0  0  0  0
 15 16  2  0  0  0  0
 15 32  1  0  0  0  0
 16 17  1  0  0  0  0
 17 18  2  0  0  0  0
 17 33  1  0  0  0  0
 18 34  1  0  0  0  0
 19 20  1  0  0  0  0
 19 35  1  0  0  0  0
 19 36  1  0  0  0  0
 20 37  1  0  0  0  0
 20 38  1  0  0  0  0
M  CHG  1   1  -1
M  CHG  1   5   1
M  END
> <s_m_source_file>
AV-unprocessed.smi

> <i_m_source_file_index>
1410

> <i_lp_mmshare_version>
43012

> <i_f3d_flags>
0

> <s_epik_input>
W05IMl1DKD1PKVtDSDJdTjFbQ0gyXVtDSDJdW0NIXShbQ0gyXVtDSDJdMSlbTkhdQyg9TylbTkhdYzJbY0hdW2NIXW5bY0hdW2NIXTI=

> <s_epik_cmdline>
J2VwaWtfcHl0aG9uJywgJy1waCcsICc3LjAnLCAnLXRuJywgJzgnLCAnLW1hJywgJzIwMCcsICctbWV0YWxfYmluZGluZycsICctaW1hZScsICc8aW5maWxlLm1hZT4nLCAnLW9tYWUnLCAnPG91dGZpbGUubWFlPic=

> <r_epik_Ionization_Penalty>
5.8279

> <r_epik_Ionization_Penalty_Charging>
5.7288

> <r_epik_Ionization_Penalty_Neutral>
0.0990993

> <r_epik_State_Penalty>
6.63321

> <r_epik_Charging_Adjusted_Penalty>
12.362

> <i_epik_Tot_Q>
0

> <i_epik_Tot_abs_Q>
2

> <r_epik_Metal_State_Penalty>
2.69435

> <b_epik_Metal_Only>
1

> <s_lp_Force_Field>
OPLS_2005

> <r_lp_Energy>
12.1382

> <b_lp_Chiralities_Consistent>
1

> <s_lp_Variant>
AV-unprocessed.smi:1410-8

> <Gold.Version>
5.8.1

> <Gold.Id.Protein>
6NUR|6NUR_protein|mol2

> <Gold.PLP.Fitness>
47.2764

> <Gold.PLP.PLP>
-32.9522

> <Gold.PLP.part.hbond>
-4.0000

> <Gold.PLP.part.metal>
0.0000

> <Gold.PLP.part.buried>
-6.4124

> <Gold.PLP.part.nonpolar>
-23.4900

> <Gold.PLP.part.repulsive>
0.2942

> <Gold.PLP.ligand.clash>
0.0000

> <Gold.PLP.ligand.torsion>
0.3100

> <Gold.PLP.Chemscore.Hbond>
4.9745

> <Gold.PLP.Chemscore.CHOScore>
0.0000

> <Gold.PLP.Chemscore.Metal>
0.0000

> <Gold.Chemscore.Hbonds>
donor molecule, donor type, donor heavy atom, donor atom, acceptor molecule, acceptor atom, score
      L1  H     1    21       P1 10175  1.00
      L1  H     5    39       P1 10175  2.00
      L1  H     9    29       P1  8028  0.98
      L1  H    12    30       P1  8028  1.00

> <Gold.PLP.Chemscore.Internal.Correction>
0.0207

> <Gold.Rescore>
     Score         DG    S(hbond)    S(metal)    S(lipo)     H(rot)  DE(clash)    DE(int)     intcor
     19.63     -22.16       3.68        0.00      79.90       1.94       0.99       1.54       ----

> <Gold.Chemscore.Fitness>
19.6341

> <Gold.Chemscore.DG>
-22.1645

> <Gold.Chemscore.ZeroCoef>
-5.4800

> <Gold.Chemscore.Hbond>
3.6806

> <Gold.Chemscore.Metal>
0.0000

> <Gold.Chemscore.Lipo>
79.8958

> <Gold.Chemscore.Internal_Hbond>
0.0000

> <Gold.Chemscore.DEClash>
0.9892

> <Gold.Chemscore.DEInternal>
1.5412

> <Gold.Chemscore.Rot>
1.9361

> <Gold.Chemscore.Internal.Correction>
   9.000000E+99

> <Gold.Chemscore.Hbonds>
donor molecule, donor type, donor heavy atom, donor atom, acceptor molecule, acceptor atom, score
      L1  H     1    21       P1 10175  0.65
      L1  H     5    39       P1 10175  0.75
      L1  H     9    29       P1  8028  0.93
      L1  H    12    30       P1  8028  0.99

> <Gold.Chemscore.Hbond.Weighted>
-12.2930

> <Gold.Chemscore.Metal.Weighted>
-0.0000

> <Gold.Chemscore.Lipo.Weighted>
-9.3478

> <Gold.Chemscore.Internal_Hbond.Weighted>
0.0000

> <Gold.Chemscore.DEClash.Weighted>
0.9892

> <Gold.Chemscore.DEInternal.Weighted>
1.5412

> <Gold.Chemscore.Rot.Weighted>
4.9563

> <Gold.Chemscore.Internal.Correction.Weighted>
   9.000000E+99

> <Gold.Protein.RotatedTorsions>
[ 6907 6896 6895 6894 ] final  165.52 input  -60.11 | X-H torsion
[ 7974 7965 7964 7962 ] final  -46.98 input  175.53 | X-H torsion
[ 8008 7997 7996 7995 ] final  176.88 input   59.86 | X-H torsion
[ 10167 10162 10161 10158 ] final  112.06 input  -65.29 | X-H torsion
[ 10718 10713 10712 10709 ] final   -5.57 input   66.30 | X-H torsion
[ 10763 10752 10751 10750 ] final  -53.96 input  -60.55 | X-H torsion
[ 11005 11000 10999 10996 ] final -171.08 input  -57.11 | X-H torsion

> <Gold.Protein.ActiveResidues>
 VAL166  LYS551  ARG553  GLY616  TRP617  ASP618  TYR619  PRO620  LYS621  CYS622 
 ASP623  PHE694  ASN695  SER759  ASP760  ASP761  ALA762  ILE779  LEU786  VAL792 
 PHE793  MET794  SER795  GLU796  ALA797  LYS798  CYS799  TRP800  GLU811  SER814 

> <Gold.Protein.RotatedAtoms>
  151.8932  133.3521  159.3805 H   0  0  0  0  0  0  0  0  0  0  0  0  # atno 6907 bound_to 6896
  150.7098  134.4903  159.5521 H   0  0  0  0  0  0  0  0  0  0  0  0  # atno 6908 bound_to 6896
  152.2477  134.8165  160.0502 H   0  0  0  0  0  0  0  0  0  0  0  0  # atno 6909 bound_to 6896
  145.9663  140.7428  142.9432 H   0  0  0  0  0  0  0  0  0  0  0  0  # atno 7974 bound_to 7965
  156.0717  140.1372  156.9820 H   0  0  0  0  0  0  0  0  0  0  0  0  # atno 8008 bound_to 7997
  154.4535  140.0970  156.6741 H   0  0  0  0  0  0  0  0  0  0  0  0  # atno 8009 bound_to 7997
  155.5217  140.3456  155.4410 H   0  0  0  0  0  0  0  0  0  0  0  0  # atno 8010 bound_to 7997
  139.6564  144.7129  151.1949 H   0  0  0  0  0  0  0  0  0  0  0  0  # atno 10167 bound_to 10162
  156.7447  130.5220  149.5816 H   0  0  0  0  0  0  0  0  0  0  0  0  # atno 10718 bound_to 10713
  154.1672  135.6465  153.5000 H   0  0  0  0  0  0  0  0  0  0  0  0  # atno 10763 bound_to 10752
  153.0094  135.5374  154.6650 H   0  0  0  0  0  0  0  0  0  0  0  0  # atno 10764 bound_to 10752
  154.5980  135.2941  155.0538 H   0  0  0  0  0  0  0  0  0  0  0  0  # atno 10765 bound_to 10752
  140.5122  134.5790  157.5022 H   0  0  0  0  0  0  0  0  0  0  0  0  # atno 11005 bound_to 11000
  144.6826  140.2675  143.7310 LP  0  0  0  0  0  0  0  0  0  0  0  0  # atno 17320 bound_to 7965
  145.7969  139.1949  143.2070 LP  0  0  0  0  0  0  0  0  0  0  0  0  # atno 17321 bound_to 7965
  140.7561  143.6065  150.8647 LP  0  0  0  0  0  0  0  0  0  0  0  0  # atno 17342 bound_to 10162
  139.9719  143.6048  152.2971 LP  0  0  0  0  0  0  0  0  0  0  0  0  # atno 17343 bound_to 10162
  156.1441  130.6265  151.0508 LP  0  0  0  0  0  0  0  0  0  0  0  0  # atno 17370 bound_to 10713
  157.6803  131.0839  150.7386 LP  0  0  0  0  0  0  0  0  0  0  0  0  # atno 17371 bound_to 10713
  139.9652  134.7385  156.0153 LP  0  0  0  0  0  0  0  0  0  0  0  0  # atno 17394 bound_to 11000
  141.1379  133.6571  156.3646 LP  0  0  0  0  0  0  0  0  0  0  0  0  # atno 17395 bound_to 11000

$$$$
