AV-unprocessed.smi:2027|AV-procd|sdf|8212|dock4
  -GOLD-   2272010473D 1   1.00000     0.00000
 Structure written by MMmdl.
 50 52  0  0  0  0  0  0  0  0  2 V2000
  153.1559  142.3580  160.0871 C   0  0  0  0  0  0  0  0  0  0  0  0
  152.3518  142.0037  158.8484 C   0  0  0  0  0  0  0  0  0  0  0  0
  152.5139  140.7263  158.2662 C   0  0  0  0  0  0  0  0  0  0  0  0
  151.7825  140.3563  157.1168 C   0  0  0  0  0  0  0  0  0  0  0  0
  151.7820  139.1768  156.3922 N   0  0  0  0  0  0  0  0  0  0  0  0
  150.8919  139.4457  155.4417 C   0  0  0  0  0  0  0  0  0  0  0  0
  150.3200  140.6653  155.4601 N   0  0  0  0  0  0  0  0  0  0  0  0
  149.3291  141.1838  154.5342 C   0  0  0  0  0  0  0  0  0  0  0  0
  147.9123  141.2082  155.1387 C   0  0  1  0  0  0  0  0  0  0  0  0
  147.8143  142.2775  156.0600 O   0  0  0  0  0  0  0  0  0  0  0  0
  146.8325  141.3921  154.0540 C   0  0  0  0  0  0  0  0  0  0  0  0
  146.4873  140.1133  153.3816 N   0  3  1  0  0  0  0  0  0  0  0  0
  147.1946  139.9570  152.0883 C   0  0  0  0  0  0  0  0  0  0  0  0
  146.6421  138.9299  154.2670 C   0  0  0  0  0  0  0  0  0  0  0  0
  146.0896  137.6875  153.6233 C   0  0  0  0  0  0  0  0  0  0  0  0
  146.2742  136.3374  154.0380 C   0  0  0  0  0  0  0  0  0  0  0  0
  145.6477  135.4707  153.2600 N   0  0  0  0  0  0  0  0  0  0  0  0
  145.0511  136.2316  152.3198 N   0  0  0  0  0  0  0  0  0  0  0  0
  144.2612  135.5997  151.2847 C   0  0  0  0  0  0  0  0  0  0  0  0
  145.3024  137.5729  152.5117 C   0  0  0  0  0  0  0  0  0  0  0  0
  150.8776  141.3072  156.5605 C   0  0  0  0  0  0  0  0  0  0  0  0
  150.7078  142.5815  157.1297 C   0  0  0  0  0  0  0  0  0  0  0  0
  151.4464  142.9347  158.2785 C   0  0  0  0  0  0  0  0  0  0  0  0
  151.2561  144.3129  158.8870 C   0  0  0  0  0  0  0  0  0  0  0  0
  153.7979  141.5322  160.3951 H   0  0  0  0  0  0  0  0  0  0  0  0
  152.4920  142.5926  160.9194 H   0  0  0  0  0  0  0  0  0  0  0  0
  153.7920  143.2226  159.8963 H   0  0  0  0  0  0  0  0  0  0  0  0
  153.2028  140.0166  158.7005 H   0  0  0  0  0  0  0  0  0  0  0  0
  150.6441  138.7148  154.6856 H   0  0  0  0  0  0  0  0  0  0  0  0
  149.6303  142.1858  154.2245 H   0  0  0  0  0  0  0  0  0  0  0  0
  149.3458  140.5621  153.6383 H   0  0  0  0  0  0  0  0  0  0  0  0
  147.7499  140.2789  155.6842 H   0  0  0  0  0  0  0  0  0  0  0  0
  148.3087  143.0104  155.7238 H   0  0  0  0  0  0  0  0  0  0  0  0
  145.9450  141.8217  154.5223 H   0  0  0  0  0  0  0  0  0  0  0  0
  147.1567  142.1157  153.3042 H   0  0  0  0  0  0  0  0  0  0  0  0
  148.2719  139.8781  152.2396 H   0  0  0  0  0  0  0  0  0  0  0  0
  147.0026  140.8102  151.4368 H   0  0  0  0  0  0  0  0  0  0  0  0
  146.8581  139.0673  151.5561 H   0  0  0  0  0  0  0  0  0  0  0  0
  147.6953  138.8103  154.5258 H   0  0  0  0  0  0  0  0  0  0  0  0
  146.1292  139.1038  155.2123 H   0  0  0  0  0  0  0  0  0  0  0  0
  146.8376  135.9655  154.8812 H   0  0  0  0  0  0  0  0  0  0  0  0
  144.0060  136.3264  150.5129 H   0  0  0  0  0  0  0  0  0  0  0  0
  143.3420  135.2017  151.7158 H   0  0  0  0  0  0  0  0  0  0  0  0
  144.8263  134.7852  150.8299 H   0  0  0  0  0  0  0  0  0  0  0  0
  144.9009  138.3275  151.8512 H   0  0  0  0  0  0  0  0  0  0  0  0
  150.0140  143.2806  156.6868 H   0  0  0  0  0  0  0  0  0  0  0  0
  150.5243  144.8972  158.3286 H   0  0  0  0  0  0  0  0  0  0  0  0
  152.1964  144.8647  158.8852 H   0  0  0  0  0  0  0  0  0  0  0  0
  150.9040  144.2314  159.9156 H   0  0  0  0  0  0  0  0  0  0  0  0
  145.5047  140.1843  153.1565 H   0  0  0  0  0  0  0  0  0  0  0  0
  1  2  1  0  0  0  0
  1 25  1  0  0  0  0
  1 26  1  0  0  0  0
  1 27  1  0  0  0  0
  2 23  1  0  0  0  0
  2  3  2  0  0  0  0
  3  4  1  0  0  0  0
  3 28  1  0  0  0  0
  4 21  2  0  0  0  0
  4  5  1  0  0  0  0
  5  6  2  0  0  0  0
  6  7  1  0  0  0  0
  6 29  1  0  0  0  0
  7  8  1  0  0  0  0
  7 21  1  0  0  0  0
  8  9  1  0  0  0  0
  8 30  1  0  0  0  0
  8 31  1  0  0  0  0
  9 10  1  0  0  0  0
  9 11  1  0  0  0  0
  9 32  1  0  0  0  0
 10 33  1  0  0  0  0
 11 12  1  0  0  0  0
 11 34  1  0  0  0  0
 11 35  1  0  0  0  0
 12 13  1  0  0  0  0
 12 14  1  0  0  0  0
 12 50  1  0  0  0  0
 13 36  1  0  0  0  0
 13 37  1  0  0  0  0
 13 38  1  0  0  0  0
 14 15  1  0  0  0  0
 14 39  1  0  0  0  0
 14 40  1  0  0  0  0
 15 20  2  0  0  0  0
 15 16  1  0  0  0  0
 16 17  2  0  0  0  0
 16 41  1  0  0  0  0
 17 18  1  0  0  0  0
 18 19  1  0  0  0  0
 18 20  1  0  0  0  0
 19 42  1  0  0  0  0
 19 43  1  0  0  0  0
 19 44  1  0  0  0  0
 20 45  1  0  0  0  0
 21 22  1  0  0  0  0
 22 23  2  0  0  0  0
 22 46  1  0  0  0  0
 23 24  1  0  0  0  0
 24 47  1  0  0  0  0
 24 48  1  0  0  0  0
 24 49  1  0  0  0  0
M  CHG  1  12   1
M  END
> <s_m_source_file>
AV-unprocessed.smi

> <i_m_source_file_index>
2027

> <i_lp_mmshare_version>
43012

> <i_f3d_flags>
0

> <s_epik_input>
W0NIM11jKFtjSF0xKWMoW0NIM10pW2NIXWMoYzEyKW4oW2NIXW4yKVtDSDJdW0NASF0oW09IXSlbQ0gyXU4oW0NIM10pW0NIMl1jM1tjSF1ubihbQ0gzXSlbY0hdMw==

> <s_epik_cmdline>
J2VwaWtfcHl0aG9uJywgJy1waCcsICc3LjAnLCAnLXRuJywgJzgnLCAnLW1hJywgJzIwMCcsICctbWV0YWxfYmluZGluZycsICctaW1hZScsICc8aW5maWxlLm1hZT4nLCAnLW9tYWUnLCAnPG91dGZpbGUubWFlPic=

> <r_lp_tautomer_probability>
1

> <r_epik_Ionization_Penalty>
0.646578

> <r_epik_Ionization_Penalty_Charging>
0.559419

> <r_epik_Ionization_Penalty_Neutral>
0.087159

> <r_epik_State_Penalty>
0.661677

> <r_epik_Charging_Adjusted_Penalty>
1.2211

> <i_epik_Tot_Q>
1

> <i_epik_Tot_abs_Q>
1

> <r_epik_Metal_State_Penalty>
0.649174

> <b_epik_Metal_Only>
0

> <s_lp_Force_Field>
OPLS_2005

> <r_lp_Energy>
9.42611

> <b_lp_Chiralities_Consistent>
1

> <s_lp_Variant>
AV-unprocessed.smi:2027-4

> <Gold.Version>
5.8.1

> <Gold.Id.Protein>
6NUR|6NUR_protein|mol2

> <Gold.PLP.Fitness>
54.4045

> <Gold.PLP.PLP>
-41.4976

> <Gold.PLP.part.hbond>
-2.0000

> <Gold.PLP.part.metal>
0.0000

> <Gold.PLP.part.buried>
0.7466

> <Gold.PLP.part.nonpolar>
-40.7538

> <Gold.PLP.part.repulsive>
0.0717

> <Gold.PLP.ligand.clash>
0.0000

> <Gold.PLP.ligand.torsion>
1.1569

> <Gold.PLP.Chemscore.Hbond>
3.0000

> <Gold.PLP.Chemscore.CHOScore>
1.9772

> <Gold.PLP.Chemscore.Metal>
0.0000

> <Gold.Chemscore.Hbonds>
donor molecule, donor type, donor heavy atom, donor atom, acceptor molecule, acceptor atom, score
      L1  H    10    33       P1  8028  1.00
      L1  H    12    50       P1 10175  2.00
      L1  C    20    45       P1 10171  1.00
      L1  C    20    45       P1 10175  0.98

> <Gold.PLP.Chemscore.Internal.Correction>
0.2890

> <Gold.Rescore>
     Score         DG    S(hbond)    S(metal)    S(lipo)     H(rot)  DE(clash)    DE(int)     intcor
     17.09     -19.95       1.92        0.00     123.77       2.50       1.66       1.20       ----

> <Gold.Chemscore.Fitness>
17.0890

> <Gold.Chemscore.DG>
-19.9540

> <Gold.Chemscore.ZeroCoef>
-5.4800

> <Gold.Chemscore.Hbond>
1.9178

> <Gold.Chemscore.Metal>
0.0000

> <Gold.Chemscore.Lipo>
123.7663

> <Gold.Chemscore.Internal_Hbond>
0.0000

> <Gold.Chemscore.DEClash>
1.6617

> <Gold.Chemscore.DEInternal>
1.2034

> <Gold.Chemscore.Rot>
2.5047

> <Gold.Chemscore.Internal.Correction>
   9.000000E+99

> <Gold.Chemscore.Hbonds>
donor molecule, donor type, donor heavy atom, donor atom, acceptor molecule, acceptor atom, score
      L1  H    10    33       P1  8028  0.94
      L1  H    12    50       P1 10175  0.98

> <Gold.Chemscore.Hbond.Weighted>
-6.4054

> <Gold.Chemscore.Metal.Weighted>
-0.0000

> <Gold.Chemscore.Lipo.Weighted>
-14.4807

> <Gold.Chemscore.Internal_Hbond.Weighted>
0.0000

> <Gold.Chemscore.DEClash.Weighted>
1.6617

> <Gold.Chemscore.DEInternal.Weighted>
1.2034

> <Gold.Chemscore.Rot.Weighted>
6.4120

> <Gold.Chemscore.Internal.Correction.Weighted>
   9.000000E+99

> <Gold.Protein.RotatedTorsions>
[ 6907 6896 6895 6894 ] final  -11.78 input  -60.11 | X-H torsion
[ 7974 7965 7964 7962 ] final -115.45 input  175.53 | X-H torsion
[ 8008 7997 7996 7995 ] final -146.81 input   59.86 | X-H torsion
[ 10167 10162 10161 10158 ] final   59.96 input  -65.29 | X-H torsion
[ 10718 10713 10712 10709 ] final  172.03 input   66.30 | X-H torsion
[ 10763 10752 10751 10750 ] final   37.95 input  -60.55 | X-H torsion
[ 11005 11000 10999 10996 ] final  -15.23 input  -57.11 | X-H torsion

> <Gold.Protein.ActiveResidues>
 VAL166  LYS551  ARG553  GLY616  TRP617  ASP618  TYR619  PRO620  LYS621  CYS622 
 ASP623  PHE694  ASN695  SER759  ASP760  ASP761  ALA762  ILE779  LEU786  VAL792 
 PHE793  MET794  SER795  GLU796  ALA797  LYS798  CYS799  TRP800  GLU811  SER814 

> <Gold.Protein.RotatedAtoms>
  151.3808  135.0939  159.9495 H   0  0  0  0  0  0  0  0  0  0  0  0  # atno 6907 bound_to 6896
  152.5109  133.9074  159.7481 H   0  0  0  0  0  0  0  0  0  0  0  0  # atno 6908 bound_to 6896
  150.9507  133.6497  159.2801 H   0  0  0  0  0  0  0  0  0  0  0  0  # atno 6909 bound_to 6896
  145.1083  140.8595  143.3885 H   0  0  0  0  0  0  0  0  0  0  0  0  # atno 7974 bound_to 7965
  155.5654  140.0629  157.2819 H   0  0  0  0  0  0  0  0  0  0  0  0  # atno 8008 bound_to 7997
  154.4377  140.1878  156.0871 H   0  0  0  0  0  0  0  0  0  0  0  0  # atno 8009 bound_to 7997
  156.0416  140.3295  155.7253 H   0  0  0  0  0  0  0  0  0  0  0  0  # atno 8010 bound_to 7997
  140.1708  144.4278  150.6662 H   0  0  0  0  0  0  0  0  0  0  0  0  # atno 10167 bound_to 10162
  156.9849  131.0130  151.2872 H   0  0  0  0  0  0  0  0  0  0  0  0  # atno 10718 bound_to 10713
  153.0018  135.6263  154.2227 H   0  0  0  0  0  0  0  0  0  0  0  0  # atno 10763 bound_to 10752
  154.1970  135.2806  155.3005 H   0  0  0  0  0  0  0  0  0  0  0  0  # atno 10764 bound_to 10752
  154.5714  135.5675  153.7158 H   0  0  0  0  0  0  0  0  0  0  0  0  # atno 10765 bound_to 10752
  140.7945  133.8262  155.9411 H   0  0  0  0  0  0  0  0  0  0  0  0  # atno 11005 bound_to 11000
  145.0876  139.2913  143.5751 LP  0  0  0  0  0  0  0  0  0  0  0  0  # atno 17320 bound_to 7965
  146.3527  140.0403  142.8643 LP  0  0  0  0  0  0  0  0  0  0  0  0  # atno 17321 bound_to 7965
  140.6583  143.2244  151.5916 LP  0  0  0  0  0  0  0  0  0  0  0  0  # atno 17342 bound_to 10162
  139.5339  144.2838  152.1208 LP  0  0  0  0  0  0  0  0  0  0  0  0  # atno 17343 bound_to 10162
  157.5500  130.8176  149.8133 LP  0  0  0  0  0  0  0  0  0  0  0  0  # atno 17370 bound_to 10713
  156.0230  130.3789  150.1906 LP  0  0  0  0  0  0  0  0  0  0  0  0  # atno 17371 bound_to 10713
  140.9357  134.1965  157.4833 LP  0  0  0  0  0  0  0  0  0  0  0  0  # atno 17394 bound_to 11000
  139.8728  134.9851  156.5268 LP  0  0  0  0  0  0  0  0  0  0  0  0  # atno 17395 bound_to 11000

$$$$
