AV-unprocessed.smi:3085|AV-procd|sdf|11750|dock10
  -GOLD-   2272017143D 1   1.00000     0.00000
 Structure written by MMmdl.
 28 29  0  0  0  0  0  0  0  0  2 V2000
  152.4665  143.1484  158.8148 C   0  0  0  0  0  0  0  0  0  0  0  0
  151.3559  143.4893  157.8153 C   0  0  0  0  0  0  0  0  0  0  0  0
  151.0455  142.3544  156.8955 C   0  0  0  0  0  0  0  0  0  0  0  0
  151.6024  141.1492  156.9514 N   0  0  0  0  0  0  0  0  0  0  0  0
  150.9774  140.5418  155.8975 C   0  0  0  0  0  0  0  0  0  0  0  0
  151.2973  139.1387  155.4828 C   0  0  2  0  0  0  0  0  0  0  0  0
  150.3269  138.6136  154.4078 C   0  0  0  0  0  0  0  0  0  0  0  0
  150.6318  137.2023  154.1034 N   0  3  0  0  0  0  0  0  0  0  0  0
  150.6195  136.3712  155.3238 C   0  0  0  0  0  0  0  0  0  0  0  0
  151.5680  136.9660  156.3804 C   0  0  0  0  0  0  0  0  0  0  0  0
  151.2082  138.3181  156.6464 O   0  0  0  0  0  0  0  0  0  0  0  0
  150.1228  141.3021  155.2118 N   0  0  0  0  0  0  0  0  0  0  0  0
  150.1787  142.4691  155.8875 N   0  0  0  0  0  0  0  0  0  0  0  0
  149.6392  143.2836  155.6296 H   0  0  0  0  0  0  0  0  0  0  0  0
  152.6706  143.9933  159.4726 H   0  0  0  0  0  0  0  0  0  0  0  0
  153.3939  142.8947  158.3002 H   0  0  0  0  0  0  0  0  0  0  0  0
  152.1866  142.2998  159.4400 H   0  0  0  0  0  0  0  0  0  0  0  0
  150.4464  143.7631  158.3511 H   0  0  0  0  0  0  0  0  0  0  0  0
  151.6425  144.3601  157.2242 H   0  0  0  0  0  0  0  0  0  0  0  0
  152.3217  139.1150  155.1061 H   0  0  0  0  0  0  0  0  0  0  0  0
  149.2953  138.6881  154.7553 H   0  0  0  0  0  0  0  0  0  0  0  0
  150.4040  139.2057  153.4956 H   0  0  0  0  0  0  0  0  0  0  0  0
  149.9536  136.8454  153.4452 H   0  0  0  0  0  0  0  0  0  0  0  0
  149.6023  136.3232  155.7150 H   0  0  0  0  0  0  0  0  0  0  0  0
  150.9156  135.3529  155.0711 H   0  0  0  0  0  0  0  0  0  0  0  0
  151.5057  136.3940  157.3063 H   0  0  0  0  0  0  0  0  0  0  0  0
  152.6050  136.9145  156.0443 H   0  0  0  0  0  0  0  0  0  0  0  0
  151.5516  137.1531  153.6883 H   0  0  0  0  0  0  0  0  0  0  0  0
  1  2  1  0  0  0  0
  1 15  1  0  0  0  0
  1 16  1  0  0  0  0
  1 17  1  0  0  0  0
  2  3  1  0  0  0  0
  2 18  1  0  0  0  0
  2 19  1  0  0  0  0
  3 13  1  0  0  0  0
  3  4  2  0  0  0  0
  4  5  1  0  0  0  0
  5  6  1  0  0  0  0
  5 12  2  0  0  0  0
  6 11  1  0  0  0  0
  6  7  1  0  0  0  0
  6 20  1  0  0  0  0
  7  8  1  0  0  0  0
  7 21  1  0  0  0  0
  7 22  1  0  0  0  0
  8  9  1  0  0  0  0
  8 23  1  0  0  0  0
  8 28  1  0  0  0  0
  9 10  1  0  0  0  0
  9 24  1  0  0  0  0
  9 25  1  0  0  0  0
 10 11  1  0  0  0  0
 10 26  1  0  0  0  0
 10 27  1  0  0  0  0
 12 13  1  0  0  0  0
 13 14  1  0  0  0  0
M  CHG  1   8   1
M  END
> <s_m_source_file>
AV-unprocessed.smi

> <i_m_source_file_index>
3085

> <i_lp_mmshare_version>
43012

> <i_f3d_flags>
0

> <s_epik_input>
W0NIM11bQ0gyXWMxbmMobltuSF0xKVtDQEBIXTJbQ0gyXVtOSF1bQ0gyXVtDSDJdTzI=

> <s_epik_cmdline>
J2VwaWtfcHl0aG9uJywgJy1waCcsICc3LjAnLCAnLXRuJywgJzgnLCAnLW1hJywgJzIwMCcsICctbWV0YWxfYmluZGluZycsICctaW1hZScsICc8aW5maWxlLm1hZT4nLCAnLW9tYWUnLCAnPG91dGZpbGUubWFlPic=

> <r_lp_tautomer_probability>
0.948284

> <r_epik_Ionization_Penalty>
0.107151

> <r_epik_Ionization_Penalty_Charging>
0.100865

> <r_epik_Ionization_Penalty_Neutral>
0.00628602

> <r_epik_State_Penalty>
0.429695

> <r_epik_Charging_Adjusted_Penalty>
0.530559

> <i_epik_Tot_Q>
1

> <i_epik_Tot_abs_Q>
1

> <r_epik_Metal_State_Penalty>
0.651827

> <b_epik_Metal_Only>
0

> <s_lp_Force_Field>
OPLS_2005

> <r_lp_Energy>
10.1089

> <b_lp_Chiralities_Consistent>
1

> <s_lp_Variant>
AV-unprocessed.smi:3085-1

> <Gold.Version>
5.8.1

> <Gold.Id.Protein>
6NUR|6NUR_protein|mol2

> <Gold.PLP.Fitness>
32.7657

> <Gold.PLP.PLP>
-24.1478

> <Gold.PLP.part.hbond>
-3.8758

> <Gold.PLP.part.metal>
0.0000

> <Gold.PLP.part.buried>
-2.6602

> <Gold.PLP.part.nonpolar>
-18.3296

> <Gold.PLP.part.repulsive>
0.3445

> <Gold.PLP.ligand.clash>
0.0000

> <Gold.PLP.ligand.torsion>
0.2215

> <Gold.PLP.Chemscore.Hbond>
3.0140

> <Gold.PLP.Chemscore.CHOScore>
0.0000

> <Gold.PLP.Chemscore.Metal>
0.0000

> <Gold.Chemscore.Hbonds>
donor molecule, donor type, donor heavy atom, donor atom, acceptor molecule, acceptor atom, score
      L1  H     8    23       P1  7948  2.00
      L1  H    13    14       P1  8028  1.00
      P1  H  7989  7998       L1    12  0.03

> <Gold.PLP.Chemscore.Internal.Correction>
0.0188

> <Gold.Rescore>
     Score         DG    S(hbond)    S(metal)    S(lipo)     H(rot)  DE(clash)    DE(int)     intcor
     13.63     -13.86       1.83        0.00      47.87       1.30       0.01       0.22       ----

> <Gold.Chemscore.Fitness>
13.6302

> <Gold.Chemscore.DG>
-13.8639

> <Gold.Chemscore.ZeroCoef>
-5.4800

> <Gold.Chemscore.Hbond>
1.8305

> <Gold.Chemscore.Metal>
0.0000

> <Gold.Chemscore.Lipo>
47.8711

> <Gold.Chemscore.Internal_Hbond>
0.0000

> <Gold.Chemscore.DEClash>
0.0096

> <Gold.Chemscore.DEInternal>
0.2241

> <Gold.Chemscore.Rot>
1.3011

> <Gold.Chemscore.Internal.Correction>
   9.000000E+99

> <Gold.Chemscore.Hbonds>
donor molecule, donor type, donor heavy atom, donor atom, acceptor molecule, acceptor atom, score
      L1  H     8    23       P1  7948  0.25
      L1  H    13    14       P1  8028  0.99

> <Gold.Chemscore.Hbond.Weighted>
-6.1138

> <Gold.Chemscore.Metal.Weighted>
-0.0000

> <Gold.Chemscore.Lipo.Weighted>
-5.6009

> <Gold.Chemscore.Internal_Hbond.Weighted>
0.0000

> <Gold.Chemscore.DEClash.Weighted>
0.0096

> <Gold.Chemscore.DEInternal.Weighted>
0.2241

> <Gold.Chemscore.Rot.Weighted>
3.3308

> <Gold.Chemscore.Internal.Correction.Weighted>
   9.000000E+99

> <Gold.Protein.RotatedTorsions>
[ 6907 6896 6895 6894 ] final   34.63 input  -60.11 | X-H torsion
[ 7974 7965 7964 7962 ] final   35.86 input  175.53 | X-H torsion
[ 8008 7997 7996 7995 ] final  150.72 input   59.86 | X-H torsion
[ 10167 10162 10161 10158 ] final  -61.68 input  -65.29 | X-H torsion
[ 10718 10713 10712 10709 ] final   -7.37 input   66.30 | X-H torsion
[ 10763 10752 10751 10750 ] final   33.79 input  -60.55 | X-H torsion
[ 11005 11000 10999 10996 ] final  -38.09 input  -57.11 | X-H torsion

> <Gold.Protein.ActiveResidues>
 VAL166  LYS551  ARG553  GLY616  TRP617  ASP618  TYR619  PRO620  LYS621  CYS622 
 ASP623  PHE694  ASN695  SER759  ASP760  ASP761  ALA762  ILE779  LEU786  VAL792 
 PHE793  MET794  SER795  GLU796  ALA797  LYS798  CYS799  TRP800  GLU811  SER814 

> <Gold.Protein.RotatedAtoms>
  152.1051  134.9314  160.0568 H   0  0  0  0  0  0  0  0  0  0  0  0  # atno 6907 bound_to 6896
  152.0513  133.4015  159.4387 H   0  0  0  0  0  0  0  0  0  0  0  0  # atno 6908 bound_to 6896
  150.6841  134.3225  159.4836 H   0  0  0  0  0  0  0  0  0  0  0  0  # atno 6909 bound_to 6896
  146.1253  139.6089  142.9263 H   0  0  0  0  0  0  0  0  0  0  0  0  # atno 7974 bound_to 7965
  156.2704  140.2067  156.6062 H   0  0  0  0  0  0  0  0  0  0  0  0  # atno 8008 bound_to 7997
  154.6867  140.0534  157.0346 H   0  0  0  0  0  0  0  0  0  0  0  0  # atno 8009 bound_to 7997
  155.0923  140.3197  155.4573 H   0  0  0  0  0  0  0  0  0  0  0  0  # atno 8010 bound_to 7997
  140.5990  143.2357  151.5971 H   0  0  0  0  0  0  0  0  0  0  0  0  # atno 10167 bound_to 10162
  156.7181  130.5142  149.5875 H   0  0  0  0  0  0  0  0  0  0  0  0  # atno 10718 bound_to 10713
  153.0195  135.6378  154.1566 H   0  0  0  0  0  0  0  0  0  0  0  0  # atno 10763 bound_to 10752
  154.1302  135.2841  155.3188 H   0  0  0  0  0  0  0  0  0  0  0  0  # atno 10764 bound_to 10752
  154.6200  135.5528  153.7626 H   0  0  0  0  0  0  0  0  0  0  0  0  # atno 10765 bound_to 10752
  141.0001  133.6960  156.2006 H   0  0  0  0  0  0  0  0  0  0  0  0  # atno 11005 bound_to 11000
  145.5379  141.0423  143.2346 LP  0  0  0  0  0  0  0  0  0  0  0  0  # atno 17320 bound_to 7965
  144.7636  139.6898  143.7224 LP  0  0  0  0  0  0  0  0  0  0  0  0  # atno 17321 bound_to 7965
  139.5278  144.3007  152.1076 LP  0  0  0  0  0  0  0  0  0  0  0  0  # atno 17342 bound_to 10162
  140.2184  144.4491  150.6353 LP  0  0  0  0  0  0  0  0  0  0  0  0  # atno 17343 bound_to 10162
  156.1613  130.6376  151.0723 LP  0  0  0  0  0  0  0  0  0  0  0  0  # atno 17370 bound_to 10713
  157.6909  131.0810  150.7110 LP  0  0  0  0  0  0  0  0  0  0  0  0  # atno 17371 bound_to 10713
  140.6903  134.4673  157.5588 LP  0  0  0  0  0  0  0  0  0  0  0  0  # atno 17394 bound_to 11000
  139.9034  134.8503  156.1802 LP  0  0  0  0  0  0  0  0  0  0  0  0  # atno 17395 bound_to 11000

$$$$
