AV-unprocessed.smi:897|AV-procd|sdf|4081|dock6
  -GOLD-   22720 1573D 1   1.00000     0.00000
 Structure written by MMmdl.
 35 37  0  0  0  0  0  0  0  0  1 V2000
  152.8277  143.5716  158.9238 C   0  0  0  0  0  0  0  0  0  0  0  0
  152.9159  142.0966  159.2548 C   0  0  0  0  0  0  0  0  0  0  0  0
  153.7496  141.6349  160.2901 C   0  0  0  0  0  0  0  0  0  0  0  0
  153.7946  140.2515  160.5562 C   0  0  0  0  0  0  0  0  0  0  0  0
  154.6904  139.7416  161.6753 C   0  0  0  0  0  0  0  0  0  0  0  0
  152.9994  139.3793  159.7675 C   0  0  0  0  0  0  0  0  0  0  0  0
  153.0210  137.9373  160.0057 C   0  0  0  0  0  0  0  0  0  0  0  0
  153.0378  136.7958  160.1938 N   0  0  0  0  0  0  0  0  0  0  0  0
  152.1910  139.9439  158.7422 C   0  0  0  0  0  0  0  0  0  0  0  0
  151.3820  139.1211  157.9364 N   0  0  0  0  0  0  0  0  0  0  0  0
  150.7037  139.6473  156.7554 C   0  0  2  0  0  0  0  0  0  0  0  0
  149.8674  138.5922  156.0277 C   0  0  0  0  0  0  0  0  0  0  0  0
  150.4087  138.6926  154.5944 C   0  0  2  0  0  0  0  0  0  0  0  0
  151.7947  138.0471  154.4690 C   0  0  0  0  0  0  0  0  0  0  0  0
  152.6757  139.0604  155.1971 C   0  0  0  0  0  0  0  0  0  0  0  0
  151.6491  140.1203  155.6322 C   0  0  1  0  0  0  0  0  0  0  0  0
  150.7571  140.0656  154.5316 O   0  0  0  0  0  0  0  0  0  0  0  0
  152.1565  141.2761  158.5018 N   0  0  0  0  0  0  0  0  0  0  0  0
  153.3585  144.1742  159.6614 H   0  0  0  0  0  0  0  0  0  0  0  0
  151.7872  143.8967  158.9059 H   0  0  0  0  0  0  0  0  0  0  0  0
  153.2660  143.7654  157.9446 H   0  0  0  0  0  0  0  0  0  0  0  0
  154.3417  142.3289  160.8687 H   0  0  0  0  0  0  0  0  0  0  0  0
  155.4322  139.0442  161.2852 H   0  0  0  0  0  0  0  0  0  0  0  0
  154.0991  139.2299  162.4355 H   0  0  0  0  0  0  0  0  0  0  0  0
  155.2242  140.5591  162.1609 H   0  0  0  0  0  0  0  0  0  0  0  0
  151.5006  138.1203  158.0017 H   0  0  0  0  0  0  0  0  0  0  0  0
  150.0457  140.4664  157.0497 H   0  0  0  0  0  0  0  0  0  0  0  0
  149.9762  137.5856  156.4344 H   0  0  0  0  0  0  0  0  0  0  0  0
  148.8105  138.8582  156.0647 H   0  0  0  0  0  0  0  0  0  0  0  0
  149.7007  138.3713  153.8301 H   0  0  0  0  0  0  0  0  0  0  0  0
  151.8328  137.0531  154.9159 H   0  0  0  0  0  0  0  0  0  0  0  0
  152.0919  137.9642  153.4229 H   0  0  0  0  0  0  0  0  0  0  0  0
  153.2248  138.6257  156.0326 H   0  0  0  0  0  0  0  0  0  0  0  0
  153.4025  139.4931  154.5088 H   0  0  0  0  0  0  0  0  0  0  0  0
  152.0811  141.1067  155.8028 H   0  0  0  0  0  0  0  0  0  0  0  0
  1  2  1  0  0  0  0
  1 19  1  0  0  0  0
  1 20  1  0  0  0  0
  1 21  1  0  0  0  0
  2 18  1  0  0  0  0
  2  3  2  0  0  0  0
  3  4  1  0  0  0  0
  3 22  1  0  0  0  0
  4  5  1  0  0  0  0
  4  6  2  0  0  0  0
  5 23  1  0  0  0  0
  5 24  1  0  0  0  0
  5 25  1  0  0  0  0
  6  7  1  0  0  0  0
  6  9  1  0  0  0  0
  7  8  3  0  0  0  0
  9 10  1  0  0  0  0
  9 18  2  0  0  0  0
 10 11  1  0  0  0  0
 10 26  1  0  0  0  0
 11 16  1  0  0  0  0
 11 12  1  0  0  0  0
 11 27  1  0  0  0  0
 12 13  1  0  0  0  0
 12 28  1  0  0  0  0
 12 29  1  0  0  0  0
 13 17  1  0  0  0  0
 13 14  1  0  0  0  0
 13 30  1  0  0  0  0
 14 15  1  0  0  0  0
 14 31  1  0  0  0  0
 14 32  1  0  0  0  0
 15 16  1  0  0  0  0
 15 33  1  0  0  0  0
 15 34  1  0  0  0  0
 16 17  1  0  0  0  0
 16 35  1  0  0  0  0
M  END
> <s_m_source_file>
AV-unprocessed.smi

> <i_m_source_file_index>
897

> <i_lp_mmshare_version>
43012

> <i_f3d_flags>
0

> <s_epik_input>
W0NIM11jMVtjSF1jKFtDSDNdKWMoQyNOKWMobjEpW05IXVtDQEhdKFtDSDJdW0NAQEhdMjMpW0NAQEhdKE8zKVtDSDJdW0NIMl0y

> <s_epik_cmdline>
J2VwaWtfcHl0aG9uJywgJy1waCcsICc3LjAnLCAnLXRuJywgJzgnLCAnLW1hJywgJzIwMCcsICctbWV0YWxfYmluZGluZycsICctaW1hZScsICc8aW5maWxlLm1hZT4nLCAnLW9tYWUnLCAnPG91dGZpbGUubWFlPic=

> <r_lp_tautomer_probability>
1

> <r_epik_Ionization_Penalty>
0.000502654

> <r_epik_Ionization_Penalty_Charging>
0

> <r_epik_Ionization_Penalty_Neutral>
0.000502654

> <r_epik_State_Penalty>
-0

> <r_epik_Charging_Adjusted_Penalty>
0

> <i_epik_Tot_Q>
0

> <i_epik_Tot_abs_Q>
0

> <r_epik_Metal_State_Penalty>
-0

> <b_epik_Metal_Only>
0

> <s_lp_Force_Field>
OPLS_2005

> <r_lp_Energy>
43.9229

> <b_lp_Chiralities_Consistent>
1

> <s_lp_Variant>
AV-unprocessed.smi:897-3

> <Gold.Version>
5.8.1

> <Gold.Id.Protein>
6NUR|6NUR_protein|mol2

> <Gold.PLP.Fitness>
42.7476

> <Gold.PLP.PLP>
-36.9796

> <Gold.PLP.part.hbond>
-1.9301

> <Gold.PLP.part.metal>
0.0000

> <Gold.PLP.part.buried>
-3.3156

> <Gold.PLP.part.nonpolar>
-32.1669

> <Gold.PLP.part.repulsive>
0.1508

> <Gold.PLP.ligand.clash>
0.0000

> <Gold.PLP.ligand.torsion>
0.0329

> <Gold.PLP.Chemscore.Hbond>
1.9413

> <Gold.PLP.Chemscore.CHOScore>
0.0000

> <Gold.PLP.Chemscore.Metal>
0.0000

> <Gold.Chemscore.Hbonds>
donor molecule, donor type, donor heavy atom, donor atom, acceptor molecule, acceptor atom, score
      P1  H  6896  6908       L1     8  1.00
      P1  H  7989  7998       L1    17  0.90

> <Gold.PLP.Chemscore.Internal.Correction>
0.0101

> <Gold.Rescore>
     Score         DG    S(hbond)    S(metal)    S(lipo)     H(rot)  DE(clash)    DE(int)     intcor
     19.81     -19.90       1.75        0.00      95.01       1.00       0.03       0.05       ----

> <Gold.Chemscore.Fitness>
19.8142

> <Gold.Chemscore.DG>
-19.8955

> <Gold.Chemscore.ZeroCoef>
-5.4800

> <Gold.Chemscore.Hbond>
1.7541

> <Gold.Chemscore.Metal>
0.0000

> <Gold.Chemscore.Lipo>
95.0145

> <Gold.Chemscore.Internal_Hbond>
0.0000

> <Gold.Chemscore.DEClash>
0.0310

> <Gold.Chemscore.DEInternal>
0.0503

> <Gold.Chemscore.Rot>
1.0000

> <Gold.Chemscore.Internal.Correction>
   9.000000E+99

> <Gold.Chemscore.Hbonds>
donor molecule, donor type, donor heavy atom, donor atom, acceptor molecule, acceptor atom, score
      P1  H  6896  6908       L1     8  0.94
      P1  H  7989  7998       L1    17  0.17

> <Gold.Chemscore.Hbond.Weighted>
-5.8588

> <Gold.Chemscore.Metal.Weighted>
-0.0000

> <Gold.Chemscore.Lipo.Weighted>
-11.1167

> <Gold.Chemscore.Internal_Hbond.Weighted>
0.0000

> <Gold.Chemscore.DEClash.Weighted>
0.0310

> <Gold.Chemscore.DEInternal.Weighted>
0.0503

> <Gold.Chemscore.Rot.Weighted>
2.5600

> <Gold.Chemscore.Internal.Correction.Weighted>
   9.000000E+99

> <Gold.Protein.RotatedTorsions>
[ 6907 6896 6895 6894 ] final  -89.60 input  -60.11 | X-H torsion
[ 7974 7965 7964 7962 ] final  -99.87 input  175.53 | X-H torsion
[ 8008 7997 7996 7995 ] final -113.80 input   59.86 | X-H torsion
[ 10167 10162 10161 10158 ] final   99.44 input  -65.29 | X-H torsion
[ 10718 10713 10712 10709 ] final -127.91 input   66.30 | X-H torsion
[ 10763 10752 10751 10750 ] final  -81.22 input  -60.55 | X-H torsion
[ 11005 11000 10999 10996 ] final  -85.63 input  -57.11 | X-H torsion

> <Gold.Protein.ActiveResidues>
 VAL166  LYS551  ARG553  GLY616  TRP617  ASP618  TYR619  PRO620  LYS621  CYS622 
 ASP623  PHE694  ASN695  SER759  ASP760  ASP761  ALA762  ILE779  LEU786  VAL792 
 PHE793  MET794  SER795  GLU796  ALA797  LYS798  CYS799  TRP800  GLU811  SER814 

> <Gold.Protein.RotatedAtoms>
  150.6875  134.2562  159.4530 H   0  0  0  0  0  0  0  0  0  0  0  0  # atno 6907 bound_to 6896
  152.0495  134.9660  160.0584 H   0  0  0  0  0  0  0  0  0  0  0  0  # atno 6908 bound_to 6896
  152.1129  133.4276  159.4676 H   0  0  0  0  0  0  0  0  0  0  0  0  # atno 6909 bound_to 6896
  145.3020  140.9379  143.2818 H   0  0  0  0  0  0  0  0  0  0  0  0  # atno 7974 bound_to 7965
  155.0264  140.0393  157.2457 H   0  0  0  0  0  0  0  0  0  0  0  0  # atno 8008 bound_to 7997
  154.7334  140.2735  155.6412 H   0  0  0  0  0  0  0  0  0  0  0  0  # atno 8009 bound_to 7997
  156.2847  140.2679  156.2041 H   0  0  0  0  0  0  0  0  0  0  0  0  # atno 8010 bound_to 7997
  139.7617  144.6952  151.0283 H   0  0  0  0  0  0  0  0  0  0  0  0  # atno 10167 bound_to 10162
  156.1901  130.6789  151.0413 H   0  0  0  0  0  0  0  0  0  0  0  0  # atno 10718 bound_to 10713
  154.5609  135.5634  153.7006 H   0  0  0  0  0  0  0  0  0  0  0  0  # atno 10763 bound_to 10752
  153.0017  135.6273  154.2247 H   0  0  0  0  0  0  0  0  0  0  0  0  # atno 10764 bound_to 10752
  154.2184  135.2870  155.2913 H   0  0  0  0  0  0  0  0  0  0  0  0  # atno 10765 bound_to 10752
  141.1639  133.7410  156.9043 H   0  0  0  0  0  0  0  0  0  0  0  0  # atno 11005 bound_to 11000
  144.9086  139.4557  143.6598 LP  0  0  0  0  0  0  0  0  0  0  0  0  # atno 17320 bound_to 7965
  146.3149  139.7881  142.8991 LP  0  0  0  0  0  0  0  0  0  0  0  0  # atno 17321 bound_to 7965
  140.7807  143.4689  151.0173 LP  0  0  0  0  0  0  0  0  0  0  0  0  # atno 17342 bound_to 10162
  139.8375  143.7608  152.3180 LP  0  0  0  0  0  0  0  0  0  0  0  0  # atno 17343 bound_to 10162
  157.6923  131.0805  150.7070 LP  0  0  0  0  0  0  0  0  0  0  0  0  # atno 17370 bound_to 10713
  156.7127  130.4656  149.5543 LP  0  0  0  0  0  0  0  0  0  0  0  0  # atno 17371 bound_to 10713
  140.1560  134.9198  157.2654 LP  0  0  0  0  0  0  0  0  0  0  0  0  # atno 17394 bound_to 11000
  140.2666  134.3509  155.7388 LP  0  0  0  0  0  0  0  0  0  0  0  0  # atno 17395 bound_to 11000

$$$$
