#       Name:                AV-unprocessed.smi:2032
#       Creating user name   scv26
#       Creation time:       Fri Mar 27 10:50:55 2020


#       File generated by GOLD software.
#

@<TRIPOS>MOLECULE
AV-unprocessed.smi:2032
    48    49     1
SMALL
NO_CHARGES


@<TRIPOS>ATOM
      1 ****        -3.2033  -1.9839  -1.6844 C.3            1 S1                 0.0000
      2 ****        -2.4631  -1.2964  -0.5317 C.3            1 S1                 0.0000
      3 ****        -2.5275   0.2443  -0.6419 C.3            1 S1                 0.0000
      4 ****        -1.9090   0.9094   0.5386 N.4            1 S1                 1.0000
      5 ****        -0.4070   0.9311   0.5227 C.3            1 S1                 0.0000
      6 ****         0.2103   1.2857   1.8974 C.3            1 S1                 0.0000
      7 ****         0.1137   1.9161  -0.5605 C.3            1 S1                 0.0000
      8 ****         1.5696   1.9289  -0.6734 N.am           1 S1                 0.0000
      9 ****         2.3031   0.9425  -1.2092 C.2            1 S1                 0.0000
     10 ****         1.8118  -0.0835  -1.6815 O.2            1 S1                 0.0000
     11 ****         3.6166   1.2236  -1.1536 N.am           1 S1                 0.0000
     12 ****         4.7052   0.4076  -1.5587 C.2            1 S1                 0.0000
     13 ****         4.5762  -0.8176  -2.0815 N.2            1 S1                 0.0000
     14 ****         5.8140  -1.3926  -2.3805 C.2            1 S1                 0.0000
     15 ****         6.8822  -0.5866  -2.0741 C.2            1 S1                 0.0000
     16 ****         6.3732   0.9368  -1.3962 S.3            1 S1                 0.0000
     17 ****        -2.5584   0.3790   1.7682 C.3            1 S1                 0.0000
     18 ****        -2.4404  -1.1567   1.8395 C.3            1 S1                 0.0000
     19 ****        -3.1298  -1.7299   3.0825 C.3            1 S1                 0.0000
     20 ****        -3.0697  -1.7101   0.6886 O.3            1 S1                 0.0000
     21 ****        -2.7686  -1.7138  -2.6472 H              1 S1                 0.0000
     22 ****        -4.2566  -1.7026  -1.7020 H              1 S1                 0.0000
     23 ****        -3.1499  -3.0688  -1.5897 H              1 S1                 0.0000
     24 ****        -1.4272  -1.6370  -0.5470 H              1 S1                 0.0000
     25 ****        -2.0845   0.5744  -1.5787 H              1 S1                 0.0000
     26 ****        -3.5722   0.5552  -0.6906 H              1 S1                 0.0000
     27 ****        -0.0578  -0.0711   0.2777 H              1 S1                 0.0000
     28 ****         1.2967   1.3535   1.8497 H              1 S1                 0.0000
     29 ****         0.0014   0.5244   2.6486 H              1 S1                 0.0000
     30 ****        -0.1601   2.2429   2.2654 H              1 S1                 0.0000
     31 ****        -0.2867   1.6949  -1.5483 H              1 S1                 0.0000
     32 ****        -0.2127   2.9293  -0.3239 H              1 S1                 0.0000
     33 ****         2.0499   2.7404  -0.3120 H              1 S1                 0.0000
     34 ****         3.8703   2.1154  -0.7545 H              1 S1                 0.0000
     35 ****         5.8430  -2.3832  -2.8098 H              1 S1                 0.0000
     36 ****         7.9333  -0.7966  -2.2053 H              1 S1                 0.0000
     37 ****        -2.1872   0.8553   2.6742 H              1 S1                 0.0000
     38 ****        -3.6149   0.6491   1.7304 H              1 S1                 0.0000
     39 ****        -1.3914  -1.4570   1.8589 H              1 S1                 0.0000
     40 ****        -2.6778  -1.3411   3.9955 H              1 S1                 0.0000
     41 ****        -3.0460  -2.8166   3.1078 H              1 S1                 0.0000
     42 ****        -4.1903  -1.4768   3.0996 H              1 S1                 0.0000
     43 ****        -2.1798   1.8814   0.4926 H              1 S1                 0.0000
     44 ****         0.8200  -0.2108  -1.6771 LP             1 S1                 0.0000
     45 ****         2.4048  -0.7891  -2.0695 LP             1 S1                 0.0000
     46 ****         3.6977  -1.2683  -2.2395 LP             1 S1                 0.0000
     47 ****        -3.0200  -2.7071   0.7469 LP             1 S1                 0.0000
     48 ****        -4.0278  -1.4239   0.6809 LP             1 S1                 0.0000
@<TRIPOS>BOND
    1    1    2 1     
    2    1   21 1     
    3    1   22 1     
    4    1   23 1     
    5    2   20 1     
    6    2    3 1     
    7    2   24 1     
    8    3    4 1     
    9    3   25 1     
   10    3   26 1     
   11    4    5 1     
   12    4   17 1     
   13    4   43 1     
   14    5    6 1     
   15    5    7 1     
   16    5   27 1     
   17    6   28 1     
   18    6   29 1     
   19    6   30 1     
   20    7    8 1     
   21    7   31 1     
   22    7   32 1     
   23    8    9 am    
   24    8   33 1     
   25    9   10 2     
   26    9   11 am    
   27   11   12 1     
   28   11   34 1     
   29   12   16 1     
   30   12   13 2     
   31   13   14 1     
   32   14   15 2     
   33   14   35 1     
   34   15   16 1     
   35   15   36 1     
   36   17   18 1     
   37   17   37 1     
   38   17   38 1     
   39   18   19 1     
   40   18   20 1     
   41   18   39 1     
   42   19   40 1     
   43   19   41 1     
   44   19   42 1     
   45   10   44 1     
   46   10   45 1     
   47   13   46 1     
   48   20   47 1     
   49   20   48 1     
@<TRIPOS>SUBSTRUCTURE
      1 S1             1
@<TRIPOS>SET
LONE_PAIRS      STATIC     ATOMS    <user>   **** ""
5 44 45 46 47 48
DONOR_HYDROGENS      STATIC     ATOMS    <user>   **** ""
3 43 33 34
ATOM$BLUE        STATIC     ATOMS    COLORGROUP SYSTEM
5 44 45 46 47 48
ATOM$RED        STATIC     ATOMS    COLORGROUP SYSTEM
3 43 33 34
