AV-unprocessed.smi:232|AV-procd|sdf|1779|dock7
  -GOLD-   2262020323D 1   1.00000     0.00000
 Structure written by MMmdl.
 52 55  0  0  0  0  0  0  0  0  1 V2000
  149.7700  133.3600  155.0655 C   0  0  0  0  0  0  0  0  0  0  0  0
  149.8412  134.8930  155.0782 C   0  0  0  0  0  0  0  0  0  0  0  0
  149.9256  135.4886  156.4954 C   0  0  2  0  0  0  0  0  0  0  0  0
  148.9586  134.8215  157.4902 C   0  0  0  0  0  0  0  0  0  0  0  0
  148.4922  135.9701  158.3790 C   0  0  0  0  0  0  0  0  0  0  0  0
  148.4437  137.1197  157.3781 C   0  0  1  0  0  0  0  0  0  0  0  0
  148.2781  138.5180  158.0067 C   0  0  0  0  0  0  0  0  0  0  0  0
  149.6099  136.9224  156.5140 N   0  0  0  0  0  0  0  0  0  0  0  0
  150.6604  137.7644  156.6674 C   0  0  0  0  0  0  0  0  0  0  0  0
  151.0341  138.5963  155.6589 N   0  0  0  0  0  0  0  0  0  0  0  0
  152.0760  139.4176  155.8226 C   0  0  0  0  0  0  0  0  0  0  0  0
  152.8677  139.5610  156.8883 N   0  0  0  0  0  0  0  0  0  0  0  0
  152.4987  138.7181  157.8952 C   0  0  0  0  0  0  0  0  0  0  0  0
  151.4191  137.7928  157.8661 C   0  0  0  0  0  0  0  0  0  0  0  0
  151.3481  137.1015  159.0687 N   0  0  0  0  0  0  0  0  0  0  0  0
  152.3295  137.5956  159.7737 C   0  0  0  0  0  0  0  0  0  0  0  0
  153.0679  138.5743  159.1472 N   0  0  0  0  0  0  0  0  0  0  0  0
  154.1983  139.3005  159.6967 C   0  0  0  0  0  0  0  0  0  0  0  0
  153.8442  140.0197  161.0125 C   0  0  1  0  0  0  0  0  0  0  0  0
  154.7342  139.6379  162.0445 O   0  0  0  0  0  0  0  0  0  0  0  0
  153.8144  141.5543  160.8671 C   0  0  1  0  0  0  0  0  0  0  0  0
  152.8361  142.1214  159.8347 C   0  0  0  0  0  0  0  0  0  0  0  0
  152.6334  143.5247  160.3604 C   0  0  0  0  0  0  0  0  0  0  0  0
  152.6252  143.2931  161.8692 C   0  0  0  0  0  0  0  0  0  0  0  0
  153.5095  142.1997  162.1016 O   0  0  0  0  0  0  0  0  0  0  0  0
  149.6488  132.9868  154.0485 H   0  0  0  0  0  0  0  0  0  0  0  0
  148.9260  133.0003  155.6544 H   0  0  0  0  0  0  0  0  0  0  0  0
  150.6776  132.9147  155.4729 H   0  0  0  0  0  0  0  0  0  0  0  0
  150.6906  135.2268  154.4810 H   0  0  0  0  0  0  0  0  0  0  0  0
  148.9495  135.2810  154.5845 H   0  0  0  0  0  0  0  0  0  0  0  0
  150.9363  135.3166  156.8665 H   0  0  0  0  0  0  0  0  0  0  0  0
  148.0989  134.4038  156.9640 H   0  0  0  0  0  0  0  0  0  0  0  0
  149.4262  134.0142  158.0545 H   0  0  0  0  0  0  0  0  0  0  0  0
  147.5297  135.7765  158.8530 H   0  0  0  0  0  0  0  0  0  0  0  0
  149.2279  136.1698  159.1596 H   0  0  0  0  0  0  0  0  0  0  0  0
  147.5780  136.9619  156.7332 H   0  0  0  0  0  0  0  0  0  0  0  0
  147.3472  138.5758  158.5709 H   0  0  0  0  0  0  0  0  0  0  0  0
  148.2443  139.2941  157.2415 H   0  0  0  0  0  0  0  0  0  0  0  0
  149.0894  138.7558  158.6954 H   0  0  0  0  0  0  0  0  0  0  0  0
  152.3077  140.0514  154.9793 H   0  0  0  0  0  0  0  0  0  0  0  0
  152.5391  137.2626  160.7798 H   0  0  0  0  0  0  0  0  0  0  0  0
  155.0208  138.6005  159.8494 H   0  0  0  0  0  0  0  0  0  0  0  0
  154.5355  140.0214  158.9508 H   0  0  0  0  0  0  0  0  0  0  0  0
  152.8506  139.6956  161.3253 H   0  0  0  0  0  0  0  0  0  0  0  0
  155.0850  140.4218  162.4391 H   0  0  0  0  0  0  0  0  0  0  0  0
  154.8159  141.8918  160.5943 H   0  0  0  0  0  0  0  0  0  0  0  0
  153.2294  142.0967  158.8182 H   0  0  0  0  0  0  0  0  0  0  0  0
  151.8847  141.5886  159.8446 H   0  0  0  0  0  0  0  0  0  0  0  0
  153.4781  144.1559  160.0805 H   0  0  0  0  0  0  0  0  0  0  0  0
  151.7190  143.9930  159.9954 H   0  0  0  0  0  0  0  0  0  0  0  0
  152.9281  144.1778  162.4295 H   0  0  0  0  0  0  0  0  0  0  0  0
  151.6272  143.0060  162.2023 H   0  0  0  0  0  0  0  0  0  0  0  0
  1  2  1  0  0  0  0
  1 26  1  0  0  0  0
  1 27  1  0  0  0  0
  1 28  1  0  0  0  0
  2  3  1  0  0  0  0
  2 29  1  0  0  0  0
  2 30  1  0  0  0  0
  3  8  1  0  0  0  0
  3  4  1  0  0  0  0
  3 31  1  0  0  0  0
  4  5  1  0  0  0  0
  4 32  1  0  0  0  0
  4 33  1  0  0  0  0
  5  6  1  0  0  0  0
  5 34  1  0  0  0  0
  5 35  1  0  0  0  0
  6  7  1  0  0  0  0
  6  8  1  0  0  0  0
  6 36  1  0  0  0  0
  7 37  1  0  0  0  0
  7 38  1  0  0  0  0
  7 39  1  0  0  0  0
  8  9  1  0  0  0  0
  9 14  1  0  0  0  0
  9 10  2  0  0  0  0
 10 11  1  0  0  0  0
 11 12  2  0  0  0  0
 11 40  1  0  0  0  0
 12 13  1  0  0  0  0
 13 17  1  0  0  0  0
 13 14  2  0  0  0  0
 14 15  1  0  0  0  0
 15 16  2  0  0  0  0
 16 17  1  0  0  0  0
 16 41  1  0  0  0  0
 17 18  1  0  0  0  0
 18 19  1  0  0  0  0
 18 42  1  0  0  0  0
 18 43  1  0  0  0  0
 19 20  1  0  0  0  0
 19 21  1  0  0  0  0
 19 44  1  0  0  0  0
 20 45  1  0  0  0  0
 21 25  1  0  0  0  0
 21 22  1  0  0  0  0
 21 46  1  0  0  0  0
 22 23  1  0  0  0  0
 22 47  1  0  0  0  0
 22 48  1  0  0  0  0
 23 24  1  0  0  0  0
 23 49  1  0  0  0  0
 23 50  1  0  0  0  0
 24 25  1  0  0  0  0
 24 51  1  0  0  0  0
 24 52  1  0  0  0  0
M  END
> <s_m_source_file>
AV-unprocessed.smi

> <i_m_source_file_index>
232

> <i_lp_mmshare_version>
43012

> <i_f3d_flags>
0

> <s_epik_input>
W0NIM11bQ0gyXVtDQEBIXTFbQ0gyXVtDSDJdW0NAQEhdKFtDSDNdKU4xYyhuW2NIXW4yKWMoYzIzKW5bY0hdbjNbQ0gyXVtDQEhdKFtPSF0pW0NAQEhdNFtDSDJdW0NIMl1bQ0gyXU80

> <s_epik_cmdline>
J2VwaWtfcHl0aG9uJywgJy1waCcsICc3LjAnLCAnLXRuJywgJzgnLCAnLW1hJywgJzIwMCcsICctbWV0YWxfYmluZGluZycsICctaW1hZScsICc8aW5maWxlLm1hZT4nLCAnLW9tYWUnLCAnPG91dGZpbGUubWFlPic=

> <r_lp_tautomer_probability>
1

> <r_epik_Ionization_Penalty>
0.00258048

> <r_epik_Ionization_Penalty_Charging>
0

> <r_epik_Ionization_Penalty_Neutral>
0.00258048

> <r_epik_State_Penalty>
0.00168551

> <r_epik_Charging_Adjusted_Penalty>
0.00168551

> <i_epik_Tot_Q>
0

> <i_epik_Tot_abs_Q>
0

> <r_epik_Metal_State_Penalty>
-0

> <b_epik_Metal_Only>
0

> <s_lp_Force_Field>
OPLS_2005

> <r_lp_Energy>
58.3384

> <b_lp_Chiralities_Consistent>
1

> <s_lp_Variant>
AV-unprocessed.smi:232-13

> <Gold.Version>
5.8.1

> <Gold.Id.Protein>
6NUR|6NUR_protein|mol2

> <Gold.PLP.Fitness>
41.8792

> <Gold.PLP.PLP>
-37.6994

> <Gold.PLP.part.hbond>
-2.0000

> <Gold.PLP.part.metal>
0.0000

> <Gold.PLP.part.buried>
-5.7953

> <Gold.PLP.part.nonpolar>
-30.5568

> <Gold.PLP.part.repulsive>
0.0449

> <Gold.PLP.ligand.clash>
0.0000

> <Gold.PLP.ligand.torsion>
0.9319

> <Gold.PLP.Chemscore.Hbond>
1.9425

> <Gold.PLP.Chemscore.CHOScore>
0.0000

> <Gold.PLP.Chemscore.Metal>
0.0000

> <Gold.Chemscore.Hbonds>
donor molecule, donor type, donor heavy atom, donor atom, acceptor molecule, acceptor atom, score
      P1  H  6896  6907       L1    15  0.42
      P1  H  7997  8010       L1    12  1.00

> <Gold.PLP.Chemscore.Internal.Correction>
0.2160

> <Gold.Rescore>
     Score         DG    S(hbond)    S(metal)    S(lipo)     H(rot)  DE(clash)    DE(int)     intcor
     13.05     -14.22       1.38        0.00      88.50       2.43       0.06       1.10       ----

> <Gold.Chemscore.Fitness>
13.0507

> <Gold.Chemscore.DG>
-14.2177

> <Gold.Chemscore.ZeroCoef>
-5.4800

> <Gold.Chemscore.Hbond>
1.3755

> <Gold.Chemscore.Metal>
0.0000

> <Gold.Chemscore.Lipo>
88.4962

> <Gold.Chemscore.Internal_Hbond>
0.0000

> <Gold.Chemscore.DEClash>
0.0646

> <Gold.Chemscore.DEInternal>
1.1024

> <Gold.Chemscore.Rot>
2.4260

> <Gold.Chemscore.Internal.Correction>
   9.000000E+99

> <Gold.Chemscore.Hbonds>
donor molecule, donor type, donor heavy atom, donor atom, acceptor molecule, acceptor atom, score
      P1  H  6896  6907       L1    15  0.03
      P1  H  7997  8010       L1    12  0.93

> <Gold.Chemscore.Hbond.Weighted>
-4.5943

> <Gold.Chemscore.Metal.Weighted>
-0.0000

> <Gold.Chemscore.Lipo.Weighted>
-10.3541

> <Gold.Chemscore.Internal_Hbond.Weighted>
0.0000

> <Gold.Chemscore.DEClash.Weighted>
0.0646

> <Gold.Chemscore.DEInternal.Weighted>
1.1024

> <Gold.Chemscore.Rot.Weighted>
6.2107

> <Gold.Chemscore.Internal.Correction.Weighted>
   9.000000E+99

> <Gold.Protein.RotatedTorsions>
[ 6907 6896 6895 6894 ] final    1.62 input  -60.11 | X-H torsion
[ 7974 7965 7964 7962 ] final -147.88 input  175.53 | X-H torsion
[ 8008 7997 7996 7995 ] final   61.44 input   59.86 | X-H torsion
[ 10167 10162 10161 10158 ] final   38.19 input  -65.29 | X-H torsion
[ 10718 10713 10712 10709 ] final   37.50 input   66.30 | X-H torsion
[ 10763 10752 10751 10750 ] final   71.34 input  -60.55 | X-H torsion
[ 11005 11000 10999 10996 ] final   -3.97 input  -57.11 | X-H torsion

> <Gold.Protein.ActiveResidues>
 VAL166  LYS551  ARG553  GLY616  TRP617  ASP618  TYR619  PRO620  LYS621  CYS622 
 ASP623  PHE694  ASN695  SER759  ASP760  ASP761  ALA762  ILE779  LEU786  VAL792 
 PHE793  MET794  SER795  GLU796  ALA797  LYS798  CYS799  TRP800  GLU811  SER814 

> <Gold.Protein.RotatedAtoms>
  151.5956  135.1050  160.0048 H   0  0  0  0  0  0  0  0  0  0  0  0  # atno 6907 bound_to 6896
  152.4284  133.7231  159.6555 H   0  0  0  0  0  0  0  0  0  0  0  0  # atno 6908 bound_to 6896
  150.8174  133.8240  159.3176 H   0  0  0  0  0  0  0  0  0  0  0  0  # atno 6909 bound_to 6896
  144.8065  140.5269  143.5672 H   0  0  0  0  0  0  0  0  0  0  0  0  # atno 7974 bound_to 7965
  155.5984  140.3493  155.4586 H   0  0  0  0  0  0  0  0  0  0  0  0  # atno 8008 bound_to 7997
  156.0247  140.1261  157.0345 H   0  0  0  0  0  0  0  0  0  0  0  0  # atno 8009 bound_to 7997
  154.4329  140.1055  156.6000 H   0  0  0  0  0  0  0  0  0  0  0  0  # atno 8010 bound_to 7997
  140.3960  144.1788  150.6132 H   0  0  0  0  0  0  0  0  0  0  0  0  # atno 10167 bound_to 10162
  157.3477  130.7582  149.6956 H   0  0  0  0  0  0  0  0  0  0  0  0  # atno 10718 bound_to 10713
  153.0393  135.5140  154.7578 H   0  0  0  0  0  0  0  0  0  0  0  0  # atno 10763 bound_to 10752
  154.6529  135.2927  154.9967 H   0  0  0  0  0  0  0  0  0  0  0  0  # atno 10764 bound_to 10752
  154.0845  135.6659  153.4895 H   0  0  0  0  0  0  0  0  0  0  0  0  # atno 10765 bound_to 10752
  140.6751  133.9202  155.8519 H   0  0  0  0  0  0  0  0  0  0  0  0  # atno 11005 bound_to 11000
  145.5427  139.1475  143.3438 LP  0  0  0  0  0  0  0  0  0  0  0  0  # atno 17320 bound_to 7965
  146.2357  140.5566  142.8956 LP  0  0  0  0  0  0  0  0  0  0  0  0  # atno 17321 bound_to 7965
  140.4790  143.2386  151.8983 LP  0  0  0  0  0  0  0  0  0  0  0  0  # atno 17342 bound_to 10162
  139.4786  144.5290  151.8694 LP  0  0  0  0  0  0  0  0  0  0  0  0  # atno 17343 bound_to 10162
  155.9717  130.4149  150.4157 LP  0  0  0  0  0  0  0  0  0  0  0  0  # atno 17370 bound_to 10713
  157.2215  131.0483  151.2544 LP  0  0  0  0  0  0  0  0  0  0  0  0  # atno 17371 bound_to 10713
  141.0361  134.0687  157.3957 LP  0  0  0  0  0  0  0  0  0  0  0  0  # atno 17394 bound_to 11000
  139.8969  135.0148  156.7074 LP  0  0  0  0  0  0  0  0  0  0  0  0  # atno 17395 bound_to 11000

$$$$
