AV-unprocessed.smi:119|AV-procd|sdf|1133|dock3
  -GOLD-   2262018263D 1   1.00000     0.00000
 Structure written by MMmdl.
 51 54  0  0  0  0  0  0  0  0  1 V2000
  148.4751  141.6391  154.4423 C   0  0  0  0  0  0  0  0  0  0  0  0
  149.7126  141.5552  155.3454 C   0  0  2  0  0  0  0  0  0  0  0  0
  150.3293  140.1420  155.3058 C   0  0  0  0  0  0  0  0  0  0  0  0
  151.7062  140.0226  155.9850 C   0  0  0  0  0  0  0  0  0  0  0  0
  151.6140  140.1349  157.4441 N   0  0  0  0  0  0  0  0  0  0  0  0
  151.2822  139.0602  158.2041 C   0  0  0  0  0  0  0  0  0  0  0  0
  151.1065  139.1497  159.4212 O   0  0  0  0  0  0  0  0  0  0  0  0
  151.1207  137.6752  157.5352 C   0  0  0  0  0  0  0  0  0  0  0  0
  149.7893  137.0794  157.7800 N   0  0  0  0  0  0  0  0  0  0  0  0
  148.8941  136.9156  156.6943 C   0  0  0  0  0  0  0  0  0  0  0  0
  149.2041  137.2568  155.5521 O   0  0  0  0  0  0  0  0  0  0  0  0
  147.6024  136.3259  157.0287 C   0  0  0  0  0  0  0  0  0  0  0  0
  146.7004  136.1038  156.0575 F   0  0  0  0  0  0  0  0  0  0  0  0
  147.2977  135.9957  158.3009 C   0  0  0  0  0  0  0  0  0  0  0  0
  148.1646  136.1991  159.3564 N   0  0  0  0  0  0  0  0  0  0  0  0
  147.7511  135.7775  160.7473 C   0  0  2  0  0  0  0  0  0  0  0  0
  146.3671  135.1020  160.7988 C   0  0  0  0  0  0  0  0  0  0  0  0
  145.5879  135.9931  161.7521 C   0  0  0  0  0  0  0  0  0  0  0  0
  146.6905  136.7001  162.5327 C   0  0  0  0  0  0  0  0  0  0  0  0
  147.7012  136.9102  161.5590 O   0  0  0  0  0  0  0  0  0  0  0  0
  149.4533  136.7240  159.1089 C   0  0  0  0  0  0  0  0  0  0  0  0
  150.2651  136.8734  160.0241 O   0  0  0  0  0  0  0  0  0  0  0  0
  151.7964  141.4291  157.9943 C   0  0  0  0  0  0  0  0  0  0  0  0
  152.9927  141.7302  158.6815 C   0  0  0  0  0  0  0  0  0  0  0  0
  153.1837  143.0079  159.2410 C   0  0  0  0  0  0  0  0  0  0  0  0
  152.1812  143.9884  159.1158 C   0  0  0  0  0  0  0  0  0  0  0  0
  150.9879  143.6934  158.4289 C   0  0  0  0  0  0  0  0  0  0  0  0
  150.7932  142.4184  157.8616 C   0  0  0  0  0  0  0  0  0  0  0  0
  149.2702  142.0791  157.0294 S   0  0  0  0  0  0  0  0  0  0  0  0
  148.7218  141.3897  153.4099 H   0  0  0  0  0  0  0  0  0  0  0  0
  148.0553  142.6453  154.4453 H   0  0  0  0  0  0  0  0  0  0  0  0
  147.6962  140.9522  154.7747 H   0  0  0  0  0  0  0  0  0  0  0  0
  150.4464  142.2692  154.9696 H   0  0  0  0  0  0  0  0  0  0  0  0
  149.6331  139.4181  155.7320 H   0  0  0  0  0  0  0  0  0  0  0  0
  150.4531  139.8509  154.2621 H   0  0  0  0  0  0  0  0  0  0  0  0
  152.1745  139.0770  155.7070 H   0  0  0  0  0  0  0  0  0  0  0  0
  152.3745  140.7937  155.5988 H   0  0  0  0  0  0  0  0  0  0  0  0
  151.3307  137.7901  156.4711 H   0  0  0  0  0  0  0  0  0  0  0  0
  151.8780  136.9707  157.8808 H   0  0  0  0  0  0  0  0  0  0  0  0
  146.3288  135.5587  158.4940 H   0  0  0  0  0  0  0  0  0  0  0  0
  148.5379  135.1126  161.1066 H   0  0  0  0  0  0  0  0  0  0  0  0
  145.9027  135.0202  159.8155 H   0  0  0  0  0  0  0  0  0  0  0  0
  146.4860  134.0985  161.2085 H   0  0  0  0  0  0  0  0  0  0  0  0
  145.0014  136.7222  161.1923 H   0  0  0  0  0  0  0  0  0  0  0  0
  144.9060  135.4352  162.3943 H   0  0  0  0  0  0  0  0  0  0  0  0
  146.3578  137.6386  162.9766 H   0  0  0  0  0  0  0  0  0  0  0  0
  147.0769  136.0595  163.3269 H   0  0  0  0  0  0  0  0  0  0  0  0
  153.7642  140.9807  158.7830 H   0  0  0  0  0  0  0  0  0  0  0  0
  154.0985  143.2352  159.7683 H   0  0  0  0  0  0  0  0  0  0  0  0
  152.3268  144.9673  159.5481 H   0  0  0  0  0  0  0  0  0  0  0  0
  150.2216  144.4494  158.3388 H   0  0  0  0  0  0  0  0  0  0  0  0
  1  2  1  0  0  0  0
  1 30  1  0  0  0  0
  1 31  1  0  0  0  0
  1 32  1  0  0  0  0
  2 29  1  0  0  0  0
  2  3  1  0  0  0  0
  2 33  1  0  0  0  0
  3  4  1  0  0  0  0
  3 34  1  0  0  0  0
  3 35  1  0  0  0  0
  4  5  1  0  0  0  0
  4 36  1  0  0  0  0
  4 37  1  0  0  0  0
  5  6  1  0  0  0  0
  5 23  1  0  0  0  0
  6  7  2  0  0  0  0
  6  8  1  0  0  0  0
  8  9  1  0  0  0  0
  8 38  1  0  0  0  0
  8 39  1  0  0  0  0
  9 21  1  0  0  0  0
  9 10  1  0  0  0  0
 10 11  2  0  0  0  0
 10 12  1  0  0  0  0
 12 13  1  0  0  0  0
 12 14  2  0  0  0  0
 14 15  1  0  0  0  0
 14 40  1  0  0  0  0
 15 16  1  0  0  0  0
 15 21  1  0  0  0  0
 16 20  1  0  0  0  0
 16 17  1  0  0  0  0
 16 41  1  0  0  0  0
 17 18  1  0  0  0  0
 17 42  1  0  0  0  0
 17 43  1  0  0  0  0
 18 19  1  0  0  0  0
 18 44  1  0  0  0  0
 18 45  1  0  0  0  0
 19 20  1  0  0  0  0
 19 46  1  0  0  0  0
 19 47  1  0  0  0  0
 21 22  2  0  0  0  0
 23 28  2  0  0  0  0
 23 24  1  0  0  0  0
 24 25  2  0  0  0  0
 24 48  1  0  0  0  0
 25 26  1  0  0  0  0
 25 49  1  0  0  0  0
 26 27  2  0  0  0  0
 26 50  1  0  0  0  0
 27 28  1  0  0  0  0
 27 51  1  0  0  0  0
 28 29  1  0  0  0  0
M  END
> <s_m_source_file>
AV-unprocessed.smi

> <i_m_source_file_index>
119

> <i_lp_mmshare_version>
43012

> <i_f3d_flags>
0

> <s_epik_input>
W2NIXTFbY0hdW2NIXVtjSF1jKGMxMilTW0NASF0oW0NIM10pW0NIMl1bQ0gyXU4yQyg9TylbQ0gyXW4zYyg9TyljKEYpW2NIXW4oYzM9TylbQ0BASF00W0NIMl1bQ0gyXVtDSDJdTzQ=

> <s_epik_cmdline>
J2VwaWtfcHl0aG9uJywgJy1waCcsICc3LjAnLCAnLXRuJywgJzgnLCAnLW1hJywgJzIwMCcsICctbWV0YWxfYmluZGluZycsICctaW1hZScsICc8aW5maWxlLm1hZT4nLCAnLW9tYWUnLCAnPG91dGZpbGUubWFlPic=

> <r_lp_tautomer_probability>
1

> <r_epik_Ionization_Penalty>
1.68882e-06

> <r_epik_Ionization_Penalty_Charging>
3.67303e-09

> <r_epik_Ionization_Penalty_Neutral>
1.68515e-06

> <r_epik_State_Penalty>
-0

> <r_epik_Charging_Adjusted_Penalty>
3.67303e-09

> <i_epik_Tot_Q>
0

> <i_epik_Tot_abs_Q>
0

> <r_epik_Metal_State_Penalty>
-0

> <b_epik_Metal_Only>
0

> <s_epik_Chemistry_Notes>
This compound contains an acetal/aminal-like group ( X-CH(R)-Y where X, Y are N, S, or O) that may be acid/base labile, releasing an aldehyde.

> <s_lp_Force_Field>
OPLS_2005

> <r_lp_Energy>
42.8221

> <b_lp_Chiralities_Consistent>
1

> <s_lp_Variant>
AV-unprocessed.smi:119-1

> <Gold.Version>
5.8.1

> <Gold.Id.Protein>
6NUR|6NUR_protein|mol2

> <Gold.PLP.Fitness>
49.6921

> <Gold.PLP.PLP>
-42.5586

> <Gold.PLP.part.hbond>
-4.8261

> <Gold.PLP.part.metal>
0.0000

> <Gold.PLP.part.buried>
-1.9515

> <Gold.PLP.part.nonpolar>
-36.7073

> <Gold.PLP.part.repulsive>
0.0766

> <Gold.PLP.ligand.clash>
0.0000

> <Gold.PLP.ligand.torsion>
0.0967

> <Gold.PLP.Chemscore.Hbond>
2.4320

> <Gold.PLP.Chemscore.CHOScore>
0.0000

> <Gold.PLP.Chemscore.Metal>
0.0000

> <Gold.Chemscore.Hbonds>
donor molecule, donor type, donor heavy atom, donor atom, acceptor molecule, acceptor atom, score
      P1  H  6896  6908       L1    22  1.00
      P1  H  6931  6943       L1    20  1.00
      P1  H  6934  6947       L1    20  0.33

> <Gold.PLP.Chemscore.Internal.Correction>
0.0310

> <Gold.Rescore>
     Score         DG    S(hbond)    S(metal)    S(lipo)     H(rot)  DE(clash)    DE(int)     intcor
     15.93     -21.19       1.75        0.00     117.77       1.53       1.18       4.08       ----

> <Gold.Chemscore.Fitness>
15.9311

> <Gold.Chemscore.DG>
-21.1852

> <Gold.Chemscore.ZeroCoef>
-5.4800

> <Gold.Chemscore.Hbond>
1.7467

> <Gold.Chemscore.Metal>
0.0000

> <Gold.Chemscore.Lipo>
117.7704

> <Gold.Chemscore.Internal_Hbond>
0.0000

> <Gold.Chemscore.DEClash>
1.1752

> <Gold.Chemscore.DEInternal>
4.0789

> <Gold.Chemscore.Rot>
1.5266

> <Gold.Chemscore.Internal.Correction>
   9.000000E+99

> <Gold.Chemscore.Hbonds>
donor molecule, donor type, donor heavy atom, donor atom, acceptor molecule, acceptor atom, score
      P1  H  6896  6908       L1    22  0.29
      P1  H  6931  6943       L1    20  0.94
      P1  H  6934  6947       L1    20  0.07

> <Gold.Chemscore.Hbond.Weighted>
-5.8341

> <Gold.Chemscore.Metal.Weighted>
-0.0000

> <Gold.Chemscore.Lipo.Weighted>
-13.7791

> <Gold.Chemscore.Internal_Hbond.Weighted>
0.0000

> <Gold.Chemscore.DEClash.Weighted>
1.1752

> <Gold.Chemscore.DEInternal.Weighted>
4.0789

> <Gold.Chemscore.Rot.Weighted>
3.9081

> <Gold.Chemscore.Internal.Correction.Weighted>
   9.000000E+99

> <Gold.Protein.RotatedTorsions>
[ 6907 6896 6895 6894 ] final -135.81 input  -60.11 | X-H torsion
[ 7974 7965 7964 7962 ] final   75.08 input  175.53 | X-H torsion
[ 8008 7997 7996 7995 ] final   56.22 input   59.86 | X-H torsion
[ 10167 10162 10161 10158 ] final  170.46 input  -65.29 | X-H torsion
[ 10718 10713 10712 10709 ] final  117.87 input   66.30 | X-H torsion
[ 10763 10752 10751 10750 ] final  -83.57 input  -60.55 | X-H torsion
[ 11005 11000 10999 10996 ] final -140.20 input  -57.11 | X-H torsion

> <Gold.Protein.ActiveResidues>
 VAL166  LYS551  ARG553  GLY616  TRP617  ASP618  TYR619  PRO620  LYS621  CYS622 
 ASP623  PHE694  ASN695  SER759  ASP760  ASP761  ALA762  ILE779  LEU786  VAL792 
 PHE793  MET794  SER795  GLU796  ALA797  LYS798  CYS799  TRP800  GLU811  SER814 

> <Gold.Protein.RotatedAtoms>
  151.0025  133.6043  159.2692 H   0  0  0  0  0  0  0  0  0  0  0  0  # atno 6907 bound_to 6896
  151.3224  135.0821  159.9320 H   0  0  0  0  0  0  0  0  0  0  0  0  # atno 6908 bound_to 6896
  152.5277  133.9669  159.7798 H   0  0  0  0  0  0  0  0  0  0  0  0  # atno 6909 bound_to 6896
  145.7201  139.2645  143.1601 H   0  0  0  0  0  0  0  0  0  0  0  0  # atno 7974 bound_to 7965
  155.5139  140.3478  155.4393 H   0  0  0  0  0  0  0  0  0  0  0  0  # atno 8008 bound_to 7997
  156.0831  140.1391  156.9715 H   0  0  0  0  0  0  0  0  0  0  0  0  # atno 8009 bound_to 7997
  154.4591  140.0942  156.6818 H   0  0  0  0  0  0  0  0  0  0  0  0  # atno 8010 bound_to 7997
  139.5019  144.3594  151.9841 H   0  0  0  0  0  0  0  0  0  0  0  0  # atno 10167 bound_to 10162
  157.6068  131.1042  150.7676 H   0  0  0  0  0  0  0  0  0  0  0  0  # atno 10718 bound_to 10713
  154.5893  135.5551  153.7262 H   0  0  0  0  0  0  0  0  0  0  0  0  # atno 10763 bound_to 10752
  153.0110  135.6339  154.1872 H   0  0  0  0  0  0  0  0  0  0  0  0  # atno 10764 bound_to 10752
  154.1813  135.2887  155.3031 H   0  0  0  0  0  0  0  0  0  0  0  0  # atno 10765 bound_to 10752
  140.8445  134.2361  157.4793 H   0  0  0  0  0  0  0  0  0  0  0  0  # atno 11005 bound_to 11000
  146.0633  140.7947  142.9724 LP  0  0  0  0  0  0  0  0  0  0  0  0  # atno 17320 bound_to 7965
  144.6919  140.3230  143.7229 LP  0  0  0  0  0  0  0  0  0  0  0  0  # atno 17321 bound_to 7965
  140.3030  144.3625  150.6055 LP  0  0  0  0  0  0  0  0  0  0  0  0  # atno 17342 bound_to 10162
  140.5858  143.2170  151.7344 LP  0  0  0  0  0  0  0  0  0  0  0  0  # atno 17343 bound_to 10162
  156.8062  130.4937  149.5362 LP  0  0  0  0  0  0  0  0  0  0  0  0  # atno 17370 bound_to 10713
  156.1157  130.6073  151.0117 LP  0  0  0  0  0  0  0  0  0  0  0  0  # atno 17371 bound_to 10713
  139.8703  134.9652  156.4522 LP  0  0  0  0  0  0  0  0  0  0  0  0  # atno 17394 bound_to 11000
  140.8858  133.7884  155.9517 LP  0  0  0  0  0  0  0  0  0  0  0  0  # atno 17395 bound_to 11000

$$$$
