AV-unprocessed.smi:1664|AV-procd|sdf|6667|dock3
  -GOLD-   22720 7373D 1   1.00000     0.00000
 Structure written by MMmdl.
 35 36  0  0  0  0  0  0  0  0  3 V2000
  149.6354  139.7747  156.6871 C   0  0  0  0  0  0  0  0  0  0  0  0
  150.4576  140.6044  155.6811 C   0  0  1  0  0  0  0  0  0  0  0  0
  149.5424  141.2124  154.6921 C   0  0  0  0  0  0  0  0  0  0  0  0
  148.8255  141.6889  153.9179 N   0  0  0  0  0  0  0  0  0  0  0  0
  151.1989  141.6421  156.3999 N   0  0  0  0  0  0  0  0  0  0  0  0
  150.7238  142.5009  157.3182 C   0  0  0  0  0  0  0  0  0  0  0  0
  149.5617  142.4988  157.7209 O   0  0  0  0  0  0  0  0  0  0  0  0
  151.7196  143.5323  157.8575 C   0  0  0  0  0  0  0  0  0  0  0  0
  152.2370  143.1433  159.1791 N   0  0  0  0  0  0  0  0  0  0  0  0
  153.0245  141.9760  159.2360 C   0  0  0  0  0  0  0  0  0  0  0  0
  153.5676  141.5330  160.3866 C   0  0  0  0  0  0  0  0  0  0  0  0
  154.3842  140.3394  160.4214 N   0  3  0  0  0  0  0  0  0  0  0  0
  154.8054  139.9458  161.5042 O   0  0  0  0  0  0  0  0  0  0  0  0
  154.6324  139.7574  159.3695 O   0  5  0  0  0  0  0  0  0  0  0  0
  153.3128  142.2991  161.5909 C   0  0  0  0  0  0  0  0  0  0  0  0
  152.5634  143.4181  161.5431 C   0  0  0  0  0  0  0  0  0  0  0  0
  151.9796  143.9027  160.2880 C   0  0  0  0  0  0  0  0  0  0  0  0
  151.3012  144.9284  160.2378 O   0  0  0  0  0  0  0  0  0  0  0  0
  151.4347  139.6734  154.9661 C   0  0  0  0  0  0  0  0  0  0  0  0
  151.1328  138.2132  154.7112 C   0  0  0  0  0  0  0  0  0  0  0  0
  152.2196  138.6020  155.6898 C   0  0  0  0  0  0  0  0  0  0  0  0
  149.1083  138.9628  156.1850 H   0  0  0  0  0  0  0  0  0  0  0  0
  148.8824  140.3785  157.1943 H   0  0  0  0  0  0  0  0  0  0  0  0
  150.2730  139.3296  157.4517 H   0  0  0  0  0  0  0  0  0  0  0  0
  152.1725  141.7354  156.1494 H   0  0  0  0  0  0  0  0  0  0  0  0
  152.5352  143.6567  157.1428 H   0  0  0  0  0  0  0  0  0  0  0  0
  151.2334  144.5080  157.9034 H   0  0  0  0  0  0  0  0  0  0  0  0
  153.1599  141.4807  158.2852 H   0  0  0  0  0  0  0  0  0  0  0  0
  153.7217  141.9822  162.5392 H   0  0  0  0  0  0  0  0  0  0  0  0
  152.3875  143.9746  162.4520 H   0  0  0  0  0  0  0  0  0  0  0  0
  151.9790  140.1742  154.1668 H   0  0  0  0  0  0  0  0  0  0  0  0
  150.2147  137.7953  155.1187 H   0  0  0  0  0  0  0  0  0  0  0  0
  151.4433  137.7985  153.7544 H   0  0  0  0  0  0  0  0  0  0  0  0
  153.2515  138.4450  155.3825 H   0  0  0  0  0  0  0  0  0  0  0  0
  152.0233  138.4439  156.7482 H   0  0  0  0  0  0  0  0  0  0  0  0
  1  2  1  0  0  0  0
  1 22  1  0  0  0  0
  1 23  1  0  0  0  0
  1 24  1  0  0  0  0
  2  3  1  0  0  0  0
  2  5  1  0  0  0  0
  2 19  1  0  0  0  0
  3  4  3  0  0  0  0
  5  6  1  0  0  0  0
  5 25  1  0  0  0  0
  6  7  2  0  0  0  0
  6  8  1  0  0  0  0
  8  9  1  0  0  0  0
  8 26  1  0  0  0  0
  8 27  1  0  0  0  0
  9 17  1  0  0  0  0
  9 10  1  0  0  0  0
 10 11  2  0  0  0  0
 10 28  1  0  0  0  0
 11 12  1  0  0  0  0
 11 15  1  0  0  0  0
 12 13  2  0  0  0  0
 12 14  1  0  0  0  0
 15 16  2  0  0  0  0
 15 29  1  0  0  0  0
 16 17  1  0  0  0  0
 16 30  1  0  0  0  0
 17 18  2  0  0  0  0
 19 21  1  0  0  0  0
 19 20  1  0  0  0  0
 19 31  1  0  0  0  0
 20 21  1  0  0  0  0
 20 32  1  0  0  0  0
 20 33  1  0  0  0  0
 21 34  1  0  0  0  0
 21 35  1  0  0  0  0
M  CHG  1  12   1
M  CHG  1  14  -1
M  END
> <s_m_source_file>
AV-unprocessed.smi

> <i_m_source_file_index>
1664

> <i_lp_mmshare_version>
43012

> <i_f3d_flags>
0

> <s_epik_input>
W0NIMl0xW0NIMl1bQ0hdMVtDQF0oW0NIM10pKEMjTilbTkhdQyg9TylbQ0gyXW4yW2NIXWMoW04rXSg9TylbTy1dKVtjSF1bY0hdYzI9Tw==

> <s_epik_cmdline>
J2VwaWtfcHl0aG9uJywgJy1waCcsICc3LjAnLCAnLXRuJywgJzgnLCAnLW1hJywgJzIwMCcsICctbWV0YWxfYmluZGluZycsICctaW1hZScsICc8aW5maWxlLm1hZT4nLCAnLW9tYWUnLCAnPG91dGZpbGUubWFlPic=

> <r_lp_tautomer_probability>
1

> <r_epik_Ionization_Penalty>
4.65324e-07

> <r_epik_Ionization_Penalty_Charging>
6.17383e-11

> <r_epik_Ionization_Penalty_Neutral>
4.65262e-07

> <r_epik_State_Penalty>
-0

> <r_epik_Charging_Adjusted_Penalty>
6.17383e-11

> <i_epik_Tot_Q>
0

> <i_epik_Tot_abs_Q>
2

> <r_epik_Metal_State_Penalty>
-0

> <b_epik_Metal_Only>
0

> <s_lp_Force_Field>
OPLS_2005

> <r_lp_Energy>
25.9803

> <b_lp_Chiralities_Consistent>
1

> <s_lp_Variant>
AV-unprocessed.smi:1664-1

> <Gold.Version>
5.8.1

> <Gold.Id.Protein>
6NUR|6NUR_protein|mol2

> <Gold.PLP.Fitness>
51.0088

> <Gold.PLP.PLP>
-47.1798

> <Gold.PLP.part.hbond>
-2.0000

> <Gold.PLP.part.metal>
0.0000

> <Gold.PLP.part.buried>
-2.5179

> <Gold.PLP.part.nonpolar>
-43.0971

> <Gold.PLP.part.repulsive>
0.6296

> <Gold.PLP.ligand.clash>
0.0000

> <Gold.PLP.ligand.torsion>
1.2493

> <Gold.PLP.Chemscore.Hbond>
1.5920

> <Gold.PLP.Chemscore.CHOScore>
0.0000

> <Gold.PLP.Chemscore.Metal>
0.0000

> <Gold.Chemscore.Hbonds>
donor molecule, donor type, donor heavy atom, donor atom, acceptor molecule, acceptor atom, score
      P1  H  7997  8008       L1    14  0.78
      P1  H  8011  8017       L1     4  0.59

> <Gold.PLP.Chemscore.Internal.Correction>
1.5516

> <Gold.Rescore>
     Score         DG    S(hbond)    S(metal)    S(lipo)     H(rot)  DE(clash)    DE(int)     intcor
     12.21     -15.85       1.50        0.00      88.36       1.94       1.04       2.60       ----

> <Gold.Chemscore.Fitness>
12.2109

> <Gold.Chemscore.DG>
-15.8519

> <Gold.Chemscore.ZeroCoef>
-5.4800

> <Gold.Chemscore.Hbond>
1.4960

> <Gold.Chemscore.Metal>
0.0000

> <Gold.Chemscore.Lipo>
88.3573

> <Gold.Chemscore.Internal_Hbond>
0.0000

> <Gold.Chemscore.DEClash>
1.0416

> <Gold.Chemscore.DEInternal>
2.5994

> <Gold.Chemscore.Rot>
1.9386

> <Gold.Chemscore.Internal.Correction>
   9.000000E+99

> <Gold.Chemscore.Hbonds>
donor molecule, donor type, donor heavy atom, donor atom, acceptor molecule, acceptor atom, score
      P1  H  7997  8008       L1    14  0.75
      P1  H  8011  8017       L1     4  0.50

> <Gold.Chemscore.Hbond.Weighted>
-4.9968

> <Gold.Chemscore.Metal.Weighted>
-0.0000

> <Gold.Chemscore.Lipo.Weighted>
-10.3378

> <Gold.Chemscore.Internal_Hbond.Weighted>
0.0000

> <Gold.Chemscore.DEClash.Weighted>
1.0416

> <Gold.Chemscore.DEInternal.Weighted>
2.5994

> <Gold.Chemscore.Rot.Weighted>
4.9627

> <Gold.Chemscore.Internal.Correction.Weighted>
   9.000000E+99

> <Gold.Protein.RotatedTorsions>
[ 6907 6896 6895 6894 ] final   31.55 input  -60.11 | X-H torsion
[ 7974 7965 7964 7962 ] final -101.72 input  175.53 | X-H torsion
[ 8008 7997 7996 7995 ] final -110.44 input   59.86 | X-H torsion
[ 10167 10162 10161 10158 ] final   83.19 input  -65.29 | X-H torsion
[ 10718 10713 10712 10709 ] final -178.91 input   66.30 | X-H torsion
[ 10763 10752 10751 10750 ] final  125.59 input  -60.55 | X-H torsion
[ 11005 11000 10999 10996 ] final  -52.25 input  -57.11 | X-H torsion

> <Gold.Protein.ActiveResidues>
 VAL166  LYS551  ARG553  GLY616  TRP617  ASP618  TYR619  PRO620  LYS621  CYS622 
 ASP623  PHE694  ASN695  SER759  ASP760  ASP761  ALA762  ILE779  LEU786  VAL792 
 PHE793  MET794  SER795  GLU796  ALA797  LYS798  CYS799  TRP800  GLU811  SER814 

> <Gold.Protein.RotatedAtoms>
  152.0619  134.9588  160.0574 H   0  0  0  0  0  0  0  0  0  0  0  0  # atno 6907 bound_to 6896
  152.0948  133.4214  159.4568 H   0  0  0  0  0  0  0  0  0  0  0  0  # atno 6908 bound_to 6896
  150.6837  134.2748  159.4646 H   0  0  0  0  0  0  0  0  0  0  0  0  # atno 6909 bound_to 6896
  145.2779  140.9318  143.2949 H   0  0  0  0  0  0  0  0  0  0  0  0  # atno 7974 bound_to 7965
  154.9746  140.0397  157.2250 H   0  0  0  0  0  0  0  0  0  0  0  0  # atno 8008 bound_to 7997
  154.7770  140.2812  155.6071 H   0  0  0  0  0  0  0  0  0  0  0  0  # atno 8009 bound_to 7997
  156.2930  140.2599  156.2586 H   0  0  0  0  0  0  0  0  0  0  0  0  # atno 8010 bound_to 7997
  139.9209  144.6213  150.8441 H   0  0  0  0  0  0  0  0  0  0  0  0  # atno 10167 bound_to 10162
  156.8514  130.9720  151.3092 H   0  0  0  0  0  0  0  0  0  0  0  0  # atno 10718 bound_to 10713
  153.6797  135.3316  155.3175 H   0  0  0  0  0  0  0  0  0  0  0  0  # atno 10763 bound_to 10752
  154.8469  135.4406  154.1619 H   0  0  0  0  0  0  0  0  0  0  0  0  # atno 10764 bound_to 10752
  153.2632  135.6993  153.7633 H   0  0  0  0  0  0  0  0  0  0  0  0  # atno 10765 bound_to 10752
  141.0914  133.6632  156.3997 H   0  0  0  0  0  0  0  0  0  0  0  0  # atno 11005 bound_to 11000
  144.9278  139.4334  143.6510 LP  0  0  0  0  0  0  0  0  0  0  0  0  # atno 17320 bound_to 7965
  146.3226  139.8173  142.8934 LP  0  0  0  0  0  0  0  0  0  0  0  0  # atno 17321 bound_to 7965
  140.7662  143.3297  151.2436 LP  0  0  0  0  0  0  0  0  0  0  0  0  # atno 17342 bound_to 10162
  139.6862  143.9769  152.2835 LP  0  0  0  0  0  0  0  0  0  0  0  0  # atno 17343 bound_to 10162
  157.6301  130.8723  149.9259 LP  0  0  0  0  0  0  0  0  0  0  0  0  # atno 17370 bound_to 10713
  156.0826  130.3671  150.0550 LP  0  0  0  0  0  0  0  0  0  0  0  0  # atno 17371 bound_to 10713
  140.5242  134.6275  157.5328 LP  0  0  0  0  0  0  0  0  0  0  0  0  # atno 17394 bound_to 11000
  139.9741  134.7244  155.9983 LP  0  0  0  0  0  0  0  0  0  0  0  0  # atno 17395 bound_to 11000

$$$$
