#       Name:                AV-unprocessed.smi:2811
#       Creating user name   scv26
#       Creation time:       Fri Mar 27 15:27:09 2020


#       File generated by GOLD software.
#

@<TRIPOS>MOLECULE
AV-unprocessed.smi:2811
    43    45     1
SMALL
NO_CHARGES


@<TRIPOS>ATOM
      1 ****        -1.1307   6.5097  -0.7531 C.3            1 S1                 0.0000
      2 ****         0.0802   5.6921  -0.3558 C.ar           1 S1                 0.0000
      3 ****         1.2856   6.3220   0.0065 C.ar           1 S1                 0.0000
      4 ****         2.3762   5.5087   0.3694 C.ar           1 S1                 0.0000
      5 ****         3.7015   6.1189   0.7744 C.3            1 S1                 0.0000
      6 ****         2.3146   4.1602   0.3879 N.ar           1 S1                 0.0000
      7 ****         1.1591   3.5386   0.0414 C.ar           1 S1                 0.0000
      8 ****         0.9737   2.1242   0.0234 N.am           1 S1                 0.0000
      9 ****         1.8179   1.1061   0.2974 C.2            1 S1                 0.0000
     10 ****         2.9807   1.3196   0.6364 O.2            1 S1                 0.0000
     11 ****         1.3146  -0.1326   0.1815 N.am           1 S1                 0.0000
     12 ****         2.0433  -1.3698   0.4358 C.3            1 S1                 0.0000
     13 ****         2.1268  -1.7122   1.9285 C.3            1 S1                 0.0000
     14 ****         1.4477  -3.0874   1.9750 C.3            1 S1                 0.0000
     15 ****         2.2998  -4.1762   1.3062 C.3            1 S1                 0.0000
     16 ****         2.1493  -3.8287  -0.1753 C.3            1 S1                 0.0000
     17 ****         1.2640  -2.5774  -0.1114 C.3            1 S1                 0.0000
     18 ****         0.4408  -2.9055   0.9958 O.3            1 S1                 0.0000
     19 ****         0.0191   4.2839  -0.3361 C.ar           1 S1                 0.0000
     20 ****        -0.8354   7.4947  -1.1160 H              1 S1                 0.0000
     21 ****        -1.7915   6.6428   0.1036 H              1 S1                 0.0000
     22 ****        -1.6898   6.0109  -1.5453 H              1 S1                 0.0000
     23 ****         1.3711   7.3989   0.0074 H              1 S1                 0.0000
     24 ****         3.7769   7.1522   0.4355 H              1 S1                 0.0000
     25 ****         4.5320   5.5599   0.3417 H              1 S1                 0.0000
     26 ****         3.8060   6.1052   1.8593 H              1 S1                 0.0000
     27 ****         0.0465   1.8317  -0.2477 H              1 S1                 0.0000
     28 ****         0.3479  -0.2226  -0.0990 H              1 S1                 0.0000
     29 ****         3.0322  -1.3136  -0.0230 H              1 S1                 0.0000
     30 ****         3.1530  -1.7434   2.2962 H              1 S1                 0.0000
     31 ****         1.5724  -0.9964   2.5375 H              1 S1                 0.0000
     32 ****         1.0717  -3.3617   2.9609 H              1 S1                 0.0000
     33 ****         3.3368  -4.1556   1.6436 H              1 S1                 0.0000
     34 ****         1.8933  -5.1677   1.5086 H              1 S1                 0.0000
     35 ****         3.1038  -3.6426  -0.6688 H              1 S1                 0.0000
     36 ****         1.6408  -4.6341  -0.7065 H              1 S1                 0.0000
     37 ****         0.7182  -2.3817  -1.0354 H              1 S1                 0.0000
     38 ****        -0.8978   3.7809  -0.6081 H              1 S1                 0.0000
     39 ****         3.1148   3.6233   0.6551 LP             1 S1                 0.0000
     40 ****         3.3148   2.2590   0.7129 LP             1 S1                 0.0000
     41 ****         3.5921   0.5537   0.8355 LP             1 S1                 0.0000
     42 ****        -0.1827  -2.1606   1.2331 LP             1 S1                 0.0000
     43 ****        -0.0840  -3.7419   0.8379 LP             1 S1                 0.0000
@<TRIPOS>BOND
    1    1    2 1     
    2    1   20 1     
    3    1   21 1     
    4    1   22 1     
    5    2   19 ar    
    6    2    3 ar    
    7    3    4 ar    
    8    3   23 1     
    9    4    5 1     
   10    4    6 ar    
   11    5   24 1     
   12    5   25 1     
   13    5   26 1     
   14    6    7 ar    
   15    7    8 1     
   16    7   19 ar    
   17    8    9 am    
   18    8   27 1     
   19    9   10 2     
   20    9   11 am    
   21   11   12 1     
   22   11   28 1     
   23   12   17 1     
   24   12   13 1     
   25   12   29 1     
   26   13   14 1     
   27   13   30 1     
   28   13   31 1     
   29   14   18 1     
   30   14   15 1     
   31   14   32 1     
   32   15   16 1     
   33   15   33 1     
   34   15   34 1     
   35   16   17 1     
   36   16   35 1     
   37   16   36 1     
   38   17   18 1     
   39   17   37 1     
   40   19   38 1     
   41    6   39 1     
   42   10   40 1     
   43   10   41 1     
   44   18   42 1     
   45   18   43 1     
@<TRIPOS>SUBSTRUCTURE
      1 S1             1
@<TRIPOS>SET
LONE_PAIRS      STATIC     ATOMS    <user>   **** ""
5 39 40 41 42 43
DONOR_HYDROGENS      STATIC     ATOMS    <user>   **** ""
2 27 28
ATOM$BLUE        STATIC     ATOMS    COLORGROUP SYSTEM
5 39 40 41 42 43
ATOM$RED        STATIC     ATOMS    COLORGROUP SYSTEM
2 27 28
