AV-unprocessed.smi:1607|AV-procd|sdf|6464|dock1
  -GOLD-   22720 7123D 1   1.00000     0.00000
 Structure written by MMmdl.
 39 40  0  0  0  0  0  0  0  0  2 V2000
  152.4253  142.7741  161.6843 C   0  0  0  0  0  0  0  0  0  0  0  0
  153.2508  142.6617  160.3905 C   0  0  1  0  0  0  0  0  0  0  0  0
  154.0678  141.3584  160.3143 C   0  0  0  0  0  0  0  0  0  0  0  0
  153.1670  140.1520  160.0140 C   0  0  0  0  0  0  0  0  0  0  0  0
  152.3113  140.3992  158.7614 C   0  0  0  0  0  0  0  0  0  0  0  0
  151.5105  141.6432  158.8969 N   0  3  2  0  0  0  0  0  0  0  0  0
  150.5564  141.8240  157.7739 C   0  0  0  0  0  0  0  0  0  0  0  0
  151.1853  141.4804  156.4092 C   0  0  0  0  0  0  0  0  0  0  0  0
  150.8857  140.1105  156.0083 N   0  0  0  0  0  0  0  0  0  0  0  0
  151.6965  139.3303  155.2769 C   0  0  0  0  0  0  0  0  0  0  0  0
  152.7886  139.7061  154.8509 O   0  0  0  0  0  0  0  0  0  0  0  0
  151.2018  137.9129  154.9802 C   0  0  0  0  0  0  0  0  0  0  0  0
  151.2506  137.0796  156.1674 N   0  0  0  0  0  0  0  0  0  0  0  0
  150.6347  137.1940  157.3458 C   0  0  0  0  0  0  0  0  0  0  0  0
  150.9617  136.2078  158.1667 N   0  0  0  0  0  0  0  0  0  0  0  0
  151.8416  135.4496  157.4125 N   0  0  0  0  0  0  0  0  0  0  0  0
  152.0164  135.9616  156.2252 N   0  0  0  0  0  0  0  0  0  0  0  0
  152.3799  142.8288  159.1282 C   0  0  0  0  0  0  0  0  0  0  0  0
  151.6639  141.9971  161.7516 H   0  0  0  0  0  0  0  0  0  0  0  0
  151.9171  143.7372  161.7409 H   0  0  0  0  0  0  0  0  0  0  0  0
  153.0635  142.6903  162.5645 H   0  0  0  0  0  0  0  0  0  0  0  0
  153.9619  143.4887  160.4087 H   0  0  0  0  0  0  0  0  0  0  0  0
  154.8142  141.4495  159.5239 H   0  0  0  0  0  0  0  0  0  0  0  0
  154.6219  141.1976  161.2398 H   0  0  0  0  0  0  0  0  0  0  0  0
  153.7781  139.2596  159.8748 H   0  0  0  0  0  0  0  0  0  0  0  0
  152.5202  139.9476  160.8677 H   0  0  0  0  0  0  0  0  0  0  0  0
  152.9462  140.4681  157.8765 H   0  0  0  0  0  0  0  0  0  0  0  0
  151.6494  139.5453  158.6114 H   0  0  0  0  0  0  0  0  0  0  0  0
  149.6585  141.2296  157.9499 H   0  0  0  0  0  0  0  0  0  0  0  0
  150.2344  142.8660  157.7494 H   0  0  0  0  0  0  0  0  0  0  0  0
  150.8394  142.1762  155.6427 H   0  0  0  0  0  0  0  0  0  0  0  0
  152.2699  141.5744  156.4451 H   0  0  0  0  0  0  0  0  0  0  0  0
  150.0057  139.7239  156.3187 H   0  0  0  0  0  0  0  0  0  0  0  0
  150.1760  137.9279  154.6085 H   0  0  0  0  0  0  0  0  0  0  0  0
  151.8209  137.4684  154.1995 H   0  0  0  0  0  0  0  0  0  0  0  0
  149.9548  137.9936  157.6006 H   0  0  0  0  0  0  0  0  0  0  0  0
  151.7809  143.7338  159.2246 H   0  0  0  0  0  0  0  0  0  0  0  0
  153.0200  142.9751  158.2565 H   0  0  0  0  0  0  0  0  0  0  0  0
  150.9493  141.5231  159.7283 H   0  0  0  0  0  0  0  0  0  0  0  0
  1  2  1  0  0  0  0
  1 19  1  0  0  0  0
  1 20  1  0  0  0  0
  1 21  1  0  0  0  0
  2 18  1  0  0  0  0
  2  3  1  0  0  0  0
  2 22  1  0  0  0  0
  3  4  1  0  0  0  0
  3 23  1  0  0  0  0
  3 24  1  0  0  0  0
  4  5  1  0  0  0  0
  4 25  1  0  0  0  0
  4 26  1  0  0  0  0
  5  6  1  0  0  0  0
  5 27  1  0  0  0  0
  5 28  1  0  0  0  0
  6  7  1  0  0  0  0
  6 18  1  0  0  0  0
  6 39  1  0  0  0  0
  7  8  1  0  0  0  0
  7 29  1  0  0  0  0
  7 30  1  0  0  0  0
  8  9  1  0  0  0  0
  8 31  1  0  0  0  0
  8 32  1  0  0  0  0
  9 10  1  0  0  0  0
  9 33  1  0  0  0  0
 10 11  2  0  0  0  0
 10 12  1  0  0  0  0
 12 13  1  0  0  0  0
 12 34  1  0  0  0  0
 12 35  1  0  0  0  0
 13 17  1  0  0  0  0
 13 14  1  0  0  0  0
 14 15  2  0  0  0  0
 14 36  1  0  0  0  0
 15 16  1  0  0  0  0
 16 17  2  0  0  0  0
 18 37  1  0  0  0  0
 18 38  1  0  0  0  0
M  CHG  1   6   1
M  END
> <s_m_source_file>
AV-unprocessed.smi

> <i_m_source_file_index>
1607

> <i_lp_mmshare_version>
43012

> <i_f3d_flags>
0

> <s_epik_input>
W0NIM11bQ0BASF0xW0NIMl1bQ0gyXVtDSDJdTihbQ0gyXTEpW0NIMl1bQ0gyXVtOSF1DKD1PKVtDSDJdbjJbY0hdbm5uMg==

> <s_epik_cmdline>
J2VwaWtfcHl0aG9uJywgJy1waCcsICc3LjAnLCAnLXRuJywgJzgnLCAnLW1hJywgJzIwMCcsICctbWV0YWxfYmluZGluZycsICctaW1hZScsICc8aW5maWxlLm1hZT4nLCAnLW9tYWUnLCAnPG91dGZpbGUubWFlPic=

> <r_lp_tautomer_probability>
1

> <r_epik_Ionization_Penalty>
0.00268321

> <r_epik_Ionization_Penalty_Charging>
0.00267875

> <r_epik_Ionization_Penalty_Neutral>
4.46125e-06

> <r_epik_State_Penalty>
0.00186642

> <r_epik_Charging_Adjusted_Penalty>
0.00454517

> <i_epik_Tot_Q>
1

> <i_epik_Tot_abs_Q>
1

> <r_epik_Metal_State_Penalty>
-0

> <b_epik_Metal_Only>
0

> <s_lp_Force_Field>
OPLS_2005

> <r_lp_Energy>
22.4706

> <b_lp_Chiralities_Consistent>
1

> <s_lp_Variant>
AV-unprocessed.smi:1607-2

> <Gold.Version>
5.8.1

> <Gold.Id.Protein>
6NUR|6NUR_protein|mol2

> <Gold.PLP.Fitness>
43.0111

> <Gold.PLP.PLP>
-36.3492

> <Gold.PLP.part.hbond>
-4.9861

> <Gold.PLP.part.metal>
0.0000

> <Gold.PLP.part.buried>
-5.6642

> <Gold.PLP.part.nonpolar>
-26.3301

> <Gold.PLP.part.repulsive>
0.2532

> <Gold.PLP.ligand.clash>
0.0000

> <Gold.PLP.ligand.torsion>
0.7776

> <Gold.PLP.Chemscore.Hbond>
2.7130

> <Gold.PLP.Chemscore.CHOScore>
0.0000

> <Gold.PLP.Chemscore.Metal>
0.0000

> <Gold.Chemscore.Hbonds>
donor molecule, donor type, donor heavy atom, donor atom, acceptor molecule, acceptor atom, score
      P1  H  6896  6908       L1    15  0.41
      P1  H  7989  7998       L1    11  0.12
      P1  H  7997  8009       L1    11  1.00
      P1  H 10752 10765       L1    17  1.00

> <Gold.PLP.Chemscore.Internal.Correction>
0.0783

> <Gold.Rescore>
     Score         DG    S(hbond)    S(metal)    S(lipo)     H(rot)  DE(clash)    DE(int)     intcor
     14.95     -15.87       2.33        0.00      81.32       2.69       0.00       0.92       ----

> <Gold.Chemscore.Fitness>
14.9470

> <Gold.Chemscore.DG>
-15.8702

> <Gold.Chemscore.ZeroCoef>
-5.4800

> <Gold.Chemscore.Hbond>
2.3263

> <Gold.Chemscore.Metal>
0.0000

> <Gold.Chemscore.Lipo>
81.3232

> <Gold.Chemscore.Internal_Hbond>
0.0000

> <Gold.Chemscore.DEClash>
0.0000

> <Gold.Chemscore.DEInternal>
0.9232

> <Gold.Chemscore.Rot>
2.6932

> <Gold.Chemscore.Internal.Correction>
   9.000000E+99

> <Gold.Chemscore.Hbonds>
donor molecule, donor type, donor heavy atom, donor atom, acceptor molecule, acceptor atom, score
      P1  H  6896  6908       L1    15  0.04
      P1  H  7997  8009       L1    11  0.93
      P1  H 10752 10765       L1    17  0.99

> <Gold.Chemscore.Hbond.Weighted>
-7.7699

> <Gold.Chemscore.Metal.Weighted>
-0.0000

> <Gold.Chemscore.Lipo.Weighted>
-9.5148

> <Gold.Chemscore.Internal_Hbond.Weighted>
0.0000

> <Gold.Chemscore.DEClash.Weighted>
0.0000

> <Gold.Chemscore.DEInternal.Weighted>
0.9232

> <Gold.Chemscore.Rot.Weighted>
6.8945

> <Gold.Chemscore.Internal.Correction.Weighted>
   9.000000E+99

> <Gold.Protein.RotatedTorsions>
[ 6907 6896 6895 6894 ] final -148.57 input  -60.11 | X-H torsion
[ 7974 7965 7964 7962 ] final -170.30 input  175.53 | X-H torsion
[ 8008 7997 7996 7995 ] final -129.20 input   59.86 | X-H torsion
[ 10167 10162 10161 10158 ] final -127.78 input  -65.29 | X-H torsion
[ 10718 10713 10712 10709 ] final   76.76 input   66.30 | X-H torsion
[ 10763 10752 10751 10750 ] final -140.69 input  -60.55 | X-H torsion
[ 11005 11000 10999 10996 ] final   88.26 input  -57.11 | X-H torsion

> <Gold.Protein.ActiveResidues>
 VAL166  LYS551  ARG553  GLY616  TRP617  ASP618  TYR619  PRO620  LYS621  CYS622 
 ASP623  PHE694  ASN695  SER759  ASP760  ASP761  ALA762  ILE779  LEU786  VAL792 
 PHE793  MET794  SER795  GLU796  ALA797  LYS798  CYS799  TRP800  GLU811  SER814 

> <Gold.Protein.RotatedAtoms>
  151.1718  133.4779  159.2593 H   0  0  0  0  0  0  0  0  0  0  0  0  # atno 6907 bound_to 6896
  151.1348  135.0149  159.8609 H   0  0  0  0  0  0  0  0  0  0  0  0  # atno 6908 bound_to 6896
  152.5461  134.1617  159.8613 H   0  0  0  0  0  0  0  0  0  0  0  0  # atno 6909 bound_to 6896
  144.7172  140.2093  143.6329 H   0  0  0  0  0  0  0  0  0  0  0  0  # atno 7974 bound_to 7965
  155.2753  140.0441  157.3010 H   0  0  0  0  0  0  0  0  0  0  0  0  # atno 8008 bound_to 7997
  154.5629  140.2351  155.8276 H   0  0  0  0  0  0  0  0  0  0  0  0  # atno 8009 bound_to 7997
  156.2062  140.3012  155.9639 H   0  0  0  0  0  0  0  0  0  0  0  0  # atno 8010 bound_to 7997
  139.9573  143.5989  152.2456 H   0  0  0  0  0  0  0  0  0  0  0  0  # atno 10167 bound_to 10162
  157.6685  130.9790  150.1544 H   0  0  0  0  0  0  0  0  0  0  0  0  # atno 10718 bound_to 10713
  154.8570  135.3546  154.5748 H   0  0  0  0  0  0  0  0  0  0  0  0  # atno 10763 bound_to 10752
  153.6360  135.7000  153.5263 H   0  0  0  0  0  0  0  0  0  0  0  0  # atno 10764 bound_to 10752
  153.3010  135.4206  155.1212 H   0  0  0  0  0  0  0  0  0  0  0  0  # atno 10765 bound_to 10752
  139.8900  134.8476  156.2976 H   0  0  0  0  0  0  0  0  0  0  0  0  # atno 11005 bound_to 11000
  145.8606  139.2221  143.1719 LP  0  0  0  0  0  0  0  0  0  0  0  0  # atno 17320 bound_to 7965
  146.0177  140.8377  142.9939 LP  0  0  0  0  0  0  0  0  0  0  0  0  # atno 17321 bound_to 7965
  139.6581  144.7662  151.2015 LP  0  0  0  0  0  0  0  0  0  0  0  0  # atno 17342 bound_to 10162
  140.7564  143.6053  150.8659 LP  0  0  0  0  0  0  0  0  0  0  0  0  # atno 17343 bound_to 10162
  156.2335  130.3684  149.8418 LP  0  0  0  0  0  0  0  0  0  0  0  0  # atno 17370 bound_to 10713
  156.6238  130.8637  151.3481 LP  0  0  0  0  0  0  0  0  0  0  0  0  # atno 17371 bound_to 10713
  140.9935  133.7194  156.0850 LP  0  0  0  0  0  0  0  0  0  0  0  0  # atno 17394 bound_to 11000
  140.7594  134.3956  157.5528 LP  0  0  0  0  0  0  0  0  0  0  0  0  # atno 17395 bound_to 11000

$$$$
