#       Name:                AV-unprocessed.smi:1207
#       Creating user name   scv26
#       Creation time:       Fri Mar 27 04:08:40 2020


#       File generated by GOLD software.
#

@<TRIPOS>MOLECULE
AV-unprocessed.smi:1207
    58    60     1
SMALL
NO_CHARGES


@<TRIPOS>ATOM
      1 ****        -5.5815   2.4332  -2.4253 C.3            1 S1                 0.0000
      2 ****        -4.5596   1.9834  -1.3959 C.ar           1 S1                 0.0000
      3 ****        -5.0033   1.3059  -0.2379 C.ar           1 S1                 0.0000
      4 ****        -4.0855   0.8687   0.7419 C.ar           1 S1                 0.0000
      5 ****        -4.2945   0.1934   1.9322 N.2            1 S1                 0.0000
      6 ****        -3.0534   0.0710   2.3930 C.2            1 S1                 0.0000
      7 ****        -2.0626   0.5869   1.6407 N.pl3          1 S1                 0.0000
      8 ****        -0.6410   0.5652   1.9348 C.3            1 S1                 0.0000
      9 ****         0.0415  -0.7273   1.4471 C.3            1 S1                 0.0000
     10 ****        -0.1256  -0.8530   0.0469 O.3            1 S1                 0.0000
     11 ****         1.5481  -0.7344   1.7613 C.3            1 S1                 0.0000
     12 ****         2.1776  -2.0293   1.3879 N.4            1 S1                 1.0000
     13 ****         2.0601  -3.0496   2.4548 C.3            1 S1                 0.0000
     14 ****         3.5698  -1.8997   0.8899 C.3            1 S1                 0.0000
     15 ****         3.6155  -1.1708  -0.4296 C.2            1 S1                 0.0000
     16 ****         4.1712   0.1117  -0.7064 C.2            1 S1                 0.0000
     17 ****         4.8623   1.0548   0.2368 C.3            1 S1                 0.0000
     18 ****         4.0184   0.4517  -1.9747 N.2            1 S1                 0.0000
     19 ****         3.3539  -0.6178  -2.5819 O.3            1 S1                 0.0000
     20 ****         3.1285  -1.5714  -1.6437 C.2            1 S1                 0.0000
     21 ****         2.4137  -2.7979  -2.0999 C.3            1 S1                 0.0000
     22 ****        -2.7004   1.1318   0.5310 C.ar           1 S1                 0.0000
     23 ****        -2.2468   1.8069  -0.6160 C.ar           1 S1                 0.0000
     24 ****        -3.1770   2.2344  -1.5863 C.ar           1 S1                 0.0000
     25 ****        -2.6768   2.9586  -2.8235 C.3            1 S1                 0.0000
     26 ****        -6.5970   2.1917  -2.1099 H              1 S1                 0.0000
     27 ****        -5.4022   1.9409  -3.3814 H              1 S1                 0.0000
     28 ****        -5.5257   3.5118  -2.5743 H              1 S1                 0.0000
     29 ****        -6.0564   1.1143  -0.0926 H              1 S1                 0.0000
     30 ****        -2.8515  -0.4254   3.3309 H              1 S1                 0.0000
     31 ****        -0.1780   1.4413   1.4787 H              1 S1                 0.0000
     32 ****        -0.5141   0.6735   3.0128 H              1 S1                 0.0000
     33 ****        -0.4425  -1.5807   1.9229 H              1 S1                 0.0000
     34 ****         0.2014  -0.0702  -0.3704 H              1 S1                 0.0000
     35 ****         2.0115   0.0963   1.2292 H              1 S1                 0.0000
     36 ****         1.7221  -0.5376   2.8203 H              1 S1                 0.0000
     37 ****         2.6418  -2.7655   3.3328 H              1 S1                 0.0000
     38 ****         2.4222  -4.0169   2.1048 H              1 S1                 0.0000
     39 ****         1.0226  -3.1816   2.7616 H              1 S1                 0.0000
     40 ****         4.1751  -1.4013   1.6483 H              1 S1                 0.0000
     41 ****         3.9995  -2.8952   0.7714 H              1 S1                 0.0000
     42 ****         4.2219   1.3005   1.0838 H              1 S1                 0.0000
     43 ****         5.1347   1.9909  -0.2525 H              1 S1                 0.0000
     44 ****         5.7766   0.6102   0.6299 H              1 S1                 0.0000
     45 ****         2.5322  -3.6102  -1.3828 H              1 S1                 0.0000
     46 ****         2.8009  -3.1382  -3.0606 H              1 S1                 0.0000
     47 ****         1.3477  -2.6009  -2.2149 H              1 S1                 0.0000
     48 ****        -1.1912   1.9915  -0.7495 H              1 S1                 0.0000
     49 ****        -1.5893   3.0384  -2.8255 H              1 S1                 0.0000
     50 ****        -3.0870   3.9676  -2.8661 H              1 S1                 0.0000
     51 ****        -2.9739   2.4243  -3.7261 H              1 S1                 0.0000
     52 ****         1.6438  -2.3767   0.6035 H              1 S1                 0.0000
     53 ****        -5.1529  -0.1198   2.3384 LP             1 S1                 0.0000
     54 ****        -1.0957  -0.9676  -0.1669 LP             1 S1                 0.0000
     55 ****         0.3845  -1.6476  -0.2825 LP             1 S1                 0.0000
     56 ****         4.3172   1.3006  -2.4107 LP             1 S1                 0.0000
     57 ****         3.9195  -0.9935  -3.3161 LP             1 S1                 0.0000
     58 ****         2.4831  -0.3034  -2.9597 LP             1 S1                 0.0000
@<TRIPOS>BOND
    1    1    2 1     
    2    1   26 1     
    3    1   27 1     
    4    1   28 1     
    5    2   24 ar    
    6    2    3 ar    
    7    3    4 ar    
    8    3   29 1     
    9    4   22 ar    
   10    4    5 1     
   11    5    6 2     
   12    6    7 1     
   13    6   30 1     
   14    7    8 1     
   15    7   22 1     
   16    8    9 1     
   17    8   31 1     
   18    8   32 1     
   19    9   10 1     
   20    9   11 1     
   21    9   33 1     
   22   10   34 1     
   23   11   12 1     
   24   11   35 1     
   25   11   36 1     
   26   12   13 1     
   27   12   14 1     
   28   12   52 1     
   29   13   37 1     
   30   13   38 1     
   31   13   39 1     
   32   14   15 1     
   33   14   40 1     
   34   14   41 1     
   35   15   20 2     
   36   15   16 1     
   37   16   17 1     
   38   16   18 2     
   39   17   42 1     
   40   17   43 1     
   41   17   44 1     
   42   18   19 1     
   43   19   20 1     
   44   20   21 1     
   45   21   45 1     
   46   21   46 1     
   47   21   47 1     
   48   22   23 ar    
   49   23   24 ar    
   50   23   48 1     
   51   24   25 1     
   52   25   49 1     
   53   25   50 1     
   54   25   51 1     
   55    5   53 1     
   56   10   54 1     
   57   10   55 1     
   58   18   56 1     
   59   19   57 1     
   60   19   58 1     
@<TRIPOS>SUBSTRUCTURE
      1 S1             1
@<TRIPOS>SET
LONE_PAIRS      STATIC     ATOMS    <user>   **** ""
6 53 54 55 56 57 58
DONOR_HYDROGENS      STATIC     ATOMS    <user>   **** ""
2 34 52
ATOM$BLUE        STATIC     ATOMS    COLORGROUP SYSTEM
6 53 54 55 56 57 58
ATOM$RED        STATIC     ATOMS    COLORGROUP SYSTEM
2 34 52
