AV-unprocessed.smi:1815|AV-procd|sdf|7356|dock1
  -GOLD-   22720 9 13D 1   1.00000     0.00000
 Structure written by MMmdl.
 40 41  0  0  0  0  0  0  0  0  2 V2000
  148.8318  134.3893  154.1421 C   0  0  0  0  0  0  0  0  0  0  0  0
  147.3196  134.1915  154.3486 C   0  0  1  0  0  0  0  0  0  0  0  0
  146.5045  135.4925  154.2123 C   0  0  0  0  0  0  0  0  0  0  0  0
  146.3956  135.9134  152.7951 N   0  3  2  0  0  0  0  0  0  0  0  0
  145.6731  137.2009  152.6454 C   0  0  0  0  0  0  0  0  0  0  0  0
  146.3334  138.1335  151.6116 C   0  0  0  0  0  0  0  0  0  0  0  0
  147.5458  138.7452  152.1429 N   0  0  0  0  0  0  0  0  0  0  0  0
  147.6400  139.3307  153.3456 C   0  0  0  0  0  0  0  0  0  0  0  0
  146.6948  139.4153  154.1306 O   0  0  0  0  0  0  0  0  0  0  0  0
  148.8792  139.8040  153.5650 N   0  0  0  0  0  0  0  0  0  0  0  0
  149.3678  140.4819  154.7129 C   0  0  0  0  0  0  0  0  0  0  0  0
  150.6589  140.5447  155.0593 N   0  0  0  0  0  0  0  0  0  0  0  0
  150.8519  141.2777  156.2330 C   0  0  0  0  0  0  0  0  0  0  0  0
  149.6882  141.7677  156.7717 C   0  0  0  0  0  0  0  0  0  0  0  0
  148.2956  141.3274  155.8193 S   0  0  0  0  0  0  0  0  0  0  0  0
  145.8355  134.8127  151.9746 C   0  0  0  0  0  0  0  0  0  0  0  0
  146.6981  133.5459  152.1182 C   0  0  2  0  0  0  0  0  0  0  0  0
  146.1067  132.3577  151.3515 C   0  0  0  0  0  0  0  0  0  0  0  0
  146.7835  133.1820  153.4934 O   0  0  0  0  0  0  0  0  0  0  0  0
  149.2397  135.0607  154.8983 H   0  0  0  0  0  0  0  0  0  0  0  0
  149.0653  134.8197  153.1686 H   0  0  0  0  0  0  0  0  0  0  0  0
  149.3625  133.4407  154.2251 H   0  0  0  0  0  0  0  0  0  0  0  0
  147.1879  133.8240  155.3668 H   0  0  0  0  0  0  0  0  0  0  0  0
  145.5016  135.3408  154.6146 H   0  0  0  0  0  0  0  0  0  0  0  0
  146.9659  136.2820  154.8073 H   0  0  0  0  0  0  0  0  0  0  0  0
  144.6299  137.0133  152.3863 H   0  0  0  0  0  0  0  0  0  0  0  0
  145.6642  137.7071  153.6119 H   0  0  0  0  0  0  0  0  0  0  0  0
  146.5613  137.5888  150.6937 H   0  0  0  0  0  0  0  0  0  0  0  0
  145.6600  138.9434  151.3337 H   0  0  0  0  0  0  0  0  0  0  0  0
  148.3687  138.7161  151.5584 H   0  0  0  0  0  0  0  0  0  0  0  0
  149.5526  139.6631  152.8266 H   0  0  0  0  0  0  0  0  0  0  0  0
  151.8542  141.4014  156.6157 H   0  0  0  0  0  0  0  0  0  0  0  0
  149.5668  142.3592  157.6670 H   0  0  0  0  0  0  0  0  0  0  0  0
  144.8092  134.6105  152.2861 H   0  0  0  0  0  0  0  0  0  0  0  0
  145.7995  135.1008  150.9247 H   0  0  0  0  0  0  0  0  0  0  0  0
  147.6967  133.7370  151.7245 H   0  0  0  0  0  0  0  0  0  0  0  0
  146.0226  132.5792  150.2873 H   0  0  0  0  0  0  0  0  0  0  0  0
  145.1125  132.1039  151.7205 H   0  0  0  0  0  0  0  0  0  0  0  0
  146.7364  131.4740  151.4575 H   0  0  0  0  0  0  0  0  0  0  0  0
  147.3396  136.0745  152.4734 H   0  0  0  0  0  0  0  0  0  0  0  0
  1  2  1  0  0  0  0
  1 20  1  0  0  0  0
  1 21  1  0  0  0  0
  1 22  1  0  0  0  0
  2 19  1  0  0  0  0
  2  3  1  0  0  0  0
  2 23  1  0  0  0  0
  3  4  1  0  0  0  0
  3 24  1  0  0  0  0
  3 25  1  0  0  0  0
  4  5  1  0  0  0  0
  4 16  1  0  0  0  0
  4 40  1  0  0  0  0
  5  6  1  0  0  0  0
  5 26  1  0  0  0  0
  5 27  1  0  0  0  0
  6  7  1  0  0  0  0
  6 28  1  0  0  0  0
  6 29  1  0  0  0  0
  7  8  1  0  0  0  0
  7 30  1  0  0  0  0
  8  9  2  0  0  0  0
  8 10  1  0  0  0  0
 10 11  1  0  0  0  0
 10 31  1  0  0  0  0
 11 15  1  0  0  0  0
 11 12  2  0  0  0  0
 12 13  1  0  0  0  0
 13 14  2  0  0  0  0
 13 32  1  0  0  0  0
 14 15  1  0  0  0  0
 14 33  1  0  0  0  0
 16 17  1  0  0  0  0
 16 34  1  0  0  0  0
 16 35  1  0  0  0  0
 17 18  1  0  0  0  0
 17 19  1  0  0  0  0
 17 36  1  0  0  0  0
 18 37  1  0  0  0  0
 18 38  1  0  0  0  0
 18 39  1  0  0  0  0
M  CHG  1   4   1
M  END
> <s_m_source_file>
AV-unprocessed.smi

> <i_m_source_file_index>
1815

> <i_lp_mmshare_version>
43012

> <i_f3d_flags>
0

> <s_epik_input>
W0NIM11bQ0BASF0xW0NIMl1OKFtDSDJdW0NASF0oTzEpW0NIM10pW0NIMl1bQ0gyXVtOSF1DKD1PKVtOSF1jMm5bY0hdW2NIXXMy

> <s_epik_cmdline>
J2VwaWtfcHl0aG9uJywgJy1waCcsICc3LjAnLCAnLXRuJywgJzgnLCAnLW1hJywgJzIwMCcsICctbWV0YWxfYmluZGluZycsICctaW1hZScsICc8aW5maWxlLm1hZT4nLCAnLW9tYWUnLCAnPG91dGZpbGUubWFlPic=

> <r_lp_tautomer_probability>
0.999

> <r_epik_Ionization_Penalty>
0.695838

> <r_epik_Ionization_Penalty_Charging>
0.695697

> <r_epik_Ionization_Penalty_Neutral>
0.000141198

> <r_epik_State_Penalty>
0.717972

> <r_epik_Charging_Adjusted_Penalty>
1.41367

> <i_epik_Tot_Q>
1

> <i_epik_Tot_abs_Q>
1

> <r_epik_Metal_State_Penalty>
0.756405

> <b_epik_Metal_Only>
0

> <s_lp_Force_Field>
OPLS_2005

> <r_lp_Energy>
15.0285

> <b_lp_Chiralities_Consistent>
1

> <s_lp_Variant>
AV-unprocessed.smi:1815-7

> <Gold.Version>
5.8.1

> <Gold.Id.Protein>
6NUR|6NUR_protein|mol2

> <Gold.PLP.Fitness>
40.0380

> <Gold.PLP.PLP>
-28.7495

> <Gold.PLP.part.hbond>
-4.8264

> <Gold.PLP.part.metal>
0.0000

> <Gold.PLP.part.buried>
-0.0822

> <Gold.PLP.part.nonpolar>
-24.0286

> <Gold.PLP.part.repulsive>
0.5231

> <Gold.PLP.ligand.clash>
0.0000

> <Gold.PLP.ligand.torsion>
0.7760

> <Gold.PLP.Chemscore.Hbond>
4.2640

> <Gold.PLP.Chemscore.CHOScore>
0.0000

> <Gold.PLP.Chemscore.Metal>
0.0000

> <Gold.Chemscore.Hbonds>
donor molecule, donor type, donor heavy atom, donor atom, acceptor molecule, acceptor atom, score
      L1  H     4    40       P1  7948  2.00
      L1  H     7    30       P1  7957  0.64
      L1  H    10    31       P1  7957  0.70
      P1  H  7989  7998       L1    12  0.99

> <Gold.PLP.Chemscore.Internal.Correction>
0.0485

> <Gold.Rescore>
     Score         DG    S(hbond)    S(metal)    S(lipo)     H(rot)  DE(clash)    DE(int)     intcor
     14.98     -19.58       3.57        0.00      54.35       1.64       1.35       3.26       ----

> <Gold.Chemscore.Fitness>
14.9769

> <Gold.Chemscore.DG>
-19.5820

> <Gold.Chemscore.ZeroCoef>
-5.4800

> <Gold.Chemscore.Hbond>
3.5740

> <Gold.Chemscore.Metal>
0.0000

> <Gold.Chemscore.Lipo>
54.3523

> <Gold.Chemscore.Internal_Hbond>
0.0000

> <Gold.Chemscore.DEClash>
1.3456

> <Gold.Chemscore.DEInternal>
3.2595

> <Gold.Chemscore.Rot>
1.6385

> <Gold.Chemscore.Internal.Correction>
   9.000000E+99

> <Gold.Chemscore.Hbonds>
donor molecule, donor type, donor heavy atom, donor atom, acceptor molecule, acceptor atom, score
      L1  H     4    40       P1  7948  1.00
      L1  H     7    30       P1  7957  0.29
      L1  H    10    31       P1  7957  0.70
      P1  H  7989  7998       L1    12  0.56

> <Gold.Chemscore.Hbond.Weighted>
-11.9372

> <Gold.Chemscore.Metal.Weighted>
-0.0000

> <Gold.Chemscore.Lipo.Weighted>
-6.3592

> <Gold.Chemscore.Internal_Hbond.Weighted>
0.0000

> <Gold.Chemscore.DEClash.Weighted>
1.3456

> <Gold.Chemscore.DEInternal.Weighted>
3.2595

> <Gold.Chemscore.Rot.Weighted>
4.1945

> <Gold.Chemscore.Internal.Correction.Weighted>
   9.000000E+99

> <Gold.Protein.RotatedTorsions>
[ 6907 6896 6895 6894 ] final  159.51 input  -60.11 | X-H torsion
[ 7974 7965 7964 7962 ] final   53.14 input  175.53 | X-H torsion
[ 8008 7997 7996 7995 ] final  -72.30 input   59.86 | X-H torsion
[ 10167 10162 10161 10158 ] final -157.87 input  -65.29 | X-H torsion
[ 10718 10713 10712 10709 ] final  -78.03 input   66.30 | X-H torsion
[ 10763 10752 10751 10750 ] final -153.67 input  -60.55 | X-H torsion
[ 11005 11000 10999 10996 ] final   53.99 input  -57.11 | X-H torsion

> <Gold.Protein.ActiveResidues>
 VAL166  LYS551  ARG553  GLY616  TRP617  ASP618  TYR619  PRO620  LYS621  CYS622 
 ASP623  PHE694  ASN695  SER759  ASP760  ASP761  ALA762  ILE779  LEU786  VAL792 
 PHE793  MET794  SER795  GLU796  ALA797  LYS798  CYS799  TRP800  GLU811  SER814 

> <Gold.Protein.RotatedAtoms>
  151.9845  133.3769  159.4120 H   0  0  0  0  0  0  0  0  0  0  0  0  # atno 6907 bound_to 6896
  150.6930  134.4003  159.5125 H   0  0  0  0  0  0  0  0  0  0  0  0  # atno 6908 bound_to 6896
  152.1727  134.8820  160.0584 H   0  0  0  0  0  0  0  0  0  0  0  0  # atno 6909 bound_to 6896
  145.9742  139.4178  143.0172 H   0  0  0  0  0  0  0  0  0  0  0  0  # atno 7974 bound_to 7965
  154.5156  140.0799  156.8074 H   0  0  0  0  0  0  0  0  0  0  0  0  # atno 8008 bound_to 7997
  155.3689  140.3422  155.4224 H   0  0  0  0  0  0  0  0  0  0  0  0  # atno 8009 bound_to 7997
  156.1623  140.1592  156.8578 H   0  0  0  0  0  0  0  0  0  0  0  0  # atno 8010 bound_to 7997
  139.6736  143.9702  152.2298 H   0  0  0  0  0  0  0  0  0  0  0  0  # atno 10167 bound_to 10162
  156.0128  130.4507  150.3434 H   0  0  0  0  0  0  0  0  0  0  0  0  # atno 10718 bound_to 10713
  154.7912  135.3207  154.7773 H   0  0  0  0  0  0  0  0  0  0  0  0  # atno 10763 bound_to 10752
  153.8462  135.6866  153.4801 H   0  0  0  0  0  0  0  0  0  0  0  0  # atno 10764 bound_to 10752
  153.1582  135.4671  154.9676 H   0  0  0  0  0  0  0  0  0  0  0  0  # atno 10765 bound_to 10752
  140.0722  134.5454  155.9034 H   0  0  0  0  0  0  0  0  0  0  0  0  # atno 11005 bound_to 11000
  145.7863  140.9834  143.1072 LP  0  0  0  0  0  0  0  0  0  0  0  0  # atno 17320 bound_to 7965
  144.6844  139.9627  143.7480 LP  0  0  0  0  0  0  0  0  0  0  0  0  # atno 17321 bound_to 7965
  139.9473  144.6643  150.8207 LP  0  0  0  0  0  0  0  0  0  0  0  0  # atno 17342 bound_to 10162
  140.7627  143.3205  151.2633 LP  0  0  0  0  0  0  0  0  0  0  0  0  # atno 17343 bound_to 10162
  157.1529  131.0325  151.2877 LP  0  0  0  0  0  0  0  0  0  0  0  0  # atno 17370 bound_to 10713
  157.4377  130.7526  149.7043 LP  0  0  0  0  0  0  0  0  0  0  0  0  # atno 17371 bound_to 10713
  141.2016  133.6619  156.5960 LP  0  0  0  0  0  0  0  0  0  0  0  0  # atno 17394 bound_to 11000
  140.3610  134.7687  157.4534 LP  0  0  0  0  0  0  0  0  0  0  0  0  # atno 17395 bound_to 11000

$$$$
