AV-unprocessed.smi:1803|AV-procd|sdf|7288|dock4
  -GOLD-   22720 8543D 1   1.00000     0.00000
 Structure written by MMmdl.
 35 37  0  0  0  0  0  0  0  0  3 V2000
  146.6531  128.3187  153.0874 O   0  0  0  0  0  0  0  0  0  0  0  0
  147.1552  128.8235  152.0841 C   0  0  0  0  0  0  0  0  0  0  0  0
  147.9037  128.1255  151.1911 N   0  5  0  0  0  0  0  0  0  0  0  0
  148.2061  126.8245  151.3582 C   0  0  0  0  0  0  0  0  0  0  0  0
  147.6584  126.0760  152.3296 N   0  0  0  0  0  0  0  0  0  0  0  0
  148.0990  124.7598  152.3180 N   0  0  0  0  0  0  0  0  0  0  0  0
  148.9832  124.5519  151.3426 C   0  0  0  0  0  0  0  0  0  0  0  0
  149.3517  125.9432  150.3452 S   0  0  0  0  0  0  0  0  0  0  0  0
  146.9491  130.1325  151.8435 N   0  0  0  0  0  0  0  0  0  0  0  0
  146.1304  131.0302  152.6522 C   0  0  1  0  0  0  0  0  0  0  0  0
  146.9146  132.2271  153.2061 C   0  0  0  0  0  0  0  0  0  0  0  0
  145.8982  133.3814  153.2606 C   0  0  0  0  0  0  0  0  0  0  0  0
  144.6263  132.8350  152.7376 N   0  3  1  0  0  0  0  0  0  0  0  0
  143.6735  133.8149  152.1564 C   0  0  0  0  0  0  0  0  0  0  0  0
  144.0570  134.2438  150.7300 C   0  0  0  0  0  0  0  0  0  0  0  0
  144.2529  133.0192  149.8307 C   0  0  0  0  0  0  0  0  0  0  0  0
  145.3258  132.1069  150.4338 C   0  0  0  0  0  0  0  0  0  0  0  0
  144.9690  131.6787  151.8808 C   0  0  1  0  0  0  0  0  0  0  0  0
  149.4194  123.5733  151.2085 H   0  0  0  0  0  0  0  0  0  0  0  0
  147.3709  130.5232  151.0136 H   0  0  0  0  0  0  0  0  0  0  0  0
  145.7218  130.4768  153.5005 H   0  0  0  0  0  0  0  0  0  0  0  0
  147.3413  132.0071  154.1852 H   0  0  0  0  0  0  0  0  0  0  0  0
  147.7383  132.4952  152.5424 H   0  0  0  0  0  0  0  0  0  0  0  0
  145.7565  133.7530  154.2757 H   0  0  0  0  0  0  0  0  0  0  0  0
  146.2474  134.2128  152.6472 H   0  0  0  0  0  0  0  0  0  0  0  0
  142.6878  133.3485  152.1359 H   0  0  0  0  0  0  0  0  0  0  0  0
  143.5912  134.6828  152.8116 H   0  0  0  0  0  0  0  0  0  0  0  0
  143.2809  134.8882  150.3162 H   0  0  0  0  0  0  0  0  0  0  0  0
  144.9711  134.8383  150.7475 H   0  0  0  0  0  0  0  0  0  0  0  0
  143.3135  132.4743  149.7289 H   0  0  0  0  0  0  0  0  0  0  0  0
  144.5458  133.3312  148.8280 H   0  0  0  0  0  0  0  0  0  0  0  0
  145.4503  131.2272  149.8014 H   0  0  0  0  0  0  0  0  0  0  0  0
  146.2833  132.6290  150.4195 H   0  0  0  0  0  0  0  0  0  0  0  0
  144.1136  131.0025  151.8443 H   0  0  0  0  0  0  0  0  0  0  0  0
  144.1664  132.4387  153.5449 H   0  0  0  0  0  0  0  0  0  0  0  0
  1  2  2  0  0  0  0
  2  3  1  0  0  0  0
  2  9  1  0  0  0  0
  3  4  1  0  0  0  0
  4  8  1  0  0  0  0
  4  5  2  0  0  0  0
  5  6  1  0  0  0  0
  6  7  2  0  0  0  0
  7  8  1  0  0  0  0
  7 19  1  0  0  0  0
  9 10  1  0  0  0  0
  9 20  1  0  0  0  0
 10 18  1  0  0  0  0
 10 11  1  0  0  0  0
 10 21  1  0  0  0  0
 11 12  1  0  0  0  0
 11 22  1  0  0  0  0
 11 23  1  0  0  0  0
 12 13  1  0  0  0  0
 12 24  1  0  0  0  0
 12 25  1  0  0  0  0
 13 18  1  0  0  0  0
 13 14  1  0  0  0  0
 13 35  1  0  0  0  0
 14 15  1  0  0  0  0
 14 26  1  0  0  0  0
 14 27  1  0  0  0  0
 15 16  1  0  0  0  0
 15 28  1  0  0  0  0
 15 29  1  0  0  0  0
 16 17  1  0  0  0  0
 16 30  1  0  0  0  0
 16 31  1  0  0  0  0
 17 18  1  0  0  0  0
 17 32  1  0  0  0  0
 17 33  1  0  0  0  0
 18 34  1  0  0  0  0
M  CHG  1   3  -1
M  CHG  1  13   1
M  END
> <s_m_source_file>
AV-unprocessed.smi

> <i_m_source_file_index>
1803

> <i_lp_mmshare_version>
43012

> <i_f3d_flags>
0

> <s_epik_input>
czFbY0hdbm5jMVtOSF1DKD1PKVtOSF1bQ0BIXShbQ0gyXVtDSDJdMilbQ0BASF0oTjIzKVtDSDJdW0NIMl1bQ0gyXVtDSDJdMw==

> <s_epik_cmdline>
J2VwaWtfcHl0aG9uJywgJy1waCcsICc3LjAnLCAnLXRuJywgJzgnLCAnLW1hJywgJzIwMCcsICctbWV0YWxfYmluZGluZycsICctaW1hZScsICc8aW5maWxlLm1hZT4nLCAnLW9tYWUnLCAnPG91dGZpbGUubWFlPic=

> <r_lp_tautomer_probability>
1

> <r_epik_Ionization_Penalty>
3.78828

> <r_epik_Ionization_Penalty_Charging>
3.7591

> <r_epik_Ionization_Penalty_Neutral>
0.0291838

> <r_epik_State_Penalty>
3.757

> <r_epik_Charging_Adjusted_Penalty>
7.51609

> <i_epik_Tot_Q>
0

> <i_epik_Tot_abs_Q>
2

> <r_epik_Metal_State_Penalty>
0.558016

> <b_epik_Metal_Only>
1

> <s_lp_Force_Field>
OPLS_2005

> <r_lp_Energy>
30.1197

> <b_lp_Chiralities_Consistent>
1

> <s_lp_Variant>
AV-unprocessed.smi:1803-10

> <Gold.Version>
5.8.1

> <Gold.Id.Protein>
6NUR|6NUR_protein|mol2

> <Gold.PLP.Fitness>
39.9700

> <Gold.PLP.PLP>
-31.6581

> <Gold.PLP.part.hbond>
-3.9169

> <Gold.PLP.part.metal>
0.0000

> <Gold.PLP.part.buried>
-6.4250

> <Gold.PLP.part.nonpolar>
-24.3265

> <Gold.PLP.part.repulsive>
1.0294

> <Gold.PLP.ligand.clash>
0.0000

> <Gold.PLP.ligand.torsion>
0.0190

> <Gold.PLP.Chemscore.Hbond>
2.7820

> <Gold.PLP.Chemscore.CHOScore>
0.0000

> <Gold.PLP.Chemscore.Metal>
0.0000

> <Gold.Chemscore.Hbonds>
donor molecule, donor type, donor heavy atom, donor atom, acceptor molecule, acceptor atom, score
      L1  H     9    20       P1 10747  0.83
      L1  H    13    35       P1 10957  1.95

> <Gold.PLP.Chemscore.Internal.Correction>
0.0038

> <Gold.Rescore>
     Score         DG    S(hbond)    S(metal)    S(lipo)     H(rot)  DE(clash)    DE(int)     intcor
     13.01     -14.74       1.51        0.00      58.05       1.00       0.03       1.71       ----

> <Gold.Chemscore.Fitness>
13.0056

> <Gold.Chemscore.DG>
-14.7435

> <Gold.Chemscore.ZeroCoef>
-5.4800

> <Gold.Chemscore.Hbond>
1.5066

> <Gold.Chemscore.Metal>
0.0000

> <Gold.Chemscore.Lipo>
58.0458

> <Gold.Chemscore.Internal_Hbond>
0.0000

> <Gold.Chemscore.DEClash>
0.0312

> <Gold.Chemscore.DEInternal>
1.7066

> <Gold.Chemscore.Rot>
1.0000

> <Gold.Chemscore.Internal.Correction>
   9.000000E+99

> <Gold.Chemscore.Hbonds>
donor molecule, donor type, donor heavy atom, donor atom, acceptor molecule, acceptor atom, score
      L1  H     9    20       P1 10747  0.81
      L1  H    13    35       P1 10957  0.23

> <Gold.Chemscore.Hbond.Weighted>
-5.0321

> <Gold.Chemscore.Metal.Weighted>
-0.0000

> <Gold.Chemscore.Lipo.Weighted>
-6.7914

> <Gold.Chemscore.Internal_Hbond.Weighted>
0.0000

> <Gold.Chemscore.DEClash.Weighted>
0.0312

> <Gold.Chemscore.DEInternal.Weighted>
1.7066

> <Gold.Chemscore.Rot.Weighted>
2.5600

> <Gold.Chemscore.Internal.Correction.Weighted>
   9.000000E+99

> <Gold.Protein.RotatedTorsions>
[ 6907 6896 6895 6894 ] final   -8.66 input  -60.11 | X-H torsion
[ 7974 7965 7964 7962 ] final -173.71 input  175.53 | X-H torsion
[ 8008 7997 7996 7995 ] final -109.83 input   59.86 | X-H torsion
[ 10167 10162 10161 10158 ] final    5.35 input  -65.29 | X-H torsion
[ 10718 10713 10712 10709 ] final  -10.11 input   66.30 | X-H torsion
[ 10763 10752 10751 10750 ] final  -55.40 input  -60.55 | X-H torsion
[ 11005 11000 10999 10996 ] final   95.65 input  -57.11 | X-H torsion

> <Gold.Protein.ActiveResidues>
 VAL166  LYS551  ARG553  GLY616  TRP617  ASP618  TYR619  PRO620  LYS621  CYS622 
 ASP623  PHE694  ASN695  SER759  ASP760  ASP761  ALA762  ILE779  LEU786  VAL792 
 PHE793  MET794  SER795  GLU796  ALA797  LYS798  CYS799  TRP800  GLU811  SER814 

> <Gold.Protein.RotatedAtoms>
  151.4302  135.1008  159.9639 H   0  0  0  0  0  0  0  0  0  0  0  0  # atno 6907 bound_to 6896
  152.4959  133.8625  159.7268 H   0  0  0  0  0  0  0  0  0  0  0  0  # atno 6908 bound_to 6896
  150.9161  133.6880  159.2871 H   0  0  0  0  0  0  0  0  0  0  0  0  # atno 6909 bound_to 6896
  144.7136  140.1581  143.6378 H   0  0  0  0  0  0  0  0  0  0  0  0  # atno 7974 bound_to 7965
  154.9653  140.0398  157.2209 H   0  0  0  0  0  0  0  0  0  0  0  0  # atno 8008 bound_to 7997
  154.7851  140.2825  155.6011 H   0  0  0  0  0  0  0  0  0  0  0  0  # atno 8009 bound_to 7997
  156.2942  140.2584  156.2686 H   0  0  0  0  0  0  0  0  0  0  0  0  # atno 8010 bound_to 7997
  140.6487  143.7599  150.7540 H   0  0  0  0  0  0  0  0  0  0  0  0  # atno 10167 bound_to 10162
  156.6783  130.5029  149.5979 H   0  0  0  0  0  0  0  0  0  0  0  0  # atno 10718 bound_to 10713
  154.1902  135.6428  153.5058 H   0  0  0  0  0  0  0  0  0  0  0  0  # atno 10763 bound_to 10752
  153.0037  135.5427  154.6423 H   0  0  0  0  0  0  0  0  0  0  0  0  # atno 10764 bound_to 10752
  154.5810  135.2925  155.0705 H   0  0  0  0  0  0  0  0  0  0  0  0  # atno 10765 bound_to 10752
  139.8787  134.8910  156.4043 H   0  0  0  0  0  0  0  0  0  0  0  0  # atno 11005 bound_to 11000
  145.9055  139.2455  143.1468 LP  0  0  0  0  0  0  0  0  0  0  0  0  # atno 17320 bound_to 7965
  145.9768  140.8715  143.0134 LP  0  0  0  0  0  0  0  0  0  0  0  0  # atno 17321 bound_to 7965
  140.1245  143.4582  152.2292 LP  0  0  0  0  0  0  0  0  0  0  0  0  # atno 17342 bound_to 10162
  139.5700  144.7457  151.3918 LP  0  0  0  0  0  0  0  0  0  0  0  0  # atno 17343 bound_to 10162
  156.1887  130.6546  151.1036 LP  0  0  0  0  0  0  0  0  0  0  0  0  # atno 17370 bound_to 10713
  157.7053  131.0759  150.6688 LP  0  0  0  0  0  0  0  0  0  0  0  0  # atno 17371 bound_to 10713
  140.9245  133.7622  155.9947 LP  0  0  0  0  0  0  0  0  0  0  0  0  # atno 17394 bound_to 11000
  140.8401  134.3076  157.5316 LP  0  0  0  0  0  0  0  0  0  0  0  0  # atno 17395 bound_to 11000

$$$$
