AV-unprocessed.smi:392|AV-procd|sdf|2481|dock9
  -GOLD-   2262022423D 1   1.00000     0.00000
 Structure written by MMmdl.
 32 34  0  0  0  0  0  0  0  0  1 V2000
  151.6863  139.7468  155.2574 O   0  0  0  0  0  0  0  0  0  0  0  0
  150.5665  140.3747  155.8485 C   0  0  1  0  0  0  0  0  0  0  0  0
  150.9687  141.8125  156.2331 C   0  0  0  0  0  0  0  0  0  0  0  0
  151.4128  141.9103  157.6122 N   0  0  0  0  0  0  0  0  0  0  0  0
  151.5628  140.8970  158.4868 C   0  0  0  0  0  0  0  0  0  0  0  0
  151.9737  141.2056  159.7135 N   0  0  0  0  0  0  0  0  0  0  0  0
  152.1041  142.5809  159.6265 C   0  0  0  0  0  0  0  0  0  0  0  0
  152.5022  143.5271  160.5979 C   0  0  0  0  0  0  0  0  0  0  0  0
  152.5557  144.8999  160.2783 C   0  0  0  0  0  0  0  0  0  0  0  0
  152.2153  145.3467  158.9850 C   0  0  0  0  0  0  0  0  0  0  0  0
  151.8194  144.4225  157.9996 C   0  0  0  0  0  0  0  0  0  0  0  0
  151.7641  143.0536  158.3230 C   0  0  0  0  0  0  0  0  0  0  0  0
  149.3406  140.3410  154.9424 C   0  0  0  0  0  0  0  0  0  0  0  0
  148.7407  141.5457  154.5114 C   0  0  0  0  0  0  0  0  0  0  0  0
  147.5889  141.5183  153.7021 C   0  0  0  0  0  0  0  0  0  0  0  0
  147.0279  140.2863  153.3173 C   0  0  0  0  0  0  0  0  0  0  0  0
  147.6199  139.0819  153.7422 C   0  0  0  0  0  0  0  0  0  0  0  0
  148.7715  139.1066  154.5528 C   0  0  0  0  0  0  0  0  0  0  0  0
  149.3179  137.9374  154.9650 F   0  0  0  0  0  0  0  0  0  0  0  0
  151.5331  138.8143  155.2431 H   0  0  0  0  0  0  0  0  0  0  0  0
  150.3541  139.8124  156.7584 H   0  0  0  0  0  0  0  0  0  0  0  0
  151.7854  142.1559  155.5962 H   0  0  0  0  0  0  0  0  0  0  0  0
  150.1406  142.5050  156.0761 H   0  0  0  0  0  0  0  0  0  0  0  0
  151.3549  139.8745  158.2072 H   0  0  0  0  0  0  0  0  0  0  0  0
  152.7642  143.1964  161.5921 H   0  0  0  0  0  0  0  0  0  0  0  0
  152.8595  145.6139  161.0297 H   0  0  0  0  0  0  0  0  0  0  0  0
  152.2574  146.4000  158.7495 H   0  0  0  0  0  0  0  0  0  0  0  0
  151.5551  144.7626  157.0096 H   0  0  0  0  0  0  0  0  0  0  0  0
  149.1558  142.4973  154.8098 H   0  0  0  0  0  0  0  0  0  0  0  0
  147.1335  142.4433  153.3800 H   0  0  0  0  0  0  0  0  0  0  0  0
  146.1425  140.2648  152.6991 H   0  0  0  0  0  0  0  0  0  0  0  0
  147.1869  138.1366  153.4505 H   0  0  0  0  0  0  0  0  0  0  0  0
  1  2  1  0  0  0  0
  1 20  1  0  0  0  0
  2  3  1  0  0  0  0
  2 13  1  0  0  0  0
  2 21  1  0  0  0  0
  3  4  1  0  0  0  0
  3 22  1  0  0  0  0
  3 23  1  0  0  0  0
  4 12  1  0  0  0  0
  4  5  1  0  0  0  0
  5  6  2  0  0  0  0
  5 24  1  0  0  0  0
  6  7  1  0  0  0  0
  7 12  2  0  0  0  0
  7  8  1  0  0  0  0
  8  9  2  0  0  0  0
  8 25  1  0  0  0  0
  9 10  1  0  0  0  0
  9 26  1  0  0  0  0
 10 11  2  0  0  0  0
 10 27  1  0  0  0  0
 11 12  1  0  0  0  0
 11 28  1  0  0  0  0
 13 18  1  0  0  0  0
 13 14  2  0  0  0  0
 14 15  1  0  0  0  0
 14 29  1  0  0  0  0
 15 16  2  0  0  0  0
 15 30  1  0  0  0  0
 16 17  1  0  0  0  0
 16 31  1  0  0  0  0
 17 18  2  0  0  0  0
 17 32  1  0  0  0  0
 18 19  1  0  0  0  0
M  END
> <s_m_source_file>
AV-unprocessed.smi

> <i_m_source_file_index>
392

> <i_lp_mmshare_version>
43012

> <i_f3d_flags>
0

> <s_epik_input>
RmMxW2NIXVtjSF1bY0hdW2NIXWMxW0NASF0oW09IXSlbQ0gyXW4oW2NIXW4yKWMoYzIzKVtjSF1bY0hdW2NIXVtjSF0z

> <s_epik_cmdline>
J2VwaWtfcHl0aG9uJywgJy1waCcsICc3LjAnLCAnLXRuJywgJzgnLCAnLW1hJywgJzIwMCcsICctbWV0YWxfYmluZGluZycsICctaW1hZScsICc8aW5maWxlLm1hZT4nLCAnLW9tYWUnLCAnPG91dGZpbGUubWFlPic=

> <r_epik_Ionization_Penalty>
0.0696512

> <r_epik_Ionization_Penalty_Charging>
0

> <r_epik_Ionization_Penalty_Neutral>
0.0696512

> <r_epik_State_Penalty>
0.0610247

> <r_epik_Charging_Adjusted_Penalty>
0.0610247

> <i_epik_Tot_Q>
0

> <i_epik_Tot_abs_Q>
0

> <r_epik_Metal_State_Penalty>
6.42746e-05

> <b_epik_Metal_Only>
0

> <s_lp_Force_Field>
OPLS_2005

> <r_lp_Energy>
12.4864

> <b_lp_Chiralities_Consistent>
1

> <s_lp_Variant>
AV-unprocessed.smi:392-2

> <Gold.Version>
5.8.1

> <Gold.Id.Protein>
6NUR|6NUR_protein|mol2

> <Gold.PLP.Fitness>
50.1404

> <Gold.PLP.PLP>
-48.5942

> <Gold.PLP.part.hbond>
-1.0000

> <Gold.PLP.part.metal>
0.0000

> <Gold.PLP.part.buried>
-4.7383

> <Gold.PLP.part.nonpolar>
-42.7364

> <Gold.PLP.part.repulsive>
0.0000

> <Gold.PLP.ligand.clash>
0.0000

> <Gold.PLP.ligand.torsion>
0.5303

> <Gold.PLP.Chemscore.Hbond>
0.8640

> <Gold.PLP.Chemscore.CHOScore>
0.0000

> <Gold.PLP.Chemscore.Metal>
0.0000

> <Gold.Chemscore.Hbonds>
donor molecule, donor type, donor heavy atom, donor atom, acceptor molecule, acceptor atom, score
      P1  H  7989  7998       L1     1  0.70

> <Gold.PLP.Chemscore.Internal.Correction>
0.0148

> <Gold.Rescore>
     Score         DG    S(hbond)    S(metal)    S(lipo)     H(rot)  DE(clash)    DE(int)     intcor
     16.25     -17.05       0.65        0.00     122.24       1.91       0.01       0.79       ----

> <Gold.Chemscore.Fitness>
16.2461

> <Gold.Chemscore.DG>
-17.0491

> <Gold.Chemscore.ZeroCoef>
-5.4800

> <Gold.Chemscore.Hbond>
0.6469

> <Gold.Chemscore.Metal>
0.0000

> <Gold.Chemscore.Lipo>
122.2416

> <Gold.Chemscore.Internal_Hbond>
0.0000

> <Gold.Chemscore.DEClash>
0.0089

> <Gold.Chemscore.DEInternal>
0.7942

> <Gold.Chemscore.Rot>
1.9116

> <Gold.Chemscore.Internal.Correction>
   9.000000E+99

> <Gold.Chemscore.Hbonds>
donor molecule, donor type, donor heavy atom, donor atom, acceptor molecule, acceptor atom, score
      P1  H  7989  7998       L1     1  0.10

> <Gold.Chemscore.Hbond.Weighted>
-2.1606

> <Gold.Chemscore.Metal.Weighted>
-0.0000

> <Gold.Chemscore.Lipo.Weighted>
-14.3023

> <Gold.Chemscore.Internal_Hbond.Weighted>
0.0000

> <Gold.Chemscore.DEClash.Weighted>
0.0089

> <Gold.Chemscore.DEInternal.Weighted>
0.7942

> <Gold.Chemscore.Rot.Weighted>
4.8937

> <Gold.Chemscore.Internal.Correction.Weighted>
   9.000000E+99

> <Gold.Protein.RotatedTorsions>
[ 6907 6896 6895 6894 ] final  158.52 input  -60.11 | X-H torsion
[ 7974 7965 7964 7962 ] final  109.68 input  175.53 | X-H torsion
[ 8008 7997 7996 7995 ] final  -48.44 input   59.86 | X-H torsion
[ 10167 10162 10161 10158 ] final  154.34 input  -65.29 | X-H torsion
[ 10718 10713 10712 10709 ] final    0.08 input   66.30 | X-H torsion
[ 10763 10752 10751 10750 ] final  178.44 input  -60.55 | X-H torsion
[ 11005 11000 10999 10996 ] final  123.61 input  -57.11 | X-H torsion

> <Gold.Protein.ActiveResidues>
 VAL166  LYS551  ARG553  GLY616  TRP617  ASP618  TYR619  PRO620  LYS621  CYS622 
 ASP623  PHE694  ASN695  SER759  ASP760  ASP761  ALA762  ILE779  LEU786  VAL792 
 PHE793  MET794  SER795  GLU796  ALA797  LYS798  CYS799  TRP800  GLU811  SER814 

> <Gold.Protein.RotatedAtoms>
  151.9991  133.3819  159.4174 H   0  0  0  0  0  0  0  0  0  0  0  0  # atno 6907 bound_to 6896
  150.6912  134.3853  159.5061 H   0  0  0  0  0  0  0  0  0  0  0  0  # atno 6908 bound_to 6896
  152.1598  134.8921  160.0593 H   0  0  0  0  0  0  0  0  0  0  0  0  # atno 6909 bound_to 6896
  145.2647  139.2689  143.3998 H   0  0  0  0  0  0  0  0  0  0  0  0  # atno 7974 bound_to 7965
  154.4029  140.1321  156.4340 H   0  0  0  0  0  0  0  0  0  0  0  0  # atno 8008 bound_to 7997
  155.7523  140.3488  155.5137 H   0  0  0  0  0  0  0  0  0  0  0  0  # atno 8009 bound_to 7997
  155.8937  140.1007  157.1390 H   0  0  0  0  0  0  0  0  0  0  0  0  # atno 8010 bound_to 7997
  139.4823  144.5195  151.7899 H   0  0  0  0  0  0  0  0  0  0  0  0  # atno 10167 bound_to 10162
  156.8281  130.5479  149.5690 H   0  0  0  0  0  0  0  0  0  0  0  0  # atno 10718 bound_to 10713
  154.5076  135.2787  155.1369 H   0  0  0  0  0  0  0  0  0  0  0  0  # atno 10763 bound_to 10752
  154.2977  135.6254  153.5415 H   0  0  0  0  0  0  0  0  0  0  0  0  # atno 10764 bound_to 10752
  152.9913  135.5689  154.5534 H   0  0  0  0  0  0  0  0  0  0  0  0  # atno 10765 bound_to 10752
  139.9320  134.9641  156.8285 H   0  0  0  0  0  0  0  0  0  0  0  0  # atno 11005 bound_to 11000
  146.3265  140.3073  142.8624 LP  0  0  0  0  0  0  0  0  0  0  0  0  # atno 17320 bound_to 7965
  144.9388  140.8055  143.5643 LP  0  0  0  0  0  0  0  0  0  0  0  0  # atno 17321 bound_to 7965
  140.4707  144.1591  150.5917 LP  0  0  0  0  0  0  0  0  0  0  0  0  # atno 17342 bound_to 10162
  140.4385  143.2537  151.9504 LP  0  0  0  0  0  0  0  0  0  0  0  0  # atno 17343 bound_to 10162
  156.0950  130.5925  150.9798 LP  0  0  0  0  0  0  0  0  0  0  0  0  # atno 17370 bound_to 10713
  157.6421  131.0909  150.8229 LP  0  0  0  0  0  0  0  0  0  0  0  0  # atno 17371 bound_to 10713
  140.6176  134.0024  155.7604 LP  0  0  0  0  0  0  0  0  0  0  0  0  # atno 17394 bound_to 11000
  141.0914  133.9910  157.3231 LP  0  0  0  0  0  0  0  0  0  0  0  0  # atno 17395 bound_to 11000

$$$$
