AV-unprocessed.smi:196|AV-procd|sdf|1529|dock2
  -GOLD-   2262019383D 1   1.00000     0.00000
 Structure written by MMmdl.
 47 50  0  0  0  0  0  0  0  0  1 V2000
  143.8047  132.4981  149.7386 C   0  0  0  0  0  0  0  0  0  0  0  0
  144.5342  132.7809  151.0620 C   0  0  1  0  0  0  0  0  0  0  0  0
  145.5782  131.8409  151.2692 O   0  0  0  0  0  0  0  0  0  0  0  0
  146.4253  132.3784  152.2685 C   0  0  0  0  0  0  0  0  0  0  0  0
  146.5641  133.8357  151.8450 C   0  0  0  0  0  0  0  0  0  0  0  0
  145.2073  134.1708  151.2172 C   0  0  1  0  0  0  0  0  0  0  0  0
  145.4421  134.7827  149.9592 O   0  0  0  0  0  0  0  0  0  0  0  0
  144.3874  135.1546  152.0888 C   0  0  0  0  0  0  0  0  0  0  0  0
  145.1712  136.2717  152.5945 N   0  0  0  0  0  0  0  0  0  0  0  0
  145.7513  137.2745  151.8513 C   0  0  0  0  0  0  0  0  0  0  0  0
  146.3917  138.1783  152.5402 N   0  0  0  0  0  0  0  0  0  0  0  0
  146.2601  137.7606  153.8596 C   0  0  0  0  0  0  0  0  0  0  0  0
  146.6992  138.2752  155.1140 C   0  0  0  0  0  0  0  0  0  0  0  0
  147.4256  139.4190  155.2392 N   0  0  0  0  0  0  0  0  0  0  0  0
  146.7511  140.6331  155.6869 C   0  0  0  0  0  0  0  0  0  0  0  0
  147.3899  141.7763  154.8995 C   0  0  2  0  0  0  0  0  0  0  0  0
  146.7097  141.9702  153.7683 F   0  0  0  0  0  0  0  0  0  0  0  0
  148.7798  141.2406  154.5731 C   0  0  0  0  0  0  0  0  0  0  0  0
  148.5531  139.7362  154.3515 C   0  0  1  0  0  0  0  0  0  0  0  0
  149.8428  138.9383  154.6278 C   0  0  0  0  0  0  0  0  0  0  0  0
  149.8656  137.6307  154.3482 N   0  0  0  0  0  0  0  0  0  0  0  0
  150.8242  139.5127  155.0937 O   0  0  0  0  0  0  0  0  0  0  0  0
  146.3451  137.5803  156.2275 N   0  0  0  0  0  0  0  0  0  0  0  0
  145.6293  136.4571  156.1286 C   0  0  0  0  0  0  0  0  0  0  0  0
  145.1607  135.8617  155.0312 N   0  0  0  0  0  0  0  0  0  0  0  0
  145.4974  136.5587  153.9088 C   0  0  0  0  0  0  0  0  0  0  0  0
  147.4030  142.7220  155.4421 H   0  0  0  0  0  0  0  0  0  0  0  0
  148.2524  139.5783  153.3143 H   0  0  0  0  0  0  0  0  0  0  0  0
  143.0133  133.2267  149.5615 H   0  0  0  0  0  0  0  0  0  0  0  0
  143.3450  131.5101  149.7563 H   0  0  0  0  0  0  0  0  0  0  0  0
  144.4876  132.5265  148.8892 H   0  0  0  0  0  0  0  0  0  0  0  0
  143.8317  132.6275  151.8817 H   0  0  0  0  0  0  0  0  0  0  0  0
  145.9432  132.2972  153.2441 H   0  0  0  0  0  0  0  0  0  0  0  0
  147.3823  131.8580  152.3104 H   0  0  0  0  0  0  0  0  0  0  0  0
  146.8296  134.4836  152.6810 H   0  0  0  0  0  0  0  0  0  0  0  0
  147.3666  133.9111  151.1091 H   0  0  0  0  0  0  0  0  0  0  0  0
  144.6504  135.2197  149.6855 H   0  0  0  0  0  0  0  0  0  0  0  0
  143.5511  135.5553  151.5144 H   0  0  0  0  0  0  0  0  0  0  0  0
  143.9477  134.6335  152.9403 H   0  0  0  0  0  0  0  0  0  0  0  0
  145.6738  137.3222  150.7748 H   0  0  0  0  0  0  0  0  0  0  0  0
  145.6709  140.6072  155.5342 H   0  0  0  0  0  0  0  0  0  0  0  0
  146.9381  140.7555  156.7542 H   0  0  0  0  0  0  0  0  0  0  0  0
  149.2259  141.7317  153.7076 H   0  0  0  0  0  0  0  0  0  0  0  0
  149.4383  141.4120  155.4270 H   0  0  0  0  0  0  0  0  0  0  0  0
  150.7012  137.0931  154.5276 H   0  0  0  0  0  0  0  0  0  0  0  0
  149.0453  137.1859  153.9631 H   0  0  0  0  0  0  0  0  0  0  0  0
  145.3978  135.9668  157.0627 H   0  0  0  0  0  0  0  0  0  0  0  0
  1  2  1  0  0  0  0
  1 29  1  0  0  0  0
  1 30  1  0  0  0  0
  1 31  1  0  0  0  0
  2  6  1  0  0  0  0
  2  3  1  0  0  0  0
  2 32  1  0  0  0  0
  3  4  1  0  0  0  0
  4  5  1  0  0  0  0
  4 33  1  0  0  0  0
  4 34  1  0  0  0  0
  5  6  1  0  0  0  0
  5 35  1  0  0  0  0
  5 36  1  0  0  0  0
  6  7  1  0  0  0  0
  6  8  1  0  0  0  0
  7 37  1  0  0  0  0
  8  9  1  0  0  0  0
  8 38  1  0  0  0  0
  8 39  1  0  0  0  0
  9 26  1  0  0  0  0
  9 10  1  0  0  0  0
 10 11  2  0  0  0  0
 10 40  1  0  0  0  0
 11 12  1  0  0  0  0
 12 26  2  0  0  0  0
 12 13  1  0  0  0  0
 13 14  1  0  0  0  0
 13 23  2  0  0  0  0
 14 19  1  0  0  0  0
 14 15  1  0  0  0  0
 15 16  1  0  0  0  0
 15 41  1  0  0  0  0
 15 42  1  0  0  0  0
 16 27  1  0  0  0  0
 16 17  1  0  0  0  0
 16 18  1  0  0  0  0
 18 19  1  0  0  0  0
 18 43  1  0  0  0  0
 18 44  1  0  0  0  0
 19 28  1  0  0  0  0
 19 20  1  0  0  0  0
 20 21  1  0  0  0  0
 20 22  2  0  0  0  0
 21 45  1  0  0  0  0
 21 46  1  0  0  0  0
 23 24  1  0  0  0  0
 24 25  2  0  0  0  0
 24 47  1  0  0  0  0
 25 26  1  0  0  0  0
M  END
> <s_m_source_file>
AV-unprocessed.smi

> <i_m_source_file_index>
196

> <i_lp_mmshare_version>
43012

> <i_f3d_flags>
0

> <s_epik_input>
W0NIMl0xW0NIMl1PW0NAQEhdKFtDSDNdKVtDQEBdMShbT0hdKVtDSDJdbihbY0hdbjIpYyhjMjMpbltjSF1uYzNONFtDSDJdW0NASF0oRilbQ0gyXVtDQEhdNEMoPU8pW05IMl0=

> <s_epik_cmdline>
J2VwaWtfcHl0aG9uJywgJy1waCcsICc3LjAnLCAnLXRuJywgJzgnLCAnLW1hJywgJzIwMCcsICctbWV0YWxfYmluZGluZycsICctaW1hZScsICc8aW5maWxlLm1hZT4nLCAnLW9tYWUnLCAnPG91dGZpbGUubWFlPic=

> <r_lp_tautomer_probability>
1

> <r_epik_Ionization_Penalty>
0.000857933

> <r_epik_Ionization_Penalty_Charging>
0

> <r_epik_Ionization_Penalty_Neutral>
0.000857933

> <r_epik_State_Penalty>
0.000462053

> <r_epik_Charging_Adjusted_Penalty>
0.000462053

> <i_epik_Tot_Q>
0

> <i_epik_Tot_abs_Q>
0

> <r_epik_Metal_State_Penalty>
-0

> <b_epik_Metal_Only>
0

> <s_lp_Force_Field>
OPLS_2005

> <r_lp_Energy>
42.3272

> <b_lp_Chiralities_Consistent>
1

> <s_lp_Variant>
AV-unprocessed.smi:196-2

> <Gold.Version>
5.8.1

> <Gold.Id.Protein>
6NUR|6NUR_protein|mol2

> <Gold.PLP.Fitness>
41.7742

> <Gold.PLP.PLP>
-36.8292

> <Gold.PLP.part.hbond>
-3.0341

> <Gold.PLP.part.metal>
0.0000

> <Gold.PLP.part.buried>
-4.6332

> <Gold.PLP.part.nonpolar>
-30.1061

> <Gold.PLP.part.repulsive>
0.5634

> <Gold.PLP.ligand.clash>
0.0000

> <Gold.PLP.ligand.torsion>
1.4100

> <Gold.PLP.Chemscore.Hbond>
1.5280

> <Gold.PLP.Chemscore.CHOScore>
0.9425

> <Gold.PLP.Chemscore.Metal>
0.0000

> <Gold.Chemscore.Hbonds>
donor molecule, donor type, donor heavy atom, donor atom, acceptor molecule, acceptor atom, score
      L1  H    21    46       P1  7948  0.16
      P1  H  7989  7998       L1    22  0.47
      L1  C    10    40       P1 10171  0.78

> <Gold.PLP.Chemscore.Internal.Correction>
0.3535

> <Gold.Rescore>
     Score         DG    S(hbond)    S(metal)    S(lipo)     H(rot)  DE(clash)    DE(int)     intcor
      9.27     -11.22       1.45        0.00      64.37       2.60       0.66       1.29       ----

> <Gold.Chemscore.Fitness>
9.2707

> <Gold.Chemscore.DG>
-11.2156

> <Gold.Chemscore.ZeroCoef>
-5.4800

> <Gold.Chemscore.Hbond>
1.4527

> <Gold.Chemscore.Metal>
0.0000

> <Gold.Chemscore.Lipo>
64.3696

> <Gold.Chemscore.Internal_Hbond>
0.0000

> <Gold.Chemscore.DEClash>
0.6556

> <Gold.Chemscore.DEInternal>
1.2893

> <Gold.Chemscore.Rot>
2.5968

> <Gold.Chemscore.Internal.Correction>
   9.000000E+99

> <Gold.Chemscore.Hbonds>
donor molecule, donor type, donor heavy atom, donor atom, acceptor molecule, acceptor atom, score
      L1  H    21    46       P1  7948  0.16
      P1  H  7989  7998       L1    22  0.30

> <Gold.Chemscore.Hbond.Weighted>
-4.8521

> <Gold.Chemscore.Metal.Weighted>
-0.0000

> <Gold.Chemscore.Lipo.Weighted>
-7.5312

> <Gold.Chemscore.Internal_Hbond.Weighted>
0.0000

> <Gold.Chemscore.DEClash.Weighted>
0.6556

> <Gold.Chemscore.DEInternal.Weighted>
1.2893

> <Gold.Chemscore.Rot.Weighted>
6.6477

> <Gold.Chemscore.Internal.Correction.Weighted>
   9.000000E+99

> <Gold.Protein.RotatedTorsions>
[ 6907 6896 6895 6894 ] final -141.13 input  -60.11 | X-H torsion
[ 7974 7965 7964 7962 ] final   -4.12 input  175.53 | X-H torsion
[ 8008 7997 7996 7995 ] final -173.03 input   59.86 | X-H torsion
[ 10167 10162 10161 10158 ] final  -35.46 input  -65.29 | X-H torsion
[ 10718 10713 10712 10709 ] final   45.58 input   66.30 | X-H torsion
[ 10763 10752 10751 10750 ] final  179.18 input  -60.55 | X-H torsion
[ 11005 11000 10999 10996 ] final  -53.12 input  -57.11 | X-H torsion

> <Gold.Protein.ActiveResidues>
 VAL166  LYS551  ARG553  GLY616  TRP617  ASP618  TYR619  PRO620  LYS621  CYS622 
 ASP623  PHE694  ASN695  SER759  ASP760  ASP761  ALA762  ILE779  LEU786  VAL792 
 PHE793  MET794  SER795  GLU796  ALA797  LYS798  CYS799  TRP800  GLU811  SER814 

> <Gold.Protein.RotatedAtoms>
  151.0698  133.5476  159.2627 H   0  0  0  0  0  0  0  0  0  0  0  0  # atno 6907 bound_to 6896
  151.2420  135.0591  159.9038 H   0  0  0  0  0  0  0  0  0  0  0  0  # atno 6908 bound_to 6896
  152.5410  134.0471  159.8147 H   0  0  0  0  0  0  0  0  0  0  0  0  # atno 6909 bound_to 6896
  146.2378  140.1823  142.8332 H   0  0  0  0  0  0  0  0  0  0  0  0  # atno 7974 bound_to 7965
  155.9522  140.1128  157.0967 H   0  0  0  0  0  0  0  0  0  0  0  0  # atno 8008 bound_to 7997
  154.4112  140.1198  156.5134 H   0  0  0  0  0  0  0  0  0  0  0  0  # atno 8009 bound_to 7997
  155.6828  140.3473  155.4864 H   0  0  0  0  0  0  0  0  0  0  0  0  # atno 8010 bound_to 7997
  140.7164  143.3476  151.2224 H   0  0  0  0  0  0  0  0  0  0  0  0  # atno 10167 bound_to 10162
  157.4391  130.8070  149.7676 H   0  0  0  0  0  0  0  0  0  0  0  0  # atno 10718 bound_to 10713
  154.5173  135.2792  155.1292 H   0  0  0  0  0  0  0  0  0  0  0  0  # atno 10763 bound_to 10752
  154.2863  135.6275  153.5371 H   0  0  0  0  0  0  0  0  0  0  0  0  # atno 10764 bound_to 10752
  152.9930  135.5663  154.5654 H   0  0  0  0  0  0  0  0  0  0  0  0  # atno 10765 bound_to 10752
  141.0960  133.6624  156.4126 H   0  0  0  0  0  0  0  0  0  0  0  0  # atno 11005 bound_to 11000
  144.9924  140.8559  143.5331 LP  0  0  0  0  0  0  0  0  0  0  0  0  # atno 17320 bound_to 7965
  145.1831  139.2341  143.5282 LP  0  0  0  0  0  0  0  0  0  0  0  0  # atno 17321 bound_to 7965
  139.6999  143.9550  152.2900 LP  0  0  0  0  0  0  0  0  0  0  0  0  # atno 17342 bound_to 10162
  139.9240  144.6782  150.8432 LP  0  0  0  0  0  0  0  0  0  0  0  0  # atno 17343 bound_to 10162
  155.9941  130.3920  150.2871 LP  0  0  0  0  0  0  0  0  0  0  0  0  # atno 17370 bound_to 10713
  157.1034  131.0202  151.3077 LP  0  0  0  0  0  0  0  0  0  0  0  0  # atno 17371 bound_to 10713
  140.5139  134.6369  157.5294 LP  0  0  0  0  0  0  0  0  0  0  0  0  # atno 17394 bound_to 11000
  139.9797  134.7158  155.9883 LP  0  0  0  0  0  0  0  0  0  0  0  0  # atno 17395 bound_to 11000

$$$$
