AV-unprocessed.smi:224|AV-procd|sdf|1709|dock2
  -GOLD-   2262020173D 1   1.00000     0.00000
 Structure written by MMmdl.
 56 59  0  0  0  0  0  0  0  0  2 V2000
  145.3362  131.6838  150.9455 C   0  0  0  0  0  0  0  0  0  0  0  0
  143.9815  132.3515  151.2145 C   0  0  2  0  0  0  0  0  0  0  0  0
  143.3061  132.4925  149.9810 O   0  0  0  0  0  0  0  0  0  0  0  0
  144.1389  133.7393  151.8649 C   0  0  0  0  0  0  0  0  0  0  0  0
  144.3709  133.6560  153.3306 N   0  3  1  0  0  0  0  0  0  0  0  0
  145.7419  133.2119  153.7010 C   0  0  0  0  0  0  0  0  0  0  0  0
  145.8585  133.0006  155.2216 C   0  0  0  0  0  0  0  0  0  0  0  0
  145.4190  134.1851  155.9568 N   0  0  0  0  0  0  0  0  0  0  0  0
  146.3302  135.1340  156.3043 C   0  0  0  0  0  0  0  0  0  0  0  0
  145.9433  136.1882  157.0719 N   0  0  0  0  0  0  0  0  0  0  0  0
  146.8270  137.1178  157.4444 C   0  0  0  0  0  0  0  0  0  0  0  0
  148.1285  137.1895  157.1641 N   0  0  0  0  0  0  0  0  0  0  0  0
  148.5249  136.1446  156.3830 C   0  0  0  0  0  0  0  0  0  0  0  0
  147.6981  135.0867  155.9073 C   0  0  0  0  0  0  0  0  0  0  0  0
  148.4503  134.2215  155.1213 N   0  0  0  0  0  0  0  0  0  0  0  0
  149.6524  134.7284  155.1443 C   0  0  0  0  0  0  0  0  0  0  0  0
  149.7903  135.8774  155.8892 N   0  0  0  0  0  0  0  0  0  0  0  0
  151.0116  136.6440  156.0871 C   0  0  0  0  0  0  0  0  0  0  0  0
  151.2571  137.7129  154.9943 C   0  0  1  0  0  0  0  0  0  0  0  0
  152.0662  137.1508  153.9768 O   0  0  0  0  0  0  0  0  0  0  0  0
  149.9550  138.2206  154.3707 C   0  0  0  0  0  0  0  0  0  0  0  0
  149.8308  139.6418  154.9064 C   0  0  0  0  0  0  0  0  0  0  0  0
  151.1798  140.0680  154.9674 O   0  0  0  0  0  0  0  0  0  0  0  0
  151.9282  138.9967  155.5229 C   0  0  0  0  0  0  0  0  0  0  0  0
  144.0758  134.6450  155.6057 C   0  0  0  0  0  0  0  0  0  0  0  0
  143.9220  134.8645  154.0839 C   0  0  1  0  0  0  0  0  0  0  0  0
  144.5999  136.1682  153.6087 C   0  0  0  0  0  0  0  0  0  0  0  0
  145.8884  131.5325  151.8735 H   0  0  0  0  0  0  0  0  0  0  0  0
  145.9576  132.2903  150.2854 H   0  0  0  0  0  0  0  0  0  0  0  0
  145.2077  130.7071  150.4776 H   0  0  0  0  0  0  0  0  0  0  0  0
  143.3942  131.6912  151.8516 H   0  0  0  0  0  0  0  0  0  0  0  0
  142.5983  133.1096  150.0906 H   0  0  0  0  0  0  0  0  0  0  0  0
  144.9605  134.2878  151.4017 H   0  0  0  0  0  0  0  0  0  0  0  0
  143.2348  134.3171  151.6656 H   0  0  0  0  0  0  0  0  0  0  0  0
  145.9883  132.2777  153.1985 H   0  0  0  0  0  0  0  0  0  0  0  0
  146.4728  133.9459  153.3604 H   0  0  0  0  0  0  0  0  0  0  0  0
  145.2237  132.1660  155.5214 H   0  0  0  0  0  0  0  0  0  0  0  0
  146.8745  132.7157  155.4975 H   0  0  0  0  0  0  0  0  0  0  0  0
  146.4355  137.9166  158.0571 H   0  0  0  0  0  0  0  0  0  0  0  0
  150.4792  134.2729  154.6186 H   0  0  0  0  0  0  0  0  0  0  0  0
  150.9632  137.1130  157.0710 H   0  0  0  0  0  0  0  0  0  0  0  0
  151.8512  135.9488  156.1236 H   0  0  0  0  0  0  0  0  0  0  0  0
  151.5044  136.8689  153.2710 H   0  0  0  0  0  0  0  0  0  0  0  0
  150.0297  138.2583  153.2825 H   0  0  0  0  0  0  0  0  0  0  0  0
  149.0867  137.6081  154.6162 H   0  0  0  0  0  0  0  0  0  0  0  0
  149.2317  140.2853  154.2620 H   0  0  0  0  0  0  0  0  0  0  0  0
  149.3951  139.6487  155.9070 H   0  0  0  0  0  0  0  0  0  0  0  0
  151.8422  139.0684  156.6073 H   0  0  0  0  0  0  0  0  0  0  0  0
  152.9867  139.0748  155.2715 H   0  0  0  0  0  0  0  0  0  0  0  0
  143.3716  133.8792  155.9327 H   0  0  0  0  0  0  0  0  0  0  0  0
  143.7936  135.5524  156.1367 H   0  0  0  0  0  0  0  0  0  0  0  0
  142.8540  134.9791  153.8932 H   0  0  0  0  0  0  0  0  0  0  0  0
  144.2586  137.0173  154.2013 H   0  0  0  0  0  0  0  0  0  0  0  0
  144.3640  136.3917  152.5684 H   0  0  0  0  0  0  0  0  0  0  0  0
  145.6847  136.1275  153.6971 H   0  0  0  0  0  0  0  0  0  0  0  0
  143.7572  132.9185  153.6477 H   0  0  0  0  0  0  0  0  0  0  0  0
  1  2  1  0  0  0  0
  1 28  1  0  0  0  0
  1 29  1  0  0  0  0
  1 30  1  0  0  0  0
  2  3  1  0  0  0  0
  2  4  1  0  0  0  0
  2 31  1  0  0  0  0
  3 32  1  0  0  0  0
  4  5  1  0  0  0  0
  4 33  1  0  0  0  0
  4 34  1  0  0  0  0
  5 26  1  0  0  0  0
  5  6  1  0  0  0  0
  5 56  1  0  0  0  0
  6  7  1  0  0  0  0
  6 35  1  0  0  0  0
  6 36  1  0  0  0  0
  7  8  1  0  0  0  0
  7 37  1  0  0  0  0
  7 38  1  0  0  0  0
  8  9  1  0  0  0  0
  8 25  1  0  0  0  0
  9 14  1  0  0  0  0
  9 10  2  0  0  0  0
 10 11  1  0  0  0  0
 11 12  2  0  0  0  0
 11 39  1  0  0  0  0
 12 13  1  0  0  0  0
 13 17  1  0  0  0  0
 13 14  2  0  0  0  0
 14 15  1  0  0  0  0
 15 16  2  0  0  0  0
 16 17  1  0  0  0  0
 16 40  1  0  0  0  0
 17 18  1  0  0  0  0
 18 19  1  0  0  0  0
 18 41  1  0  0  0  0
 18 42  1  0  0  0  0
 19 24  1  0  0  0  0
 19 20  1  0  0  0  0
 19 21  1  0  0  0  0
 20 43  1  0  0  0  0
 21 22  1  0  0  0  0
 21 44  1  0  0  0  0
 21 45  1  0  0  0  0
 22 23  1  0  0  0  0
 22 46  1  0  0  0  0
 22 47  1  0  0  0  0
 23 24  1  0  0  0  0
 24 48  1  0  0  0  0
 24 49  1  0  0  0  0
 25 26  1  0  0  0  0
 25 50  1  0  0  0  0
 25 51  1  0  0  0  0
 26 27  1  0  0  0  0
 26 52  1  0  0  0  0
 27 53  1  0  0  0  0
 27 54  1  0  0  0  0
 27 55  1  0  0  0  0
M  CHG  1   5   1
M  END
> <s_m_source_file>
AV-unprocessed.smi

> <i_m_source_file_index>
224

> <i_lp_mmshare_version>
43012

> <i_f3d_flags>
0

> <s_epik_input>
W0NIM11bQ0BIXShbT0hdKVtDSDJdTjFbQ0gyXVtDSDJdTihbQ0gyXVtDQEhdMVtDSDNdKWMobltjSF1uMiljKGMyMyluW2NIXW4zW0NIMl1bQ0BAXTQoW09IXSlbQ0gyXVtDSDJdT1tDSDJdNA==

> <s_epik_cmdline>
J2VwaWtfcHl0aG9uJywgJy1waCcsICc3LjAnLCAnLXRuJywgJzgnLCAnLW1hJywgJzIwMCcsICctbWV0YWxfYmluZGluZycsICctaW1hZScsICc8aW5maWxlLm1hZT4nLCAnLW9tYWUnLCAnPG91dGZpbGUubWFlPic=

> <r_lp_tautomer_probability>
1

> <r_epik_Ionization_Penalty>
0.00516958

> <r_epik_Ionization_Penalty_Charging>
0.00509693

> <r_epik_Ionization_Penalty_Neutral>
7.26542e-05

> <r_epik_State_Penalty>
-0

> <r_epik_Charging_Adjusted_Penalty>
0.00509693

> <i_epik_Tot_Q>
1

> <i_epik_Tot_abs_Q>
1

> <r_epik_Metal_State_Penalty>
-0

> <b_epik_Metal_Only>
0

> <s_lp_Force_Field>
OPLS_2005

> <r_lp_Energy>
49.4164

> <b_lp_Chiralities_Consistent>
1

> <s_lp_Variant>
AV-unprocessed.smi:224-3

> <Gold.Version>
5.8.1

> <Gold.Id.Protein>
6NUR|6NUR_protein|mol2

> <Gold.PLP.Fitness>
49.3663

> <Gold.PLP.PLP>
-34.5153

> <Gold.PLP.part.hbond>
-4.9791

> <Gold.PLP.part.metal>
0.0000

> <Gold.PLP.part.buried>
-7.3990

> <Gold.PLP.part.nonpolar>
-23.3651

> <Gold.PLP.part.repulsive>
0.1603

> <Gold.PLP.ligand.clash>
0.0000

> <Gold.PLP.ligand.torsion>
1.7468

> <Gold.PLP.Chemscore.Hbond>
5.9920

> <Gold.PLP.Chemscore.CHOScore>
0.0000

> <Gold.PLP.Chemscore.Metal>
0.0000

> <Gold.Chemscore.Hbonds>
donor molecule, donor type, donor heavy atom, donor atom, acceptor molecule, acceptor atom, score
      L1  H     3    32       P1 10186  0.75
      L1  H     5    56       P1 10957  2.00
      L1  H    20    43       P1  7949  1.00
      P1  H  7989  7998       L1    23  1.00
      P1  H 10752 10764       L1    20  0.80

> <Gold.PLP.Chemscore.Internal.Correction>
0.3687

> <Gold.Rescore>
     Score         DG    S(hbond)    S(metal)    S(lipo)     H(rot)  DE(clash)    DE(int)     intcor
     17.26     -20.78       4.49        0.00      68.78       3.02       0.24       3.28       ----

> <Gold.Chemscore.Fitness>
17.2649

> <Gold.Chemscore.DG>
-20.7801

> <Gold.Chemscore.ZeroCoef>
-5.4800

> <Gold.Chemscore.Hbond>
4.4886

> <Gold.Chemscore.Metal>
0.0000

> <Gold.Chemscore.Lipo>
68.7809

> <Gold.Chemscore.Internal_Hbond>
0.0000

> <Gold.Chemscore.DEClash>
0.2386

> <Gold.Chemscore.DEInternal>
3.2766

> <Gold.Chemscore.Rot>
3.0231

> <Gold.Chemscore.Internal.Correction>
   9.000000E+99

> <Gold.Chemscore.Hbonds>
donor molecule, donor type, donor heavy atom, donor atom, acceptor molecule, acceptor atom, score
      L1  H     3    32       P1 10186  0.74
      L1  H     5    56       P1 10957  0.87
      L1  H    20    43       P1  7949  0.81
      P1  H  7989  7998       L1    23  0.78
      P1  H 10752 10764       L1    20  0.11

> <Gold.Chemscore.Hbond.Weighted>
-14.9918

> <Gold.Chemscore.Metal.Weighted>
-0.0000

> <Gold.Chemscore.Lipo.Weighted>
-8.0474

> <Gold.Chemscore.Internal_Hbond.Weighted>
0.0000

> <Gold.Chemscore.DEClash.Weighted>
0.2386

> <Gold.Chemscore.DEInternal.Weighted>
3.2766

> <Gold.Chemscore.Rot.Weighted>
7.7391

> <Gold.Chemscore.Internal.Correction.Weighted>
   9.000000E+99

> <Gold.Protein.RotatedTorsions>
[ 6907 6896 6895 6894 ] final   17.49 input  -60.11 | X-H torsion
[ 7974 7965 7964 7962 ] final -173.16 input  175.53 | X-H torsion
[ 8008 7997 7996 7995 ] final  -28.85 input   59.86 | X-H torsion
[ 10167 10162 10161 10158 ] final -135.22 input  -65.29 | X-H torsion
[ 10718 10713 10712 10709 ] final -144.65 input   66.30 | X-H torsion
[ 10763 10752 10751 10750 ] final  -92.02 input  -60.55 | X-H torsion
[ 11005 11000 10999 10996 ] final  -81.31 input  -57.11 | X-H torsion

> <Gold.Protein.ActiveResidues>
 VAL166  LYS551  ARG553  GLY616  TRP617  ASP618  TYR619  PRO620  LYS621  CYS622 
 ASP623  PHE694  ASN695  SER759  ASP760  ASP761  ALA762  ILE779  LEU786  VAL792 
 PHE793  MET794  SER795  GLU796  ALA797  LYS798  CYS799  TRP800  GLU811  SER814 

> <Gold.Protein.RotatedAtoms>
  151.8505  135.0559  160.0458 H   0  0  0  0  0  0  0  0  0  0  0  0  # atno 6907 bound_to 6896
  152.2740  133.5404  159.5465 H   0  0  0  0  0  0  0  0  0  0  0  0  # atno 6908 bound_to 6896
  150.7163  134.0574  159.3861 H   0  0  0  0  0  0  0  0  0  0  0  0  # atno 6909 bound_to 6896
  144.7140  140.1664  143.6371 H   0  0  0  0  0  0  0  0  0  0  0  0  # atno 7974 bound_to 7965
  154.4314  140.1834  156.1155 H   0  0  0  0  0  0  0  0  0  0  0  0  # atno 8008 bound_to 7997
  156.0184  140.3343  155.6988 H   0  0  0  0  0  0  0  0  0  0  0  0  # atno 8009 bound_to 7997
  155.6011  140.0640  157.2723 H   0  0  0  0  0  0  0  0  0  0  0  0  # atno 8010 bound_to 7997
  139.8801  143.6849  152.2628 H   0  0  0  0  0  0  0  0  0  0  0  0  # atno 10167 bound_to 10162
  156.3727  130.7796  151.1979 H   0  0  0  0  0  0  0  0  0  0  0  0  # atno 10718 bound_to 10713
  154.6819  135.5246  153.8275 H   0  0  0  0  0  0  0  0  0  0  0  0  # atno 10763 bound_to 10752
  153.0571  135.6554  154.0561 H   0  0  0  0  0  0  0  0  0  0  0  0  # atno 10764 bound_to 10752
  154.0447  135.2974  155.3329 H   0  0  0  0  0  0  0  0  0  0  0  0  # atno 10765 bound_to 10752
  141.1666  133.7191  156.8404 H   0  0  0  0  0  0  0  0  0  0  0  0  # atno 11005 bound_to 11000
  145.8983  139.2416  143.1508 LP  0  0  0  0  0  0  0  0  0  0  0  0  # atno 17320 bound_to 7965
  145.9835  140.8662  143.0102 LP  0  0  0  0  0  0  0  0  0  0  0  0  # atno 17321 bound_to 7965
  139.7204  144.7604  151.0965 LP  0  0  0  0  0  0  0  0  0  0  0  0  # atno 17342 bound_to 10162
  140.7746  143.5215  150.9530 LP  0  0  0  0  0  0  0  0  0  0  0  0  # atno 17343 bound_to 10162
  157.7485  131.0367  150.4424 LP  0  0  0  0  0  0  0  0  0  0  0  0  # atno 17370 bound_to 10713
  156.4653  130.4041  149.6551 LP  0  0  0  0  0  0  0  0  0  0  0  0  # atno 17371 bound_to 10713
  140.1987  134.8912  157.3144 LP  0  0  0  0  0  0  0  0  0  0  0  0  # atno 17394 bound_to 11000
  140.2211  134.4023  155.7565 LP  0  0  0  0  0  0  0  0  0  0  0  0  # atno 17395 bound_to 11000

$$$$
