AV-unprocessed.smi:227|AV-procd|sdf|1738|dock8
  -GOLD-   2262020243D 1   1.00000     0.00000
 Structure written by MMmdl.
 54 58  0  0  0  0  0  0  0  0  1 V2000
  146.9199  142.7436  154.8254 O   0  0  0  0  0  0  0  0  0  0  0  0
  146.8893  141.4495  155.3922 C   0  0  0  0  0  0  0  0  0  0  0  0
  147.6556  140.4306  154.5141 C   0  0  1  0  0  0  0  0  0  0  0  0
  147.0552  140.4458  153.0801 C   0  0  0  0  0  0  0  0  0  0  0  0
  146.7194  139.1387  152.5444 N   0  0  0  0  0  0  0  0  0  0  0  0
  146.7518  138.7579  151.2226 C   0  0  0  0  0  0  0  0  0  0  0  0
  146.3958  137.5241  150.9928 N   0  0  0  0  0  0  0  0  0  0  0  0
  146.0777  137.0162  152.2475 C   0  0  0  0  0  0  0  0  0  0  0  0
  145.6226  135.7538  152.7285 C   0  0  0  0  0  0  0  0  0  0  0  0
  145.4050  134.6722  151.9308 N   0  0  0  0  0  0  0  0  0  0  0  0
  146.4923  134.1091  151.1469 C   0  0  1  0  0  0  0  0  0  0  0  0
  147.3587  133.3697  152.1854 C   0  0  0  0  0  0  0  0  0  0  0  0
  146.2869  132.8549  153.1589 C   0  0  0  0  0  0  0  0  0  0  0  0
  144.9979  133.3938  152.5007 C   0  0  2  0  0  0  0  0  0  0  0  0
  144.6900  132.5426  151.2488 C   0  0  1  0  0  0  0  0  0  0  0  0
  143.2547  132.7209  150.7211 C   0  0  0  0  0  0  0  0  0  0  0  0
  143.0921  132.0344  149.4981 O   0  0  0  0  0  0  0  0  0  0  0  0
  145.7576  133.0786  150.2734 C   0  0  0  0  0  0  0  0  0  0  0  0
  145.3709  135.6518  154.0610 N   0  0  0  0  0  0  0  0  0  0  0  0
  145.5759  136.6919  154.8733 C   0  0  0  0  0  0  0  0  0  0  0  0
  146.0160  137.9130  154.5684 N   0  0  0  0  0  0  0  0  0  0  0  0
  146.2541  138.0314  153.2315 C   0  0  0  0  0  0  0  0  0  0  0  0
  149.1917  140.6942  154.5367 C   0  0  1  0  0  0  0  0  0  0  0  0
  149.7605  141.0941  155.8908 C   0  0  0  0  0  0  0  0  0  0  0  0
  151.2456  140.8178  155.7151 C   0  0  0  0  0  0  0  0  0  0  0  0
  151.2891  139.6203  154.9573 O   0  0  0  0  0  0  0  0  0  0  0  0
  150.0832  139.4817  154.2116 C   0  0  0  0  0  0  0  0  0  0  0  0
  147.6812  143.1982  155.1522 H   0  0  0  0  0  0  0  0  0  0  0  0
  147.3049  141.4852  156.3998 H   0  0  0  0  0  0  0  0  0  0  0  0
  145.8373  141.1852  155.4891 H   0  0  0  0  0  0  0  0  0  0  0  0
  147.4859  139.4459  154.9519 H   0  0  0  0  0  0  0  0  0  0  0  0
  146.1403  141.0381  153.0542 H   0  0  0  0  0  0  0  0  0  0  0  0
  147.7501  140.9321  152.3941 H   0  0  0  0  0  0  0  0  0  0  0  0
  147.0617  139.4232  150.4299 H   0  0  0  0  0  0  0  0  0  0  0  0
  147.0587  134.8173  150.5449 H   0  0  0  0  0  0  0  0  0  0  0  0
  147.9522  132.5681  151.7441 H   0  0  0  0  0  0  0  0  0  0  0  0
  148.0384  134.0578  152.6898 H   0  0  0  0  0  0  0  0  0  0  0  0
  146.2892  131.7690  153.2588 H   0  0  0  0  0  0  0  0  0  0  0  0
  146.4335  133.2816  154.1517 H   0  0  0  0  0  0  0  0  0  0  0  0
  144.1563  133.4478  153.1923 H   0  0  0  0  0  0  0  0  0  0  0  0
  144.8595  131.4833  151.4486 H   0  0  0  0  0  0  0  0  0  0  0  0
  142.5218  132.3553  151.4411 H   0  0  0  0  0  0  0  0  0  0  0  0
  143.0430  133.7771  150.5515 H   0  0  0  0  0  0  0  0  0  0  0  0
  143.1601  132.6588  148.7920 H   0  0  0  0  0  0  0  0  0  0  0  0
  145.2998  133.5686  149.4129 H   0  0  0  0  0  0  0  0  0  0  0  0
  146.4197  132.2968  149.8997 H   0  0  0  0  0  0  0  0  0  0  0  0
  145.3579  136.5199  155.9169 H   0  0  0  0  0  0  0  0  0  0  0  0
  149.4250  141.4948  153.8327 H   0  0  0  0  0  0  0  0  0  0  0  0
  149.5671  142.1354  156.1501 H   0  0  0  0  0  0  0  0  0  0  0  0
  149.3539  140.4602  156.6803 H   0  0  0  0  0  0  0  0  0  0  0  0
  151.7197  141.6175  155.1445 H   0  0  0  0  0  0  0  0  0  0  0  0
  151.7725  140.7137  156.6638 H   0  0  0  0  0  0  0  0  0  0  0  0
  149.6097  138.5468  154.5129 H   0  0  0  0  0  0  0  0  0  0  0  0
  150.3146  139.4162  153.1494 H   0  0  0  0  0  0  0  0  0  0  0  0
  1  2  1  0  0  0  0
  1 28  1  0  0  0  0
  2  3  1  0  0  0  0
  2 29  1  0  0  0  0
  2 30  1  0  0  0  0
  3  4  1  0  0  0  0
  3 23  1  0  0  0  0
  3 31  1  0  0  0  0
  4  5  1  0  0  0  0
  4 32  1  0  0  0  0
  4 33  1  0  0  0  0
  5 22  1  0  0  0  0
  5  6  1  0  0  0  0
  6  7  2  0  0  0  0
  6 34  1  0  0  0  0
  7  8  1  0  0  0  0
  8 22  2  0  0  0  0
  8  9  1  0  0  0  0
  9 10  1  0  0  0  0
  9 19  2  0  0  0  0
 10 14  1  0  0  0  0
 10 11  1  0  0  0  0
 11 18  1  0  0  0  0
 11 12  1  0  0  0  0
 11 35  1  0  0  0  0
 12 13  1  0  0  0  0
 12 36  1  0  0  0  0
 12 37  1  0  0  0  0
 13 14  1  0  0  0  0
 13 38  1  0  0  0  0
 13 39  1  0  0  0  0
 14 15  1  0  0  0  0
 14 40  1  0  0  0  0
 15 16  1  0  0  0  0
 15 18  1  0  0  0  0
 15 41  1  0  0  0  0
 16 17  1  0  0  0  0
 16 42  1  0  0  0  0
 16 43  1  0  0  0  0
 17 44  1  0  0  0  0
 18 45  1  0  0  0  0
 18 46  1  0  0  0  0
 19 20  1  0  0  0  0
 20 21  2  0  0  0  0
 20 47  1  0  0  0  0
 21 22  1  0  0  0  0
 23 27  1  0  0  0  0
 23 24  1  0  0  0  0
 23 48  1  0  0  0  0
 24 25  1  0  0  0  0
 24 49  1  0  0  0  0
 24 50  1  0  0  0  0
 25 26  1  0  0  0  0
 25 51  1  0  0  0  0
 25 52  1  0  0  0  0
 26 27  1  0  0  0  0
 27 53  1  0  0  0  0
 27 54  1  0  0  0  0
M  END
> <s_m_source_file>
AV-unprocessed.smi

> <i_m_source_file_index>
227

> <i_lp_mmshare_version>
43012

> <i_f3d_flags>
0

> <s_epik_input>
W0NIMl0xT1tDSDJdW0NIMl1bQ0BIXTFbQ0BIXShbQ0gyXVtPSF0pW0NIMl1uKFtjSF1uMiljKGMyMyluW2NIXW5jM04oW0NASF00NSlbQ0BASF0oW0NIMl1bQ0gyXTQpW0NASF0oW0NIMl01KVtDSDJdW09IXQ==

> <s_epik_cmdline>
J2VwaWtfcHl0aG9uJywgJy1waCcsICc3LjAnLCAnLXRuJywgJzgnLCAnLW1hJywgJzIwMCcsICctbWV0YWxfYmluZGluZycsICctaW1hZScsICc8aW5maWxlLm1hZT4nLCAnLW9tYWUnLCAnPG91dGZpbGUubWFlPic=

> <r_lp_tautomer_probability>
1

> <r_epik_Ionization_Penalty>
0.0055791

> <r_epik_Ionization_Penalty_Charging>
0

> <r_epik_Ionization_Penalty_Neutral>
0.0055791

> <r_epik_State_Penalty>
0.00401299

> <r_epik_Charging_Adjusted_Penalty>
0.00401299

> <i_epik_Tot_Q>
0

> <i_epik_Tot_abs_Q>
0

> <r_epik_Metal_State_Penalty>
-0

> <b_epik_Metal_Only>
0

> <s_lp_Force_Field>
OPLS_2005

> <r_lp_Energy>
89.2194

> <b_lp_Chiralities_Consistent>
1

> <s_lp_Variant>
AV-unprocessed.smi:227-12

> <Gold.Version>
5.8.1

> <Gold.Id.Protein>
6NUR|6NUR_protein|mol2

> <Gold.PLP.Fitness>
45.4970

> <Gold.PLP.PLP>
-40.7375

> <Gold.PLP.part.hbond>
-5.0534

> <Gold.PLP.part.metal>
0.0000

> <Gold.PLP.part.buried>
0.2619

> <Gold.PLP.part.nonpolar>
-38.5864

> <Gold.PLP.part.repulsive>
2.6490

> <Gold.PLP.ligand.clash>
0.0000

> <Gold.PLP.ligand.torsion>
1.4910

> <Gold.PLP.Chemscore.Hbond>
2.0000

> <Gold.PLP.Chemscore.CHOScore>
0.5272

> <Gold.PLP.Chemscore.Metal>
0.0000

> <Gold.Chemscore.Hbonds>
donor molecule, donor type, donor heavy atom, donor atom, acceptor molecule, acceptor atom, score
      L1  H     1    28       P1  8028  1.00
      P1  H 10785 10796       L1    17  0.98
      L1  C     6    34       P1  7957  0.33

> <Gold.PLP.Chemscore.Internal.Correction>
0.1599

> <Gold.Rescore>
     Score         DG    S(hbond)    S(metal)    S(lipo)     H(rot)  DE(clash)    DE(int)     intcor
      7.20     -11.83       1.49        0.00      90.65       3.61       1.89       2.75       ----

> <Gold.Chemscore.Fitness>
7.1959

> <Gold.Chemscore.DG>
-11.8343

> <Gold.Chemscore.ZeroCoef>
-5.4800

> <Gold.Chemscore.Hbond>
1.4916

> <Gold.Chemscore.Metal>
0.0000

> <Gold.Chemscore.Lipo>
90.6546

> <Gold.Chemscore.Internal_Hbond>
0.0000

> <Gold.Chemscore.DEClash>
1.8878

> <Gold.Chemscore.DEInternal>
2.7506

> <Gold.Chemscore.Rot>
3.6071

> <Gold.Chemscore.Internal.Correction>
   9.000000E+99

> <Gold.Chemscore.Hbonds>
donor molecule, donor type, donor heavy atom, donor atom, acceptor molecule, acceptor atom, score
      L1  H     1    28       P1  8028  0.44
      P1  H 10785 10796       L1    17  0.64

> <Gold.Chemscore.Hbond.Weighted>
-4.9819

> <Gold.Chemscore.Metal.Weighted>
-0.0000

> <Gold.Chemscore.Lipo.Weighted>
-10.6066

> <Gold.Chemscore.Internal_Hbond.Weighted>
0.0000

> <Gold.Chemscore.DEClash.Weighted>
1.8878

> <Gold.Chemscore.DEInternal.Weighted>
2.7506

> <Gold.Chemscore.Rot.Weighted>
9.2342

> <Gold.Chemscore.Internal.Correction.Weighted>
   9.000000E+99

> <Gold.Protein.RotatedTorsions>
[ 6907 6896 6895 6894 ] final -178.64 input  -60.11 | X-H torsion
[ 7974 7965 7964 7962 ] final  -91.37 input  175.53 | X-H torsion
[ 8008 7997 7996 7995 ] final   37.62 input   59.86 | X-H torsion
[ 10167 10162 10161 10158 ] final  -68.86 input  -65.29 | X-H torsion
[ 10718 10713 10712 10709 ] final   76.40 input   66.30 | X-H torsion
[ 10763 10752 10751 10750 ] final   97.62 input  -60.55 | X-H torsion
[ 11005 11000 10999 10996 ] final  160.81 input  -57.11 | X-H torsion

> <Gold.Protein.ActiveResidues>
 VAL166  LYS551  ARG553  GLY616  TRP617  ASP618  TYR619  PRO620  LYS621  CYS622 
 ASP623  PHE694  ASN695  SER759  ASP760  ASP761  ALA762  ILE779  LEU786  VAL792 
 PHE793  MET794  SER795  GLU796  ALA797  LYS798  CYS799  TRP800  GLU811  SER814 

> <Gold.Protein.RotatedAtoms>
  151.6404  133.3326  159.3128 H   0  0  0  0  0  0  0  0  0  0  0  0  # atno 6907 bound_to 6896
  150.8011  134.7108  159.6612 H   0  0  0  0  0  0  0  0  0  0  0  0  # atno 6908 bound_to 6896
  152.4103  134.6140  160.0085 H   0  0  0  0  0  0  0  0  0  0  0  0  # atno 6909 bound_to 6896
  145.4141  140.9547  143.2218 H   0  0  0  0  0  0  0  0  0  0  0  0  # atno 7974 bound_to 7965
  155.2068  140.3320  155.4335 H   0  0  0  0  0  0  0  0  0  0  0  0  # atno 8008 bound_to 7997
  156.2386  140.1884  156.7101 H   0  0  0  0  0  0  0  0  0  0  0  0  # atno 8009 bound_to 7997
  154.6104  140.0610  156.9472 H   0  0  0  0  0  0  0  0  0  0  0  0  # atno 8010 bound_to 7997
  140.5475  143.2312  151.6975 H   0  0  0  0  0  0  0  0  0  0  0  0  # atno 10167 bound_to 10162
  157.6672  130.9772  150.1492 H   0  0  0  0  0  0  0  0  0  0  0  0  # atno 10718 bound_to 10713
  153.2792  135.4177  155.1062 H   0  0  0  0  0  0  0  0  0  0  0  0  # atno 10763 bound_to 10752
  154.8483  135.3491  154.6136 H   0  0  0  0  0  0  0  0  0  0  0  0  # atno 10764 bound_to 10752
  153.6557  135.7050  153.5252 H   0  0  0  0  0  0  0  0  0  0  0  0  # atno 10765 bound_to 10752
  140.2096  134.8277  157.3107 H   0  0  0  0  0  0  0  0  0  0  0  0  # atno 11005 bound_to 11000
  144.8289  139.5662  143.6953 LP  0  0  0  0  0  0  0  0  0  0  0  0  # atno 17320 bound_to 7965
  146.2690  139.6589  142.9309 LP  0  0  0  0  0  0  0  0  0  0  0  0  # atno 17321 bound_to 7965
  139.5013  144.3872  152.0317 LP  0  0  0  0  0  0  0  0  0  0  0  0  # atno 17342 bound_to 10162
  140.2986  144.3673  150.6067 LP  0  0  0  0  0  0  0  0  0  0  0  0  # atno 17343 bound_to 10162
  156.2295  130.3681  149.8461 LP  0  0  0  0  0  0  0  0  0  0  0  0  # atno 17370 bound_to 10713
  156.6292  130.8658  151.3491 LP  0  0  0  0  0  0  0  0  0  0  0  0  # atno 17371 bound_to 10713
  140.1965  134.4307  155.7686 LP  0  0  0  0  0  0  0  0  0  0  0  0  # atno 17394 bound_to 11000
  141.2226  133.7051  156.8113 LP  0  0  0  0  0  0  0  0  0  0  0  0  # atno 17395 bound_to 11000

$$$$
