AV-unprocessed.smi:840|AV-procd|sdf|3914|dock8
  -GOLD-   22720 1373D 1   1.00000     0.00000
 Structure written by MMmdl.
 36 37  0  0  0  0  0  0  0  0  2 V2000
  148.0881  139.9674  153.6082 C   0  0  0  0  0  0  0  0  0  0  0  0
  148.4468  141.2669  154.3487 C   0  0  1  0  0  0  0  0  0  0  0  0
  147.3024  141.6499  155.1748 N   0  0  0  0  0  0  0  0  0  0  0  0
  146.4039  142.6027  154.8820 C   0  0  0  0  0  0  0  0  0  0  0  0
  146.5003  143.2351  153.8272 O   0  0  0  0  0  0  0  0  0  0  0  0
  145.4514  142.7640  155.8285 N   0  5  0  0  0  0  0  0  0  0  0  0
  144.6821  143.8646  155.8267 C   0  0  0  0  0  0  0  0  0  0  0  0
  144.1260  144.3660  156.9354 N   0  0  0  0  0  0  0  0  0  0  0  0
  143.3708  145.5174  156.7064 C   0  0  0  0  0  0  0  0  0  0  0  0
  143.3582  145.9071  155.3936 C   0  0  0  0  0  0  0  0  0  0  0  0
  144.3019  144.8337  154.3999 S   0  0  0  0  0  0  0  0  0  0  0  0
  149.6748  140.9968  155.2323 C   0  0  0  0  0  0  0  0  0  0  0  0
  150.3894  140.0132  155.0316 O   0  0  0  0  0  0  0  0  0  0  0  0
  149.9114  141.8904  156.2043 N   0  0  0  0  0  0  0  0  0  0  0  0
  151.0131  141.8193  157.1598 C   0  0  0  0  0  0  0  0  0  0  0  0
  150.5749  141.1569  158.4822 C   0  0  0  0  0  0  0  0  0  0  0  0
  150.5504  142.2732  159.5268 C   0  0  0  0  0  0  0  0  0  0  0  0
  151.6237  143.2493  159.0564 C   0  0  0  0  0  0  0  0  0  0  0  0
  151.5095  143.2297  157.5313 C   0  0  0  0  0  0  0  0  0  0  0  0
  148.9088  139.6356  152.9711 H   0  0  0  0  0  0  0  0  0  0  0  0
  147.2188  140.1141  152.9666 H   0  0  0  0  0  0  0  0  0  0  0  0
  147.8531  139.1559  154.2988 H   0  0  0  0  0  0  0  0  0  0  0  0
  148.6629  142.0518  153.6211 H   0  0  0  0  0  0  0  0  0  0  0  0
  147.1894  141.1611  156.0505 H   0  0  0  0  0  0  0  0  0  0  0  0
  142.8756  145.9956  157.5384 H   0  0  0  0  0  0  0  0  0  0  0  0
  142.8567  146.7551  154.9527 H   0  0  0  0  0  0  0  0  0  0  0  0
  149.2704  142.6646  156.3003 H   0  0  0  0  0  0  0  0  0  0  0  0
  151.8362  141.2497  156.7243 H   0  0  0  0  0  0  0  0  0  0  0  0
  149.6148  140.6426  158.4154 H   0  0  0  0  0  0  0  0  0  0  0  0
  151.3158  140.4103  158.7705 H   0  0  0  0  0  0  0  0  0  0  0  0
  149.5766  142.7644  159.5164 H   0  0  0  0  0  0  0  0  0  0  0  0
  150.7286  141.9060  160.5379 H   0  0  0  0  0  0  0  0  0  0  0  0
  151.4966  144.2482  159.4745 H   0  0  0  0  0  0  0  0  0  0  0  0
  152.6070  142.8841  159.3559 H   0  0  0  0  0  0  0  0  0  0  0  0
  152.4563  143.4736  157.0486 H   0  0  0  0  0  0  0  0  0  0  0  0
  150.7866  143.9863  157.2215 H   0  0  0  0  0  0  0  0  0  0  0  0
  1  2  1  0  0  0  0
  1 20  1  0  0  0  0
  1 21  1  0  0  0  0
  1 22  1  0  0  0  0
  2  3  1  0  0  0  0
  2 12  1  0  0  0  0
  2 23  1  0  0  0  0
  3  4  1  0  0  0  0
  3 24  1  0  0  0  0
  4  5  2  0  0  0  0
  4  6  1  0  0  0  0
  6  7  1  0  0  0  0
  7 11  1  0  0  0  0
  7  8  2  0  0  0  0
  8  9  1  0  0  0  0
  9 10  2  0  0  0  0
  9 25  1  0  0  0  0
 10 11  1  0  0  0  0
 10 26  1  0  0  0  0
 12 13  2  0  0  0  0
 12 14  1  0  0  0  0
 14 15  1  0  0  0  0
 14 27  1  0  0  0  0
 15 19  1  0  0  0  0
 15 16  1  0  0  0  0
 15 28  1  0  0  0  0
 16 17  1  0  0  0  0
 16 29  1  0  0  0  0
 16 30  1  0  0  0  0
 17 18  1  0  0  0  0
 17 31  1  0  0  0  0
 17 32  1  0  0  0  0
 18 19  1  0  0  0  0
 18 33  1  0  0  0  0
 18 34  1  0  0  0  0
 19 35  1  0  0  0  0
 19 36  1  0  0  0  0
M  CHG  1   6  -1
M  END
> <s_m_source_file>
AV-unprocessed.smi

> <i_m_source_file_index>
840

> <i_lp_mmshare_version>
43012

> <i_f3d_flags>
0

> <s_epik_input>
W0NIMl0xW0NIMl1bQ0gyXVtDSDJdW0NIXTFbTkhdQyg9TylbQ0BIXShbQ0gzXSlbTkhdQyg9TylbTkhdYzJuW2NIXVtjSF1zMg==

> <s_epik_cmdline>
J2VwaWtfcHl0aG9uJywgJy1waCcsICc3LjAnLCAnLXRuJywgJzgnLCAnLW1hJywgJzIwMCcsICctbWV0YWxfYmluZGluZycsICctaW1hZScsICc8aW5maWxlLm1hZT4nLCAnLW9tYWUnLCAnPG91dGZpbGUubWFlPic=

> <r_lp_tautomer_probability>
1

> <r_epik_Ionization_Penalty>
6.35467

> <r_epik_Ionization_Penalty_Charging>
5.47395

> <r_epik_Ionization_Penalty_Neutral>
0.880717

> <r_epik_State_Penalty>
5.4739

> <r_epik_Charging_Adjusted_Penalty>
10.9479

> <i_epik_Tot_Q>
-1

> <i_epik_Tot_abs_Q>
1

> <r_epik_Metal_State_Penalty>
1.48639

> <b_epik_Metal_Only>
1

> <s_lp_Force_Field>
OPLS_2005

> <r_lp_Energy>
13.1034

> <b_lp_Chiralities_Consistent>
1

> <s_lp_Variant>
AV-unprocessed.smi:840-4

> <Gold.Version>
5.8.1

> <Gold.Id.Protein>
6NUR|6NUR_protein|mol2

> <Gold.PLP.Fitness>
37.6459

> <Gold.PLP.PLP>
-34.1302

> <Gold.PLP.part.hbond>
-3.5078

> <Gold.PLP.part.metal>
0.0000

> <Gold.PLP.part.buried>
-3.6363

> <Gold.PLP.part.nonpolar>
-28.3805

> <Gold.PLP.part.repulsive>
0.7178

> <Gold.PLP.ligand.clash>
0.0000

> <Gold.PLP.ligand.torsion>
1.2539

> <Gold.PLP.Chemscore.Hbond>
2.0000

> <Gold.PLP.Chemscore.CHOScore>
0.0000

> <Gold.PLP.Chemscore.Metal>
0.0000

> <Gold.Chemscore.Hbonds>
donor molecule, donor type, donor heavy atom, donor atom, acceptor molecule, acceptor atom, score
      L1  H    14    27       P1  8028  0.54
      P1  H  7989  7998       L1    13  0.59

> <Gold.PLP.Chemscore.Internal.Correction>
0.0235

> <Gold.Rescore>
     Score         DG    S(hbond)    S(metal)    S(lipo)     H(rot)  DE(clash)    DE(int)     intcor
     12.93     -15.64       1.63        0.00      75.85       1.62       0.33       2.39       ----

> <Gold.Chemscore.Fitness>
12.9263

> <Gold.Chemscore.DG>
-15.6447

> <Gold.Chemscore.ZeroCoef>
-5.4800

> <Gold.Chemscore.Hbond>
1.6281

> <Gold.Chemscore.Metal>
0.0000

> <Gold.Chemscore.Lipo>
75.8546

> <Gold.Chemscore.Internal_Hbond>
0.0000

> <Gold.Chemscore.DEClash>
0.3280

> <Gold.Chemscore.DEInternal>
2.3904

> <Gold.Chemscore.Rot>
1.6204

> <Gold.Chemscore.Internal.Correction>
   9.000000E+99

> <Gold.Chemscore.Hbonds>
donor molecule, donor type, donor heavy atom, donor atom, acceptor molecule, acceptor atom, score
      L1  H    14    27       P1  8028  0.52
      P1  H  7989  7998       L1    13  0.10

> <Gold.Chemscore.Hbond.Weighted>
-5.4379

> <Gold.Chemscore.Metal.Weighted>
-0.0000

> <Gold.Chemscore.Lipo.Weighted>
-8.8750

> <Gold.Chemscore.Internal_Hbond.Weighted>
0.0000

> <Gold.Chemscore.DEClash.Weighted>
0.3280

> <Gold.Chemscore.DEInternal.Weighted>
2.3904

> <Gold.Chemscore.Rot.Weighted>
4.1481

> <Gold.Chemscore.Internal.Correction.Weighted>
   9.000000E+99

> <Gold.Protein.RotatedTorsions>
[ 6907 6896 6895 6894 ] final   25.75 input  -60.11 | X-H torsion
[ 7974 7965 7964 7962 ] final  -50.88 input  175.53 | X-H torsion
[ 8008 7997 7996 7995 ] final -115.64 input   59.86 | X-H torsion
[ 10167 10162 10161 10158 ] final  -28.02 input  -65.29 | X-H torsion
[ 10718 10713 10712 10709 ] final  -85.13 input   66.30 | X-H torsion
[ 10763 10752 10751 10750 ] final  113.68 input  -60.55 | X-H torsion
[ 11005 11000 10999 10996 ] final   51.67 input  -57.11 | X-H torsion

> <Gold.Protein.ActiveResidues>
 VAL166  LYS551  ARG553  GLY616  TRP617  ASP618  TYR619  PRO620  LYS621  CYS622 
 ASP623  PHE694  ASN695  SER759  ASP760  ASP761  ALA762  ILE779  LEU786  VAL792 
 PHE793  MET794  SER795  GLU796  ALA797  LYS798  CYS799  TRP800  GLU811  SER814 

> <Gold.Protein.RotatedAtoms>
  151.9772  135.0047  160.0555 H   0  0  0  0  0  0  0  0  0  0  0  0  # atno 6907 bound_to 6896
  152.1729  133.4651  159.4927 H   0  0  0  0  0  0  0  0  0  0  0  0  # atno 6908 bound_to 6896
  150.6904  134.1847  159.4305 H   0  0  0  0  0  0  0  0  0  0  0  0  # atno 6909 bound_to 6896
  145.9250  140.7800  142.9628 H   0  0  0  0  0  0  0  0  0  0  0  0  # atno 7974 bound_to 7965
  155.0552  140.0393  157.2557 H   0  0  0  0  0  0  0  0  0  0  0  0  # atno 8008 bound_to 7997
  154.7105  140.2691  155.6610 H   0  0  0  0  0  0  0  0  0  0  0  0  # atno 8009 bound_to 7997
  156.2788  140.2722  156.1745 H   0  0  0  0  0  0  0  0  0  0  0  0  # atno 8010 bound_to 7997
  140.7273  143.4045  151.1209 H   0  0  0  0  0  0  0  0  0  0  0  0  # atno 10167 bound_to 10162
  155.9999  130.4721  150.4516 H   0  0  0  0  0  0  0  0  0  0  0  0  # atno 10718 bound_to 10713
  153.4961  135.3648  155.2516 H   0  0  0  0  0  0  0  0  0  0  0  0  # atno 10763 bound_to 10752
  154.8750  135.3989  154.3532 H   0  0  0  0  0  0  0  0  0  0  0  0  # atno 10764 bound_to 10752
  153.4160  135.7079  153.6392 H   0  0  0  0  0  0  0  0  0  0  0  0  # atno 10765 bound_to 10752
  140.0913  134.5206  155.8850 H   0  0  0  0  0  0  0  0  0  0  0  0  # atno 11005 bound_to 11000
  144.6757  140.2037  143.7384 LP  0  0  0  0  0  0  0  0  0  0  0  0  # atno 17320 bound_to 7965
  145.8500  139.2171  143.1777 LP  0  0  0  0  0  0  0  0  0  0  0  0  # atno 17321 bound_to 7965
  139.7669  143.8551  152.3112 LP  0  0  0  0  0  0  0  0  0  0  0  0  # atno 17342 bound_to 10162
  139.8456  144.7189  150.9276 LP  0  0  0  0  0  0  0  0  0  0  0  0  # atno 17343 bound_to 10162
  157.2548  131.0554  151.2357 LP  0  0  0  0  0  0  0  0  0  0  0  0  # atno 17370 bound_to 10713
  157.3492  130.7073  149.6430 LP  0  0  0  0  0  0  0  0  0  0  0  0  # atno 17371 bound_to 10713
  141.2078  133.6668  156.6333 LP  0  0  0  0  0  0  0  0  0  0  0  0  # atno 17394 bound_to 11000
  140.3348  134.7898  157.4354 LP  0  0  0  0  0  0  0  0  0  0  0  0  # atno 17395 bound_to 11000

$$$$
