#       Name:                AV-unprocessed.smi:697
#       Creating user name   scv26
#       Creation time:       Fri Mar 27 00:37:33 2020


#       File generated by GOLD software.
#

@<TRIPOS>MOLECULE
AV-unprocessed.smi:697
    50    51     1
SMALL
NO_CHARGES


@<TRIPOS>ATOM
      1 ****        -4.8814  -0.8891   2.0141 C.3            1 S1                 0.0000
      2 ****        -3.9590  -0.7618   0.9388 O.3            1 S1                 0.0000
      3 ****        -2.8579  -1.6805   0.9023 C.3            1 S1                 0.0000
      4 ****        -3.3645  -3.1283   0.8882 C.3            1 S1                 0.0000
      5 ****        -1.7844  -1.2663   1.9270 C.3            1 S1                 0.0000
      6 ****        -1.2618  -0.2900   0.8752 C.3            1 S1                 0.0000
      7 ****         0.1943  -0.1985   0.8680 N.am           1 S1                 0.0000
      8 ****         0.8971   0.6570   0.1142 C.2            1 S1                 0.0000
      9 ****         0.3739   1.4685  -0.6492 O.2            1 S1                 0.0000
     10 ****         2.2177   0.4801   0.2981 N.am           1 S1                 0.0000
     11 ****         3.2989   1.1751  -0.2692 C.2            1 S1                 0.0000
     12 ****         3.2088   2.3895  -0.8791 C.2            1 S1                 0.0000
     13 ****         4.3711   3.0711  -1.4353 C.2            1 S1                 0.0000
     14 ****         4.3208   4.4586  -2.0500 C.3            1 S1                 0.0000
     15 ****         5.4345   5.1419  -1.7841 F              1 S1                 0.0000
     16 ****         4.1975   4.3646  -3.3732 F              1 S1                 0.0000
     17 ****         3.2815   5.1512  -1.5836 F              1 S1                 0.0000
     18 ****         5.5390   2.3597  -1.2401 C.2            1 S1                 0.0000
     19 ****         5.7133   1.1536  -0.6568 N.pl3          1 S1                -1.0000
     20 ****         4.6185   0.5216  -0.1472 C.2            1 S1                 0.0000
     21 ****         4.7078  -0.5746   0.4071 O.2            1 S1                 0.0000
     22 ****        -1.8639  -1.2164  -0.2125 C.3            1 S1                 0.0000
     23 ****        -0.9360  -2.3050  -0.7851 C.3            1 S1                 0.0000
     24 ****        -2.4780  -0.5120  -1.4272 C.3            1 S1                 0.0000
     25 ****        -5.5653  -0.0408   1.9974 H              1 S1                 0.0000
     26 ****        -4.3893  -0.8971   2.9861 H              1 S1                 0.0000
     27 ****        -5.4865  -1.7905   1.9201 H              1 S1                 0.0000
     28 ****        -2.5512  -3.8414   0.7587 H              1 S1                 0.0000
     29 ****        -4.0740  -3.2917   0.0767 H              1 S1                 0.0000
     30 ****        -3.8552  -3.3982   1.8229 H              1 S1                 0.0000
     31 ****        -2.1465  -0.7893   2.8371 H              1 S1                 0.0000
     32 ****        -1.0875  -2.0735   2.1597 H              1 S1                 0.0000
     33 ****        -1.7667   0.6769   0.9383 H              1 S1                 0.0000
     34 ****         0.6991  -0.8355   1.4667 H              1 S1                 0.0000
     35 ****         2.4885  -0.2809   0.9037 H              1 S1                 0.0000
     36 ****         2.2636   2.9013  -0.9553 H              1 S1                 0.0000
     37 ****         6.4761   2.8343  -1.6020 H              1 S1                 0.0000
     38 ****        -0.1612  -1.8787  -1.4233 H              1 S1                 0.0000
     39 ****        -1.4898  -3.0242  -1.3892 H              1 S1                 0.0000
     40 ****        -0.4271  -2.8671  -0.0019 H              1 S1                 0.0000
     41 ****        -1.7112  -0.1635  -2.1197 H              1 S1                 0.0000
     42 ****        -3.0589   0.3648  -1.1403 H              1 S1                 0.0000
     43 ****        -3.1444  -1.1766  -1.9778 H              1 S1                 0.0000
     44 ****        -3.5780   0.1620   0.9781 LP             1 S1                 0.0000
     45 ****        -4.4724  -0.8747   0.0881 LP             1 S1                 0.0000
     46 ****        -0.6221   1.5106  -0.7281 LP             1 S1                 0.0000
     47 ****         0.9448   2.0858  -1.1905 LP             1 S1                 0.0000
     48 ****         6.6203   0.7362  -0.6005 LP             1 S1                 0.0000
     49 ****         3.8894  -1.0184   0.7722 LP             1 S1                 0.0000
     50 ****         5.5987  -1.0208   0.4921 LP             1 S1                 0.0000
@<TRIPOS>BOND
    1    1    2 1     
    2    1   25 1     
    3    1   26 1     
    4    1   27 1     
    5    2    3 1     
    6    3   22 1     
    7    3    4 1     
    8    3    5 1     
    9    4   28 1     
   10    4   29 1     
   11    4   30 1     
   12    5    6 1     
   13    5   31 1     
   14    5   32 1     
   15    6    7 1     
   16    6   22 1     
   17    6   33 1     
   18    7    8 am    
   19    7   34 1     
   20    8    9 2     
   21    8   10 am    
   22   10   11 1     
   23   10   35 1     
   24   11   20 1     
   25   11   12 2     
   26   12   13 1     
   27   12   36 1     
   28   13   14 1     
   29   13   18 2     
   30   14   15 1     
   31   14   16 1     
   32   14   17 1     
   33   18   19 1     
   34   18   37 1     
   35   19   20 1     
   36   20   21 2     
   37   22   23 1     
   38   22   24 1     
   39   23   38 1     
   40   23   39 1     
   41   23   40 1     
   42   24   41 1     
   43   24   42 1     
   44   24   43 1     
   45    2   44 1     
   46    2   45 1     
   47    9   46 1     
   48    9   47 1     
   49   19   48 1     
   50   21   49 1     
   51   21   50 1     
@<TRIPOS>SUBSTRUCTURE
      1 S1             1
@<TRIPOS>SET
LONE_PAIRS      STATIC     ATOMS    <user>   **** ""
7 44 45 46 47 48 49 50
DONOR_HYDROGENS      STATIC     ATOMS    <user>   **** ""
2 34 35
ATOM$BLUE        STATIC     ATOMS    COLORGROUP SYSTEM
7 44 45 46 47 48 49 50
ATOM$RED        STATIC     ATOMS    COLORGROUP SYSTEM
2 34 35
