AV-unprocessed.smi:2551|AV-procd|sdf|10013|dock1
  -GOLD-   2272014 53D 1   1.00000     0.00000
 Structure written by MMmdl.
 26 27  0  0  0  0  0  0  0  0  1 V2000
  149.8593  140.9299  157.2340 O   0  0  0  0  0  0  0  0  0  0  0  0
  149.7200  142.0402  156.7236 C   0  0  0  0  0  0  0  0  0  0  0  0
  149.0169  142.1958  155.5811 N   0  0  0  0  0  0  0  0  0  0  0  0
  148.3234  141.2616  154.7569 C   0  0  0  0  0  0  0  0  0  0  0  0
  148.6676  139.9719  154.6073 N   0  0  0  0  0  0  0  0  0  0  0  0
  147.8191  139.3005  153.7377 N   0  0  0  0  0  0  0  0  0  0  0  0
  146.8696  140.1088  153.2590 C   0  0  0  0  0  0  0  0  0  0  0  0
  146.9212  141.7690  153.8246 S   0  0  0  0  0  0  0  0  0  0  0  0
  150.2562  143.1524  157.2521 N   0  0  0  0  0  0  0  0  0  0  0  0
  151.0529  143.2133  158.4741 C   0  0  0  0  0  0  0  0  0  0  0  0
  150.3422  144.0658  159.5438 C   0  0  0  0  0  0  0  0  0  0  0  0
  151.3821  145.0660  160.0527 C   0  0  0  0  0  0  0  0  0  0  0  0
  152.3216  145.2718  158.8690 C   0  0  0  0  0  0  0  0  0  0  0  0
  152.4166  143.8882  158.2264 C   0  0  0  0  0  0  0  0  0  0  0  0
  148.9805  143.1476  155.2462 H   0  0  0  0  0  0  0  0  0  0  0  0
  146.1352  139.7252  152.5665 H   0  0  0  0  0  0  0  0  0  0  0  0
  150.0970  144.0257  156.7699 H   0  0  0  0  0  0  0  0  0  0  0  0
  151.2089  142.2030  158.8568 H   0  0  0  0  0  0  0  0  0  0  0  0
  149.5061  144.6148  159.1071 H   0  0  0  0  0  0  0  0  0  0  0  0
  149.9373  143.4559  160.3518 H   0  0  0  0  0  0  0  0  0  0  0  0
  150.9339  145.9969  160.4009 H   0  0  0  0  0  0  0  0  0  0  0  0
  151.9347  144.6298  160.8860 H   0  0  0  0  0  0  0  0  0  0  0  0
  151.8766  145.9755  158.1642 H   0  0  0  0  0  0  0  0  0  0  0  0
  153.2941  145.6654  159.1661 H   0  0  0  0  0  0  0  0  0  0  0  0
  153.1956  143.3134  158.7288 H   0  0  0  0  0  0  0  0  0  0  0  0
  152.6918  143.9444  157.1723 H   0  0  0  0  0  0  0  0  0  0  0  0
  1  2  2  0  0  0  0
  2  3  1  0  0  0  0
  2  9  1  0  0  0  0
  3  4  1  0  0  0  0
  3 15  1  0  0  0  0
  4  8  1  0  0  0  0
  4  5  2  0  0  0  0
  5  6  1  0  0  0  0
  6  7  2  0  0  0  0
  7  8  1  0  0  0  0
  7 16  1  0  0  0  0
  9 10  1  0  0  0  0
  9 17  1  0  0  0  0
 10 14  1  0  0  0  0
 10 11  1  0  0  0  0
 10 18  1  0  0  0  0
 11 12  1  0  0  0  0
 11 19  1  0  0  0  0
 11 20  1  0  0  0  0
 12 13  1  0  0  0  0
 12 21  1  0  0  0  0
 12 22  1  0  0  0  0
 13 14  1  0  0  0  0
 13 23  1  0  0  0  0
 13 24  1  0  0  0  0
 14 25  1  0  0  0  0
 14 26  1  0  0  0  0
M  END
> <s_m_source_file>
AV-unprocessed.smi

> <i_m_source_file_index>
2551

> <i_lp_mmshare_version>
43012

> <i_f3d_flags>
0

> <s_epik_input>
W0NIMl0xW0NIMl1bQ0gyXVtDSDJdW0NIXTFbTkhdQyg9TylbTkhdYzJubltjSF1zMg==

> <s_epik_cmdline>
J2VwaWtfcHl0aG9uJywgJy1waCcsICc3LjAnLCAnLXRuJywgJzgnLCAnLW1hJywgJzIwMCcsICctbWV0YWxfYmluZGluZycsICctaW1hZScsICc8aW5maWxlLm1hZT4nLCAnLW9tYWUnLCAnPG91dGZpbGUubWFlPic=

> <r_lp_tautomer_probability>
1

> <r_epik_Ionization_Penalty>
0.000339189

> <r_epik_Ionization_Penalty_Charging>
0

> <r_epik_Ionization_Penalty_Neutral>
0.000339189

> <r_epik_State_Penalty>
-0

> <r_epik_Charging_Adjusted_Penalty>
0

> <i_epik_Tot_Q>
0

> <i_epik_Tot_abs_Q>
0

> <r_epik_Metal_State_Penalty>
0.176475

> <b_epik_Metal_Only>
0

> <s_lp_Force_Field>
OPLS_2005

> <r_lp_Energy>
20.1327

> <b_lp_Chiralities_Consistent>
1

> <s_lp_Variant>
AV-unprocessed.smi:2551-1

> <Gold.Version>
5.8.1

> <Gold.Id.Protein>
6NUR|6NUR_protein|mol2

> <Gold.PLP.Fitness>
35.0164

> <Gold.PLP.PLP>
-27.2055

> <Gold.PLP.part.hbond>
-1.9714

> <Gold.PLP.part.metal>
0.0000

> <Gold.PLP.part.buried>
-4.3416

> <Gold.PLP.part.nonpolar>
-23.0306

> <Gold.PLP.part.repulsive>
0.4626

> <Gold.PLP.ligand.clash>
0.0000

> <Gold.PLP.ligand.torsion>
0.2074

> <Gold.PLP.Chemscore.Hbond>
1.8320

> <Gold.PLP.Chemscore.CHOScore>
0.9091

> <Gold.PLP.Chemscore.Metal>
0.0000

> <Gold.Chemscore.Hbonds>
donor molecule, donor type, donor heavy atom, donor atom, acceptor molecule, acceptor atom, score
      L1  H     3    15       P1  8028  0.94
      L1  H     9    17       P1  8028  0.78
      L1  C     7    16       P1 10175  0.83

> <Gold.PLP.Chemscore.Internal.Correction>
0.0025

> <Gold.Rescore>
     Score         DG    S(hbond)    S(metal)    S(lipo)     H(rot)  DE(clash)    DE(int)     intcor
     16.33     -17.52       1.92        0.00      70.02       1.00       0.00       1.20       ----

> <Gold.Chemscore.Fitness>
16.3254

> <Gold.Chemscore.DG>
-17.5221

> <Gold.Chemscore.ZeroCoef>
-5.4800

> <Gold.Chemscore.Hbond>
1.9190

> <Gold.Chemscore.Metal>
0.0000

> <Gold.Chemscore.Lipo>
70.0236

> <Gold.Chemscore.Internal_Hbond>
0.0000

> <Gold.Chemscore.DEClash>
0.0000

> <Gold.Chemscore.DEInternal>
1.1967

> <Gold.Chemscore.Rot>
1.0000

> <Gold.Chemscore.Internal.Correction>
   9.000000E+99

> <Gold.Chemscore.Hbonds>
donor molecule, donor type, donor heavy atom, donor atom, acceptor molecule, acceptor atom, score
      L1  H     3    15       P1  8028  0.90
      L1  H     9    17       P1  8028  0.77

> <Gold.Chemscore.Hbond.Weighted>
-6.4093

> <Gold.Chemscore.Metal.Weighted>
-0.0000

> <Gold.Chemscore.Lipo.Weighted>
-8.1928

> <Gold.Chemscore.Internal_Hbond.Weighted>
0.0000

> <Gold.Chemscore.DEClash.Weighted>
0.0000

> <Gold.Chemscore.DEInternal.Weighted>
1.1967

> <Gold.Chemscore.Rot.Weighted>
2.5600

> <Gold.Chemscore.Internal.Correction.Weighted>
   9.000000E+99

> <Gold.Protein.RotatedTorsions>
[ 6907 6896 6895 6894 ] final -136.27 input  -60.11 | X-H torsion
[ 7974 7965 7964 7962 ] final  177.44 input  175.53 | X-H torsion
[ 8008 7997 7996 7995 ] final   75.06 input   59.86 | X-H torsion
[ 10167 10162 10161 10158 ] final   59.63 input  -65.29 | X-H torsion
[ 10718 10713 10712 10709 ] final -103.28 input   66.30 | X-H torsion
[ 10763 10752 10751 10750 ] final   66.96 input  -60.55 | X-H torsion
[ 11005 11000 10999 10996 ] final -141.50 input  -57.11 | X-H torsion

> <Gold.Protein.ActiveResidues>
 VAL166  LYS551  ARG553  GLY616  TRP617  ASP618  TYR619  PRO620  LYS621  CYS622 
 ASP623  PHE694  ASN695  SER759  ASP760  ASP761  ALA762  ILE779  LEU786  VAL792 
 PHE793  MET794  SER795  GLU796  ALA797  LYS798  CYS799  TRP800  GLU811  SER814 

> <Gold.Protein.RotatedAtoms>
  151.0080  133.5992  159.2686 H   0  0  0  0  0  0  0  0  0  0  0  0  # atno 6907 bound_to 6896
  151.3154  135.0804  159.9297 H   0  0  0  0  0  0  0  0  0  0  0  0  # atno 6908 bound_to 6896
  152.5292  133.9737  159.7828 H   0  0  0  0  0  0  0  0  0  0  0  0  # atno 6909 bound_to 6896
  144.7169  140.0248  143.6439 H   0  0  0  0  0  0  0  0  0  0  0  0  # atno 7974 bound_to 7965
  155.8074  140.3474  155.5437 H   0  0  0  0  0  0  0  0  0  0  0  0  # atno 8008 bound_to 7997
  155.8476  140.0951  157.1715 H   0  0  0  0  0  0  0  0  0  0  0  0  # atno 8009 bound_to 7997
  154.4007  140.1382  156.3792 H   0  0  0  0  0  0  0  0  0  0  0  0  # atno 8010 bound_to 7997
  140.1743  144.4245  150.6646 H   0  0  0  0  0  0  0  0  0  0  0  0  # atno 10167 bound_to 10162
  156.0259  130.5460  150.7230 H   0  0  0  0  0  0  0  0  0  0  0  0  # atno 10718 bound_to 10713
  153.0164  135.5301  154.6906 H   0  0  0  0  0  0  0  0  0  0  0  0  # atno 10763 bound_to 10752
  154.6041  135.2871  155.0505 H   0  0  0  0  0  0  0  0  0  0  0  0  # atno 10764 bound_to 10752
  154.1551  135.6556  153.5025 H   0  0  0  0  0  0  0  0  0  0  0  0  # atno 10765 bound_to 10752
  140.8318  134.2507  157.4853 H   0  0  0  0  0  0  0  0  0  0  0  0  # atno 11005 bound_to 11000
  146.0151  139.3203  143.0847 LP  0  0  0  0  0  0  0  0  0  0  0  0  # atno 17320 bound_to 7965
  145.8635  140.9461  143.0687 LP  0  0  0  0  0  0  0  0  0  0  0  0  # atno 17321 bound_to 7965
  140.6561  143.2238  151.5964 LP  0  0  0  0  0  0  0  0  0  0  0  0  # atno 17342 bound_to 10162
  139.5324  144.2878  152.1177 LP  0  0  0  0  0  0  0  0  0  0  0  0  # atno 17343 bound_to 10162
  157.4841  131.0905  151.0503 LP  0  0  0  0  0  0  0  0  0  0  0  0  # atno 17370 bound_to 10713
  157.0928  130.5949  149.5443 LP  0  0  0  0  0  0  0  0  0  0  0  0  # atno 17371 bound_to 10713
  139.8705  134.9590  156.4319 LP  0  0  0  0  0  0  0  0  0  0  0  0  # atno 17394 bound_to 11000
  140.8989  133.7793  155.9657 LP  0  0  0  0  0  0  0  0  0  0  0  0  # atno 17395 bound_to 11000

$$$$
