AV-unprocessed.smi:863|AV-procd|sdf|3985|dock2
  -GOLD-   22720 1463D 1   1.00000     0.00000
 Structure written by MMmdl.
 42 44  0  0  0  0  0  0  0  0  1 V2000
  151.0036  134.5626  155.7895 O   0  0  0  0  0  0  0  0  0  0  0  0
  150.3388  134.9747  154.8387 C   0  0  0  0  0  0  0  0  0  0  0  0
  149.4629  134.0072  154.0421 C   0  0  0  0  0  0  0  0  0  0  0  0
  149.7211  132.5918  154.4831 C   0  0  0  0  0  0  0  0  0  0  0  0
  149.8226  131.4213  153.6805 C   0  0  0  0  0  0  0  0  0  0  0  0
  150.0623  130.4309  154.5887 C   0  0  0  0  0  0  0  0  0  0  0  0
  150.1085  130.9400  155.8458 O   0  0  0  0  0  0  0  0  0  0  0  0
  149.8922  132.3206  155.7686 N   0  0  0  0  0  0  0  0  0  0  0  0
  150.3323  136.2562  154.4389 N   0  0  0  0  0  0  0  0  0  0  0  0
  151.1080  137.3326  155.0475 C   0  0  1  0  0  0  0  0  0  0  0  0
  152.1745  137.8515  154.0728 C   0  0  0  0  0  0  0  0  0  0  0  0
  152.8937  139.0733  154.6599 C   0  0  0  0  0  0  0  0  0  0  0  0
  151.9540  140.0861  155.0144 O   0  0  0  0  0  0  0  0  0  0  0  0
  150.9503  139.7228  155.9718 C   0  0  0  0  0  0  0  0  0  0  0  0
  151.5616  139.4615  157.3756 C   0  0  0  0  0  0  0  0  0  0  0  0
  152.2468  140.7083  157.9584 C   0  0  0  0  0  0  0  0  0  0  0  0
  151.2753  141.8940  158.0280 C   0  0  0  0  0  0  0  0  0  0  0  0
  150.6662  142.1843  156.6496 C   0  0  0  0  0  0  0  0  0  0  0  0
  149.9915  140.9335  156.0592 C   0  0  0  0  0  0  0  0  0  0  0  0
  150.1775  138.4920  155.4368 C   0  0  0  0  0  0  0  0  0  0  0  0
  148.4140  134.2650  154.1932 H   0  0  0  0  0  0  0  0  0  0  0  0
  149.6589  134.1280  152.9755 H   0  0  0  0  0  0  0  0  0  0  0  0
  149.7318  131.3250  152.6087 H   0  0  0  0  0  0  0  0  0  0  0  0
  150.2158  129.3655  154.5017 H   0  0  0  0  0  0  0  0  0  0  0  0
  149.7576  136.5013  153.6453 H   0  0  0  0  0  0  0  0  0  0  0  0
  151.5946  136.9526  155.9471 H   0  0  0  0  0  0  0  0  0  0  0  0
  152.8988  137.0687  153.8446 H   0  0  0  0  0  0  0  0  0  0  0  0
  151.7076  138.1304  153.1272 H   0  0  0  0  0  0  0  0  0  0  0  0
  153.5057  138.7924  155.5164 H   0  0  0  0  0  0  0  0  0  0  0  0
  153.5790  139.4866  153.9198 H   0  0  0  0  0  0  0  0  0  0  0  0
  150.7689  139.1483  158.0565 H   0  0  0  0  0  0  0  0  0  0  0  0
  152.2713  138.6360  157.3606 H   0  0  0  0  0  0  0  0  0  0  0  0
  152.6323  140.4872  158.9540 H   0  0  0  0  0  0  0  0  0  0  0  0
  153.1094  140.9741  157.3463 H   0  0  0  0  0  0  0  0  0  0  0  0
  150.4798  141.6747  158.7413 H   0  0  0  0  0  0  0  0  0  0  0  0
  151.7920  142.7785  158.4015 H   0  0  0  0  0  0  0  0  0  0  0  0
  149.9402  142.9940  156.7290 H   0  0  0  0  0  0  0  0  0  0  0  0
  151.4453  142.5368  155.9725 H   0  0  0  0  0  0  0  0  0  0  0  0
  149.5956  141.1704  155.0708 H   0  0  0  0  0  0  0  0  0  0  0  0
  149.1303  140.6724  156.6760 H   0  0  0  0  0  0  0  0  0  0  0  0
  149.6033  138.7888  154.5573 H   0  0  0  0  0  0  0  0  0  0  0  0
  149.4472  138.1567  156.1745 H   0  0  0  0  0  0  0  0  0  0  0  0
  1  2  2  0  0  0  0
  2  3  1  0  0  0  0
  2  9  1  0  0  0  0
  3  4  1  0  0  0  0
  3 21  1  0  0  0  0
  3 22  1  0  0  0  0
  4  8  2  0  0  0  0
  4  5  1  0  0  0  0
  5  6  2  0  0  0  0
  5 23  1  0  0  0  0
  6  7  1  0  0  0  0
  6 24  1  0  0  0  0
  7  8  1  0  0  0  0
  9 10  1  0  0  0  0
  9 25  1  0  0  0  0
 10 20  1  0  0  0  0
 10 11  1  0  0  0  0
 10 26  1  0  0  0  0
 11 12  1  0  0  0  0
 11 27  1  0  0  0  0
 11 28  1  0  0  0  0
 12 13  1  0  0  0  0
 12 29  1  0  0  0  0
 12 30  1  0  0  0  0
 13 14  1  0  0  0  0
 14 19  1  0  0  0  0
 14 15  1  0  0  0  0
 14 20  1  0  0  0  0
 15 16  1  0  0  0  0
 15 31  1  0  0  0  0
 15 32  1  0  0  0  0
 16 17  1  0  0  0  0
 16 33  1  0  0  0  0
 16 34  1  0  0  0  0
 17 18  1  0  0  0  0
 17 35  1  0  0  0  0
 17 36  1  0  0  0  0
 18 19  1  0  0  0  0
 18 37  1  0  0  0  0
 18 38  1  0  0  0  0
 19 39  1  0  0  0  0
 19 40  1  0  0  0  0
 20 41  1  0  0  0  0
 20 42  1  0  0  0  0
M  END
> <s_m_source_file>
AV-unprocessed.smi

> <i_m_source_file_index>
863

> <i_lp_mmshare_version>
43012

> <i_f3d_flags>
0

> <s_epik_input>
bjFvW2NIXVtjSF1jMVtDSDJdQyg9TylbTkhdW0NAQEhdKFtDSDJdMilbQ0gyXVtDSDJdT0MyM1tDSDJdW0NIMl1bQ0gyXVtDSDJdW0NIMl0z

> <s_epik_cmdline>
J2VwaWtfcHl0aG9uJywgJy1waCcsICc3LjAnLCAnLXRuJywgJzgnLCAnLW1hJywgJzIwMCcsICctbWV0YWxfYmluZGluZycsICctaW1hZScsICc8aW5maWxlLm1hZT4nLCAnLW9tYWUnLCAnPG91dGZpbGUubWFlPic=

> <r_lp_tautomer_probability>
1

> <r_epik_Ionization_Penalty>
1.10177e-07

> <r_epik_Ionization_Penalty_Charging>
0

> <r_epik_Ionization_Penalty_Neutral>
1.10177e-07

> <r_epik_State_Penalty>
-0

> <r_epik_Charging_Adjusted_Penalty>
0

> <i_epik_Tot_Q>
0

> <i_epik_Tot_abs_Q>
0

> <r_epik_Metal_State_Penalty>
-0

> <b_epik_Metal_Only>
0

> <s_lp_Force_Field>
OPLS_2005

> <r_lp_Energy>
15.5582

> <b_lp_Chiralities_Consistent>
1

> <s_lp_Variant>
AV-unprocessed.smi:863-2

> <Gold.Version>
5.8.1

> <Gold.Id.Protein>
6NUR|6NUR_protein|mol2

> <Gold.PLP.Fitness>
38.5362

> <Gold.PLP.PLP>
-33.6411

> <Gold.PLP.part.hbond>
-2.4336

> <Gold.PLP.part.metal>
0.0000

> <Gold.PLP.part.buried>
-3.0567

> <Gold.PLP.part.nonpolar>
-27.7866

> <Gold.PLP.part.repulsive>
0.1291

> <Gold.PLP.ligand.clash>
0.0000

> <Gold.PLP.ligand.torsion>
0.3729

> <Gold.PLP.Chemscore.Hbond>
1.8800

> <Gold.PLP.Chemscore.CHOScore>
0.0000

> <Gold.PLP.Chemscore.Metal>
0.0000

> <Gold.Chemscore.Hbonds>
donor molecule, donor type, donor heavy atom, donor atom, acceptor molecule, acceptor atom, score
      L1  H     9    25       P1  7948  1.00
      P1  H  7989  7998       L1    13  0.83

> <Gold.PLP.Chemscore.Internal.Correction>
0.0009

> <Gold.Rescore>
     Score         DG    S(hbond)    S(metal)    S(lipo)     H(rot)  DE(clash)    DE(int)     intcor
     14.85     -16.93       1.29        0.00      92.11       1.42       0.23       1.85       ----

> <Gold.Chemscore.Fitness>
14.8500

> <Gold.Chemscore.DG>
-16.9290

> <Gold.Chemscore.ZeroCoef>
-5.4800

> <Gold.Chemscore.Hbond>
1.2869

> <Gold.Chemscore.Metal>
0.0000

> <Gold.Chemscore.Lipo>
92.1098

> <Gold.Chemscore.Internal_Hbond>
0.0000

> <Gold.Chemscore.DEClash>
0.2297

> <Gold.Chemscore.DEInternal>
1.8493

> <Gold.Chemscore.Rot>
1.4164

> <Gold.Chemscore.Internal.Correction>
   9.000000E+99

> <Gold.Chemscore.Hbonds>
donor molecule, donor type, donor heavy atom, donor atom, acceptor molecule, acceptor atom, score
      L1  H     9    25       P1  7948  0.38
      P1  H  7989  7998       L1    13  0.29

> <Gold.Chemscore.Hbond.Weighted>
-4.2981

> <Gold.Chemscore.Metal.Weighted>
-0.0000

> <Gold.Chemscore.Lipo.Weighted>
-10.7768

> <Gold.Chemscore.Internal_Hbond.Weighted>
0.0000

> <Gold.Chemscore.DEClash.Weighted>
0.2297

> <Gold.Chemscore.DEInternal.Weighted>
1.8493

> <Gold.Chemscore.Rot.Weighted>
3.6259

> <Gold.Chemscore.Internal.Correction.Weighted>
   9.000000E+99

> <Gold.Protein.RotatedTorsions>
[ 6907 6896 6895 6894 ] final  126.29 input  -60.11 | X-H torsion
[ 7974 7965 7964 7962 ] final  152.64 input  175.53 | X-H torsion
[ 8008 7997 7996 7995 ] final  150.06 input   59.86 | X-H torsion
[ 10167 10162 10161 10158 ] final  175.04 input  -65.29 | X-H torsion
[ 10718 10713 10712 10709 ] final  115.64 input   66.30 | X-H torsion
[ 10763 10752 10751 10750 ] final -136.68 input  -60.55 | X-H torsion
[ 11005 11000 10999 10996 ] final  -86.59 input  -57.11 | X-H torsion

> <Gold.Protein.ActiveResidues>
 VAL166  LYS551  ARG553  GLY616  TRP617  ASP618  TYR619  PRO620  LYS621  CYS622 
 ASP623  PHE694  ASN695  SER759  ASP760  ASP761  ALA762  ILE779  LEU786  VAL792 
 PHE793  MET794  SER795  GLU796  ALA797  LYS798  CYS799  TRP800  GLU811  SER814 

> <Gold.Protein.RotatedAtoms>
  152.3916  133.6687  159.6242 H   0  0  0  0  0  0  0  0  0  0  0  0  # atno 6907 bound_to 6896
  150.7823  133.8944  159.3331 H   0  0  0  0  0  0  0  0  0  0  0  0  # atno 6908 bound_to 6896
  151.6729  135.0975  160.0253 H   0  0  0  0  0  0  0  0  0  0  0  0  # atno 6909 bound_to 6896
  144.8209  139.6695  143.6101 H   0  0  0  0  0  0  0  0  0  0  0  0  # atno 7974 bound_to 7965
  156.2731  140.2085  156.5957 H   0  0  0  0  0  0  0  0  0  0  0  0  # atno 8008 bound_to 7997
  154.6947  140.0527  157.0422 H   0  0  0  0  0  0  0  0  0  0  0  0  # atno 8009 bound_to 7997
  155.0818  140.3187  155.4602 H   0  0  0  0  0  0  0  0  0  0  0  0  # atno 8010 bound_to 7997
  139.5163  144.3077  152.0320 H   0  0  0  0  0  0  0  0  0  0  0  0  # atno 10167 bound_to 10162
  157.6210  131.1015  150.7359 H   0  0  0  0  0  0  0  0  0  0  0  0  # atno 10718 bound_to 10713
  154.8679  135.3665  154.5099 H   0  0  0  0  0  0  0  0  0  0  0  0  # atno 10763 bound_to 10752
  153.5735  135.7020  153.5499 H   0  0  0  0  0  0  0  0  0  0  0  0  # atno 10764 bound_to 10752
  153.3521  135.4069  155.1616 H   0  0  0  0  0  0  0  0  0  0  0  0  # atno 10765 bound_to 10752
  141.1628  133.7463  156.9183 H   0  0  0  0  0  0  0  0  0  0  0  0  # atno 11005 bound_to 11000
  146.2514  139.6208  142.9424 LP  0  0  0  0  0  0  0  0  0  0  0  0  # atno 17320 bound_to 7965
  145.5108  141.0435  143.2489 LP  0  0  0  0  0  0  0  0  0  0  0  0  # atno 17321 bound_to 7965
  140.2522  144.4156  150.6217 LP  0  0  0  0  0  0  0  0  0  0  0  0  # atno 17342 bound_to 10162
  140.6216  143.2177  151.6682 LP  0  0  0  0  0  0  0  0  0  0  0  0  # atno 17343 bound_to 10162
  156.7716  130.4830  149.5417 LP  0  0  0  0  0  0  0  0  0  0  0  0  # atno 17370 bound_to 10713
  156.1355  130.6208  151.0394 LP  0  0  0  0  0  0  0  0  0  0  0  0  # atno 17371 bound_to 10713
  140.1469  134.9256  157.2541 LP  0  0  0  0  0  0  0  0  0  0  0  0  # atno 17394 bound_to 11000
  140.2770  134.3394  155.7355 LP  0  0  0  0  0  0  0  0  0  0  0  0  # atno 17395 bound_to 11000

$$$$
