AV-unprocessed.smi:1540|AV-procd|sdf|6200|dock3
  -GOLD-   22720 6373D 1   1.00000     0.00000
 Structure written by MMmdl.
 32 32  0  0  0  0  0  0  0  0  2 V2000
  153.8096  142.8374  163.5336 C   0  0  0  0  0  0  0  0  0  0  0  0
  153.0041  142.6595  162.4756 C   0  0  0  0  0  0  0  0  0  0  0  0
  153.4174  141.9812  161.1882 C   0  0  0  0  0  0  0  0  0  0  0  0
  152.4045  142.1390  160.2021 O   0  0  0  0  0  0  0  0  0  0  0  0
  152.5824  143.2397  159.3137 C   0  0  2  0  0  0  0  0  0  0  0  0
  152.1411  144.5099  160.0554 C   0  0  0  0  0  0  0  0  0  0  0  0
  151.7593  143.0311  158.0321 C   0  0  0  0  0  0  0  0  0  0  0  0
  151.2991  144.0096  157.4438 O   0  0  0  0  0  0  0  0  0  0  0  0
  151.6085  141.7492  157.6456 N   0  0  0  0  0  0  0  0  0  0  0  0
  150.8890  141.2238  156.5593 C   0  0  0  0  0  0  0  0  0  0  0  0
  149.5897  141.5164  156.2748 C   0  0  0  0  0  0  0  0  0  0  0  0
  148.8888  140.9297  155.1396 C   0  0  0  0  0  0  0  0  0  0  0  0
  147.4215  141.1758  154.8354 C   0  0  0  0  0  0  0  0  0  0  0  0
  146.7595  140.0197  154.8279 F   0  0  0  0  0  0  0  0  0  0  0  0
  146.8670  141.9659  155.7553 F   0  0  0  0  0  0  0  0  0  0  0  0
  147.2698  141.7497  153.6416 F   0  0  0  0  0  0  0  0  0  0  0  0
  149.6804  140.0420  154.4368 C   0  0  0  0  0  0  0  0  0  0  0  0
  150.9708  139.7014  154.6475 N   0  5  0  0  0  0  0  0  0  0  0  0
  151.6192  140.2631  155.7066 C   0  0  0  0  0  0  0  0  0  0  0  0
  152.7919  139.9885  155.9636 O   0  0  0  0  0  0  0  0  0  0  0  0
  154.8337  142.4936  163.5237 H   0  0  0  0  0  0  0  0  0  0  0  0
  153.4527  143.3302  164.4260 H   0  0  0  0  0  0  0  0  0  0  0  0
  151.9854  143.0160  162.5218 H   0  0  0  0  0  0  0  0  0  0  0  0
  154.3480  142.4337  160.8431 H   0  0  0  0  0  0  0  0  0  0  0  0
  153.6175  140.9271  161.3845 H   0  0  0  0  0  0  0  0  0  0  0  0
  153.6415  143.3369  159.0667 H   0  0  0  0  0  0  0  0  0  0  0  0
  152.2413  145.3925  159.4225 H   0  0  0  0  0  0  0  0  0  0  0  0
  152.7532  144.6707  160.9430 H   0  0  0  0  0  0  0  0  0  0  0  0
  151.1017  144.4457  160.3795 H   0  0  0  0  0  0  0  0  0  0  0  0
  152.1101  141.0579  158.1843 H   0  0  0  0  0  0  0  0  0  0  0  0
  149.0254  142.1883  156.9001 H   0  0  0  0  0  0  0  0  0  0  0  0
  149.2032  139.5239  153.5777 H   0  0  0  0  0  0  0  0  0  0  0  0
  1  2  2  0  0  0  0
  1 21  1  0  0  0  0
  1 22  1  0  0  0  0
  2  3  1  0  0  0  0
  2 23  1  0  0  0  0
  3  4  1  0  0  0  0
  3 24  1  0  0  0  0
  3 25  1  0  0  0  0
  4  5  1  0  0  0  0
  5  6  1  0  0  0  0
  5  7  1  0  0  0  0
  5 26  1  0  0  0  0
  6 27  1  0  0  0  0
  6 28  1  0  0  0  0
  6 29  1  0  0  0  0
  7  8  2  0  0  0  0
  7  9  1  0  0  0  0
  9 10  1  0  0  0  0
  9 30  1  0  0  0  0
 10 19  1  0  0  0  0
 10 11  2  0  0  0  0
 11 12  1  0  0  0  0
 11 31  1  0  0  0  0
 12 13  1  0  0  0  0
 12 17  2  0  0  0  0
 13 14  1  0  0  0  0
 13 15  1  0  0  0  0
 13 16  1  0  0  0  0
 17 18  1  0  0  0  0
 17 32  1  0  0  0  0
 18 19  1  0  0  0  0
 19 20  2  0  0  0  0
M  CHG  1  18  -1
M  END
> <s_m_source_file>
AV-unprocessed.smi

> <i_m_source_file_index>
1540

> <i_lp_mmshare_version>
43012

> <i_f3d_flags>
0

> <s_epik_input>
W0NIMl09W0NIXVtDSDJdT1tDQEhdKFtDSDNdKUMoPU8pW05IXWMxW2NIXWMoQyhGKShGKUYpW2NIXVtuSF1jMT1P

> <s_epik_cmdline>
J2VwaWtfcHl0aG9uJywgJy1waCcsICc3LjAnLCAnLXRuJywgJzgnLCAnLW1hJywgJzIwMCcsICctbWV0YWxfYmluZGluZycsICctaW1hZScsICc8aW5maWxlLm1hZT4nLCAnLW9tYWUnLCAnPG91dGZpbGUubWFlPic=

> <r_epik_Ionization_Penalty>
2.56803

> <r_epik_Ionization_Penalty_Charging>
0.0609694

> <r_epik_Ionization_Penalty_Neutral>
2.50706

> <r_epik_State_Penalty>
2.67253

> <r_epik_Charging_Adjusted_Penalty>
2.7335

> <i_epik_Tot_Q>
-1

> <i_epik_Tot_abs_Q>
1

> <r_epik_Metal_State_Penalty>
0.517713

> <b_epik_Metal_Only>
0

> <s_lp_Force_Field>
OPLS_2005

> <r_lp_Energy>
19.8511

> <b_lp_Chiralities_Consistent>
1

> <s_lp_Variant>
AV-unprocessed.smi:1540-3

> <Gold.Version>
5.8.1

> <Gold.Id.Protein>
6NUR|6NUR_protein|mol2

> <Gold.PLP.Fitness>
45.2554

> <Gold.PLP.PLP>
-44.1752

> <Gold.PLP.part.hbond>
-2.0000

> <Gold.PLP.part.metal>
0.0000

> <Gold.PLP.part.buried>
-4.5978

> <Gold.PLP.part.nonpolar>
-36.7362

> <Gold.PLP.part.repulsive>
0.5319

> <Gold.PLP.ligand.clash>
0.0000

> <Gold.PLP.ligand.torsion>
1.7071

> <Gold.PLP.Chemscore.Hbond>
1.4550

> <Gold.PLP.Chemscore.CHOScore>
0.0000

> <Gold.PLP.Chemscore.Metal>
0.0000

> <Gold.Chemscore.Hbonds>
donor molecule, donor type, donor heavy atom, donor atom, acceptor molecule, acceptor atom, score
      P1  H  7989  7998       L1    18  0.49
      P1  H  7997  8009       L1    20  1.00

> <Gold.PLP.Chemscore.Internal.Correction>
0.1293

> <Gold.Rescore>
     Score         DG    S(hbond)    S(metal)    S(lipo)     H(rot)  DE(clash)    DE(int)     intcor
     13.49     -14.83       1.00        0.00      90.05       1.77       0.09       1.25       ----

> <Gold.Chemscore.Fitness>
13.4943

> <Gold.Chemscore.DG>
-14.8285

> <Gold.Chemscore.ZeroCoef>
-5.4800

> <Gold.Chemscore.Hbond>
1.0050

> <Gold.Chemscore.Metal>
0.0000

> <Gold.Chemscore.Lipo>
90.0484

> <Gold.Chemscore.Internal_Hbond>
0.0000

> <Gold.Chemscore.DEClash>
0.0870

> <Gold.Chemscore.DEInternal>
1.2472

> <Gold.Chemscore.Rot>
1.7750

> <Gold.Chemscore.Internal.Correction>
   9.000000E+99

> <Gold.Chemscore.Hbonds>
donor molecule, donor type, donor heavy atom, donor atom, acceptor molecule, acceptor atom, score
      P1  H  7989  7998       L1    18  0.01
      P1  H  7997  8009       L1    20  0.97

> <Gold.Chemscore.Hbond.Weighted>
-3.3567

> <Gold.Chemscore.Metal.Weighted>
-0.0000

> <Gold.Chemscore.Lipo.Weighted>
-10.5357

> <Gold.Chemscore.Internal_Hbond.Weighted>
0.0000

> <Gold.Chemscore.DEClash.Weighted>
0.0870

> <Gold.Chemscore.DEInternal.Weighted>
1.2472

> <Gold.Chemscore.Rot.Weighted>
4.5439

> <Gold.Chemscore.Internal.Correction.Weighted>
   9.000000E+99

> <Gold.Protein.RotatedTorsions>
[ 6907 6896 6895 6894 ] final  159.56 input  -60.11 | X-H torsion
[ 7974 7965 7964 7962 ] final -128.11 input  175.53 | X-H torsion
[ 8008 7997 7996 7995 ] final -156.52 input   59.86 | X-H torsion
[ 10167 10162 10161 10158 ] final   24.57 input  -65.29 | X-H torsion
[ 10718 10713 10712 10709 ] final   62.64 input   66.30 | X-H torsion
[ 10763 10752 10751 10750 ] final    4.53 input  -60.55 | X-H torsion
[ 11005 11000 10999 10996 ] final   15.95 input  -57.11 | X-H torsion

> <Gold.Protein.ActiveResidues>
 VAL166  LYS551  ARG553  GLY616  TRP617  ASP618  TYR619  PRO620  LYS621  CYS622 
 ASP623  PHE694  ASN695  SER759  ASP760  ASP761  ALA762  ILE779  LEU786  VAL792 
 PHE793  MET794  SER795  GLU796  ALA797  LYS798  CYS799  TRP800  GLU811  SER814 

> <Gold.Protein.RotatedAtoms>
  151.9837  133.3766  159.4117 H   0  0  0  0  0  0  0  0  0  0  0  0  # atno 6907 bound_to 6896
  150.6931  134.4011  159.5129 H   0  0  0  0  0  0  0  0  0  0  0  0  # atno 6908 bound_to 6896
  152.1734  134.8815  160.0583 H   0  0  0  0  0  0  0  0  0  0  0  0  # atno 6909 bound_to 6896
  144.9703  140.7538  143.4674 H   0  0  0  0  0  0  0  0  0  0  0  0  # atno 7974 bound_to 7965
  155.7185  140.0787  157.2341 H   0  0  0  0  0  0  0  0  0  0  0  0  # atno 8008 bound_to 7997
  154.4048  140.1617  156.2429 H   0  0  0  0  0  0  0  0  0  0  0  0  # atno 8009 bound_to 7997
  155.9218  140.3397  155.6182 H   0  0  0  0  0  0  0  0  0  0  0  0  # atno 8010 bound_to 7997
  140.5177  144.0054  150.6402 H   0  0  0  0  0  0  0  0  0  0  0  0  # atno 10167 bound_to 10162
  157.5915  130.9061  149.9614 H   0  0  0  0  0  0  0  0  0  0  0  0  # atno 10718 bound_to 10713
  153.2702  135.6931  153.7489 H   0  0  0  0  0  0  0  0  0  0  0  0  # atno 10763 bound_to 10752
  153.6515  135.3376  155.3102 H   0  0  0  0  0  0  0  0  0  0  0  0  # atno 10764 bound_to 10752
  154.8461  135.4455  154.1721 H   0  0  0  0  0  0  0  0  0  0  0  0  # atno 10765 bound_to 10752
  140.4526  134.1209  155.7704 H   0  0  0  0  0  0  0  0  0  0  0  0  # atno 11005 bound_to 11000
  145.2569  139.2008  143.4913 LP  0  0  0  0  0  0  0  0  0  0  0  0  # atno 17320 bound_to 7965
  146.3380  140.2492  142.8598 LP  0  0  0  0  0  0  0  0  0  0  0  0  # atno 17321 bound_to 7965
  140.3395  143.3028  152.0603 LP  0  0  0  0  0  0  0  0  0  0  0  0  # atno 17342 bound_to 10162
  139.4914  144.6453  151.6792 LP  0  0  0  0  0  0  0  0  0  0  0  0  # atno 17343 bound_to 10162
  156.0971  130.3658  150.0287 LP  0  0  0  0  0  0  0  0  0  0  0  0  # atno 17370 bound_to 10713
  156.8409  130.9425  151.3632 LP  0  0  0  0  0  0  0  0  0  0  0  0  # atno 17371 bound_to 10713
  141.1657  133.8707  157.1720 LP  0  0  0  0  0  0  0  0  0  0  0  0  # atno 17394 bound_to 11000
  139.9997  135.0032  157.0162 LP  0  0  0  0  0  0  0  0  0  0  0  0  # atno 17395 bound_to 11000

$$$$
