#       Name:                AV-unprocessed.smi:2435
#       Creating user name   scv26
#       Creation time:       Fri Mar 27 13:22:34 2020


#       File generated by GOLD software.
#

@<TRIPOS>MOLECULE
AV-unprocessed.smi:2435
    49    50     1
SMALL
NO_CHARGES


@<TRIPOS>ATOM
      1 ****        -1.3037   1.3452  -3.5666 C.3            1 S1                 0.0000
      2 ****        -0.6714   0.0828  -3.6913 O.3            1 S1                 0.0000
      3 ****         0.6723   0.1402  -3.5733 C.2            1 S1                 0.0000
      4 ****         1.4906   0.3031  -2.4898 C.2            1 S1                 0.0000
      5 ****         1.1679   0.4679  -1.1185 N.am           1 S1                 0.0000
      6 ****         0.0977  -0.0178  -0.4698 C.2            1 S1                 0.0000
      7 ****        -0.7910  -0.6977  -0.9822 O.2            1 S1                 0.0000
      8 ****         0.1240   0.3154   0.8288 N.am           1 S1                 0.0000
      9 ****        -0.8830  -0.0541   1.8212 C.3            1 S1                 0.0000
     10 ****        -0.9568   1.0704   2.8714 C.3            1 S1                 0.0000
     11 ****        -1.9573   0.8358   4.0166 C.3            1 S1                 0.0000
     12 ****        -1.4626  -0.2042   5.0346 C.3            1 S1                 0.0000
     13 ****        -1.7847  -1.6688   4.6909 C.3            1 S1                 0.0000
     14 ****        -1.7184  -2.0577   3.2035 C.3            1 S1                 0.0000
     15 ****        -0.5541  -1.4460   2.4068 C.3            1 S1                 0.0000
     16 ****         2.8075   0.3412  -3.0258 C.2            1 S1                 0.0000
     17 ****         4.1161   0.5362  -2.3152 C.3            1 S1                 0.0000
     18 ****         2.7954   0.1637  -4.3423 N.2            1 S1                 0.0000
     19 ****         1.4890   0.0306  -4.6788 N.pl3          1 S1                 0.0000
     20 ****         1.1198  -0.1681  -6.0652 C.3            1 S1                 0.0000
     21 ****        -2.3801   1.2285  -3.6903 H              1 S1                 0.0000
     22 ****        -0.9494   2.0376  -4.3318 H              1 S1                 0.0000
     23 ****        -1.1251   1.7889  -2.5864 H              1 S1                 0.0000
     24 ****         1.8676   0.9282  -0.5551 H              1 S1                 0.0000
     25 ****         0.9000   0.8702   1.1589 H              1 S1                 0.0000
     26 ****        -1.8529  -0.1047   1.3224 H              1 S1                 0.0000
     27 ****         0.0341   1.2567   3.2884 H              1 S1                 0.0000
     28 ****        -1.2374   1.9934   2.3620 H              1 S1                 0.0000
     29 ****        -2.0832   1.7835   4.5416 H              1 S1                 0.0000
     30 ****        -2.9446   0.5754   3.6334 H              1 S1                 0.0000
     31 ****        -0.3870  -0.0904   5.1744 H              1 S1                 0.0000
     32 ****        -1.9015   0.0154   6.0087 H              1 S1                 0.0000
     33 ****        -1.1071  -2.3073   5.2586 H              1 S1                 0.0000
     34 ****        -2.7841  -1.9079   5.0562 H              1 S1                 0.0000
     35 ****        -1.6501  -3.1447   3.1480 H              1 S1                 0.0000
     36 ****        -2.6618  -1.8081   2.7164 H              1 S1                 0.0000
     37 ****        -0.3391  -2.1243   1.5799 H              1 S1                 0.0000
     38 ****         0.3555  -1.4158   3.0082 H              1 S1                 0.0000
     39 ****         4.0204   0.3448  -1.2463 H              1 S1                 0.0000
     40 ****         4.4778   1.5572  -2.4386 H              1 S1                 0.0000
     41 ****         4.8807  -0.1379  -2.7020 H              1 S1                 0.0000
     42 ****         0.2452  -0.8162  -6.1260 H              1 S1                 0.0000
     43 ****         1.9398  -0.6332  -6.6141 H              1 S1                 0.0000
     44 ****         0.8832   0.7935  -6.5209 H              1 S1                 0.0000
     45 ****        -0.8945  -0.2958  -4.5896 LP             1 S1                 0.0000
     46 ****        -1.0264  -0.5211  -2.9776 LP             1 S1                 0.0000
     47 ****        -0.7474  -0.9269  -1.9546 LP             1 S1                 0.0000
     48 ****        -1.5566  -1.0210  -0.4261 LP             1 S1                 0.0000
     49 ****         3.5843   0.1344  -4.9561 LP             1 S1                 0.0000
@<TRIPOS>BOND
    1    1    2 1     
    2    1   21 1     
    3    1   22 1     
    4    1   23 1     
    5    2    3 1     
    6    3   19 1     
    7    3    4 2     
    8    4    5 1     
    9    4   16 1     
   10    5    6 am    
   11    5   24 1     
   12    6    7 2     
   13    6    8 am    
   14    8    9 1     
   15    8   25 1     
   16    9   15 1     
   17    9   10 1     
   18    9   26 1     
   19   10   11 1     
   20   10   27 1     
   21   10   28 1     
   22   11   12 1     
   23   11   29 1     
   24   11   30 1     
   25   12   13 1     
   26   12   31 1     
   27   12   32 1     
   28   13   14 1     
   29   13   33 1     
   30   13   34 1     
   31   14   15 1     
   32   14   35 1     
   33   14   36 1     
   34   15   37 1     
   35   15   38 1     
   36   16   17 1     
   37   16   18 2     
   38   17   39 1     
   39   17   40 1     
   40   17   41 1     
   41   18   19 1     
   42   19   20 1     
   43   20   42 1     
   44   20   43 1     
   45   20   44 1     
   46    2   45 1     
   47    2   46 1     
   48    7   47 1     
   49    7   48 1     
   50   18   49 1     
@<TRIPOS>SUBSTRUCTURE
      1 S1             1
@<TRIPOS>SET
LONE_PAIRS      STATIC     ATOMS    <user>   **** ""
5 45 46 47 48 49
DONOR_HYDROGENS      STATIC     ATOMS    <user>   **** ""
2 24 25
ATOM$BLUE        STATIC     ATOMS    COLORGROUP SYSTEM
5 45 46 47 48 49
ATOM$RED        STATIC     ATOMS    COLORGROUP SYSTEM
2 24 25
