AV-unprocessed.smi:674|AV-procd|sdf|3300|dock9
  -GOLD-   22720 0263D 1   1.00000     0.00000
 Structure written by MMmdl.
 47 48  0  0  0  0  0  0  0  0  1 V2000
  145.4475  130.5372  151.7279 C   0  0  0  0  0  0  0  0  0  0  0  0
  146.4707  129.9818  152.7252 C   0  0  0  0  0  0  0  0  0  0  0  0
  147.4029  131.0470  153.2308 C   0  0  0  0  0  0  0  0  0  0  0  0
  147.3356  132.4509  152.9949 C   0  0  0  0  0  0  0  0  0  0  0  0
  148.4202  132.9256  153.6807 C   0  0  0  0  0  0  0  0  0  0  0  0
  148.8568  134.2075  153.8014 N   0  0  0  0  0  0  0  0  0  0  0  0
  149.3261  134.8369  154.8926 C   0  0  0  0  0  0  0  0  0  0  0  0
  149.4869  134.3252  156.0009 O   0  0  0  0  0  0  0  0  0  0  0  0
  149.6069  136.1195  154.6265 N   0  0  0  0  0  0  0  0  0  0  0  0
  150.1252  137.0691  155.6055 C   0  0  1  0  0  0  0  0  0  0  0  0
  151.3901  137.7777  155.1260 C   0  0  0  0  0  0  0  0  0  0  0  0
  150.8549  139.0290  155.8467 C   0  0  1  0  0  0  0  0  0  0  0  0
  151.3274  139.2877  157.2858 C   0  0  0  0  0  0  0  0  0  0  0  0
  151.0085  140.2143  155.0643 O   0  0  0  0  0  0  0  0  0  0  0  0
  150.4285  141.3994  155.5940 C   0  0  0  0  0  0  0  0  0  0  0  0
  149.4209  138.4505  155.6144 C   0  0  0  0  0  0  0  0  0  0  0  0
  148.7187  138.8814  154.3107 C   0  0  0  0  0  0  0  0  0  0  0  0
  148.3979  138.6721  156.7332 C   0  0  0  0  0  0  0  0  0  0  0  0
  149.0730  131.8639  154.2698 N   0  0  0  0  0  0  0  0  0  0  0  0
  150.2642  131.8398  155.0968 C   0  0  0  0  0  0  0  0  0  0  0  0
  148.4386  130.7055  153.9900 N   0  0  0  0  0  0  0  0  0  0  0  0
  144.7756  129.7515  151.3821 H   0  0  0  0  0  0  0  0  0  0  0  0
  145.9398  130.9625  150.8528 H   0  0  0  0  0  0  0  0  0  0  0  0
  144.8392  131.3190  152.1835 H   0  0  0  0  0  0  0  0  0  0  0  0
  145.9442  129.5241  153.5632 H   0  0  0  0  0  0  0  0  0  0  0  0
  147.0398  129.1798  152.2533 H   0  0  0  0  0  0  0  0  0  0  0  0
  146.6068  132.9956  152.4140 H   0  0  0  0  0  0  0  0  0  0  0  0
  148.8094  134.7587  152.9573 H   0  0  0  0  0  0  0  0  0  0  0  0
  149.4466  136.4648  153.6916 H   0  0  0  0  0  0  0  0  0  0  0  0
  150.2519  136.6468  156.6047 H   0  0  0  0  0  0  0  0  0  0  0  0
  152.3162  137.3746  155.5367 H   0  0  0  0  0  0  0  0  0  0  0  0
  151.4489  137.8869  154.0414 H   0  0  0  0  0  0  0  0  0  0  0  0
  151.0988  138.4510  157.9455 H   0  0  0  0  0  0  0  0  0  0  0  0
  150.8510  140.1739  157.7055 H   0  0  0  0  0  0  0  0  0  0  0  0
  152.4057  139.4337  157.3399 H   0  0  0  0  0  0  0  0  0  0  0  0
  150.6865  142.2402  154.9503 H   0  0  0  0  0  0  0  0  0  0  0  0
  150.8004  141.6245  156.5935 H   0  0  0  0  0  0  0  0  0  0  0  0
  149.3410  141.3416  155.6285 H   0  0  0  0  0  0  0  0  0  0  0  0
  148.4186  139.9290  154.3482 H   0  0  0  0  0  0  0  0  0  0  0  0
  147.8176  138.2959  154.1252 H   0  0  0  0  0  0  0  0  0  0  0  0
  149.3595  138.7647  153.4367 H   0  0  0  0  0  0  0  0  0  0  0  0
  148.1887  139.7324  156.8769 H   0  0  0  0  0  0  0  0  0  0  0  0
  148.7439  138.2760  157.6877 H   0  0  0  0  0  0  0  0  0  0  0  0
  147.4512  138.1763  156.5157 H   0  0  0  0  0  0  0  0  0  0  0  0
  150.7597  132.8104  155.0873 H   0  0  0  0  0  0  0  0  0  0  0  0
  150.9600  131.0889  154.7209 H   0  0  0  0  0  0  0  0  0  0  0  0
  149.9912  131.5919  156.1229 H   0  0  0  0  0  0  0  0  0  0  0  0
  1  2  1  0  0  0  0
  1 22  1  0  0  0  0
  1 23  1  0  0  0  0
  1 24  1  0  0  0  0
  2  3  1  0  0  0  0
  2 25  1  0  0  0  0
  2 26  1  0  0  0  0
  3 21  2  0  0  0  0
  3  4  1  0  0  0  0
  4  5  2  0  0  0  0
  4 27  1  0  0  0  0
  5  6  1  0  0  0  0
  5 19  1  0  0  0  0
  6  7  1  0  0  0  0
  6 28  1  0  0  0  0
  7  8  2  0  0  0  0
  7  9  1  0  0  0  0
  9 10  1  0  0  0  0
  9 29  1  0  0  0  0
 10 16  1  0  0  0  0
 10 11  1  0  0  0  0
 10 30  1  0  0  0  0
 11 12  1  0  0  0  0
 11 31  1  0  0  0  0
 11 32  1  0  0  0  0
 12 13  1  0  0  0  0
 12 14  1  0  0  0  0
 12 16  1  0  0  0  0
 13 33  1  0  0  0  0
 13 34  1  0  0  0  0
 13 35  1  0  0  0  0
 14 15  1  0  0  0  0
 15 36  1  0  0  0  0
 15 37  1  0  0  0  0
 15 38  1  0  0  0  0
 16 17  1  0  0  0  0
 16 18  1  0  0  0  0
 17 39  1  0  0  0  0
 17 40  1  0  0  0  0
 17 41  1  0  0  0  0
 18 42  1  0  0  0  0
 18 43  1  0  0  0  0
 18 44  1  0  0  0  0
 19 20  1  0  0  0  0
 19 21  1  0  0  0  0
 20 45  1  0  0  0  0
 20 46  1  0  0  0  0
 20 47  1  0  0  0  0
M  END
> <s_m_source_file>
AV-unprocessed.smi

> <i_m_source_file_index>
674

> <i_lp_mmshare_version>
43012

> <i_f3d_flags>
0

> <s_epik_input>
W0NIM11bQ0gyXWMxW2NIXWMobihuMSlbQ0gzXSlbTkhdQyg9TylbTkhdW0NAQEhdKEMyKFtDSDNdKVtDSDNdKVtDSDJdW0NAQF0yKFtDSDNdKU9bQ0gzXQ==

> <s_epik_cmdline>
J2VwaWtfcHl0aG9uJywgJy1waCcsICc3LjAnLCAnLXRuJywgJzgnLCAnLW1hJywgJzIwMCcsICctbWV0YWxfYmluZGluZycsICctaW1hZScsICc8aW5maWxlLm1hZT4nLCAnLW9tYWUnLCAnPG91dGZpbGUubWFlPic=

> <r_lp_tautomer_probability>
1

> <r_epik_Ionization_Penalty>
0.000101626

> <r_epik_Ionization_Penalty_Charging>
0

> <r_epik_Ionization_Penalty_Neutral>
0.000101626

> <r_epik_State_Penalty>
-0

> <r_epik_Charging_Adjusted_Penalty>
0

> <i_epik_Tot_Q>
0

> <i_epik_Tot_abs_Q>
0

> <r_epik_Metal_State_Penalty>
-0

> <b_epik_Metal_Only>
0

> <s_lp_Force_Field>
OPLS_2005

> <r_lp_Energy>
22.8754

> <b_lp_Chiralities_Consistent>
1

> <s_lp_Variant>
AV-unprocessed.smi:674-2

> <Gold.Version>
5.8.1

> <Gold.Id.Protein>
6NUR|6NUR_protein|mol2

> <Gold.PLP.Fitness>
40.0866

> <Gold.PLP.PLP>
-32.3675

> <Gold.PLP.part.hbond>
-3.0000

> <Gold.PLP.part.metal>
0.0000

> <Gold.PLP.part.buried>
-4.7357

> <Gold.PLP.part.nonpolar>
-24.7255

> <Gold.PLP.part.repulsive>
0.1665

> <Gold.PLP.ligand.clash>
0.0000

> <Gold.PLP.ligand.torsion>
0.6071

> <Gold.PLP.Chemscore.Hbond>
2.8500

> <Gold.PLP.Chemscore.CHOScore>
0.0000

> <Gold.PLP.Chemscore.Metal>
0.0000

> <Gold.Chemscore.Hbonds>
donor molecule, donor type, donor heavy atom, donor atom, acceptor molecule, acceptor atom, score
      L1  H     6    28       P1  7948  0.80
      L1  H     9    29       P1  7948  1.00
      P1  H  7989  7998       L1    14  0.95

> <Gold.PLP.Chemscore.Internal.Correction>
0.3833

> <Gold.Rescore>
     Score         DG    S(hbond)    S(metal)    S(lipo)     H(rot)  DE(clash)    DE(int)     intcor
     14.33     -16.56       2.11        0.00      64.30       1.37       0.36       1.87       ----

> <Gold.Chemscore.Fitness>
14.3318

> <Gold.Chemscore.DG>
-16.5582

> <Gold.Chemscore.ZeroCoef>
-5.4800

> <Gold.Chemscore.Hbond>
2.1112

> <Gold.Chemscore.Metal>
0.0000

> <Gold.Chemscore.Lipo>
64.2995

> <Gold.Chemscore.Internal_Hbond>
0.0000

> <Gold.Chemscore.DEClash>
0.3576

> <Gold.Chemscore.DEInternal>
1.8687

> <Gold.Chemscore.Rot>
1.3658

> <Gold.Chemscore.Internal.Correction>
   9.000000E+99

> <Gold.Chemscore.Hbonds>
donor molecule, donor type, donor heavy atom, donor atom, acceptor molecule, acceptor atom, score
      L1  H     6    28       P1  7948  0.12
      L1  H     9    29       P1  7948  0.79
      P1  H  7989  7998       L1    14  0.21

> <Gold.Chemscore.Hbond.Weighted>
-7.0515

> <Gold.Chemscore.Metal.Weighted>
-0.0000

> <Gold.Chemscore.Lipo.Weighted>
-7.5230

> <Gold.Chemscore.Internal_Hbond.Weighted>
0.0000

> <Gold.Chemscore.DEClash.Weighted>
0.3576

> <Gold.Chemscore.DEInternal.Weighted>
1.8687

> <Gold.Chemscore.Rot.Weighted>
3.4963

> <Gold.Chemscore.Internal.Correction.Weighted>
   9.000000E+99

> <Gold.Protein.RotatedTorsions>
[ 6907 6896 6895 6894 ] final   36.92 input  -60.11 | X-H torsion
[ 7974 7965 7964 7962 ] final  -96.89 input  175.53 | X-H torsion
[ 8008 7997 7996 7995 ] final   25.21 input   59.86 | X-H torsion
[ 10167 10162 10161 10158 ] final   79.23 input  -65.29 | X-H torsion
[ 10718 10713 10712 10709 ] final -157.30 input   66.30 | X-H torsion
[ 10763 10752 10751 10750 ] final   94.01 input  -60.55 | X-H torsion
[ 11005 11000 10999 10996 ] final  -76.11 input  -57.11 | X-H torsion

> <Gold.Protein.ActiveResidues>
 VAL166  LYS551  ARG553  GLY616  TRP617  ASP618  TYR619  PRO620  LYS621  CYS622 
 ASP623  PHE694  ASN695  SER759  ASP760  ASP761  ALA762  ILE779  LEU786  VAL792 
 PHE793  MET794  SER795  GLU796  ALA797  LYS798  CYS799  TRP800  GLU811  SER814 

> <Gold.Protein.RotatedAtoms>
  152.1362  134.9097  160.0555 H   0  0  0  0  0  0  0  0  0  0  0  0  # atno 6907 bound_to 6896
  152.0182  133.3883  159.4256 H   0  0  0  0  0  0  0  0  0  0  0  0  # atno 6908 bound_to 6896
  150.6861  134.3576  159.4980 H   0  0  0  0  0  0  0  0  0  0  0  0  # atno 6909 bound_to 6896
  145.3409  140.9459  143.2608 H   0  0  0  0  0  0  0  0  0  0  0  0  # atno 7974 bound_to 7965
  155.0082  140.3133  155.4840 H   0  0  0  0  0  0  0  0  0  0  0  0  # atno 8008 bound_to 7997
  156.2913  140.2219  156.5136 H   0  0  0  0  0  0  0  0  0  0  0  0  # atno 8009 bound_to 7997
  154.7558  140.0463  157.0920 H   0  0  0  0  0  0  0  0  0  0  0  0  # atno 8010 bound_to 7997
  139.9626  144.5950  150.8058 H   0  0  0  0  0  0  0  0  0  0  0  0  # atno 10167 bound_to 10162
  156.5384  130.8552  151.2740 H   0  0  0  0  0  0  0  0  0  0  0  0  # atno 10718 bound_to 10713
  153.2368  135.4305  155.0655 H   0  0  0  0  0  0  0  0  0  0  0  0  # atno 10763 bound_to 10752
  154.8322  135.3393  154.6708 H   0  0  0  0  0  0  0  0  0  0  0  0  # atno 10764 bound_to 10752
  153.7133  135.7021  153.5088 H   0  0  0  0  0  0  0  0  0  0  0  0  # atno 10765 bound_to 10752
  141.1651  133.6971  156.7619 H   0  0  0  0  0  0  0  0  0  0  0  0  # atno 11005 bound_to 11000
  144.8791  139.4929  143.6731 LP  0  0  0  0  0  0  0  0  0  0  0  0  # atno 17320 bound_to 7965
  146.3008  139.7419  142.9093 LP  0  0  0  0  0  0  0  0  0  0  0  0  # atno 17321 bound_to 7965
  140.7548  143.3034  151.3022 LP  0  0  0  0  0  0  0  0  0  0  0  0  # atno 17342 bound_to 10162
  139.6542  144.0306  152.2648 LP  0  0  0  0  0  0  0  0  0  0  0  0  # atno 17343 bound_to 10162
  157.7409  130.9860  150.2413 LP  0  0  0  0  0  0  0  0  0  0  0  0  # atno 17370 bound_to 10713
  156.2994  130.3756  149.7764 LP  0  0  0  0  0  0  0  0  0  0  0  0  # atno 17371 bound_to 10713
  140.2527  134.8528  157.3683 LP  0  0  0  0  0  0  0  0  0  0  0  0  # atno 17394 bound_to 11000
  140.1687  134.4637  155.7846 LP  0  0  0  0  0  0  0  0  0  0  0  0  # atno 17395 bound_to 11000

$$$$
