AV-unprocessed.smi:2061|AV-procd|sdf|8364|dock10
  -GOLD-   2272011 33D 1   1.00000     0.00000
 Structure written by MMmdl.
 45 46  0  0  0  0  0  0  0  0  1 V2000
  138.1845  137.0190  153.7353 C   0  0  0  0  0  0  0  0  0  0  0  0
  139.6710  137.0475  153.8420 C   0  0  0  0  0  0  0  0  0  0  0  0
  140.6052  138.0036  153.5579 C   0  0  0  0  0  0  0  0  0  0  0  0
  141.8291  137.3633  153.8891 C   0  0  0  0  0  0  0  0  0  0  0  0
  143.0685  138.0337  153.7286 N   0  0  0  0  0  0  0  0  0  0  0  0
  144.2663  137.6682  154.2165 C   0  0  0  0  0  0  0  0  0  0  0  0
  144.4739  136.6746  154.9141 O   0  0  0  0  0  0  0  0  0  0  0  0
  145.2240  138.5323  153.8509 N   0  0  0  0  0  0  0  0  0  0  0  0
  146.6358  138.4453  154.2202 C   0  0  0  0  0  0  0  0  0  0  0  0
  147.2667  139.8383  154.4818 C   0  0  2  0  0  0  0  0  0  0  0  0
  147.1643  140.6714  153.1841 C   0  0  0  0  0  0  0  0  0  0  0  0
  148.6347  139.7848  155.0432 N   0  0  0  0  0  0  0  0  0  0  0  0
  149.2098  141.1175  155.2498 C   0  0  0  0  0  0  0  0  0  0  0  0
  150.6396  141.0834  155.8244 C   0  0  1  0  0  0  0  0  0  0  0  0
  150.6884  140.6874  157.3103 C   0  0  0  0  0  0  0  0  0  0  0  0
  151.4747  140.2502  155.0231 O   0  0  0  0  0  0  0  0  0  0  0  0
  150.9737  138.9356  154.8011 C   0  0  2  0  0  0  0  0  0  0  0  0
  151.9493  138.2077  153.8701 C   0  0  0  0  0  0  0  0  0  0  0  0
  149.5572  139.0173  154.2040 C   0  0  0  0  0  0  0  0  0  0  0  0
  141.6572  136.1285  154.3362 N   0  0  0  0  0  0  0  0  0  0  0  0
  140.2733  135.9198  154.3080 O   0  0  0  0  0  0  0  0  0  0  0  0
  137.7755  138.0294  153.7269 H   0  0  0  0  0  0  0  0  0  0  0  0
  137.7442  136.4842  154.5772 H   0  0  0  0  0  0  0  0  0  0  0  0
  137.8737  136.5202  152.8173 H   0  0  0  0  0  0  0  0  0  0  0  0
  140.4368  138.9987  153.1735 H   0  0  0  0  0  0  0  0  0  0  0  0
  143.0416  138.8783  153.1768 H   0  0  0  0  0  0  0  0  0  0  0  0
  144.9566  139.3240  153.2848 H   0  0  0  0  0  0  0  0  0  0  0  0
  146.7694  137.8046  155.0936 H   0  0  0  0  0  0  0  0  0  0  0  0
  147.1636  137.9230  153.4232 H   0  0  0  0  0  0  0  0  0  0  0  0
  146.6239  140.3312  155.2130 H   0  0  0  0  0  0  0  0  0  0  0  0
  146.1762  140.5805  152.7323 H   0  0  0  0  0  0  0  0  0  0  0  0
  147.8954  140.3482  152.4422 H   0  0  0  0  0  0  0  0  0  0  0  0
  147.3169  141.7347  153.3661 H   0  0  0  0  0  0  0  0  0  0  0  0
  149.2227  141.6556  154.3006 H   0  0  0  0  0  0  0  0  0  0  0  0
  148.5947  141.7046  155.9296 H   0  0  0  0  0  0  0  0  0  0  0  0
  151.0534  142.0896  155.7507 H   0  0  0  0  0  0  0  0  0  0  0  0
  150.1446  141.4081  157.9212 H   0  0  0  0  0  0  0  0  0  0  0  0
  151.7167  140.6584  157.6710 H   0  0  0  0  0  0  0  0  0  0  0  0
  150.2431  139.7090  157.4896 H   0  0  0  0  0  0  0  0  0  0  0  0
  150.9387  138.3961  155.7479 H   0  0  0  0  0  0  0  0  0  0  0  0
  151.6233  137.1843  153.6829 H   0  0  0  0  0  0  0  0  0  0  0  0
  152.9466  138.1639  154.3084 H   0  0  0  0  0  0  0  0  0  0  0  0
  152.0302  138.7151  152.9083 H   0  0  0  0  0  0  0  0  0  0  0  0
  149.1992  137.9966  154.0784 H   0  0  0  0  0  0  0  0  0  0  0  0
  149.6035  139.4598  153.2076 H   0  0  0  0  0  0  0  0  0  0  0  0
  1  2  1  0  0  0  0
  1 22  1  0  0  0  0
  1 23  1  0  0  0  0
  1 24  1  0  0  0  0
  2 21  1  0  0  0  0
  2  3  2  0  0  0  0
  3  4  1  0  0  0  0
  3 25  1  0  0  0  0
  4  5  1  0  0  0  0
  4 20  2  0  0  0  0
  5  6  1  0  0  0  0
  5 26  1  0  0  0  0
  6  7  2  0  0  0  0
  6  8  1  0  0  0  0
  8  9  1  0  0  0  0
  8 27  1  0  0  0  0
  9 10  1  0  0  0  0
  9 28  1  0  0  0  0
  9 29  1  0  0  0  0
 10 11  1  0  0  0  0
 10 12  1  0  0  0  0
 10 30  1  0  0  0  0
 11 31  1  0  0  0  0
 11 32  1  0  0  0  0
 11 33  1  0  0  0  0
 12 19  1  0  0  0  0
 12 13  1  0  0  0  0
 13 14  1  0  0  0  0
 13 34  1  0  0  0  0
 13 35  1  0  0  0  0
 14 15  1  0  0  0  0
 14 16  1  0  0  0  0
 14 36  1  0  0  0  0
 15 37  1  0  0  0  0
 15 38  1  0  0  0  0
 15 39  1  0  0  0  0
 16 17  1  0  0  0  0
 17 18  1  0  0  0  0
 17 19  1  0  0  0  0
 17 40  1  0  0  0  0
 18 41  1  0  0  0  0
 18 42  1  0  0  0  0
 18 43  1  0  0  0  0
 19 44  1  0  0  0  0
 19 45  1  0  0  0  0
 20 21  1  0  0  0  0
M  END
> <s_m_source_file>
AV-unprocessed.smi

> <i_m_source_file_index>
2061

> <i_lp_mmshare_version>
43012

> <i_f3d_flags>
0

> <s_epik_input>
W0NIM11jMVtjSF1jKG5vMSlbTkhdQyg9TylbTkhdW0NIMl1bQ0BIXShbQ0gzXSlOMltDSDJdW0NAQEhdKFtDSDNdKU9bQ0BASF0oW0NIM10pW0NIMl0y

> <s_epik_cmdline>
J2VwaWtfcHl0aG9uJywgJy1waCcsICc3LjAnLCAnLXRuJywgJzgnLCAnLW1hJywgJzIwMCcsICctbWV0YWxfYmluZGluZycsICctaW1hZScsICc8aW5maWxlLm1hZT4nLCAnLW9tYWUnLCAnPG91dGZpbGUubWFlPic=

> <r_epik_Ionization_Penalty>
0.214073

> <r_epik_Ionization_Penalty_Charging>
0

> <r_epik_Ionization_Penalty_Neutral>
0.214073

> <r_epik_State_Penalty>
0.204211

> <r_epik_Charging_Adjusted_Penalty>
0.204211

> <i_epik_Tot_Q>
0

> <i_epik_Tot_abs_Q>
0

> <r_epik_Metal_State_Penalty>
0.217067

> <b_epik_Metal_Only>
0

> <s_lp_Force_Field>
OPLS_2005

> <r_lp_Energy>
31.479

> <b_lp_Chiralities_Consistent>
1

> <s_lp_Variant>
AV-unprocessed.smi:2061-5

> <Gold.Version>
5.8.1

> <Gold.Id.Protein>
6NUR|6NUR_protein|mol2

> <Gold.PLP.Fitness>
46.3449

> <Gold.PLP.PLP>
-34.8215

> <Gold.PLP.part.hbond>
-4.3876

> <Gold.PLP.part.metal>
0.0000

> <Gold.PLP.part.buried>
-6.1132

> <Gold.PLP.part.nonpolar>
-24.8247

> <Gold.PLP.part.repulsive>
0.2192

> <Gold.PLP.ligand.clash>
0.0000

> <Gold.PLP.ligand.torsion>
0.2533

> <Gold.PLP.Chemscore.Hbond>
4.0000

> <Gold.PLP.Chemscore.CHOScore>
0.0000

> <Gold.PLP.Chemscore.Metal>
0.0000

> <Gold.Chemscore.Hbonds>
donor molecule, donor type, donor heavy atom, donor atom, acceptor molecule, acceptor atom, score
      L1  H     5    26       P1 10175  1.00
      L1  H     8    27       P1 10175  1.00
      P1  H  7989  7998       L1    16  1.00
      P1  H 11000 11005       L1    21  0.81

> <Gold.PLP.Chemscore.Internal.Correction>
0.0300

> <Gold.Rescore>
     Score         DG    S(hbond)    S(metal)    S(lipo)     H(rot)  DE(clash)    DE(int)     intcor
     18.07     -19.91       2.82        0.00      76.78       1.55       0.36       1.48       ----

> <Gold.Chemscore.Fitness>
18.0668

> <Gold.Chemscore.DG>
-19.9102

> <Gold.Chemscore.ZeroCoef>
-5.4800

> <Gold.Chemscore.Hbond>
2.8167

> <Gold.Chemscore.Metal>
0.0000

> <Gold.Chemscore.Lipo>
76.7822

> <Gold.Chemscore.Internal_Hbond>
0.0000

> <Gold.Chemscore.DEClash>
0.3608

> <Gold.Chemscore.DEInternal>
1.4826

> <Gold.Chemscore.Rot>
1.5474

> <Gold.Chemscore.Internal.Correction>
   9.000000E+99

> <Gold.Chemscore.Hbonds>
donor molecule, donor type, donor heavy atom, donor atom, acceptor molecule, acceptor atom, score
      L1  H     5    26       P1 10175  0.99
      L1  H     8    27       P1 10175  0.97
      P1  H  7989  7998       L1    16  0.33
      P1  H 11000 11005       L1    21  0.26

> <Gold.Chemscore.Hbond.Weighted>
-9.4079

> <Gold.Chemscore.Metal.Weighted>
-0.0000

> <Gold.Chemscore.Lipo.Weighted>
-8.9835

> <Gold.Chemscore.Internal_Hbond.Weighted>
0.0000

> <Gold.Chemscore.DEClash.Weighted>
0.3608

> <Gold.Chemscore.DEInternal.Weighted>
1.4826

> <Gold.Chemscore.Rot.Weighted>
3.9612

> <Gold.Chemscore.Internal.Correction.Weighted>
   9.000000E+99

> <Gold.Protein.RotatedTorsions>
[ 6907 6896 6895 6894 ] final   70.93 input  -60.11 | X-H torsion
[ 7974 7965 7964 7962 ] final -165.23 input  175.53 | X-H torsion
[ 8008 7997 7996 7995 ] final  -81.94 input   59.86 | X-H torsion
[ 10167 10162 10161 10158 ] final -100.98 input  -65.29 | X-H torsion
[ 10718 10713 10712 10709 ] final  -32.73 input   66.30 | X-H torsion
[ 10763 10752 10751 10750 ] final   18.37 input  -60.55 | X-H torsion
[ 11005 11000 10999 10996 ] final   71.52 input  -57.11 | X-H torsion

> <Gold.Protein.ActiveResidues>
 VAL166  LYS551  ARG553  GLY616  TRP617  ASP618  TYR619  PRO620  LYS621  CYS622 
 ASP623  PHE694  ASN695  SER759  ASP760  ASP761  ALA762  ILE779  LEU786  VAL792 
 PHE793  MET794  SER795  GLU796  ALA797  LYS798  CYS799  TRP800  GLU811  SER814 

> <Gold.Protein.RotatedAtoms>
  152.4779  134.4795  159.9660 H   0  0  0  0  0  0  0  0  0  0  0  0  # atno 6907 bound_to 6896
  151.4807  133.3541  159.2845 H   0  0  0  0  0  0  0  0  0  0  0  0  # atno 6908 bound_to 6896
  150.8831  134.8251  159.7300 H   0  0  0  0  0  0  0  0  0  0  0  0  # atno 6909 bound_to 6896
  144.7275  140.2844  143.6230 H   0  0  0  0  0  0  0  0  0  0  0  0  # atno 7974 bound_to 7965
  154.6035  140.0640  156.9400 H   0  0  0  0  0  0  0  0  0  0  0  0  # atno 8008 bound_to 7997
  155.2092  140.3321  155.4313 H   0  0  0  0  0  0  0  0  0  0  0  0  # atno 8009 bound_to 7997
  156.2333  140.1851  156.7170 H   0  0  0  0  0  0  0  0  0  0  0  0  # atno 8010 bound_to 7997
  140.2462  143.3504  152.0757 H   0  0  0  0  0  0  0  0  0  0  0  0  # atno 10167 bound_to 10162
  156.3713  130.4340  149.7543 H   0  0  0  0  0  0  0  0  0  0  0  0  # atno 10718 bound_to 10713
  153.1256  135.6729  153.9263 H   0  0  0  0  0  0  0  0  0  0  0  0  # atno 10763 bound_to 10752
  153.8765  135.3063  155.3445 H   0  0  0  0  0  0  0  0  0  0  0  0  # atno 10764 bound_to 10752
  154.7661  135.4963  153.9638 H   0  0  0  0  0  0  0  0  0  0  0  0  # atno 10765 bound_to 10752
  139.9539  134.7179  156.0799 H   0  0  0  0  0  0  0  0  0  0  0  0  # atno 11005 bound_to 11000
  145.7917  139.1929  143.2099 LP  0  0  0  0  0  0  0  0  0  0  0  0  # atno 17320 bound_to 7965
  146.0750  140.7827  142.9669 LP  0  0  0  0  0  0  0  0  0  0  0  0  # atno 17321 bound_to 7965
  139.5061  144.6807  151.6015 LP  0  0  0  0  0  0  0  0  0  0  0  0  # atno 17342 bound_to 10162
  140.6076  143.9496  150.6430 LP  0  0  0  0  0  0  0  0  0  0  0  0  # atno 17343 bound_to 10162
  156.4669  130.7978  151.2997 LP  0  0  0  0  0  0  0  0  0  0  0  0  # atno 17370 bound_to 10713
  157.7484  131.0048  150.3090 LP  0  0  0  0  0  0  0  0  0  0  0  0  # atno 17371 bound_to 10713
  141.1207  133.6614  156.3207 LP  0  0  0  0  0  0  0  0  0  0  0  0  # atno 17394 bound_to 11000
  140.5655  134.5892  157.5444 LP  0  0  0  0  0  0  0  0  0  0  0  0  # atno 17395 bound_to 11000

$$$$
