AV-unprocessed.smi:2874|AV-procd|sdf|11039|dock4
  -GOLD-   2272015503D 1   1.00000     0.00000
 Structure written by MMmdl.
 40 42  0  0  0  0  0  0  0  0  2 V2000
  150.5740  138.6752  154.4707 C   0  0  0  0  0  0  0  0  0  0  0  0
  151.7377  138.2260  155.1415 O   0  0  0  0  0  0  0  0  0  0  0  0
  152.2407  139.1822  156.0604 C   0  0  0  0  0  0  0  0  0  0  0  0
  151.7178  138.8646  157.4684 C   0  0  0  0  0  0  0  0  0  0  0  0
  152.2829  139.7617  158.4860 N   0  0  0  0  0  0  0  0  0  0  0  0
  153.0333  139.4875  159.5899 C   0  0  0  0  0  0  0  0  0  0  0  0
  153.5494  137.8855  160.1262 S   0  0  0  0  0  0  0  0  0  0  0  0
  154.6556  138.1369  161.5463 C   0  0  0  0  0  0  0  0  0  0  0  0
  154.6831  136.9013  162.4285 C   0  0  0  0  0  0  0  0  0  0  0  0
  154.2940  137.0564  163.6982 N   0  0  0  0  0  0  0  0  0  0  0  0
  154.3358  135.9615  164.4881 C   0  0  0  0  0  0  0  0  0  0  0  0
  154.7695  134.7117  164.0012 C   0  0  0  0  0  0  0  0  0  0  0  0
  155.1514  134.6696  162.6454 C   0  0  0  0  0  0  0  0  0  0  0  0
  155.5965  133.4848  162.0652 N   0  0  0  0  0  0  0  0  0  0  0  0
  155.1074  135.7670  161.8603 N   0  0  0  0  0  0  0  0  0  0  0  0
  153.3170  140.6729  160.1973 N   0  3  0  0  0  0  0  0  0  0  0  0
  152.7354  141.7181  159.4795 C   0  0  0  0  0  0  0  0  0  0  0  0
  152.7392  143.0908  159.7052 C   0  0  0  0  0  0  0  0  0  0  0  0
  152.0459  143.8888  158.7710 C   0  0  0  0  0  0  0  0  0  0  0  0
  152.0070  145.5999  158.9860 Cl  0  0  0  0  0  0  0  0  0  0  0  0
  151.3856  143.3142  157.6650 C   0  0  0  0  0  0  0  0  0  0  0  0
  151.3876  141.9207  157.4465 C   0  0  0  0  0  0  0  0  0  0  0  0
  152.0729  141.1404  158.3767 C   0  0  0  0  0  0  0  0  0  0  0  0
  150.2287  137.9046  153.7816 H   0  0  0  0  0  0  0  0  0  0  0  0
  150.7758  139.5779  153.8927 H   0  0  0  0  0  0  0  0  0  0  0  0
  149.7676  138.8827  155.1754 H   0  0  0  0  0  0  0  0  0  0  0  0
  153.3316  139.1655  156.0534 H   0  0  0  0  0  0  0  0  0  0  0  0
  151.9281  140.1854  155.7674 H   0  0  0  0  0  0  0  0  0  0  0  0
  150.6299  138.9241  157.5071 H   0  0  0  0  0  0  0  0  0  0  0  0
  151.9802  137.8421  157.7420 H   0  0  0  0  0  0  0  0  0  0  0  0
  155.6619  138.3455  161.1821 H   0  0  0  0  0  0  0  0  0  0  0  0
  154.3290  139.0127  162.1089 H   0  0  0  0  0  0  0  0  0  0  0  0
  154.0233  136.0836  165.5147 H   0  0  0  0  0  0  0  0  0  0  0  0
  154.8028  133.8382  164.6358 H   0  0  0  0  0  0  0  0  0  0  0  0
  155.6568  132.6292  162.5987 H   0  0  0  0  0  0  0  0  0  0  0  0
  155.7515  133.4140  161.0699 H   0  0  0  0  0  0  0  0  0  0  0  0
  153.2460  143.5306  160.5515 H   0  0  0  0  0  0  0  0  0  0  0  0
  150.8649  143.9553  156.9684 H   0  0  0  0  0  0  0  0  0  0  0  0
  150.8792  141.4917  156.5957 H   0  0  0  0  0  0  0  0  0  0  0  0
  153.8582  140.7559  161.0488 H   0  0  0  0  0  0  0  0  0  0  0  0
  1  2  1  0  0  0  0
  1 24  1  0  0  0  0
  1 25  1  0  0  0  0
  1 26  1  0  0  0  0
  2  3  1  0  0  0  0
  3  4  1  0  0  0  0
  3 27  1  0  0  0  0
  3 28  1  0  0  0  0
  4  5  1  0  0  0  0
  4 29  1  0  0  0  0
  4 30  1  0  0  0  0
  5 23  1  0  0  0  0
  5  6  1  0  0  0  0
  6  7  1  0  0  0  0
  6 16  2  0  0  0  0
  7  8  1  0  0  0  0
  8  9  1  0  0  0  0
  8 31  1  0  0  0  0
  8 32  1  0  0  0  0
  9 15  1  0  0  0  0
  9 10  2  0  0  0  0
 10 11  1  0  0  0  0
 11 12  2  0  0  0  0
 11 33  1  0  0  0  0
 12 13  1  0  0  0  0
 12 34  1  0  0  0  0
 13 14  1  0  0  0  0
 13 15  2  0  0  0  0
 14 35  1  0  0  0  0
 14 36  1  0  0  0  0
 16 17  1  0  0  0  0
 16 40  1  0  0  0  0
 17 23  2  0  0  0  0
 17 18  1  0  0  0  0
 18 19  2  0  0  0  0
 18 37  1  0  0  0  0
 19 20  1  0  0  0  0
 19 21  1  0  0  0  0
 21 22  2  0  0  0  0
 21 38  1  0  0  0  0
 22 23  1  0  0  0  0
 22 39  1  0  0  0  0
M  CHG  1  16   1
M  END
> <s_m_source_file>
AV-unprocessed.smi

> <i_m_source_file_index>
2874

> <i_lp_mmshare_version>
43012

> <i_f3d_flags>
0

> <s_epik_input>
W2NIXTFjKENsKVtjSF1bY0hdYyhjMTIpbihbQ0gyXVtDSDJdT1tDSDNdKWMobjIpU1tDSDJdYzNuW2NIXVtjSF1jKG4zKVtOSDJd

> <s_epik_cmdline>
J2VwaWtfcHl0aG9uJywgJy1waCcsICc3LjAnLCAnLXRuJywgJzgnLCAnLW1hJywgJzIwMCcsICctbWV0YWxfYmluZGluZycsICctaW1hZScsICc8aW5maWxlLm1hZT4nLCAnLW9tYWUnLCAnPG91dGZpbGUubWFlPic=

> <r_lp_tautomer_probability>
1

> <r_epik_Ionization_Penalty>
2.48176

> <r_epik_Ionization_Penalty_Charging>
2.48043

> <r_epik_Ionization_Penalty_Neutral>
0.00132706

> <r_epik_State_Penalty>
2.64401

> <r_epik_Charging_Adjusted_Penalty>
5.12444

> <i_epik_Tot_Q>
1

> <i_epik_Tot_abs_Q>
1

> <r_epik_Metal_State_Penalty>
2.65168

> <b_epik_Metal_Only>
0

> <s_lp_Force_Field>
OPLS_2005

> <r_lp_Energy>
0.65944

> <b_lp_Chiralities_Consistent>
1

> <s_lp_Variant>
AV-unprocessed.smi:2874-2

> <Gold.Version>
5.8.1

> <Gold.Id.Protein>
6NUR|6NUR_protein|mol2

> <Gold.PLP.Fitness>
45.9036

> <Gold.PLP.PLP>
-46.6514

> <Gold.PLP.part.hbond>
0.0000

> <Gold.PLP.part.metal>
0.0000

> <Gold.PLP.part.buried>
-6.2777

> <Gold.PLP.part.nonpolar>
-40.2432

> <Gold.PLP.part.repulsive>
0.2635

> <Gold.PLP.ligand.clash>
0.0000

> <Gold.PLP.ligand.torsion>
0.4122

> <Gold.PLP.Chemscore.Hbond>
0.0000

> <Gold.PLP.Chemscore.CHOScore>
0.0000

> <Gold.PLP.Chemscore.Metal>
0.0000

> <Gold.PLP.Chemscore.Internal.Correction>
0.0767

> <Gold.Rescore>
     Score         DG    S(hbond)    S(metal)    S(lipo)     H(rot)  DE(clash)    DE(int)     intcor
     12.43     -13.02       0.00        0.00     119.34       2.51       0.02       0.57       ----

> <Gold.Chemscore.Fitness>
12.4250

> <Gold.Chemscore.DG>
-13.0208

> <Gold.Chemscore.ZeroCoef>
-5.4800

> <Gold.Chemscore.Hbond>
0.0000

> <Gold.Chemscore.Metal>
0.0000

> <Gold.Chemscore.Lipo>
119.3436

> <Gold.Chemscore.Internal_Hbond>
0.0000

> <Gold.Chemscore.DEClash>
0.0247

> <Gold.Chemscore.DEInternal>
0.5711

> <Gold.Chemscore.Rot>
2.5088

> <Gold.Chemscore.Internal.Correction>
   9.000000E+99

> <Gold.Chemscore.Hbond.Weighted>
-0.0000

> <Gold.Chemscore.Metal.Weighted>
-0.0000

> <Gold.Chemscore.Lipo.Weighted>
-13.9632

> <Gold.Chemscore.Internal_Hbond.Weighted>
0.0000

> <Gold.Chemscore.DEClash.Weighted>
0.0247

> <Gold.Chemscore.DEInternal.Weighted>
0.5711

> <Gold.Chemscore.Rot.Weighted>
6.4224

> <Gold.Chemscore.Internal.Correction.Weighted>
   9.000000E+99

> <Gold.Protein.RotatedTorsions>
[ 6907 6896 6895 6894 ] final  -12.38 input  -60.11 | X-H torsion
[ 7974 7965 7964 7962 ] final  146.15 input  175.53 | X-H torsion
[ 8008 7997 7996 7995 ] final  121.69 input   59.86 | X-H torsion
[ 10167 10162 10161 10158 ] final  113.56 input  -65.29 | X-H torsion
[ 10718 10713 10712 10709 ] final -157.49 input   66.30 | X-H torsion
[ 10763 10752 10751 10750 ] final   30.20 input  -60.55 | X-H torsion
[ 11005 11000 10999 10996 ] final  122.78 input  -57.11 | X-H torsion

> <Gold.Protein.ActiveResidues>
 VAL166  LYS551  ARG553  GLY616  TRP617  ASP618  TYR619  PRO620  LYS621  CYS622 
 ASP623  PHE694  ASN695  SER759  ASP760  ASP761  ALA762  ILE779  LEU786  VAL792 
 PHE793  MET794  SER795  GLU796  ALA797  LYS798  CYS799  TRP800  GLU811  SER814 

> <Gold.Protein.RotatedAtoms>
  151.3715  135.0923  159.9466 H   0  0  0  0  0  0  0  0  0  0  0  0  # atno 6907 bound_to 6896
  152.5134  133.9160  159.7522 H   0  0  0  0  0  0  0  0  0  0  0  0  # atno 6908 bound_to 6896
  150.9575  133.6427  159.2789 H   0  0  0  0  0  0  0  0  0  0  0  0  # atno 6909 bound_to 6896
  144.8695  139.5869  143.5893 H   0  0  0  0  0  0  0  0  0  0  0  0  # atno 7974 bound_to 7965
  156.2697  140.2803  156.1348 H   0  0  0  0  0  0  0  0  0  0  0  0  # atno 8008 bound_to 7997
  155.1016  140.0389  157.2716 H   0  0  0  0  0  0  0  0  0  0  0  0  # atno 8009 bound_to 7997
  154.6811  140.2609  155.6914 H   0  0  0  0  0  0  0  0  0  0  0  0  # atno 8010 bound_to 7997
  139.6452  144.7126  151.2156 H   0  0  0  0  0  0  0  0  0  0  0  0  # atno 10167 bound_to 10162
  156.5411  130.8563  151.2749 H   0  0  0  0  0  0  0  0  0  0  0  0  # atno 10718 bound_to 10713
  153.0385  135.6470  154.1008 H   0  0  0  0  0  0  0  0  0  0  0  0  # atno 10763 bound_to 10752
  154.0718  135.2880  155.3308 H   0  0  0  0  0  0  0  0  0  0  0  0  # atno 10764 bound_to 10752
  154.6589  135.5399  153.8057 H   0  0  0  0  0  0  0  0  0  0  0  0  # atno 10765 bound_to 10752
  139.9283  134.9641  156.8160 H   0  0  0  0  0  0  0  0  0  0  0  0  # atno 11005 bound_to 11000
  146.2920  139.7166  142.9154 LP  0  0  0  0  0  0  0  0  0  0  0  0  # atno 17320 bound_to 7965
  145.4158  141.0401  143.2991 LP  0  0  0  0  0  0  0  0  0  0  0  0  # atno 17321 bound_to 7965
  140.7511  143.6243  150.8484 LP  0  0  0  0  0  0  0  0  0  0  0  0  # atno 17342 bound_to 10162
  139.9885  143.5873  152.2918 LP  0  0  0  0  0  0  0  0  0  0  0  0  # atno 17343 bound_to 10162
  157.7405  130.9852  150.2383 LP  0  0  0  0  0  0  0  0  0  0  0  0  # atno 17370 bound_to 10713
  156.2971  130.3753  149.7786 LP  0  0  0  0  0  0  0  0  0  0  0  0  # atno 17371 bound_to 10713
  140.6273  133.9938  155.7645 LP  0  0  0  0  0  0  0  0  0  0  0  0  # atno 17394 bound_to 11000
  141.0856  133.9996  157.3319 LP  0  0  0  0  0  0  0  0  0  0  0  0  # atno 17395 bound_to 11000

$$$$
