AV-unprocessed.smi:2812|AV-procd|sdf|10833|dock1
  -GOLD-   2272015273D 1   1.00000     0.00000
 Structure written by MMmdl.
 55 56  0  0  0  0  0  0  0  0  2 V2000
  144.3196  135.3157  150.6931 C   0  0  0  0  0  0  0  0  0  0  0  0
  144.7559  133.9011  151.0407 C   0  0  0  0  0  0  0  0  0  0  0  0
  143.9843  132.7824  150.5402 C   0  0  0  0  0  0  0  0  0  0  0  0
  144.3546  131.5336  150.8529 C   0  0  0  0  0  0  0  0  0  0  0  0
  145.4833  131.2762  151.6441 N   0  0  0  0  0  0  0  0  0  0  0  0
  145.8126  129.8755  151.9215 C   0  0  0  0  0  0  0  0  0  0  0  0
  146.2784  132.2740  152.1270 C   0  0  0  0  0  0  0  0  0  0  0  0
  147.3048  132.0130  152.7587 O   0  0  0  0  0  0  0  0  0  0  0  0
  145.8382  133.6584  151.8263 C   0  0  0  0  0  0  0  0  0  0  0  0
  146.5946  134.7453  152.2928 N   0  0  0  0  0  0  0  0  0  0  0  0
  146.1736  135.6993  153.1417 C   0  0  0  0  0  0  0  0  0  0  0  0
  145.0522  135.7469  153.6493 O   0  0  0  0  0  0  0  0  0  0  0  0
  147.1210  136.6240  153.3509 N   0  0  0  0  0  0  0  0  0  0  0  0
  146.9634  137.7934  154.2093 C   0  0  0  0  0  0  0  0  0  0  0  0
  146.0853  138.8988  153.5603 C   0  0  2  0  0  0  0  0  0  0  0  0
  146.8319  139.7336  152.4926 C   0  0  0  0  0  0  0  0  0  0  0  0
  147.8483  140.6970  153.1180 C   0  0  0  0  0  0  0  0  0  0  0  0
  147.1469  141.5899  154.1465 C   0  0  0  0  0  0  0  0  0  0  0  0
  146.4039  140.7482  155.1962 C   0  0  0  0  0  0  0  0  0  0  0  0
  145.4413  139.8069  154.5621 N   0  3  2  0  0  0  0  0  0  0  0  0
  144.5643  139.1501  155.5727 C   0  0  0  0  0  0  0  0  0  0  0  0
  143.8750  140.1196  156.5600 C   0  0  0  0  0  0  0  0  0  0  0  0
  143.0635  139.3752  157.6335 C   0  0  0  0  0  0  0  0  0  0  0  0
  142.9769  141.1068  155.8000 C   0  0  0  0  0  0  0  0  0  0  0  0
  143.4210  135.3111  150.0755 H   0  0  0  0  0  0  0  0  0  0  0  0
  145.1035  135.8340  150.1401 H   0  0  0  0  0  0  0  0  0  0  0  0
  144.1006  135.8825  151.5988 H   0  0  0  0  0  0  0  0  0  0  0  0
  143.1120  132.9473  149.9249 H   0  0  0  0  0  0  0  0  0  0  0  0
  143.8176  130.6608  150.5113 H   0  0  0  0  0  0  0  0  0  0  0  0
  145.8694  129.7008  152.9971 H   0  0  0  0  0  0  0  0  0  0  0  0
  146.7772  129.6149  151.4834 H   0  0  0  0  0  0  0  0  0  0  0  0
  145.0728  129.1813  151.5212 H   0  0  0  0  0  0  0  0  0  0  0  0
  147.4912  134.8793  151.8487 H   0  0  0  0  0  0  0  0  0  0  0  0
  148.0120  136.5094  152.8901 H   0  0  0  0  0  0  0  0  0  0  0  0
  146.5401  137.4591  155.1566 H   0  0  0  0  0  0  0  0  0  0  0  0
  147.9594  138.1707  154.4379 H   0  0  0  0  0  0  0  0  0  0  0  0
  145.2812  138.4037  153.0183 H   0  0  0  0  0  0  0  0  0  0  0  0
  147.3253  139.0907  151.7636 H   0  0  0  0  0  0  0  0  0  0  0  0
  146.1030  140.3136  151.9245 H   0  0  0  0  0  0  0  0  0  0  0  0
  148.6553  140.1389  153.5937 H   0  0  0  0  0  0  0  0  0  0  0  0
  148.3099  141.3098  152.3431 H   0  0  0  0  0  0  0  0  0  0  0  0
  147.8745  142.2384  154.6352 H   0  0  0  0  0  0  0  0  0  0  0  0
  146.4402  142.2473  153.6380 H   0  0  0  0  0  0  0  0  0  0  0  0
  147.1144  140.1970  155.8132 H   0  0  0  0  0  0  0  0  0  0  0  0
  145.8682  141.4202  155.8680 H   0  0  0  0  0  0  0  0  0  0  0  0
  143.8204  138.5344  155.0665 H   0  0  0  0  0  0  0  0  0  0  0  0
  145.1740  138.4543  156.1510 H   0  0  0  0  0  0  0  0  0  0  0  0
  144.6315  140.7240  157.0601 H   0  0  0  0  0  0  0  0  0  0  0  0
  142.2856  138.7569  157.1846 H   0  0  0  0  0  0  0  0  0  0  0  0
  142.5778  140.0767  158.3124 H   0  0  0  0  0  0  0  0  0  0  0  0
  143.6974  138.7273  158.2390 H   0  0  0  0  0  0  0  0  0  0  0  0
  142.1743  140.5902  155.2724 H   0  0  0  0  0  0  0  0  0  0  0  0
  143.5488  141.6731  155.0644 H   0  0  0  0  0  0  0  0  0  0  0  0
  142.5185  141.8250  156.4806 H   0  0  0  0  0  0  0  0  0  0  0  0
  144.8209  140.3920  154.0210 H   0  0  0  0  0  0  0  0  0  0  0  0
  1  2  1  0  0  0  0
  1 25  1  0  0  0  0
  1 26  1  0  0  0  0
  1 27  1  0  0  0  0
  2  9  2  0  0  0  0
  2  3  1  0  0  0  0
  3  4  2  0  0  0  0
  3 28  1  0  0  0  0
  4  5  1  0  0  0  0
  4 29  1  0  0  0  0
  5  6  1  0  0  0  0
  5  7  1  0  0  0  0
  6 30  1  0  0  0  0
  6 31  1  0  0  0  0
  6 32  1  0  0  0  0
  7  8  2  0  0  0  0
  7  9  1  0  0  0  0
  9 10  1  0  0  0  0
 10 11  1  0  0  0  0
 10 33  1  0  0  0  0
 11 12  2  0  0  0  0
 11 13  1  0  0  0  0
 13 14  1  0  0  0  0
 13 34  1  0  0  0  0
 14 15  1  0  0  0  0
 14 35  1  0  0  0  0
 14 36  1  0  0  0  0
 15 20  1  0  0  0  0
 15 16  1  0  0  0  0
 15 37  1  0  0  0  0
 16 17  1  0  0  0  0
 16 38  1  0  0  0  0
 16 39  1  0  0  0  0
 17 18  1  0  0  0  0
 17 40  1  0  0  0  0
 17 41  1  0  0  0  0
 18 19  1  0  0  0  0
 18 42  1  0  0  0  0
 18 43  1  0  0  0  0
 19 20  1  0  0  0  0
 19 44  1  0  0  0  0
 19 45  1  0  0  0  0
 20 21  1  0  0  0  0
 20 55  1  0  0  0  0
 21 22  1  0  0  0  0
 21 46  1  0  0  0  0
 21 47  1  0  0  0  0
 22 23  1  0  0  0  0
 22 24  1  0  0  0  0
 22 48  1  0  0  0  0
 23 49  1  0  0  0  0
 23 50  1  0  0  0  0
 23 51  1  0  0  0  0
 24 52  1  0  0  0  0
 24 53  1  0  0  0  0
 24 54  1  0  0  0  0
M  CHG  1  20   1
M  END
> <s_m_source_file>
AV-unprocessed.smi

> <i_m_source_file_index>
2812

> <i_lp_mmshare_version>
43012

> <i_f3d_flags>
0

> <s_epik_input>
W0NIM11jMVtjSF1bY0hdbihbQ0gzXSljKD1PKWMxW05IXUMoPU8pW05IXVtDSDJdW0NAQEhdMltDSDJdW0NIMl1bQ0gyXVtDSDJdTjJbQ0gyXVtDSF0oW0NIM10pW0NIM10=

> <s_epik_cmdline>
J2VwaWtfcHl0aG9uJywgJy1waCcsICc3LjAnLCAnLXRuJywgJzgnLCAnLW1hJywgJzIwMCcsICctbWV0YWxfYmluZGluZycsICctaW1hZScsICc8aW5maWxlLm1hZT4nLCAnLW9tYWUnLCAnPG91dGZpbGUubWFlPic=

> <r_lp_tautomer_probability>
1

> <r_epik_Ionization_Penalty>
0.0010902

> <r_epik_Ionization_Penalty_Charging>
0.00107091

> <r_epik_Ionization_Penalty_Neutral>
1.92854e-05

> <r_epik_State_Penalty>
0.000697184

> <r_epik_Charging_Adjusted_Penalty>
0.0017681

> <i_epik_Tot_Q>
1

> <i_epik_Tot_abs_Q>
1

> <r_epik_Metal_State_Penalty>
-0

> <b_epik_Metal_Only>
0

> <s_lp_Force_Field>
OPLS_2005

> <r_lp_Energy>
39.0226

> <b_lp_Chiralities_Consistent>
1

> <s_lp_Variant>
AV-unprocessed.smi:2812-1

> <Gold.Version>
5.8.1

> <Gold.Id.Protein>
6NUR|6NUR_protein|mol2

> <Gold.PLP.Fitness>
43.4801

> <Gold.PLP.PLP>
-33.0606

> <Gold.PLP.part.hbond>
-3.0000

> <Gold.PLP.part.metal>
0.0000

> <Gold.PLP.part.buried>
-1.9164

> <Gold.PLP.part.nonpolar>
-28.6849

> <Gold.PLP.part.repulsive>
0.1763

> <Gold.PLP.ligand.clash>
0.0000

> <Gold.PLP.ligand.torsion>
0.9290

> <Gold.PLP.Chemscore.Hbond>
3.8080

> <Gold.PLP.Chemscore.CHOScore>
0.0000

> <Gold.PLP.Chemscore.Metal>
0.0000

> <Gold.Chemscore.Hbonds>
donor molecule, donor type, donor heavy atom, donor atom, acceptor molecule, acceptor atom, score
      L1  H    10    33       P1  7948  0.78
      L1  H    13    34       P1  7948  0.73
      L1  H    20    55       P1 10175  1.82

> <Gold.PLP.Chemscore.Internal.Correction>
0.8535

> <Gold.Rescore>
     Score         DG    S(hbond)    S(metal)    S(lipo)     H(rot)  DE(clash)    DE(int)     intcor
     16.85     -19.41       2.52        0.00      80.41       1.52       1.67       0.90       ----

> <Gold.Chemscore.Fitness>
16.8464

> <Gold.Chemscore.DG>
-19.4138

> <Gold.Chemscore.ZeroCoef>
-5.4800

> <Gold.Chemscore.Hbond>
2.5167

> <Gold.Chemscore.Metal>
0.0000

> <Gold.Chemscore.Lipo>
80.4117

> <Gold.Chemscore.Internal_Hbond>
0.0000

> <Gold.Chemscore.DEClash>
1.6654

> <Gold.Chemscore.DEInternal>
0.9020

> <Gold.Chemscore.Rot>
1.5157

> <Gold.Chemscore.Internal.Correction>
   9.000000E+99

> <Gold.Chemscore.Hbonds>
donor molecule, donor type, donor heavy atom, donor atom, acceptor molecule, acceptor atom, score
      L1  H    10    33       P1  7948  0.59
      L1  H    13    34       P1  7948  0.72
      L1  H    20    55       P1 10175  0.89

> <Gold.Chemscore.Hbond.Weighted>
-8.4059

> <Gold.Chemscore.Metal.Weighted>
-0.0000

> <Gold.Chemscore.Lipo.Weighted>
-9.4082

> <Gold.Chemscore.Internal_Hbond.Weighted>
0.0000

> <Gold.Chemscore.DEClash.Weighted>
1.6654

> <Gold.Chemscore.DEInternal.Weighted>
0.9020

> <Gold.Chemscore.Rot.Weighted>
3.8803

> <Gold.Chemscore.Internal.Correction.Weighted>
   9.000000E+99

> <Gold.Protein.RotatedTorsions>
[ 6907 6896 6895 6894 ] final -152.39 input  -60.11 | X-H torsion
[ 7974 7965 7964 7962 ] final -124.72 input  175.53 | X-H torsion
[ 8008 7997 7996 7995 ] final   65.25 input   59.86 | X-H torsion
[ 10167 10162 10161 10158 ] final -173.86 input  -65.29 | X-H torsion
[ 10718 10713 10712 10709 ] final -179.78 input   66.30 | X-H torsion
[ 10763 10752 10751 10750 ] final  -83.93 input  -60.55 | X-H torsion
[ 11005 11000 10999 10996 ] final  124.55 input  -57.11 | X-H torsion

> <Gold.Protein.ActiveResidues>
 VAL166  LYS551  ARG553  GLY616  TRP617  ASP618  TYR619  PRO620  LYS621  CYS622 
 ASP623  PHE694  ASN695  SER759  ASP760  ASP761  ALA762  ILE779  LEU786  VAL792 
 PHE793  MET794  SER795  GLU796  ALA797  LYS798  CYS799  TRP800  GLU811  SER814 

> <Gold.Protein.RotatedAtoms>
  151.2271  133.4470  159.2602 H   0  0  0  0  0  0  0  0  0  0  0  0  # atno 6907 bound_to 6896
  151.0830  134.9870  159.8375 H   0  0  0  0  0  0  0  0  0  0  0  0  # atno 6908 bound_to 6896
  152.5426  134.2209  159.8840 H   0  0  0  0  0  0  0  0  0  0  0  0  # atno 6909 bound_to 6896
  145.0051  140.7856  143.4472 H   0  0  0  0  0  0  0  0  0  0  0  0  # atno 7974 bound_to 7965
  155.6587  140.3497  155.4775 H   0  0  0  0  0  0  0  0  0  0  0  0  # atno 8008 bound_to 7997
  155.9786  140.1170  157.0770 H   0  0  0  0  0  0  0  0  0  0  0  0  # atno 8009 bound_to 7997
  154.4185  140.1142  156.5391 H   0  0  0  0  0  0  0  0  0  0  0  0  # atno 8010 bound_to 7997
  139.5665  144.1743  152.1320 H   0  0  0  0  0  0  0  0  0  0  0  0  # atno 10167 bound_to 10162
  156.8641  130.9761  151.3080 H   0  0  0  0  0  0  0  0  0  0  0  0  # atno 10718 bound_to 10713
  154.5935  135.5539  153.7302 H   0  0  0  0  0  0  0  0  0  0  0  0  # atno 10763 bound_to 10752
  153.0126  135.6349  154.1816 H   0  0  0  0  0  0  0  0  0  0  0  0  # atno 10764 bound_to 10752
  154.1756  135.2890  155.3047 H   0  0  0  0  0  0  0  0  0  0  0  0  # atno 10765 bound_to 10752
  139.9364  134.9639  156.8425 H   0  0  0  0  0  0  0  0  0  0  0  0  # atno 11005 bound_to 11000
  145.2099  139.2210  143.5148 LP  0  0  0  0  0  0  0  0  0  0  0  0  # atno 17320 bound_to 7965
  146.3459  140.1935  142.8589 LP  0  0  0  0  0  0  0  0  0  0  0  0  # atno 17321 bound_to 7965
  140.1267  144.5325  150.6828 LP  0  0  0  0  0  0  0  0  0  0  0  0  # atno 17342 bound_to 10162
  140.6949  143.2398  151.5029 LP  0  0  0  0  0  0  0  0  0  0  0  0  # atno 17343 bound_to 10162
  157.6233  130.8672  149.9146 LP  0  0  0  0  0  0  0  0  0  0  0  0  # atno 17370 bound_to 10713
  156.0761  130.3679  150.0675 LP  0  0  0  0  0  0  0  0  0  0  0  0  # atno 17371 bound_to 10713
  140.6065  134.0122  155.7559 LP  0  0  0  0  0  0  0  0  0  0  0  0  # atno 17394 bound_to 11000
  141.0979  133.9814  157.3129 LP  0  0  0  0  0  0  0  0  0  0  0  0  # atno 17395 bound_to 11000

$$$$
