AV-unprocessed.smi:21|AV-procd|sdf|134|dock1
  -GOLD-   2262015323D 1   1.00000     0.00000
 Structure written by MMmdl.
 62 65  0  0  0  0  0  0  0  0  2 V2000
  145.9417  131.2964  151.4976 C   0  0  0  0  0  0  0  0  0  0  0  0
  145.6985  132.4393  152.3021 O   0  0  0  0  0  0  0  0  0  0  0  0
  146.7500  133.3939  152.2680 C   0  0  2  0  0  0  0  0  0  0  0  0
  148.0006  132.8235  152.9486 C   0  0  0  0  0  0  0  0  0  0  0  0
  148.3621  133.7999  154.0805 C   0  0  1  0  0  0  0  0  0  0  0  0
  149.8824  134.0099  154.2573 C   0  0  0  0  0  0  0  0  0  0  0  0
  150.2338  134.5019  155.5921 N   0  0  0  0  0  0  0  0  0  0  0  0
  149.9245  133.6626  156.7439 C   0  0  0  0  0  0  0  0  0  0  0  0
  150.5809  135.8115  155.7687 C   0  0  0  0  0  0  0  0  0  0  0  0
  151.1142  136.4824  154.7111 N   0  0  0  0  0  0  0  0  0  0  0  0
  151.4723  137.7641  154.8169 C   0  0  0  0  0  0  0  0  0  0  0  0
  151.3836  138.5673  155.8757 N   0  0  0  0  0  0  0  0  0  0  0  0
  150.8485  137.9137  156.9448 C   0  0  0  0  0  0  0  0  0  0  0  0
  150.4273  136.5513  156.9839 C   0  0  0  0  0  0  0  0  0  0  0  0
  149.9377  136.2625  158.2550 N   0  0  0  0  0  0  0  0  0  0  0  0
  150.0626  137.3772  158.9201 C   0  0  0  0  0  0  0  0  0  0  0  0
  150.5916  138.4248  158.2043 N   0  0  0  0  0  0  0  0  0  0  0  0
  150.8348  139.7745  158.6830 C   0  0  0  0  0  0  0  0  0  0  0  0
  151.2476  140.7486  157.5483 C   0  0  1  0  0  0  0  0  0  0  0  0
  150.0637  141.0409  156.5975 C   0  0  0  0  0  0  0  0  0  0  0  0
  150.3392  142.1435  155.7589 O   0  0  0  0  0  0  0  0  0  0  0  0
  151.9117  142.0548  158.0649 C   0  0  1  0  0  0  0  0  0  0  0  0
  150.9703  143.1620  158.5229 C   0  0  0  0  0  0  0  0  0  0  0  0
  151.8510  143.9449  159.4858 C   0  0  0  0  0  0  0  0  0  0  0  0
  152.5465  142.9211  160.1778 O   0  0  0  0  0  0  0  0  0  0  0  0
  152.8782  141.8908  159.2518 C   0  0  0  0  0  0  0  0  0  0  0  0
  147.6597  135.0559  153.7428 N   0  3  2  0  0  0  0  0  0  0  0  0
  147.4447  135.9742  154.8833 C   0  0  0  0  0  0  0  0  0  0  0  0
  146.4113  134.6595  153.0650 C   0  0  0  0  0  0  0  0  0  0  0  0
  147.0009  133.6514  151.2372 H   0  0  0  0  0  0  0  0  0  0  0  0
  147.9255  133.4218  155.0068 H   0  0  0  0  0  0  0  0  0  0  0  0
  145.1072  130.6016  151.5914 H   0  0  0  0  0  0  0  0  0  0  0  0
  146.8466  130.7766  151.8143 H   0  0  0  0  0  0  0  0  0  0  0  0
  146.0399  131.5598  150.4440 H   0  0  0  0  0  0  0  0  0  0  0  0
  147.8399  131.8174  153.3381 H   0  0  0  0  0  0  0  0  0  0  0  0
  148.8045  132.7572  152.2147 H   0  0  0  0  0  0  0  0  0  0  0  0
  150.4039  133.0702  154.0720 H   0  0  0  0  0  0  0  0  0  0  0  0
  150.2704  134.6966  153.5053 H   0  0  0  0  0  0  0  0  0  0  0  0
  150.7576  133.6500  157.4470 H   0  0  0  0  0  0  0  0  0  0  0  0
  149.7396  132.6317  156.4418 H   0  0  0  0  0  0  0  0  0  0  0  0
  149.0325  134.0234  157.2567 H   0  0  0  0  0  0  0  0  0  0  0  0
  151.8891  138.2099  153.9257 H   0  0  0  0  0  0  0  0  0  0  0  0
  149.7614  137.4679  159.9536 H   0  0  0  0  0  0  0  0  0  0  0  0
  149.9293  140.1234  159.1790 H   0  0  0  0  0  0  0  0  0  0  0  0
  151.6016  139.7124  159.4541 H   0  0  0  0  0  0  0  0  0  0  0  0
  152.0077  140.2383  156.9545 H   0  0  0  0  0  0  0  0  0  0  0  0
  149.8614  140.1889  155.9489 H   0  0  0  0  0  0  0  0  0  0  0  0
  149.1507  141.2342  157.1611 H   0  0  0  0  0  0  0  0  0  0  0  0
  149.7275  142.8352  155.9602 H   0  0  0  0  0  0  0  0  0  0  0  0
  152.5120  142.4714  157.2549 H   0  0  0  0  0  0  0  0  0  0  0  0
  150.5985  143.7719  157.6990 H   0  0  0  0  0  0  0  0  0  0  0  0
  150.1130  142.7682  159.0667 H   0  0  0  0  0  0  0  0  0  0  0  0
  152.5619  144.5724  158.9455 H   0  0  0  0  0  0  0  0  0  0  0  0
  151.2779  144.5753  160.1661 H   0  0  0  0  0  0  0  0  0  0  0  0
  152.8108  140.9205  159.7421 H   0  0  0  0  0  0  0  0  0  0  0  0
  153.9108  142.0147  158.9229 H   0  0  0  0  0  0  0  0  0  0  0  0
  146.8561  135.4985  155.6689 H   0  0  0  0  0  0  0  0  0  0  0  0
  146.9138  136.8679  154.5538 H   0  0  0  0  0  0  0  0  0  0  0  0
  148.3933  136.2929  155.3148 H   0  0  0  0  0  0  0  0  0  0  0  0
  146.0207  135.4592  152.4349 H   0  0  0  0  0  0  0  0  0  0  0  0
  145.6565  134.4274  153.8188 H   0  0  0  0  0  0  0  0  0  0  0  0
  148.2266  135.5336  153.0569 H   0  0  0  0  0  0  0  0  0  0  0  0
  1  2  1  0  0  0  0
  1 32  1  0  0  0  0
  1 33  1  0  0  0  0
  1 34  1  0  0  0  0
  2  3  1  0  0  0  0
  3 30  1  0  0  0  0
  3 29  1  0  0  0  0
  3  4  1  0  0  0  0
  4  5  1  0  0  0  0
  4 35  1  0  0  0  0
  4 36  1  0  0  0  0
  5 31  1  0  0  0  0
  5  6  1  0  0  0  0
  5 27  1  0  0  0  0
  6  7  1  0  0  0  0
  6 37  1  0  0  0  0
  6 38  1  0  0  0  0
  7  8  1  0  0  0  0
  7  9  1  0  0  0  0
  8 39  1  0  0  0  0
  8 40  1  0  0  0  0
  8 41  1  0  0  0  0
  9 14  1  0  0  0  0
  9 10  2  0  0  0  0
 10 11  1  0  0  0  0
 11 12  2  0  0  0  0
 11 42  1  0  0  0  0
 12 13  1  0  0  0  0
 13 17  1  0  0  0  0
 13 14  2  0  0  0  0
 14 15  1  0  0  0  0
 15 16  2  0  0  0  0
 16 17  1  0  0  0  0
 16 43  1  0  0  0  0
 17 18  1  0  0  0  0
 18 19  1  0  0  0  0
 18 44  1  0  0  0  0
 18 45  1  0  0  0  0
 19 20  1  0  0  0  0
 19 22  1  0  0  0  0
 19 46  1  0  0  0  0
 20 21  1  0  0  0  0
 20 47  1  0  0  0  0
 20 48  1  0  0  0  0
 21 49  1  0  0  0  0
 22 26  1  0  0  0  0
 22 23  1  0  0  0  0
 22 50  1  0  0  0  0
 23 24  1  0  0  0  0
 23 51  1  0  0  0  0
 23 52  1  0  0  0  0
 24 25  1  0  0  0  0
 24 53  1  0  0  0  0
 24 54  1  0  0  0  0
 25 26  1  0  0  0  0
 26 55  1  0  0  0  0
 26 56  1  0  0  0  0
 27 28  1  0  0  0  0
 27 29  1  0  0  0  0
 27 62  1  0  0  0  0
 28 57  1  0  0  0  0
 28 58  1  0  0  0  0
 28 59  1  0  0  0  0
 29 60  1  0  0  0  0
 29 61  1  0  0  0  0
M  CHG  1  27   1
M  END
> <s_m_source_file>
AV-unprocessed.smi

> <i_m_source_file_index>
21

> <i_lp_mmshare_version>
43012

> <i_f3d_flags>
0

> <s_epik_input>
W0NIM11PW0NASF0xW0NIMl1bQ0BIXShOKFtDSDNdKVtDSDJdMSlbQ0gyXU4oW0NIM10pYyhuW2NIXW4yKWMoYzIzKW5bY0hdbjNbQ0gyXVtDQEhdKFtDSDJdW09IXSlbQ0BASF00W0NIMl1bQ0gyXU9bQ0gyXTQ=

> <s_epik_cmdline>
J2VwaWtfcHl0aG9uJywgJy1waCcsICc3LjAnLCAnLXRuJywgJzgnLCAnLW1hJywgJzIwMCcsICctbWV0YWxfYmluZGluZycsICctaW1hZScsICc8aW5maWxlLm1hZT4nLCAnLW9tYWUnLCAnPG91dGZpbGUubWFlPic=

> <r_lp_tautomer_probability>
1

> <r_epik_Ionization_Penalty>
0.0157465

> <r_epik_Ionization_Penalty_Charging>
0.015354

> <r_epik_Ionization_Penalty_Neutral>
0.000392529

> <r_epik_State_Penalty>
0.0120612

> <r_epik_Charging_Adjusted_Penalty>
0.0274152

> <i_epik_Tot_Q>
1

> <i_epik_Tot_abs_Q>
1

> <r_epik_Metal_State_Penalty>
0.0121253

> <b_epik_Metal_Only>
0

> <s_lp_Force_Field>
OPLS_2005

> <r_lp_Energy>
60.5183

> <b_lp_Chiralities_Consistent>
1

> <s_lp_Variant>
AV-unprocessed.smi:21-14

> <Gold.Version>
5.8.1

> <Gold.Id.Protein>
6NUR|6NUR_protein|mol2

> <Gold.PLP.Fitness>
56.2884

> <Gold.PLP.PLP>
-43.4775

> <Gold.PLP.part.hbond>
-4.0000

> <Gold.PLP.part.metal>
0.0000

> <Gold.PLP.part.buried>
-7.8553

> <Gold.PLP.part.nonpolar>
-32.4208

> <Gold.PLP.part.repulsive>
0.3041

> <Gold.PLP.ligand.clash>
0.0000

> <Gold.PLP.ligand.torsion>
1.1658

> <Gold.PLP.Chemscore.Hbond>
4.7610

> <Gold.PLP.Chemscore.CHOScore>
0.0000

> <Gold.PLP.Chemscore.Metal>
0.0000

> <Gold.Chemscore.Hbonds>
donor molecule, donor type, donor heavy atom, donor atom, acceptor molecule, acceptor atom, score
      L1  H    21    49       P1  8028  0.86
      L1  H    27    62       P1  7948  2.00
      P1  H  6896  6907       L1    15  0.60
      P1  H 10752 10765       L1    10  1.00

> <Gold.PLP.Chemscore.Internal.Correction>
0.8596

> <Gold.Rescore>
     Score         DG    S(hbond)    S(metal)    S(lipo)     H(rot)  DE(clash)    DE(int)     intcor
     14.72     -18.33       2.84        0.00      95.97       3.08       0.01       3.60       ----

> <Gold.Chemscore.Fitness>
14.7169

> <Gold.Chemscore.DG>
-18.3311

> <Gold.Chemscore.ZeroCoef>
-5.4800

> <Gold.Chemscore.Hbond>
2.8433

> <Gold.Chemscore.Metal>
0.0000

> <Gold.Chemscore.Lipo>
95.9708

> <Gold.Chemscore.Internal_Hbond>
0.0000

> <Gold.Chemscore.DEClash>
0.0124

> <Gold.Chemscore.DEInternal>
3.6019

> <Gold.Chemscore.Rot>
3.0758

> <Gold.Chemscore.Internal.Correction>
   9.000000E+99

> <Gold.Chemscore.Hbonds>
donor molecule, donor type, donor heavy atom, donor atom, acceptor molecule, acceptor atom, score
      L1  H    21    49       P1  8028  0.81
      L1  H    27    62       P1  7948  0.95
      P1  H  6896  6907       L1    15  0.18
      P1  H 10752 10765       L1    10  0.13

> <Gold.Chemscore.Hbond.Weighted>
-9.4967

> <Gold.Chemscore.Metal.Weighted>
-0.0000

> <Gold.Chemscore.Lipo.Weighted>
-11.2286

> <Gold.Chemscore.Internal_Hbond.Weighted>
0.0000

> <Gold.Chemscore.DEClash.Weighted>
0.0124

> <Gold.Chemscore.DEInternal.Weighted>
3.6019

> <Gold.Chemscore.Rot.Weighted>
7.8741

> <Gold.Chemscore.Internal.Correction.Weighted>
   9.000000E+99

> <Gold.Protein.RotatedTorsions>
[ 6907 6896 6895 6894 ] final  -53.21 input  -60.11 | X-H torsion
[ 7974 7965 7964 7962 ] final -125.81 input  175.53 | X-H torsion
[ 8008 7997 7996 7995 ] final   15.87 input   59.86 | X-H torsion
[ 10167 10162 10161 10158 ] final  119.88 input  -65.29 | X-H torsion
[ 10718 10713 10712 10709 ] final   66.14 input   66.30 | X-H torsion
[ 10763 10752 10751 10750 ] final  166.90 input  -60.55 | X-H torsion
[ 11005 11000 10999 10996 ] final  104.53 input  -57.11 | X-H torsion

> <Gold.Protein.ActiveResidues>
 VAL166  LYS551  ARG553  GLY616  TRP617  ASP618  TYR619  PRO620  LYS621  CYS622 
 ASP623  PHE694  ASN695  SER759  ASP760  ASP761  ALA762  ILE779  LEU786  VAL792 
 PHE793  MET794  SER795  GLU796  ALA797  LYS798  CYS799  TRP800  GLU811  SER814 

> <Gold.Protein.RotatedAtoms>
  150.8447  134.7752  159.6960 H   0  0  0  0  0  0  0  0  0  0  0  0  # atno 6907 bound_to 6896
  152.4527  134.5356  159.9834 H   0  0  0  0  0  0  0  0  0  0  0  0  # atno 6908 bound_to 6896
  151.5489  133.3383  159.2985 H   0  0  0  0  0  0  0  0  0  0  0  0  # atno 6909 bound_to 6896
  144.9938  140.7756  143.4538 H   0  0  0  0  0  0  0  0  0  0  0  0  # atno 7974 bound_to 7965
  154.8688  140.2955  155.5494 H   0  0  0  0  0  0  0  0  0  0  0  0  # atno 8008 bound_to 7997
  156.3021  140.2464  156.3607 H   0  0  0  0  0  0  0  0  0  0  0  0  # atno 8009 bound_to 7997
  154.8839  140.0397  157.1788 H   0  0  0  0  0  0  0  0  0  0  0  0  # atno 8010 bound_to 7997
  139.6017  144.7059  151.3046 H   0  0  0  0  0  0  0  0  0  0  0  0  # atno 10167 bound_to 10162
  157.6150  130.9252  150.0070 H   0  0  0  0  0  0  0  0  0  0  0  0  # atno 10718 bound_to 10713
  154.3458  135.2753  155.2398 H   0  0  0  0  0  0  0  0  0  0  0  0  # atno 10763 bound_to 10752
  154.4649  135.5898  153.6285 H   0  0  0  0  0  0  0  0  0  0  0  0  # atno 10764 bound_to 10752
  152.9854  135.6074  154.3664 H   0  0  0  0  0  0  0  0  0  0  0  0  # atno 10765 bound_to 10752
  139.8793  134.9303  156.5375 H   0  0  0  0  0  0  0  0  0  0  0  0  # atno 11005 bound_to 11000
  145.2249  139.2142  143.5073 LP  0  0  0  0  0  0  0  0  0  0  0  0  # atno 17320 bound_to 7965
  146.3437  140.2114  142.8590 LP  0  0  0  0  0  0  0  0  0  0  0  0  # atno 17321 bound_to 7965
  140.7255  143.7016  150.7840 LP  0  0  0  0  0  0  0  0  0  0  0  0  # atno 17342 bound_to 10162
  140.0594  143.5170  152.2635 LP  0  0  0  0  0  0  0  0  0  0  0  0  # atno 17343 bound_to 10162
  156.1269  130.3644  149.9795 LP  0  0  0  0  0  0  0  0  0  0  0  0  # atno 17370 bound_to 10713
  156.7864  130.9240  151.3646 LP  0  0  0  0  0  0  0  0  0  0  0  0  # atno 17371 bound_to 10713
  140.8335  133.8260  155.9006 LP  0  0  0  0  0  0  0  0  0  0  0  0  # atno 17394 bound_to 11000
  140.9306  134.2026  157.4866 LP  0  0  0  0  0  0  0  0  0  0  0  0  # atno 17395 bound_to 11000

$$$$
