AV-unprocessed.smi:3031|AV-procd|sdf|11555|dock6
  -GOLD-   2272016523D 1   1.00000     0.00000
 Structure written by MMmdl.
 46 47  0  0  0  0  0  0  0  0  1 V2000
  145.0734  130.2646  151.2336 C   0  0  0  0  0  0  0  0  0  0  0  0
  144.7821  131.6567  150.7523 C   0  0  0  0  0  0  0  0  0  0  0  0
  143.7546  132.0738  149.8594 C   0  0  0  0  0  0  0  0  0  0  0  0
  143.7660  133.3773  149.6357 N   0  0  0  0  0  0  0  0  0  0  0  0
  144.7921  133.8406  150.3816 N   0  0  0  0  0  0  0  0  0  0  0  0
  145.1024  135.2619  150.3831 C   0  0  0  0  0  0  0  0  0  0  0  0
  144.9595  135.9319  151.7738 C   0  0  2  0  0  0  0  0  0  0  0  0
  143.6973  136.8029  151.8743 C   0  0  0  0  0  0  0  0  0  0  0  0
  146.1315  136.7322  152.1450 N   0  0  0  0  0  0  0  0  0  0  0  0
  146.2118  138.0608  151.5380 C   0  0  0  0  0  0  0  0  0  0  0  0
  147.1746  138.9681  152.3204 C   0  0  1  0  0  0  0  0  0  0  0  0
  147.0969  140.2567  151.7464 O   0  0  0  0  0  0  0  0  0  0  0  0
  146.7791  139.0836  153.8095 C   0  0  0  0  0  0  0  0  0  0  0  0
  147.8700  139.4066  154.7305 N   0  0  0  0  0  0  0  0  0  0  0  0
  148.3692  140.7698  154.5555 C   0  0  0  0  0  0  0  0  0  0  0  0
  149.5370  141.0812  155.5079 C   0  0  0  0  0  0  0  0  0  0  0  0
  150.5790  140.1295  155.3185 O   0  0  0  0  0  0  0  0  0  0  0  0
  150.1422  138.7904  155.5254 C   0  0  0  0  0  0  0  0  0  0  0  0
  148.9810  138.4748  154.5671 C   0  0  0  0  0  0  0  0  0  0  0  0
  145.4277  132.8212  151.0590 C   0  0  0  0  0  0  0  0  0  0  0  0
  144.2929  129.9000  151.9016 H   0  0  0  0  0  0  0  0  0  0  0  0
  146.0151  130.2118  151.7805 H   0  0  0  0  0  0  0  0  0  0  0  0
  145.1437  129.5594  150.4054 H   0  0  0  0  0  0  0  0  0  0  0  0
  143.0052  131.4703  149.3687 H   0  0  0  0  0  0  0  0  0  0  0  0
  146.1280  135.3784  150.0310 H   0  0  0  0  0  0  0  0  0  0  0  0
  144.4845  135.7596  149.6357 H   0  0  0  0  0  0  0  0  0  0  0  0
  144.8459  135.1316  152.5062 H   0  0  0  0  0  0  0  0  0  0  0  0
  142.8063  136.2348  151.6053 H   0  0  0  0  0  0  0  0  0  0  0  0
  143.7507  137.6718  151.2176 H   0  0  0  0  0  0  0  0  0  0  0  0
  143.5558  137.1690  152.8917 H   0  0  0  0  0  0  0  0  0  0  0  0
  146.9792  136.2134  151.9389 H   0  0  0  0  0  0  0  0  0  0  0  0
  146.5597  137.9629  150.5087 H   0  0  0  0  0  0  0  0  0  0  0  0
  145.2313  138.5340  151.4937 H   0  0  0  0  0  0  0  0  0  0  0  0
  148.1914  138.5980  152.1949 H   0  0  0  0  0  0  0  0  0  0  0  0
  147.9738  140.5507  151.5526 H   0  0  0  0  0  0  0  0  0  0  0  0
  145.9978  139.8412  153.8932 H   0  0  0  0  0  0  0  0  0  0  0  0
  146.3129  138.1520  154.1339 H   0  0  0  0  0  0  0  0  0  0  0  0
  148.6978  140.9138  153.5251 H   0  0  0  0  0  0  0  0  0  0  0  0
  147.5760  141.4942  154.7342 H   0  0  0  0  0  0  0  0  0  0  0  0
  149.9280  142.0804  155.3142 H   0  0  0  0  0  0  0  0  0  0  0  0
  149.2035  141.0638  156.5468 H   0  0  0  0  0  0  0  0  0  0  0  0
  150.9764  138.1115  155.3483 H   0  0  0  0  0  0  0  0  0  0  0  0
  149.8338  138.6563  156.5636 H   0  0  0  0  0  0  0  0  0  0  0  0
  148.6377  137.4549  154.7446 H   0  0  0  0  0  0  0  0  0  0  0  0
  149.3437  138.5066  153.5382 H   0  0  0  0  0  0  0  0  0  0  0  0
  146.2751  133.0086  151.7021 H   0  0  0  0  0  0  0  0  0  0  0  0
  1  2  1  0  0  0  0
  1 21  1  0  0  0  0
  1 22  1  0  0  0  0
  1 23  1  0  0  0  0
  2 20  2  0  0  0  0
  2  3  1  0  0  0  0
  3  4  2  0  0  0  0
  3 24  1  0  0  0  0
  4  5  1  0  0  0  0
  5  6  1  0  0  0  0
  5 20  1  0  0  0  0
  6  7  1  0  0  0  0
  6 25  1  0  0  0  0
  6 26  1  0  0  0  0
  7  8  1  0  0  0  0
  7  9  1  0  0  0  0
  7 27  1  0  0  0  0
  8 28  1  0  0  0  0
  8 29  1  0  0  0  0
  8 30  1  0  0  0  0
  9 10  1  0  0  0  0
  9 31  1  0  0  0  0
 10 11  1  0  0  0  0
 10 32  1  0  0  0  0
 10 33  1  0  0  0  0
 11 12  1  0  0  0  0
 11 13  1  0  0  0  0
 11 34  1  0  0  0  0
 12 35  1  0  0  0  0
 13 14  1  0  0  0  0
 13 36  1  0  0  0  0
 13 37  1  0  0  0  0
 14 19  1  0  0  0  0
 14 15  1  0  0  0  0
 15 16  1  0  0  0  0
 15 38  1  0  0  0  0
 15 39  1  0  0  0  0
 16 17  1  0  0  0  0
 16 40  1  0  0  0  0
 16 41  1  0  0  0  0
 17 18  1  0  0  0  0
 18 19  1  0  0  0  0
 18 42  1  0  0  0  0
 18 43  1  0  0  0  0
 19 44  1  0  0  0  0
 19 45  1  0  0  0  0
 20 46  1  0  0  0  0
M  END
> <s_m_source_file>
AV-unprocessed.smi

> <i_m_source_file_index>
3031

> <i_lp_mmshare_version>
43012

> <i_f3d_flags>
0

> <s_epik_input>
W0NIM11jMVtjSF1ubihbY0hdMSlbQ0gyXVtDQEhdKFtDSDNdKVtOSF1bQ0gyXVtDQEhdKFtPSF0pW0NIMl1OMltDSDJdW0NIMl1PW0NIMl1bQ0gyXTI=

> <s_epik_cmdline>
J2VwaWtfcHl0aG9uJywgJy1waCcsICc3LjAnLCAnLXRuJywgJzgnLCAnLW1hJywgJzIwMCcsICctbWV0YWxfYmluZGluZycsICctaW1hZScsICc8aW5maWxlLm1hZT4nLCAnLW9tYWUnLCAnPG91dGZpbGUubWFlPic=

> <r_lp_tautomer_probability>
1

> <r_epik_Ionization_Penalty>
2.8101

> <r_epik_Ionization_Penalty_Charging>
0

> <r_epik_Ionization_Penalty_Neutral>
2.8101

> <r_epik_State_Penalty>
2.12351

> <r_epik_Charging_Adjusted_Penalty>
2.12351

> <i_epik_Tot_Q>
0

> <i_epik_Tot_abs_Q>
0

> <r_epik_Metal_State_Penalty>
2.12345

> <b_epik_Metal_Only>
0

> <s_lp_Force_Field>
OPLS_2005

> <r_lp_Energy>
32.0321

> <b_lp_Chiralities_Consistent>
1

> <s_lp_Variant>
AV-unprocessed.smi:3031-15

> <Gold.Version>
5.8.1

> <Gold.Id.Protein>
6NUR|6NUR_protein|mol2

> <Gold.PLP.Fitness>
49.9041

> <Gold.PLP.PLP>
-40.7703

> <Gold.PLP.part.hbond>
-3.3956

> <Gold.PLP.part.metal>
0.0000

> <Gold.PLP.part.buried>
-2.1321

> <Gold.PLP.part.nonpolar>
-35.4238

> <Gold.PLP.part.repulsive>
0.3856

> <Gold.PLP.ligand.clash>
0.0000

> <Gold.PLP.ligand.torsion>
1.2397

> <Gold.PLP.Chemscore.Hbond>
2.8160

> <Gold.PLP.Chemscore.CHOScore>
1.0000

> <Gold.PLP.Chemscore.Metal>
0.0000

> <Gold.Chemscore.Hbonds>
donor molecule, donor type, donor heavy atom, donor atom, acceptor molecule, acceptor atom, score
      L1  H     9    31       P1  7948  0.96
      L1  H    12    35       P1  7957  0.90
      P1  H  7989  7998       L1    17  0.50
      L1  C     3    24       P1 10952  1.00

> <Gold.PLP.Chemscore.Internal.Correction>
0.1653

> <Gold.Rescore>
     Score         DG    S(hbond)    S(metal)    S(lipo)     H(rot)  DE(clash)    DE(int)     intcor
     16.63     -18.93       2.68        0.00      93.85       2.53       0.13       2.17       ----

> <Gold.Chemscore.Fitness>
16.6264

> <Gold.Chemscore.DG>
-18.9328

> <Gold.Chemscore.ZeroCoef>
-5.4800

> <Gold.Chemscore.Hbond>
2.6820

> <Gold.Chemscore.Metal>
0.0000

> <Gold.Chemscore.Lipo>
93.8470

> <Gold.Chemscore.Internal_Hbond>
0.0000

> <Gold.Chemscore.DEClash>
0.1343

> <Gold.Chemscore.DEInternal>
2.1721

> <Gold.Chemscore.Rot>
2.5333

> <Gold.Chemscore.Internal.Correction>
   9.000000E+99

> <Gold.Chemscore.Hbonds>
donor molecule, donor type, donor heavy atom, donor atom, acceptor molecule, acceptor atom, score
      L1  H     9    31       P1  7948  0.91
      L1  H    12    35       P1  7957  0.88
      P1  H  7989  7998       L1    17  0.20

> <Gold.Chemscore.Hbond.Weighted>
-8.9578

> <Gold.Chemscore.Metal.Weighted>
-0.0000

> <Gold.Chemscore.Lipo.Weighted>
-10.9801

> <Gold.Chemscore.Internal_Hbond.Weighted>
0.0000

> <Gold.Chemscore.DEClash.Weighted>
0.1343

> <Gold.Chemscore.DEInternal.Weighted>
2.1721

> <Gold.Chemscore.Rot.Weighted>
6.4852

> <Gold.Chemscore.Internal.Correction.Weighted>
   9.000000E+99

> <Gold.Protein.RotatedTorsions>
[ 6907 6896 6895 6894 ] final -165.75 input  -60.11 | X-H torsion
[ 7974 7965 7964 7962 ] final   26.94 input  175.53 | X-H torsion
[ 8008 7997 7996 7995 ] final -135.23 input   59.86 | X-H torsion
[ 10167 10162 10161 10158 ] final  -85.21 input  -65.29 | X-H torsion
[ 10718 10713 10712 10709 ] final  168.22 input   66.30 | X-H torsion
[ 10763 10752 10751 10750 ] final -159.48 input  -60.55 | X-H torsion
[ 11005 11000 10999 10996 ] final  133.35 input  -57.11 | X-H torsion

> <Gold.Protein.ActiveResidues>
 VAL166  LYS551  ARG553  GLY616  TRP617  ASP618  TYR619  PRO620  LYS621  CYS622 
 ASP623  PHE694  ASN695  SER759  ASP760  ASP761  ALA762  ILE779  LEU786  VAL792 
 PHE793  MET794  SER795  GLU796  ALA797  LYS798  CYS799  TRP800  GLU811  SER814 

> <Gold.Protein.RotatedAtoms>
  151.4326  133.3666  159.2770 H   0  0  0  0  0  0  0  0  0  0  0  0  # atno 6907 bound_to 6896
  150.9214  134.8633  159.7502 H   0  0  0  0  0  0  0  0  0  0  0  0  # atno 6908 bound_to 6896
  152.4983  134.4264  159.9549 H   0  0  0  0  0  0  0  0  0  0  0  0  # atno 6909 bound_to 6896
  146.1811  139.7259  142.8900 H   0  0  0  0  0  0  0  0  0  0  0  0  # atno 7974 bound_to 7965
  155.3753  140.0490  157.3045 H   0  0  0  0  0  0  0  0  0  0  0  0  # atno 8008 bound_to 7997
  154.5110  140.2191  155.9120 H   0  0  0  0  0  0  0  0  0  0  0  0  # atno 8009 bound_to 7997
  156.1582  140.3122  155.8767 H   0  0  0  0  0  0  0  0  0  0  0  0  # atno 8010 bound_to 7997
  140.4059  143.2643  151.9081 H   0  0  0  0  0  0  0  0  0  0  0  0  # atno 10167 bound_to 10162
  157.0402  131.0284  151.2716 H   0  0  0  0  0  0  0  0  0  0  0  0  # atno 10718 bound_to 10713
  154.7471  135.3083  154.8625 H   0  0  0  0  0  0  0  0  0  0  0  0  # atno 10763 bound_to 10752
  153.9422  135.6773  153.4748 H   0  0  0  0  0  0  0  0  0  0  0  0  # atno 10764 bound_to 10752
  153.1068  135.4885  154.8891 H   0  0  0  0  0  0  0  0  0  0  0  0  # atno 10765 bound_to 10752
  139.9846  134.9536  156.9712 H   0  0  0  0  0  0  0  0  0  0  0  0  # atno 11005 bound_to 11000
  145.4074  141.0392  143.3036 LP  0  0  0  0  0  0  0  0  0  0  0  0  # atno 17320 bound_to 7965
  144.8317  139.5618  143.6941 LP  0  0  0  0  0  0  0  0  0  0  0  0  # atno 17321 bound_to 7965
  139.4783  144.5586  151.8274 LP  0  0  0  0  0  0  0  0  0  0  0  0  # atno 17342 bound_to 10162
  140.4690  144.1614  150.5915 LP  0  0  0  0  0  0  0  0  0  0  0  0  # atno 17343 bound_to 10162
  157.5110  130.7939  149.7705 LP  0  0  0  0  0  0  0  0  0  0  0  0  # atno 17370 bound_to 10713
  156.0040  130.3865  150.2497 LP  0  0  0  0  0  0  0  0  0  0  0  0  # atno 17371 bound_to 10713
  140.5028  134.1080  155.7254 LP  0  0  0  0  0  0  0  0  0  0  0  0  # atno 17394 bound_to 11000
  141.1513  133.8963  157.2090 LP  0  0  0  0  0  0  0  0  0  0  0  0  # atno 17395 bound_to 11000

$$$$
