AV-unprocessed.smi:1123|AV-procd|sdf|4832|dock8
  -GOLD-   22720 3393D 1   1.00000     0.00000
 Structure written by MMmdl.
 38 39  0  0  0  0  0  0  0  0  2 V2000
  151.2600  137.7330  154.0695 C   0  0  0  0  0  0  0  0  0  0  0  0
  149.9424  138.3934  154.5239 C   0  0  1  0  0  0  0  0  0  0  0  0
  149.0386  137.4339  155.3148 C   0  0  0  0  0  0  0  0  0  0  0  0
  148.6450  137.7260  156.4447 O   0  0  0  0  0  0  0  0  0  0  0  0
  148.7141  136.2817  154.7059 N   0  0  0  0  0  0  0  0  0  0  0  0
  147.8488  135.2547  155.2736 C   0  0  0  0  0  0  0  0  0  0  0  0
  147.6480  134.0797  154.2974 C   0  0  0  0  0  0  0  0  0  0  0  0
  147.0337  134.5088  153.0165 N   0  3  0  0  0  0  0  0  0  0  0  0
  146.6396  133.3604  152.1658 C   0  0  0  0  0  0  0  0  0  0  0  0
  146.0525  133.8528  150.8321 C   0  0  0  0  0  0  0  0  0  0  0  0
  144.9454  134.7083  151.0853 O   0  0  0  0  0  0  0  0  0  0  0  0
  145.3240  135.8619  151.8255 C   0  0  0  0  0  0  0  0  0  0  0  0
  145.8893  135.4379  153.1918 C   0  0  0  0  0  0  0  0  0  0  0  0
  150.1743  139.6132  155.2877 N   0  0  0  0  0  0  0  0  0  0  0  0
  150.7565  139.7831  156.4769 C   0  0  0  0  0  0  0  0  0  0  0  0
  150.8427  141.0495  156.8590 N   0  0  0  0  0  0  0  0  0  0  0  0
  150.2623  141.6530  155.7798 C   0  0  0  0  0  0  0  0  0  0  0  0
  149.8540  140.8402  154.8057 N   0  0  0  0  0  0  0  0  0  0  0  0
  151.0669  136.8517  153.4568 H   0  0  0  0  0  0  0  0  0  0  0  0
  151.8751  137.4194  154.9139 H   0  0  0  0  0  0  0  0  0  0  0  0
  151.8532  138.4234  153.4693 H   0  0  0  0  0  0  0  0  0  0  0  0
  149.3993  138.6795  153.6215 H   0  0  0  0  0  0  0  0  0  0  0  0
  149.0765  136.1154  153.7782 H   0  0  0  0  0  0  0  0  0  0  0  0
  148.2686  134.9200  156.2227 H   0  0  0  0  0  0  0  0  0  0  0  0
  146.8870  135.7131  155.5053 H   0  0  0  0  0  0  0  0  0  0  0  0
  148.6251  133.6377  154.0959 H   0  0  0  0  0  0  0  0  0  0  0  0
  147.0416  133.2914  154.7465 H   0  0  0  0  0  0  0  0  0  0  0  0
  147.5065  132.7279  151.9713 H   0  0  0  0  0  0  0  0  0  0  0  0
  145.9066  132.7481  152.6937 H   0  0  0  0  0  0  0  0  0  0  0  0
  146.8065  134.3775  150.2433 H   0  0  0  0  0  0  0  0  0  0  0  0
  145.7146  133.0059  150.2347 H   0  0  0  0  0  0  0  0  0  0  0  0
  146.0556  136.4456  151.2643 H   0  0  0  0  0  0  0  0  0  0  0  0
  144.4482  136.4964  151.9620 H   0  0  0  0  0  0  0  0  0  0  0  0
  145.1097  134.9515  153.7803 H   0  0  0  0  0  0  0  0  0  0  0  0
  146.1972  136.3251  153.7437 H   0  0  0  0  0  0  0  0  0  0  0  0
  151.1291  138.9640  157.0741 H   0  0  0  0  0  0  0  0  0  0  0  0
  150.1433  142.7241  155.7068 H   0  0  0  0  0  0  0  0  0  0  0  0
  147.7471  135.0081  152.5046 H   0  0  0  0  0  0  0  0  0  0  0  0
  1  2  1  0  0  0  0
  1 19  1  0  0  0  0
  1 20  1  0  0  0  0
  1 21  1  0  0  0  0
  2  3  1  0  0  0  0
  2 14  1  0  0  0  0
  2 22  1  0  0  0  0
  3  4  2  0  0  0  0
  3  5  1  0  0  0  0
  5  6  1  0  0  0  0
  5 23  1  0  0  0  0
  6  7  1  0  0  0  0
  6 24  1  0  0  0  0
  6 25  1  0  0  0  0
  7  8  1  0  0  0  0
  7 26  1  0  0  0  0
  7 27  1  0  0  0  0
  8 13  1  0  0  0  0
  8  9  1  0  0  0  0
  8 38  1  0  0  0  0
  9 10  1  0  0  0  0
  9 28  1  0  0  0  0
  9 29  1  0  0  0  0
 10 11  1  0  0  0  0
 10 30  1  0  0  0  0
 10 31  1  0  0  0  0
 11 12  1  0  0  0  0
 12 13  1  0  0  0  0
 12 32  1  0  0  0  0
 12 33  1  0  0  0  0
 13 34  1  0  0  0  0
 13 35  1  0  0  0  0
 14 18  1  0  0  0  0
 14 15  1  0  0  0  0
 15 16  2  0  0  0  0
 15 36  1  0  0  0  0
 16 17  1  0  0  0  0
 17 18  2  0  0  0  0
 17 37  1  0  0  0  0
M  CHG  1   8   1
M  END
> <s_m_source_file>
AV-unprocessed.smi

> <i_m_source_file_index>
1123

> <i_lp_mmshare_version>
43012

> <i_f3d_flags>
0

> <s_epik_input>
bjFbY0hdbltjSF1uMVtDQEhdKFtDSDNdKUMoPU8pW05IXVtDSDJdW0NIMl1OMltDSDJdW0NIMl1PW0NIMl1bQ0gyXTI=

> <s_epik_cmdline>
J2VwaWtfcHl0aG9uJywgJy1waCcsICc3LjAnLCAnLXRuJywgJzgnLCAnLW1hJywgJzIwMCcsICctbWV0YWxfYmluZGluZycsICctaW1hZScsICc8aW5maWxlLm1hZT4nLCAnLW9tYWUnLCAnPG91dGZpbGUubWFlPic=

> <r_lp_tautomer_probability>
1

> <r_epik_Ionization_Penalty>
0.71326

> <r_epik_Ionization_Penalty_Charging>
0.713252

> <r_epik_Ionization_Penalty_Neutral>
7.98515e-06

> <r_epik_State_Penalty>
0.737017

> <r_epik_Charging_Adjusted_Penalty>
1.45027

> <i_epik_Tot_Q>
1

> <i_epik_Tot_abs_Q>
1

> <r_epik_Metal_State_Penalty>
0.73702

> <b_epik_Metal_Only>
0

> <s_lp_Force_Field>
OPLS_2005

> <r_lp_Energy>
21.0283

> <b_lp_Chiralities_Consistent>
1

> <s_lp_Variant>
AV-unprocessed.smi:1123-4

> <Gold.Version>
5.8.1

> <Gold.Id.Protein>
6NUR|6NUR_protein|mol2

> <Gold.PLP.Fitness>
38.1810

> <Gold.PLP.PLP>
-24.2833

> <Gold.PLP.part.hbond>
-3.0000

> <Gold.PLP.part.metal>
0.0000

> <Gold.PLP.part.buried>
-3.1389

> <Gold.PLP.part.nonpolar>
-18.2137

> <Gold.PLP.part.repulsive>
0.3699

> <Gold.PLP.ligand.clash>
0.0000

> <Gold.PLP.ligand.torsion>
0.1575

> <Gold.PLP.Chemscore.Hbond>
3.6960

> <Gold.PLP.Chemscore.CHOScore>
1.0000

> <Gold.PLP.Chemscore.Metal>
0.0000

> <Gold.Chemscore.Hbonds>
donor molecule, donor type, donor heavy atom, donor atom, acceptor molecule, acceptor atom, score
      L1  H     5    23       P1  7948  1.00
      L1  H     8    38       P1  7948  2.00
      P1  H  7989  7998       L1    18  0.28
      L1  C    17    37       P1  8028  1.00

> <Gold.PLP.Chemscore.Internal.Correction>
0.1246

> <Gold.Rescore>
     Score         DG    S(hbond)    S(metal)    S(lipo)     H(rot)  DE(clash)    DE(int)     intcor
      9.57      -9.91       1.98        0.00      40.21       2.69       0.13       0.21       ----

> <Gold.Chemscore.Fitness>
9.5712

> <Gold.Chemscore.DG>
-9.9070

> <Gold.Chemscore.ZeroCoef>
-5.4800

> <Gold.Chemscore.Hbond>
1.9798

> <Gold.Chemscore.Metal>
0.0000

> <Gold.Chemscore.Lipo>
40.2146

> <Gold.Chemscore.Internal_Hbond>
0.0000

> <Gold.Chemscore.DEClash>
0.1303

> <Gold.Chemscore.DEInternal>
0.2055

> <Gold.Chemscore.Rot>
2.6916

> <Gold.Chemscore.Internal.Correction>
   9.000000E+99

> <Gold.Chemscore.Hbonds>
donor molecule, donor type, donor heavy atom, donor atom, acceptor molecule, acceptor atom, score
      L1  H     5    23       P1  7948  0.93
      L1  H     8    38       P1  7948  0.96
      P1  H  7989  7998       L1    18  0.01

> <Gold.Chemscore.Hbond.Weighted>
-6.6125

> <Gold.Chemscore.Metal.Weighted>
-0.0000

> <Gold.Chemscore.Lipo.Weighted>
-4.7051

> <Gold.Chemscore.Internal_Hbond.Weighted>
0.0000

> <Gold.Chemscore.DEClash.Weighted>
0.1303

> <Gold.Chemscore.DEInternal.Weighted>
0.2055

> <Gold.Chemscore.Rot.Weighted>
6.8906

> <Gold.Chemscore.Internal.Correction.Weighted>
   9.000000E+99

> <Gold.Protein.RotatedTorsions>
[ 6907 6896 6895 6894 ] final   64.98 input  -60.11 | X-H torsion
[ 7974 7965 7964 7962 ] final  -10.71 input  175.53 | X-H torsion
[ 8008 7997 7996 7995 ] final  151.95 input   59.86 | X-H torsion
[ 10167 10162 10161 10158 ] final -155.51 input  -65.29 | X-H torsion
[ 10718 10713 10712 10709 ] final  128.75 input   66.30 | X-H torsion
[ 10763 10752 10751 10750 ] final  178.74 input  -60.55 | X-H torsion
[ 11005 11000 10999 10996 ] final   40.73 input  -57.11 | X-H torsion

> <Gold.Protein.ActiveResidues>
 VAL166  LYS551  ARG553  GLY616  TRP617  ASP618  TYR619  PRO620  LYS621  CYS622 
 ASP623  PHE694  ASN695  SER759  ASP760  ASP761  ALA762  ILE779  LEU786  VAL792 
 PHE793  MET794  SER795  GLU796  ALA797  LYS798  CYS799  TRP800  GLU811  SER814 

> <Gold.Protein.RotatedAtoms>
  152.4373  134.5662  159.9907 H   0  0  0  0  0  0  0  0  0  0  0  0  # atno 6907 bound_to 6896
  151.5768  133.3377  159.3008 H   0  0  0  0  0  0  0  0  0  0  0  0  # atno 6908 bound_to 6896
  150.8273  134.7544  159.6888 H   0  0  0  0  0  0  0  0  0  0  0  0  # atno 6909 bound_to 6896
  146.2212  140.2804  142.8362 H   0  0  0  0  0  0  0  0  0  0  0  0  # atno 7974 bound_to 7965
  156.2651  140.2034  156.6256 H   0  0  0  0  0  0  0  0  0  0  0  0  # atno 8008 bound_to 7997
  154.6722  140.0549  157.0202 H   0  0  0  0  0  0  0  0  0  0  0  0  # atno 8009 bound_to 7997
  155.1120  140.3216  155.4522 H   0  0  0  0  0  0  0  0  0  0  0  0  # atno 8010 bound_to 7997
  139.6926  143.9396  152.2392 H   0  0  0  0  0  0  0  0  0  0  0  0  # atno 10167 bound_to 10162
  157.5217  131.1098  150.9144 H   0  0  0  0  0  0  0  0  0  0  0  0  # atno 10718 bound_to 10713
  154.5116  135.2789  155.1338 H   0  0  0  0  0  0  0  0  0  0  0  0  # atno 10763 bound_to 10752
  154.2931  135.6263  153.5397 H   0  0  0  0  0  0  0  0  0  0  0  0  # atno 10764 bound_to 10752
  152.9920  135.5679  154.5582 H   0  0  0  0  0  0  0  0  0  0  0  0  # atno 10765 bound_to 10752
  140.1902  134.3996  155.8151 H   0  0  0  0  0  0  0  0  0  0  0  0  # atno 11005 bound_to 11000
  144.9201  140.7858  143.5753 LP  0  0  0  0  0  0  0  0  0  0  0  0  # atno 17320 bound_to 7965
  145.2740  139.1943  143.4826 LP  0  0  0  0  0  0  0  0  0  0  0  0  # atno 17321 bound_to 7965
  139.9216  144.6796  150.8455 LP  0  0  0  0  0  0  0  0  0  0  0  0  # atno 17342 bound_to 10162
  140.7687  143.3371  151.2286 LP  0  0  0  0  0  0  0  0  0  0  0  0  # atno 17343 bound_to 10162
  156.9753  130.5506  149.5293 LP  0  0  0  0  0  0  0  0  0  0  0  0  # atno 17370 bound_to 10713
  156.0358  130.5445  150.8649 LP  0  0  0  0  0  0  0  0  0  0  0  0  # atno 17371 bound_to 10713
  141.2226  133.7043  156.8082 LP  0  0  0  0  0  0  0  0  0  0  0  0  # atno 17394 bound_to 11000
  140.2168  134.8786  157.3334 LP  0  0  0  0  0  0  0  0  0  0  0  0  # atno 17395 bound_to 11000

$$$$
