AV-unprocessed.smi:670|AV-procd|sdf|3269|dock2
  -GOLD-   22720 0223D 1   1.00000     0.00000
 Structure written by MMmdl.
 45 46  0  0  0  0  0  0  0  0  1 V2000
  151.4215  145.4525  160.0366 C   0  0  0  0  0  0  0  0  0  0  0  0
  151.8085  143.9961  160.3412 C   0  0  2  0  0  0  0  0  0  0  0  0
  152.5476  143.9013  161.6912 C   0  0  0  0  0  0  0  0  0  0  0  0
  152.9471  142.4553  162.0215 C   0  0  0  0  0  0  0  0  0  0  0  0
  153.7983  141.8503  160.8970 C   0  0  0  0  0  0  0  0  0  0  0  0
  153.0674  141.9295  159.5487 C   0  0  0  0  0  0  0  0  0  0  0  0
  152.6585  143.3788  159.2071 C   0  0  1  0  0  0  0  0  0  0  0  0
  151.8693  143.3897  158.0246 O   0  0  0  0  0  0  0  0  0  0  0  0
  150.8632  142.3891  157.9667 C   0  0  0  0  0  0  0  0  0  0  0  0
  150.8843  141.7313  156.5799 C   0  0  0  0  0  0  0  0  0  0  0  0
  149.5419  141.6298  156.0170 N   0  0  0  0  0  0  0  0  0  0  0  0
  149.2375  141.0608  154.8406 C   0  0  0  0  0  0  0  0  0  0  0  0
  150.0784  140.5492  154.0999 O   0  0  0  0  0  0  0  0  0  0  0  0
  147.7565  141.1021  154.4368 C   0  0  0  0  0  0  0  0  0  0  0  0
  146.9082  141.8068  155.4090 N   0  0  0  0  0  0  0  0  0  0  0  0
  146.9273  141.2571  156.6821 N   0  0  0  0  0  0  0  0  0  0  0  0
  146.2363  141.7975  157.6282 C   0  0  0  0  0  0  0  0  0  0  0  0
  146.2861  141.2238  158.8752 O   0  0  0  0  0  0  0  0  0  0  0  0
  145.4294  142.9739  157.3879 C   0  0  0  0  0  0  0  0  0  0  0  0
  145.4120  143.4980  156.1428 C   0  0  0  0  0  0  0  0  0  0  0  0
  146.1845  142.9105  155.0466 C   0  0  0  0  0  0  0  0  0  0  0  0
  146.1854  143.3659  153.9030 O   0  0  0  0  0  0  0  0  0  0  0  0
  145.5235  140.6687  158.9275 H   0  0  0  0  0  0  0  0  0  0  0  0
  152.3045  146.0813  159.9203 H   0  0  0  0  0  0  0  0  0  0  0  0
  150.8157  145.8737  160.8394 H   0  0  0  0  0  0  0  0  0  0  0  0
  150.8383  145.5248  159.1181 H   0  0  0  0  0  0  0  0  0  0  0  0
  150.8857  143.4196  160.4245 H   0  0  0  0  0  0  0  0  0  0  0  0
  153.4408  144.5271  161.6671 H   0  0  0  0  0  0  0  0  0  0  0  0
  151.9177  144.2947  162.4898 H   0  0  0  0  0  0  0  0  0  0  0  0
  153.4978  142.4269  162.9620 H   0  0  0  0  0  0  0  0  0  0  0  0
  152.0507  141.8517  162.1688 H   0  0  0  0  0  0  0  0  0  0  0  0
  154.7488  142.3812  160.8301 H   0  0  0  0  0  0  0  0  0  0  0  0
  154.0384  140.8127  161.1297 H   0  0  0  0  0  0  0  0  0  0  0  0
  153.7102  141.5164  158.7721 H   0  0  0  0  0  0  0  0  0  0  0  0
  152.1784  141.2981  159.5803 H   0  0  0  0  0  0  0  0  0  0  0  0
  153.5517  143.9913  159.0688 H   0  0  0  0  0  0  0  0  0  0  0  0
  151.0589  141.6340  158.7292 H   0  0  0  0  0  0  0  0  0  0  0  0
  149.8758  142.8052  158.1667 H   0  0  0  0  0  0  0  0  0  0  0  0
  151.5544  142.2707  155.9082 H   0  0  0  0  0  0  0  0  0  0  0  0
  151.2830  140.7205  156.6650 H   0  0  0  0  0  0  0  0  0  0  0  0
  148.7896  142.0301  156.5582 H   0  0  0  0  0  0  0  0  0  0  0  0
  147.6569  141.5630  153.4522 H   0  0  0  0  0  0  0  0  0  0  0  0
  147.4133  140.0732  154.3137 H   0  0  0  0  0  0  0  0  0  0  0  0
  144.8567  143.4155  158.1902 H   0  0  0  0  0  0  0  0  0  0  0  0
  144.8132  144.3757  155.9487 H   0  0  0  0  0  0  0  0  0  0  0  0
  1  2  1  0  0  0  0
  1 24  1  0  0  0  0
  1 25  1  0  0  0  0
  1 26  1  0  0  0  0
  2  7  1  0  0  0  0
  2  3  1  0  0  0  0
  2 27  1  0  0  0  0
  3  4  1  0  0  0  0
  3 28  1  0  0  0  0
  3 29  1  0  0  0  0
  4  5  1  0  0  0  0
  4 30  1  0  0  0  0
  4 31  1  0  0  0  0
  5  6  1  0  0  0  0
  5 32  1  0  0  0  0
  5 33  1  0  0  0  0
  6  7  1  0  0  0  0
  6 34  1  0  0  0  0
  6 35  1  0  0  0  0
  7  8  1  0  0  0  0
  7 36  1  0  0  0  0
  8  9  1  0  0  0  0
  9 10  1  0  0  0  0
  9 37  1  0  0  0  0
  9 38  1  0  0  0  0
 10 11  1  0  0  0  0
 10 39  1  0  0  0  0
 10 40  1  0  0  0  0
 11 12  1  0  0  0  0
 11 41  1  0  0  0  0
 12 13  2  0  0  0  0
 12 14  1  0  0  0  0
 14 42  1  0  0  0  0
 14 43  1  0  0  0  0
 14 15  1  0  0  0  0
 15 16  1  0  0  0  0
 15 21  1  0  0  0  0
 16 17  2  0  0  0  0
 17 18  1  0  0  0  0
 17 19  1  0  0  0  0
 18 23  1  0  0  0  0
 19 44  1  0  0  0  0
 19 20  2  0  0  0  0
 20 45  1  0  0  0  0
 20 21  1  0  0  0  0
 21 22  2  0  0  0  0
M  END
> <s_m_source_file>
AV-unprocessed.smi

> <i_m_source_file_index>
670

> <i_lp_mmshare_version>
43012

> <i_f3d_flags>
0

> <s_epik_input>
W0NIM11bQ0BASF0xW0NIMl1bQ0gyXVtDSDJdW0NIMl1bQ0BIXTFPW0NIMl1bQ0gyXVtOSF1DKD1PKVtDSDJdbjJbbkhdYyg9TylbY0hdW2NIXWMyPU8=

> <s_epik_cmdline>
J2VwaWtfcHl0aG9uJywgJy1waCcsICc3LjAnLCAnLXRuJywgJzgnLCAnLW1hJywgJzIwMCcsICctbWV0YWxfYmluZGluZycsICctaW1hZScsICc8aW5maWxlLm1hZT4nLCAnLW9tYWUnLCAnPG91dGZpbGUubWFlPic=

> <r_lp_tautomer_probability>
0.9996

> <r_epik_Ionization_Penalty>
2.12726

> <r_epik_Ionization_Penalty_Charging>
3.83395e-08

> <r_epik_Ionization_Penalty_Neutral>
2.12726

> <r_epik_State_Penalty>
1.70432

> <r_epik_Charging_Adjusted_Penalty>
1.70432

> <i_epik_Tot_Q>
0

> <i_epik_Tot_abs_Q>
0

> <r_epik_Metal_State_Penalty>
1.70432

> <b_epik_Metal_Only>
0

> <s_lp_Force_Field>
OPLS_2005

> <r_lp_Energy>
21.1157

> <b_lp_Chiralities_Consistent>
1

> <s_lp_Variant>
AV-unprocessed.smi:670-5

> <Gold.Version>
5.8.1

> <Gold.Id.Protein>
6NUR|6NUR_protein|mol2

> <Gold.PLP.Fitness>
51.3755

> <Gold.PLP.PLP>
-49.1671

> <Gold.PLP.part.hbond>
-2.9167

> <Gold.PLP.part.metal>
0.0000

> <Gold.PLP.part.buried>
-7.7433

> <Gold.PLP.part.nonpolar>
-39.4640

> <Gold.PLP.part.repulsive>
1.0881

> <Gold.PLP.ligand.clash>
0.0000

> <Gold.PLP.ligand.torsion>
0.7860

> <Gold.PLP.Chemscore.Hbond>
1.2503

> <Gold.PLP.Chemscore.CHOScore>
0.0000

> <Gold.PLP.Chemscore.Metal>
0.0000

> <Gold.Chemscore.Hbonds>
donor molecule, donor type, donor heavy atom, donor atom, acceptor molecule, acceptor atom, score
      P1  H  6934  6946       L1    18  0.44
      P1  H  7989  7998       L1    13  0.75

> <Gold.PLP.Chemscore.Internal.Correction>
0.0295

> <Gold.Rescore>
     Score         DG    S(hbond)    S(metal)    S(lipo)     H(rot)  DE(clash)    DE(int)     intcor
     12.46     -14.70       1.38        0.00     107.08       3.09       0.06       2.19       ----

> <Gold.Chemscore.Fitness>
12.4560

> <Gold.Chemscore.DG>
-14.6982

> <Gold.Chemscore.ZeroCoef>
-5.4800

> <Gold.Chemscore.Hbond>
1.3776

> <Gold.Chemscore.Metal>
0.0000

> <Gold.Chemscore.Lipo>
107.0752

> <Gold.Chemscore.Internal_Hbond>
0.0000

> <Gold.Chemscore.DEClash>
0.0565

> <Gold.Chemscore.DEInternal>
2.1858

> <Gold.Chemscore.Rot>
3.0901

> <Gold.Chemscore.Internal.Correction>
   9.000000E+99

> <Gold.Chemscore.Hbonds>
donor molecule, donor type, donor heavy atom, donor atom, acceptor molecule, acceptor atom, score
      P1  H  6934  6946       L1    18  0.06
      P1  H  7989  7998       L1    13  0.76

> <Gold.Chemscore.Hbond.Weighted>
-4.6010

> <Gold.Chemscore.Metal.Weighted>
-0.0000

> <Gold.Chemscore.Lipo.Weighted>
-12.5278

> <Gold.Chemscore.Internal_Hbond.Weighted>
0.0000

> <Gold.Chemscore.DEClash.Weighted>
0.0565

> <Gold.Chemscore.DEInternal.Weighted>
2.1858

> <Gold.Chemscore.Rot.Weighted>
7.9106

> <Gold.Chemscore.Internal.Correction.Weighted>
   9.000000E+99

> <Gold.Protein.RotatedTorsions>
[ 6907 6896 6895 6894 ] final    9.38 input  -60.11 | X-H torsion
[ 7974 7965 7964 7962 ] final -117.88 input  175.53 | X-H torsion
[ 8008 7997 7996 7995 ] final -122.06 input   59.86 | X-H torsion
[ 10167 10162 10161 10158 ] final   28.38 input  -65.29 | X-H torsion
[ 10718 10713 10712 10709 ] final -119.59 input   66.30 | X-H torsion
[ 10763 10752 10751 10750 ] final -174.93 input  -60.55 | X-H torsion
[ 11005 11000 10999 10996 ] final   51.08 input  -57.11 | X-H torsion

> <Gold.Protein.ActiveResidues>
 VAL166  LYS551  ARG553  GLY616  TRP617  ASP618  TYR619  PRO620  LYS621  CYS622 
 ASP623  PHE694  ASN695  SER759  ASP760  ASP761  ALA762  ILE779  LEU786  VAL792 
 PHE793  MET794  SER795  GLU796  ALA797  LYS798  CYS799  TRP800  GLU811  SER814 

> <Gold.Protein.RotatedAtoms>
  151.7212  135.0894  160.0284 H   0  0  0  0  0  0  0  0  0  0  0  0  # atno 6907 bound_to 6896
  152.3601  133.6281  159.6017 H   0  0  0  0  0  0  0  0  0  0  0  0  # atno 6908 bound_to 6896
  150.7598  133.9354  159.3481 H   0  0  0  0  0  0  0  0  0  0  0  0  # atno 6909 bound_to 6896
  145.0802  140.8420  143.4044 H   0  0  0  0  0  0  0  0  0  0  0  0  # atno 7974 bound_to 7965
  155.1581  140.0405  157.2836 H   0  0  0  0  0  0  0  0  0  0  0  0  # atno 8008 bound_to 7997
  154.6356  140.2534  155.7355 H   0  0  0  0  0  0  0  0  0  0  0  0  # atno 8009 bound_to 7997
  156.2507  140.2866  156.0727 H   0  0  0  0  0  0  0  0  0  0  0  0  # atno 8010 bound_to 7997
  140.4858  144.0545  150.6280 H   0  0  0  0  0  0  0  0  0  0  0  0  # atno 10167 bound_to 10162
  156.1192  130.6310  150.9435 H   0  0  0  0  0  0  0  0  0  0  0  0  # atno 10718 bound_to 10713
  154.5905  135.2844  155.0641 H   0  0  0  0  0  0  0  0  0  0  0  0  # atno 10763 bound_to 10752
  154.1943  135.6435  153.5072 H   0  0  0  0  0  0  0  0  0  0  0  0  # atno 10764 bound_to 10752
  153.0119  135.5454  154.6589 H   0  0  0  0  0  0  0  0  0  0  0  0  # atno 10765 bound_to 10752
  140.0963  134.5141  155.8804 H   0  0  0  0  0  0  0  0  0  0  0  0  # atno 11005 bound_to 11000
  145.1188  139.2707  143.5599 LP  0  0  0  0  0  0  0  0  0  0  0  0  # atno 17320 bound_to 7965
  146.3531  140.0805  142.8618 LP  0  0  0  0  0  0  0  0  0  0  0  0  # atno 17321 bound_to 7965
  140.3800  143.2808  152.0181 LP  0  0  0  0  0  0  0  0  0  0  0  0  # atno 17342 bound_to 10162
  139.4841  144.6162  151.7341 LP  0  0  0  0  0  0  0  0  0  0  0  0  # atno 17343 bound_to 10162
  157.6376  131.0914  150.8317 LP  0  0  0  0  0  0  0  0  0  0  0  0  # atno 17370 bound_to 10713
  156.8416  130.5050  149.5320 LP  0  0  0  0  0  0  0  0  0  0  0  0  # atno 17371 bound_to 10713
  141.2093  133.6682  156.6429 LP  0  0  0  0  0  0  0  0  0  0  0  0  # atno 17394 bound_to 11000
  140.3282  134.7951  157.4305 LP  0  0  0  0  0  0  0  0  0  0  0  0  # atno 17395 bound_to 11000

$$$$
