AV-unprocessed.smi:1987|AV-procd|sdf|8054|dock3
  -GOLD-   2272010253D 1   1.00000     0.00000
 Structure written by MMmdl.
 37 39  0  0  0  0  0  0  0  0  2 V2000
  148.8835  140.7153  156.6339 O   0  0  0  0  0  0  0  0  0  0  0  0
  149.9144  140.7639  155.9640 C   0  0  0  0  0  0  0  0  0  0  0  0
  149.9661  140.1105  154.5842 C   0  0  0  0  0  0  0  0  0  0  0  0
  150.9752  139.0674  154.5703 N   0  0  0  0  0  0  0  0  0  0  0  0
  150.9203  137.8008  154.1534 C   0  0  0  0  0  0  0  0  0  0  0  0
  152.0601  137.1640  154.3755 N   0  0  0  0  0  0  0  0  0  0  0  0
  152.8541  138.1337  154.9647 N   0  0  0  0  0  0  0  0  0  0  0  0
  152.2161  139.2652  155.0830 N   0  0  0  0  0  0  0  0  0  0  0  0
  151.0549  141.3224  156.3966 N   0  0  0  0  0  0  0  0  0  0  0  0
  151.2996  141.7886  157.7558 C   0  0  0  0  0  0  0  0  0  0  0  0
  150.6165  143.1468  158.0155 C   0  0  2  0  0  0  0  0  0  0  0  0
  151.3752  144.0630  158.9730 C   0  0  0  0  0  0  0  0  0  0  0  0
  150.3042  145.0256  159.5046 C   0  0  0  0  0  0  0  0  0  0  0  0
  148.9888  144.4018  159.2271 N   0  3  2  0  0  0  0  0  0  0  0  0
  148.0514  144.4160  160.3697 C   0  0  0  0  0  0  0  0  0  0  0  0
  147.1815  145.6495  160.4182 C   0  0  0  0  0  0  0  0  0  0  0  0
  148.3428  145.5013  161.3779 C   0  0  0  0  0  0  0  0  0  0  0  0
  149.2406  143.0555  158.6783 C   0  0  0  0  0  0  0  0  0  0  0  0
  148.9988  139.6711  154.3372 H   0  0  0  0  0  0  0  0  0  0  0  0
  150.1953  140.8523  153.8176 H   0  0  0  0  0  0  0  0  0  0  0  0
  150.0480  137.3448  153.7089 H   0  0  0  0  0  0  0  0  0  0  0  0
  151.8429  141.3326  155.7645 H   0  0  0  0  0  0  0  0  0  0  0  0
  150.9109  141.0347  158.4410 H   0  0  0  0  0  0  0  0  0  0  0  0
  152.3726  141.8565  157.9432 H   0  0  0  0  0  0  0  0  0  0  0  0
  150.5003  143.6752  157.0676 H   0  0  0  0  0  0  0  0  0  0  0  0
  151.7838  143.4823  159.8015 H   0  0  0  0  0  0  0  0  0  0  0  0
  152.2043  144.5818  158.4905 H   0  0  0  0  0  0  0  0  0  0  0  0
  150.4515  145.2220  160.5678 H   0  0  0  0  0  0  0  0  0  0  0  0
  150.3477  145.9824  158.9836 H   0  0  0  0  0  0  0  0  0  0  0  0
  147.6604  143.4516  160.6901 H   0  0  0  0  0  0  0  0  0  0  0  0
  147.2792  146.3811  159.6177 H   0  0  0  0  0  0  0  0  0  0  0  0
  146.1792  145.5412  160.8281 H   0  0  0  0  0  0  0  0  0  0  0  0
  148.1049  145.2951  162.4196 H   0  0  0  0  0  0  0  0  0  0  0  0
  149.2135  146.1342  161.2162 H   0  0  0  0  0  0  0  0  0  0  0  0
  148.4553  142.7616  157.9809 H   0  0  0  0  0  0  0  0  0  0  0  0
  149.2645  142.3242  159.4883 H   0  0  0  0  0  0  0  0  0  0  0  0
  148.5702  144.9417  158.4830 H   0  0  0  0  0  0  0  0  0  0  0  0
  1  2  2  0  0  0  0
  2  3  1  0  0  0  0
  2  9  1  0  0  0  0
  3  4  1  0  0  0  0
  3 19  1  0  0  0  0
  3 20  1  0  0  0  0
  4  8  1  0  0  0  0
  4  5  1  0  0  0  0
  5  6  2  0  0  0  0
  5 21  1  0  0  0  0
  6  7  1  0  0  0  0
  7  8  2  0  0  0  0
  9 10  1  0  0  0  0
  9 22  1  0  0  0  0
 10 11  1  0  0  0  0
 10 23  1  0  0  0  0
 10 24  1  0  0  0  0
 11 18  1  0  0  0  0
 11 12  1  0  0  0  0
 11 25  1  0  0  0  0
 12 13  1  0  0  0  0
 12 26  1  0  0  0  0
 12 27  1  0  0  0  0
 13 14  1  0  0  0  0
 13 28  1  0  0  0  0
 13 29  1  0  0  0  0
 14 15  1  0  0  0  0
 14 18  1  0  0  0  0
 14 37  1  0  0  0  0
 15 17  1  0  0  0  0
 15 16  1  0  0  0  0
 15 30  1  0  0  0  0
 16 17  1  0  0  0  0
 16 31  1  0  0  0  0
 16 32  1  0  0  0  0
 17 33  1  0  0  0  0
 17 34  1  0  0  0  0
 18 35  1  0  0  0  0
 18 36  1  0  0  0  0
M  CHG  1  14   1
M  END
> <s_m_source_file>
AV-unprocessed.smi

> <i_m_source_file_index>
1987

> <i_lp_mmshare_version>
43012

> <i_f3d_flags>
0

> <s_epik_input>
bjFubltjSF1uMVtDSDJdQyg9TylbTkhdW0NIMl1bQ0BASF0yW0NIMl1bQ0gyXU4oW0NIMl0yKVtDSF0zW0NIMl1bQ0gyXTM=

> <s_epik_cmdline>
J2VwaWtfcHl0aG9uJywgJy1waCcsICc3LjAnLCAnLXRuJywgJzgnLCAnLW1hJywgJzIwMCcsICctbWV0YWxfYmluZGluZycsICctaW1hZScsICc8aW5maWxlLm1hZT4nLCAnLW9tYWUnLCAnPG91dGZpbGUubWFlPic=

> <r_lp_tautomer_probability>
1

> <r_epik_Ionization_Penalty>
0.000242849

> <r_epik_Ionization_Penalty_Charging>
0.000241326

> <r_epik_Ionization_Penalty_Neutral>
1.52322e-06

> <r_epik_State_Penalty>
-0

> <r_epik_Charging_Adjusted_Penalty>
0.000241326

> <i_epik_Tot_Q>
1

> <i_epik_Tot_abs_Q>
1

> <r_epik_Metal_State_Penalty>
-0

> <b_epik_Metal_Only>
0

> <s_lp_Force_Field>
OPLS_2005

> <r_lp_Energy>
37.5939

> <b_lp_Chiralities_Consistent>
1

> <s_lp_Variant>
AV-unprocessed.smi:1987-1

> <Gold.Version>
5.8.1

> <Gold.Id.Protein>
6NUR|6NUR_protein|mol2

> <Gold.PLP.Fitness>
43.1954

> <Gold.PLP.PLP>
-33.2179

> <Gold.PLP.part.hbond>
-3.1442

> <Gold.PLP.part.metal>
0.0000

> <Gold.PLP.part.buried>
-3.5599

> <Gold.PLP.part.nonpolar>
-27.1427

> <Gold.PLP.part.repulsive>
0.4752

> <Gold.PLP.ligand.clash>
0.0000

> <Gold.PLP.ligand.torsion>
1.5836

> <Gold.PLP.Chemscore.Hbond>
2.9120

> <Gold.PLP.Chemscore.CHOScore>
1.0390

> <Gold.PLP.Chemscore.Metal>
0.0000

> <Gold.Chemscore.Hbonds>
donor molecule, donor type, donor heavy atom, donor atom, acceptor molecule, acceptor atom, score
      L1  H    14    37       P1  8029  2.00
      P1  H 10752 10765       L1     6  0.96
      L1  C     5    21       P1  7948  1.00
      L1  C     5    21       P1  7949  0.01

> <Gold.PLP.Chemscore.Internal.Correction>
1.2917

> <Gold.Rescore>
     Score         DG    S(hbond)    S(metal)    S(lipo)     H(rot)  DE(clash)    DE(int)     intcor
     10.34     -12.00       1.82        0.00      61.31       2.62       0.02       1.64       ----

> <Gold.Chemscore.Fitness>
10.3388

> <Gold.Chemscore.DG>
-12.0038

> <Gold.Chemscore.ZeroCoef>
-5.4800

> <Gold.Chemscore.Hbond>
1.8172

> <Gold.Chemscore.Metal>
0.0000

> <Gold.Chemscore.Lipo>
61.3082

> <Gold.Chemscore.Internal_Hbond>
0.0000

> <Gold.Chemscore.DEClash>
0.0240

> <Gold.Chemscore.DEInternal>
1.6409

> <Gold.Chemscore.Rot>
2.6244

> <Gold.Chemscore.Internal.Correction>
   9.000000E+99

> <Gold.Chemscore.Hbonds>
donor molecule, donor type, donor heavy atom, donor atom, acceptor molecule, acceptor atom, score
      L1  H    14    37       P1  8029  0.96
      P1  H 10752 10765       L1     6  0.65

> <Gold.Chemscore.Hbond.Weighted>
-6.0693

> <Gold.Chemscore.Metal.Weighted>
-0.0000

> <Gold.Chemscore.Lipo.Weighted>
-7.1731

> <Gold.Chemscore.Internal_Hbond.Weighted>
0.0000

> <Gold.Chemscore.DEClash.Weighted>
0.0240

> <Gold.Chemscore.DEInternal.Weighted>
1.6409

> <Gold.Chemscore.Rot.Weighted>
6.7186

> <Gold.Chemscore.Internal.Correction.Weighted>
   9.000000E+99

> <Gold.Protein.RotatedTorsions>
[ 6907 6896 6895 6894 ] final   94.63 input  -60.11 | X-H torsion
[ 7974 7965 7964 7962 ] final  -90.88 input  175.53 | X-H torsion
[ 8008 7997 7996 7995 ] final -168.55 input   59.86 | X-H torsion
[ 10167 10162 10161 10158 ] final   78.61 input  -65.29 | X-H torsion
[ 10718 10713 10712 10709 ] final  -42.71 input   66.30 | X-H torsion
[ 10763 10752 10751 10750 ] final  161.92 input  -60.55 | X-H torsion
[ 11005 11000 10999 10996 ] final   33.67 input  -57.11 | X-H torsion

> <Gold.Protein.ActiveResidues>
 VAL166  LYS551  ARG553  GLY616  TRP617  ASP618  TYR619  PRO620  LYS621  CYS622 
 ASP623  PHE694  ASN695  SER759  ASP760  ASP761  ALA762  ILE779  LEU786  VAL792 
 PHE793  MET794  SER795  GLU796  ALA797  LYS798  CYS799  TRP800  GLU811  SER814 

> <Gold.Protein.RotatedAtoms>
  152.5448  134.1163  159.8379 H   0  0  0  0  0  0  0  0  0  0  0  0  # atno 6907 bound_to 6896
  151.1224  133.5087  159.2609 H   0  0  0  0  0  0  0  0  0  0  0  0  # atno 6908 bound_to 6896
  151.1764  135.0351  159.8828 H   0  0  0  0  0  0  0  0  0  0  0  0  # atno 6909 bound_to 6896
  145.4205  140.9551  143.2183 H   0  0  0  0  0  0  0  0  0  0  0  0  # atno 7974 bound_to 7965
  155.8930  140.1028  157.1405 H   0  0  0  0  0  0  0  0  0  0  0  0  # atno 8008 bound_to 7997
  154.4017  140.1307  156.4403 H   0  0  0  0  0  0  0  0  0  0  0  0  # atno 8009 bound_to 7997
  155.7512  140.3465  155.5153 H   0  0  0  0  0  0  0  0  0  0  0  0  # atno 8010 bound_to 7997
  139.9691  144.5907  150.8002 H   0  0  0  0  0  0  0  0  0  0  0  0  # atno 10167 bound_to 10162
  156.2567  130.4193  149.8589 H   0  0  0  0  0  0  0  0  0  0  0  0  # atno 10718 bound_to 10713
  154.2705  135.2766  155.2740 H   0  0  0  0  0  0  0  0  0  0  0  0  # atno 10763 bound_to 10752
  154.5306  135.5731  153.6759 H   0  0  0  0  0  0  0  0  0  0  0  0  # atno 10764 bound_to 10752
  152.9946  135.6227  154.2859 H   0  0  0  0  0  0  0  0  0  0  0  0  # atno 10765 bound_to 10752
  140.2607  134.3195  155.7858 H   0  0  0  0  0  0  0  0  0  0  0  0  # atno 11005 bound_to 11000
  144.8248  139.5729  143.6970 LP  0  0  0  0  0  0  0  0  0  0  0  0  # atno 17320 bound_to 7965
  146.2659  139.6518  142.9330 LP  0  0  0  0  0  0  0  0  0  0  0  0  # atno 17321 bound_to 7965
  140.7528  143.2997  151.3113 LP  0  0  0  0  0  0  0  0  0  0  0  0  # atno 17342 bound_to 10162
  139.6495  144.0389  152.2616 LP  0  0  0  0  0  0  0  0  0  0  0  0  # atno 17343 bound_to 10162
  156.6118  130.8590  151.3456 LP  0  0  0  0  0  0  0  0  0  0  0  0  # atno 17370 bound_to 10713
  157.7235  130.9590  150.1536 LP  0  0  0  0  0  0  0  0  0  0  0  0  # atno 17371 bound_to 10713
  141.2190  133.7408  156.9183 LP  0  0  0  0  0  0  0  0  0  0  0  0  # atno 17394 bound_to 11000
  140.1467  134.9257  157.2539 LP  0  0  0  0  0  0  0  0  0  0  0  0  # atno 17395 bound_to 11000

$$$$
