AV-unprocessed.smi:2923|AV-procd|sdf|11215|dock4
  -GOLD-   2272016103D 1   1.00000     0.00000
 Structure written by MMmdl.
 46 48  0  0  0  0  0  0  0  0  1 V2000
  145.7179  132.1803  151.6350 C   0  0  0  0  0  0  0  0  0  0  0  0
  144.7737  132.9412  150.8258 N   0  0  0  0  0  0  0  0  0  0  0  0
  144.3722  132.4413  149.5149 C   0  0  0  0  0  0  0  0  0  0  0  0
  144.1874  134.1213  151.3381 C   0  0  0  0  0  0  0  0  0  0  0  0
  142.9656  134.0893  152.0553 C   0  0  0  0  0  0  0  0  0  0  0  0
  142.4186  135.2915  152.5433 C   0  0  0  0  0  0  0  0  0  0  0  0
  143.1092  136.5032  152.3118 C   0  0  0  0  0  0  0  0  0  0  0  0
  142.6496  137.7813  152.7295 N   0  0  0  0  0  0  0  0  0  0  0  0
  141.4728  138.1055  153.2913 C   0  0  0  0  0  0  0  0  0  0  0  0
  140.5913  137.3085  153.6115 O   0  0  0  0  0  0  0  0  0  0  0  0
  141.3746  139.4280  153.4802 N   0  0  0  0  0  0  0  0  0  0  0  0
  140.2165  140.0920  154.0703 C   0  0  1  0  0  0  0  0  0  0  0  0
  140.0080  141.5113  153.5197 C   0  0  2  0  0  0  0  0  0  0  0  0
  140.1579  142.6983  154.4318 C   0  0  0  0  0  0  0  0  0  0  0  0
  138.7174  142.9744  154.8718 C   0  0  0  0  0  0  0  0  0  0  0  0
  138.0357  141.7388  154.6682 O   0  0  0  0  0  0  0  0  0  0  0  0
  138.5259  141.1747  153.4542 C   0  0  2  0  0  0  0  0  0  0  0  0
  138.8508  139.6661  153.4725 C   0  0  0  0  0  0  0  0  0  0  0  0
  138.8565  139.0081  152.0851 C   0  0  0  0  0  0  0  0  0  0  0  0
  137.9635  138.7997  154.3675 C   0  0  0  0  0  0  0  0  0  0  0  0
  144.3110  136.4382  151.5805 C   0  0  0  0  0  0  0  0  0  0  0  0
  144.8385  135.2885  151.1113 N   0  0  0  0  0  0  0  0  0  0  0  0
  145.2500  131.8522  152.5635 H   0  0  0  0  0  0  0  0  0  0  0  0
  146.5902  132.7877  151.8774 H   0  0  0  0  0  0  0  0  0  0  0  0
  146.0680  131.2928  151.1078 H   0  0  0  0  0  0  0  0  0  0  0  0
  143.3033  132.2262  149.4986 H   0  0  0  0  0  0  0  0  0  0  0  0
  144.9017  131.5234  149.2595 H   0  0  0  0  0  0  0  0  0  0  0  0
  144.5896  133.1779  148.7407 H   0  0  0  0  0  0  0  0  0  0  0  0
  142.4321  133.1685  152.2368 H   0  0  0  0  0  0  0  0  0  0  0  0
  141.4771  135.2580  153.0687 H   0  0  0  0  0  0  0  0  0  0  0  0
  143.3093  138.5365  152.6128 H   0  0  0  0  0  0  0  0  0  0  0  0
  142.1451  140.0142  153.1947 H   0  0  0  0  0  0  0  0  0  0  0  0
  140.2120  140.0784  155.1626 H   0  0  0  0  0  0  0  0  0  0  0  0
  140.4319  141.6447  152.5226 H   0  0  0  0  0  0  0  0  0  0  0  0
  140.7859  142.4538  155.2891 H   0  0  0  0  0  0  0  0  0  0  0  0
  140.5965  143.5611  153.9297 H   0  0  0  0  0  0  0  0  0  0  0  0
  138.6491  143.3061  155.9080 H   0  0  0  0  0  0  0  0  0  0  0  0
  138.2632  143.7376  154.2381 H   0  0  0  0  0  0  0  0  0  0  0  0
  138.0221  141.5499  152.5620 H   0  0  0  0  0  0  0  0  0  0  0  0
  137.8516  138.9580  151.6650 H   0  0  0  0  0  0  0  0  0  0  0  0
  139.2449  137.9896  152.1228 H   0  0  0  0  0  0  0  0  0  0  0  0
  139.4706  139.5635  151.3756 H   0  0  0  0  0  0  0  0  0  0  0  0
  136.9365  138.7679  154.0028 H   0  0  0  0  0  0  0  0  0  0  0  0
  137.9314  139.1782  155.3895 H   0  0  0  0  0  0  0  0  0  0  0  0
  138.3289  137.7736  154.4190 H   0  0  0  0  0  0  0  0  0  0  0  0
  144.8712  137.3364  151.3648 H   0  0  0  0  0  0  0  0  0  0  0  0
  1  2  1  0  0  0  0
  1 23  1  0  0  0  0
  1 24  1  0  0  0  0
  1 25  1  0  0  0  0
  2  3  1  0  0  0  0
  2  4  1  0  0  0  0
  3 26  1  0  0  0  0
  3 27  1  0  0  0  0
  3 28  1  0  0  0  0
  4 22  1  0  0  0  0
  4  5  2  0  0  0  0
  5  6  1  0  0  0  0
  5 29  1  0  0  0  0
  6  7  2  0  0  0  0
  6 30  1  0  0  0  0
  7  8  1  0  0  0  0
  7 21  1  0  0  0  0
  8  9  1  0  0  0  0
  8 31  1  0  0  0  0
  9 10  2  0  0  0  0
  9 11  1  0  0  0  0
 11 12  1  0  0  0  0
 11 32  1  0  0  0  0
 12 18  1  0  0  0  0
 12 13  1  0  0  0  0
 12 33  1  0  0  0  0
 13 17  1  0  0  0  0
 13 14  1  0  0  0  0
 13 34  1  0  0  0  0
 14 15  1  0  0  0  0
 14 35  1  0  0  0  0
 14 36  1  0  0  0  0
 15 16  1  0  0  0  0
 15 37  1  0  0  0  0
 15 38  1  0  0  0  0
 16 17  1  0  0  0  0
 17 18  1  0  0  0  0
 17 39  1  0  0  0  0
 18 19  1  0  0  0  0
 18 20  1  0  0  0  0
 19 40  1  0  0  0  0
 19 41  1  0  0  0  0
 19 42  1  0  0  0  0
 20 43  1  0  0  0  0
 20 44  1  0  0  0  0
 20 45  1  0  0  0  0
 21 22  2  0  0  0  0
 21 46  1  0  0  0  0
M  END
> <s_m_source_file>
AV-unprocessed.smi

> <i_m_source_file_index>
2923

> <i_lp_mmshare_version>
43012

> <i_f3d_flags>
0

> <s_epik_input>
W0NIM11OKFtDSDNdKWMxW2NIXVtjSF1jKFtjSF1uMSlbTkhdQyg9TylbTkhdW0NASF0yQyhbQ0gzXSkoW0NIM10pW0NAQEhdKFtDQEhdMjMpT1tDSDJdW0NIMl0z

> <s_epik_cmdline>
J2VwaWtfcHl0aG9uJywgJy1waCcsICc3LjAnLCAnLXRuJywgJzgnLCAnLW1hJywgJzIwMCcsICctbWV0YWxfYmluZGluZycsICctaW1hZScsICc8aW5maWxlLm1hZT4nLCAnLW9tYWUnLCAnPG91dGZpbGUubWFlPic=

> <r_lp_tautomer_probability>
1

> <r_epik_Ionization_Penalty>
0.628785

> <r_epik_Ionization_Penalty_Charging>
0

> <r_epik_Ionization_Penalty_Neutral>
0.628785

> <r_epik_State_Penalty>
0.644286

> <r_epik_Charging_Adjusted_Penalty>
0.644286

> <i_epik_Tot_Q>
0

> <i_epik_Tot_abs_Q>
0

> <r_epik_Metal_State_Penalty>
0.308404

> <b_epik_Metal_Only>
0

> <s_lp_Force_Field>
OPLS_2005

> <r_lp_Energy>
39.1675

> <b_lp_Chiralities_Consistent>
1

> <s_lp_Variant>
AV-unprocessed.smi:2923-14

> <Gold.Version>
5.8.1

> <Gold.Id.Protein>
6NUR|6NUR_protein|mol2

> <Gold.PLP.Fitness>
37.1518

> <Gold.PLP.PLP>
-32.0694

> <Gold.PLP.part.hbond>
-2.0000

> <Gold.PLP.part.metal>
0.0000

> <Gold.PLP.part.buried>
-3.2169

> <Gold.PLP.part.nonpolar>
-27.3864

> <Gold.PLP.part.repulsive>
0.3265

> <Gold.PLP.ligand.clash>
0.0000

> <Gold.PLP.ligand.torsion>
1.7569

> <Gold.PLP.Chemscore.Hbond>
1.9920

> <Gold.PLP.Chemscore.CHOScore>
0.8136

> <Gold.PLP.Chemscore.Metal>
0.0000

> <Gold.Chemscore.Hbonds>
donor molecule, donor type, donor heavy atom, donor atom, acceptor molecule, acceptor atom, score
      L1  H     8    31       P1 10175  0.96
      L1  H    11    32       P1 10175  1.00
      L1  C    21    46       P1 10171  0.64

> <Gold.PLP.Chemscore.Internal.Correction>
0.1795

> <Gold.Rescore>
     Score         DG    S(hbond)    S(metal)    S(lipo)     H(rot)  DE(clash)    DE(int)     intcor
     13.20     -17.74       1.76        0.00      76.28       1.00       1.72       2.81       ----

> <Gold.Chemscore.Fitness>
13.2045

> <Gold.Chemscore.DG>
-17.7360

> <Gold.Chemscore.ZeroCoef>
-5.4800

> <Gold.Chemscore.Hbond>
1.7640

> <Gold.Chemscore.Metal>
0.0000

> <Gold.Chemscore.Lipo>
76.2755

> <Gold.Chemscore.Internal_Hbond>
0.0000

> <Gold.Chemscore.DEClash>
1.7234

> <Gold.Chemscore.DEInternal>
2.8081

> <Gold.Chemscore.Rot>
1.0000

> <Gold.Chemscore.Internal.Correction>
   9.000000E+99

> <Gold.Chemscore.Hbonds>
donor molecule, donor type, donor heavy atom, donor atom, acceptor molecule, acceptor atom, score
      L1  H     8    31       P1 10175  0.92
      L1  H    11    32       P1 10175  0.50

> <Gold.Chemscore.Hbond.Weighted>
-5.8917

> <Gold.Chemscore.Metal.Weighted>
-0.0000

> <Gold.Chemscore.Lipo.Weighted>
-8.9242

> <Gold.Chemscore.Internal_Hbond.Weighted>
0.0000

> <Gold.Chemscore.DEClash.Weighted>
1.7234

> <Gold.Chemscore.DEInternal.Weighted>
2.8081

> <Gold.Chemscore.Rot.Weighted>
2.5600

> <Gold.Chemscore.Internal.Correction.Weighted>
   9.000000E+99

> <Gold.Protein.RotatedTorsions>
[ 6907 6896 6895 6894 ] final   12.04 input  -60.11 | X-H torsion
[ 7974 7965 7964 7962 ] final -161.19 input  175.53 | X-H torsion
[ 8008 7997 7996 7995 ] final  127.02 input   59.86 | X-H torsion
[ 10167 10162 10161 10158 ] final  -86.37 input  -65.29 | X-H torsion
[ 10718 10713 10712 10709 ] final   52.19 input   66.30 | X-H torsion
[ 10763 10752 10751 10750 ] final -109.01 input  -60.55 | X-H torsion
[ 11005 11000 10999 10996 ] final  164.87 input  -57.11 | X-H torsion

> <Gold.Protein.ActiveResidues>
 VAL166  LYS551  ARG553  GLY616  TRP617  ASP618  TYR619  PRO620  LYS621  CYS622 
 ASP623  PHE694  ASN695  SER759  ASP760  ASP761  ALA762  ILE779  LEU786  VAL792 
 PHE793  MET794  SER795  GLU796  ALA797  LYS798  CYS799  TRP800  GLU811  SER814 

> <Gold.Protein.RotatedAtoms>
  151.7640  135.0803  160.0349 H   0  0  0  0  0  0  0  0  0  0  0  0  # atno 6907 bound_to 6896
  152.3334  133.5979  159.5834 H   0  0  0  0  0  0  0  0  0  0  0  0  # atno 6908 bound_to 6896
  150.7436  133.9749  159.3599 H   0  0  0  0  0  0  0  0  0  0  0  0  # atno 6909 bound_to 6896
  144.7400  140.3432  143.6130 H   0  0  0  0  0  0  0  0  0  0  0  0  # atno 7974 bound_to 7965
  156.2880  140.2679  156.2205 H   0  0  0  0  0  0  0  0  0  0  0  0  # atno 8008 bound_to 7997
  155.0173  140.0387  157.2441 H   0  0  0  0  0  0  0  0  0  0  0  0  # atno 8009 bound_to 7997
  154.7466  140.2735  155.6333 H   0  0  0  0  0  0  0  0  0  0  0  0  # atno 8010 bound_to 7997
  140.3947  143.2689  151.9219 H   0  0  0  0  0  0  0  0  0  0  0  0  # atno 10167 bound_to 10162
  157.5052  130.8464  149.8365 H   0  0  0  0  0  0  0  0  0  0  0  0  # atno 10718 bound_to 10713
  154.8168  135.4617  154.0667 H   0  0  0  0  0  0  0  0  0  0  0  0  # atno 10763 bound_to 10752
  153.2053  135.6874  153.8187 H   0  0  0  0  0  0  0  0  0  0  0  0  # atno 10764 bound_to 10752
  153.7657  135.3277  155.3321 H   0  0  0  0  0  0  0  0  0  0  0  0  # atno 10765 bound_to 10752
  140.2503  134.7982  157.3495 H   0  0  0  0  0  0  0  0  0  0  0  0  # atno 11005 bound_to 11000
  145.7352  139.1748  143.2407 LP  0  0  0  0  0  0  0  0  0  0  0  0  # atno 17320 bound_to 7965
  146.1176  140.7350  142.9473 LP  0  0  0  0  0  0  0  0  0  0  0  0  # atno 17321 bound_to 7965
  139.4787  144.5692  151.8115 LP  0  0  0  0  0  0  0  0  0  0  0  0  # atno 17342 bound_to 10162
  140.4802  144.1460  150.5931 LP  0  0  0  0  0  0  0  0  0  0  0  0  # atno 17343 bound_to 10162
  156.0254  130.3781  150.1840 LP  0  0  0  0  0  0  0  0  0  0  0  0  # atno 17370 bound_to 10713
  157.0030  130.9928  151.3386 LP  0  0  0  0  0  0  0  0  0  0  0  0  # atno 17371 bound_to 10713
  140.1564  134.4784  155.7924 LP  0  0  0  0  0  0  0  0  0  0  0  0  # atno 17394 bound_to 11000
  141.2202  133.6883  156.7469 LP  0  0  0  0  0  0  0  0  0  0  0  0  # atno 17395 bound_to 11000

$$$$
