AV-unprocessed.smi:767|AV-procd|sdf|3667|dock4
  -GOLD-   22720 1 73D 1   1.00000     0.00000
 Structure written by MMmdl.
 48 50  0  0  0  0  0  0  0  0  2 V2000
  143.8439  132.0641  149.5925 C   0  0  0  0  0  0  0  0  0  0  0  0
  144.4063  133.2805  150.2968 C   0  0  0  0  0  0  0  0  0  0  0  0
  145.7454  133.3423  150.7374 C   0  0  0  0  0  0  0  0  0  0  0  0
  146.2033  134.5082  151.3843 C   0  0  0  0  0  0  0  0  0  0  0  0
  145.3161  135.5907  151.5739 C   0  0  0  0  0  0  0  0  0  0  0  0
  145.7898  136.8700  152.2429 C   0  0  0  0  0  0  0  0  0  0  0  0
  146.2102  136.6799  153.7152 C   0  0  0  0  0  0  0  0  0  0  0  0
  147.4466  137.3780  154.0566 N   0  0  0  0  0  0  0  0  0  0  0  0
  147.6049  138.2049  155.0989 C   0  0  0  0  0  0  0  0  0  0  0  0
  146.7134  138.4871  155.8992 O   0  0  0  0  0  0  0  0  0  0  0  0
  148.8591  138.6669  155.1757 N   0  0  0  0  0  0  0  0  0  0  0  0
  149.3584  139.5634  156.2196 C   0  0  2  0  0  0  0  0  0  0  0  0
  148.7014  140.9619  156.1702 C   0  0  2  0  0  0  0  0  0  0  0  0
  147.4941  141.2719  155.3190 C   0  0  0  0  0  0  0  0  0  0  0  0
  148.1153  141.8800  154.0576 C   0  0  0  0  0  0  0  0  0  0  0  0
  149.4675  141.4262  154.0608 O   0  0  0  0  0  0  0  0  0  0  0  0
  149.9273  141.4423  155.4109 C   0  0  2  0  0  0  0  0  0  0  0  0
  150.7293  140.2107  155.8793 C   0  0  0  0  0  0  0  0  0  0  0  0
  151.6172  140.4721  157.0996 C   0  0  0  0  0  0  0  0  0  0  0  0
  151.6299  139.5485  154.8285 C   0  0  0  0  0  0  0  0  0  0  0  0
  143.9862  135.4691  151.1186 C   0  0  0  0  0  0  0  0  0  0  0  0
  143.5850  134.3342  150.5052 N   0  3  0  0  0  0  0  0  0  0  0  0
  144.6446  131.4412  149.1925 H   0  0  0  0  0  0  0  0  0  0  0  0
  143.2007  132.3613  148.7637 H   0  0  0  0  0  0  0  0  0  0  0  0
  143.2567  131.4632  150.2872 H   0  0  0  0  0  0  0  0  0  0  0  0
  146.4165  132.5104  150.5796 H   0  0  0  0  0  0  0  0  0  0  0  0
  147.2279  134.5729  151.7210 H   0  0  0  0  0  0  0  0  0  0  0  0
  146.6249  137.2781  151.6727 H   0  0  0  0  0  0  0  0  0  0  0  0
  144.9960  137.6159  152.1834 H   0  0  0  0  0  0  0  0  0  0  0  0
  145.4310  137.0772  154.3661 H   0  0  0  0  0  0  0  0  0  0  0  0
  146.2975  135.6188  153.9534 H   0  0  0  0  0  0  0  0  0  0  0  0
  148.2426  137.2127  153.4581 H   0  0  0  0  0  0  0  0  0  0  0  0
  149.5239  138.3712  154.4757 H   0  0  0  0  0  0  0  0  0  0  0  0
  149.3235  139.1295  157.2205 H   0  0  0  0  0  0  0  0  0  0  0  0
  148.6604  141.4056  157.1662 H   0  0  0  0  0  0  0  0  0  0  0  0
  146.9138  140.3792  155.0866 H   0  0  0  0  0  0  0  0  0  0  0  0
  146.8197  141.9787  155.8030 H   0  0  0  0  0  0  0  0  0  0  0  0
  147.5949  141.5832  153.1469 H   0  0  0  0  0  0  0  0  0  0  0  0
  148.1080  142.9695  154.1150 H   0  0  0  0  0  0  0  0  0  0  0  0
  150.3009  142.4149  155.7347 H   0  0  0  0  0  0  0  0  0  0  0  0
  152.4524  141.1292  156.8551 H   0  0  0  0  0  0  0  0  0  0  0  0
  152.0313  139.5453  157.4982 H   0  0  0  0  0  0  0  0  0  0  0  0
  151.0615  140.9488  157.9075 H   0  0  0  0  0  0  0  0  0  0  0  0
  152.4987  140.1666  154.6004 H   0  0  0  0  0  0  0  0  0  0  0  0
  151.1089  139.3816  153.8858 H   0  0  0  0  0  0  0  0  0  0  0  0
  151.9967  138.5814  155.1733 H   0  0  0  0  0  0  0  0  0  0  0  0
  143.2382  136.2423  151.2185 H   0  0  0  0  0  0  0  0  0  0  0  0
  142.6195  134.2704  150.1815 H   0  0  0  0  0  0  0  0  0  0  0  0
  1  2  1  0  0  0  0
  1 23  1  0  0  0  0
  1 24  1  0  0  0  0
  1 25  1  0  0  0  0
  2 22  1  0  0  0  0
  2  3  2  0  0  0  0
  3  4  1  0  0  0  0
  3 26  1  0  0  0  0
  4  5  2  0  0  0  0
  4 27  1  0  0  0  0
  5  6  1  0  0  0  0
  5 21  1  0  0  0  0
  6  7  1  0  0  0  0
  6 28  1  0  0  0  0
  6 29  1  0  0  0  0
  7  8  1  0  0  0  0
  7 30  1  0  0  0  0
  7 31  1  0  0  0  0
  8  9  1  0  0  0  0
  8 32  1  0  0  0  0
  9 10  2  0  0  0  0
  9 11  1  0  0  0  0
 11 12  1  0  0  0  0
 11 33  1  0  0  0  0
 12 18  1  0  0  0  0
 12 13  1  0  0  0  0
 12 34  1  0  0  0  0
 13 17  1  0  0  0  0
 13 14  1  0  0  0  0
 13 35  1  0  0  0  0
 14 15  1  0  0  0  0
 14 36  1  0  0  0  0
 14 37  1  0  0  0  0
 15 16  1  0  0  0  0
 15 38  1  0  0  0  0
 15 39  1  0  0  0  0
 16 17  1  0  0  0  0
 17 18  1  0  0  0  0
 17 40  1  0  0  0  0
 18 19  1  0  0  0  0
 18 20  1  0  0  0  0
 19 41  1  0  0  0  0
 19 42  1  0  0  0  0
 19 43  1  0  0  0  0
 20 44  1  0  0  0  0
 20 45  1  0  0  0  0
 20 46  1  0  0  0  0
 21 22  2  0  0  0  0
 21 47  1  0  0  0  0
 22 48  1  0  0  0  0
M  CHG  1  22   1
M  END
> <s_m_source_file>
AV-unprocessed.smi

> <i_m_source_file_index>
767

> <i_lp_mmshare_version>
43012

> <i_f3d_flags>
0

> <s_epik_input>
W0NIM11jMVtjSF1bY0hdYyhbY0hdbjEpW0NIMl1bQ0gyXVtOSF1DKD1PKVtOSF1bQ0BIXTJDKFtDSDNdKShbQ0gzXSlbQ0BIXShbQ0BASF0yMylPW0NIMl1bQ0gyXTM=

> <s_epik_cmdline>
J2VwaWtfcHl0aG9uJywgJy1waCcsICc3LjAnLCAnLXRuJywgJzgnLCAnLW1hJywgJzIwMCcsICctbWV0YWxfYmluZGluZycsICctaW1hZScsICc8aW5maWxlLm1hZT4nLCAnLW9tYWUnLCAnPG91dGZpbGUubWFlPic=

> <r_epik_Ionization_Penalty>
1.41853

> <r_epik_Ionization_Penalty_Charging>
1.41848

> <r_epik_Ionization_Penalty_Neutral>
5.17407e-05

> <r_epik_State_Penalty>
1.50205

> <r_epik_Charging_Adjusted_Penalty>
2.92053

> <i_epik_Tot_Q>
1

> <i_epik_Tot_abs_Q>
1

> <r_epik_Metal_State_Penalty>
1.5544

> <b_epik_Metal_Only>
0

> <s_lp_Force_Field>
OPLS_2005

> <r_lp_Energy>
40.587

> <b_lp_Chiralities_Consistent>
1

> <s_lp_Variant>
AV-unprocessed.smi:767-11

> <Gold.Version>
5.8.1

> <Gold.Id.Protein>
6NUR|6NUR_protein|mol2

> <Gold.PLP.Fitness>
44.1200

> <Gold.PLP.PLP>
-34.8245

> <Gold.PLP.part.hbond>
-4.0000

> <Gold.PLP.part.metal>
0.0000

> <Gold.PLP.part.buried>
0.0499

> <Gold.PLP.part.nonpolar>
-31.1357

> <Gold.PLP.part.repulsive>
0.2166

> <Gold.PLP.ligand.clash>
0.0000

> <Gold.PLP.ligand.torsion>
0.4646

> <Gold.PLP.Chemscore.Hbond>
3.3442

> <Gold.PLP.Chemscore.CHOScore>
0.0000

> <Gold.PLP.Chemscore.Metal>
0.0000

> <Gold.Chemscore.Hbonds>
donor molecule, donor type, donor heavy atom, donor atom, acceptor molecule, acceptor atom, score
      L1  H     8    32       P1  7948  0.94
      L1  H    22    48       P1 10186  2.00
      P1  H  7989  7998       L1    16  0.04
      P1  H  8011  8017       L1    16  0.34

> <Gold.PLP.Chemscore.Internal.Correction>
0.1920

> <Gold.Rescore>
     Score         DG    S(hbond)    S(metal)    S(lipo)     H(rot)  DE(clash)    DE(int)     intcor
     17.78     -19.24       1.92        0.00      96.03       1.52       0.13       1.33       ----

> <Gold.Chemscore.Fitness>
17.7824

> <Gold.Chemscore.DG>
-19.2352

> <Gold.Chemscore.ZeroCoef>
-5.4800

> <Gold.Chemscore.Hbond>
1.9221

> <Gold.Chemscore.Metal>
0.0000

> <Gold.Chemscore.Lipo>
96.0255

> <Gold.Chemscore.Internal_Hbond>
0.0000

> <Gold.Chemscore.DEClash>
0.1265

> <Gold.Chemscore.DEInternal>
1.3264

> <Gold.Chemscore.Rot>
1.5233

> <Gold.Chemscore.Internal.Correction>
   9.000000E+99

> <Gold.Chemscore.Hbonds>
donor molecule, donor type, donor heavy atom, donor atom, acceptor molecule, acceptor atom, score
      L1  H     8    32       P1  7948  0.87
      L1  H    22    48       P1 10186  0.88
      P1  H  8011  8017       L1    16  0.01

> <Gold.Chemscore.Hbond.Weighted>
-6.4197

> <Gold.Chemscore.Metal.Weighted>
-0.0000

> <Gold.Chemscore.Lipo.Weighted>
-11.2350

> <Gold.Chemscore.Internal_Hbond.Weighted>
0.0000

> <Gold.Chemscore.DEClash.Weighted>
0.1265

> <Gold.Chemscore.DEInternal.Weighted>
1.3264

> <Gold.Chemscore.Rot.Weighted>
3.8995

> <Gold.Chemscore.Internal.Correction.Weighted>
   9.000000E+99

> <Gold.Protein.RotatedTorsions>
[ 6907 6896 6895 6894 ] final -130.26 input  -60.11 | X-H torsion
[ 7974 7965 7964 7962 ] final  132.19 input  175.53 | X-H torsion
[ 8008 7997 7996 7995 ] final   66.90 input   59.86 | X-H torsion
[ 10167 10162 10161 10158 ] final  108.65 input  -65.29 | X-H torsion
[ 10718 10713 10712 10709 ] final   94.52 input   66.30 | X-H torsion
[ 10763 10752 10751 10750 ] final  101.80 input  -60.55 | X-H torsion
[ 11005 11000 10999 10996 ] final   80.61 input  -57.11 | X-H torsion

> <Gold.Protein.ActiveResidues>
 VAL166  LYS551  ARG553  GLY616  TRP617  ASP618  TYR619  PRO620  LYS621  CYS622 
 ASP623  PHE694  ASN695  SER759  ASP760  ASP761  ALA762  ILE779  LEU786  VAL792 
 PHE793  MET794  SER795  GLU796  ALA797  LYS798  CYS799  TRP800  GLU811  SER814 

> <Gold.Protein.RotatedAtoms>
  150.9378  133.6691  159.2796 H   0  0  0  0  0  0  0  0  0  0  0  0  # atno 6907 bound_to 6896
  151.4091  135.0981  159.9589 H   0  0  0  0  0  0  0  0  0  0  0  0  # atno 6908 bound_to 6896
  152.5056  133.8855  159.7422 H   0  0  0  0  0  0  0  0  0  0  0  0  # atno 6909 bound_to 6896
  144.9994  139.4327  143.5300 H   0  0  0  0  0  0  0  0  0  0  0  0  # atno 7974 bound_to 7965
  155.6845  140.3496  155.4868 H   0  0  0  0  0  0  0  0  0  0  0  0  # atno 8008 bound_to 7997
  155.9578  140.1131  157.0944 H   0  0  0  0  0  0  0  0  0  0  0  0  # atno 8009 bound_to 7997
  154.4136  140.1181  156.5124 H   0  0  0  0  0  0  0  0  0  0  0  0  # atno 8010 bound_to 7997
  139.6829  144.7116  151.1483 H   0  0  0  0  0  0  0  0  0  0  0  0  # atno 10167 bound_to 10162
  157.6947  131.0515  150.4199 H   0  0  0  0  0  0  0  0  0  0  0  0  # atno 10718 bound_to 10713
  153.3313  135.4032  155.1497 H   0  0  0  0  0  0  0  0  0  0  0  0  # atno 10763 bound_to 10752
  154.8623  135.3611  154.5467 H   0  0  0  0  0  0  0  0  0  0  0  0  # atno 10764 bound_to 10752
  153.5906  135.7074  153.5484 H   0  0  0  0  0  0  0  0  0  0  0  0  # atno 10765 bound_to 10752
  139.9128  134.7934  156.1932 H   0  0  0  0  0  0  0  0  0  0  0  0  # atno 11005 bound_to 11000
  146.3448  139.9373  142.8745 LP  0  0  0  0  0  0  0  0  0  0  0  0  # atno 17320 bound_to 7965
  145.2174  140.9921  143.4065 LP  0  0  0  0  0  0  0  0  0  0  0  0  # atno 17321 bound_to 7965
  140.7658  143.5672  150.9035 LP  0  0  0  0  0  0  0  0  0  0  0  0  # atno 17342 bound_to 10162
  139.9345  143.6454  152.3068 LP  0  0  0  0  0  0  0  0  0  0  0  0  # atno 17343 bound_to 10162
  156.4575  130.4025  149.6597 LP  0  0  0  0  0  0  0  0  0  0  0  0  # atno 17370 bound_to 10713
  156.3724  130.7537  151.2522 LP  0  0  0  0  0  0  0  0  0  0  0  0  # atno 17371 bound_to 10713
  141.0571  133.6860  156.1880 LP  0  0  0  0  0  0  0  0  0  0  0  0  # atno 17394 bound_to 11000
  140.6720  134.4857  157.5587 LP  0  0  0  0  0  0  0  0  0  0  0  0  # atno 17395 bound_to 11000

$$$$
