AV-unprocessed.smi:249|AV-procd|sdf|1922|dock5
  -GOLD-   2262021 33D 1   1.00000     0.00000
 Structure written by MMmdl.
 64 67  0  0  0  0  0  0  0  0  2 V2000
  145.9449  131.8817  149.2892 C   0  0  0  0  0  0  0  0  0  0  0  0
  146.4531  132.9092  150.3106 C   0  0  0  0  0  0  0  0  0  0  0  0
  147.1467  132.2690  151.4580 N   0  3  2  0  0  0  0  0  0  0  0  0
  146.3032  131.2890  152.1945 C   0  0  0  0  0  0  0  0  0  0  0  0
  147.1311  130.5116  153.2303 C   0  0  0  0  0  0  0  0  0  0  0  0
  147.8387  131.4667  154.2138 C   0  0  1  0  0  0  0  0  0  0  0  0
  148.5983  130.7664  155.2598 N   0  0  0  0  0  0  0  0  0  0  0  0
  149.9413  130.3123  154.9163 C   0  0  0  0  0  0  0  0  0  0  0  0
  148.4894  131.2383  156.5253 C   0  0  0  0  0  0  0  0  0  0  0  0
  149.5089  131.0569  157.4058 N   0  0  0  0  0  0  0  0  0  0  0  0
  149.4175  131.5477  158.6457 C   0  0  0  0  0  0  0  0  0  0  0  0
  148.4199  132.2425  159.1965 N   0  0  0  0  0  0  0  0  0  0  0  0
  147.3916  132.4156  158.3175 C   0  0  0  0  0  0  0  0  0  0  0  0
  147.3391  131.9373  156.9791 C   0  0  0  0  0  0  0  0  0  0  0  0
  146.1291  132.2883  156.3939 N   0  0  0  0  0  0  0  0  0  0  0  0
  145.5078  132.9551  157.3278 C   0  0  0  0  0  0  0  0  0  0  0  0
  146.2080  133.1075  158.5039 N   0  0  0  0  0  0  0  0  0  0  0  0
  145.7672  133.8202  159.6888 C   0  0  0  0  0  0  0  0  0  0  0  0
  146.7937  133.8422  160.8571 C   0  0  2  0  0  0  0  0  0  0  0  0
  146.5186  132.6388  161.7916 C   0  0  0  0  0  0  0  0  0  0  0  0
  145.1362  132.4828  162.0384 O   0  0  0  0  0  0  0  0  0  0  0  0
  146.8072  135.1886  161.6453 C   0  0  1  0  0  0  0  0  0  0  0  0
  147.8185  135.2625  162.7804 C   0  0  0  0  0  0  0  0  0  0  0  0
  147.9256  136.7598  163.0263 C   0  0  0  0  0  0  0  0  0  0  0  0
  147.8699  137.3333  161.7304 O   0  0  0  0  0  0  0  0  0  0  0  0
  147.2143  136.4364  160.8390 C   0  0  0  0  0  0  0  0  0  0  0  0
  148.6760  132.4880  153.4112 C   0  0  0  0  0  0  0  0  0  0  0  0
  147.8326  133.2395  152.3618 C   0  0  2  0  0  0  0  0  0  0  0  0
  146.8758  134.2698  153.0011 C   0  0  0  0  0  0  0  0  0  0  0  0
  145.5124  132.3847  148.4239 H   0  0  0  0  0  0  0  0  0  0  0  0
  145.1729  131.2355  149.7057 H   0  0  0  0  0  0  0  0  0  0  0  0
  146.7571  131.2489  148.9301 H   0  0  0  0  0  0  0  0  0  0  0  0
  147.1477  133.5732  149.7941 H   0  0  0  0  0  0  0  0  0  0  0  0
  145.6324  133.5336  150.6662 H   0  0  0  0  0  0  0  0  0  0  0  0
  145.4691  131.7979  152.6784 H   0  0  0  0  0  0  0  0  0  0  0  0
  145.8637  130.5755  151.4983 H   0  0  0  0  0  0  0  0  0  0  0  0
  146.4769  129.8246  153.7675 H   0  0  0  0  0  0  0  0  0  0  0  0
  147.8634  129.8966  152.7066 H   0  0  0  0  0  0  0  0  0  0  0  0
  147.0657  132.0243  154.7431 H   0  0  0  0  0  0  0  0  0  0  0  0
  150.3278  129.6401  155.6834 H   0  0  0  0  0  0  0  0  0  0  0  0
  150.6326  131.1494  154.8152 H   0  0  0  0  0  0  0  0  0  0  0  0
  149.9281  129.7668  153.9726 H   0  0  0  0  0  0  0  0  0  0  0  0
  150.2680  131.3644  159.2856 H   0  0  0  0  0  0  0  0  0  0  0  0
  144.5245  133.3760  157.1752 H   0  0  0  0  0  0  0  0  0  0  0  0
  145.5149  134.8417  159.4011 H   0  0  0  0  0  0  0  0  0  0  0  0
  144.8338  133.3552  160.0073 H   0  0  0  0  0  0  0  0  0  0  0  0
  147.7920  133.6974  160.4421 H   0  0  0  0  0  0  0  0  0  0  0  0
  146.8580  131.7027  161.3503 H   0  0  0  0  0  0  0  0  0  0  0  0
  147.0442  132.7559  162.7396 H   0  0  0  0  0  0  0  0  0  0  0  0
  144.9452  132.8144  162.9026 H   0  0  0  0  0  0  0  0  0  0  0  0
  145.8179  135.3595  162.0730 H   0  0  0  0  0  0  0  0  0  0  0  0
  147.5042  134.7237  163.6747 H   0  0  0  0  0  0  0  0  0  0  0  0
  148.7842  134.8675  162.4606 H   0  0  0  0  0  0  0  0  0  0  0  0
  147.0739  137.1134  163.6092 H   0  0  0  0  0  0  0  0  0  0  0  0
  148.8400  137.0378  163.5505 H   0  0  0  0  0  0  0  0  0  0  0  0
  147.9173  136.1846  160.0447 H   0  0  0  0  0  0  0  0  0  0  0  0
  146.3567  136.9330  160.3872 H   0  0  0  0  0  0  0  0  0  0  0  0
  149.1449  133.2038  154.0873 H   0  0  0  0  0  0  0  0  0  0  0  0
  149.4882  131.9792  152.8903 H   0  0  0  0  0  0  0  0  0  0  0  0
  148.5358  133.8025  151.7462 H   0  0  0  0  0  0  0  0  0  0  0  0
  147.4275  134.9620  153.6377 H   0  0  0  0  0  0  0  0  0  0  0  0
  146.1114  133.8022  153.6206 H   0  0  0  0  0  0  0  0  0  0  0  0
  146.3676  134.8710  152.2474 H   0  0  0  0  0  0  0  0  0  0  0  0
  147.8947  131.7291  151.0464 H   0  0  0  0  0  0  0  0  0  0  0  0
  1  2  1  0  0  0  0
  1 30  1  0  0  0  0
  1 31  1  0  0  0  0
  1 32  1  0  0  0  0
  2  3  1  0  0  0  0
  2 33  1  0  0  0  0
  2 34  1  0  0  0  0
  3 28  1  0  0  0  0
  3  4  1  0  0  0  0
  3 64  1  0  0  0  0
  4  5  1  0  0  0  0
  4 35  1  0  0  0  0
  4 36  1  0  0  0  0
  5  6  1  0  0  0  0
  5 37  1  0  0  0  0
  5 38  1  0  0  0  0
  6  7  1  0  0  0  0
  6 27  1  0  0  0  0
  6 39  1  0  0  0  0
  7  8  1  0  0  0  0
  7  9  1  0  0  0  0
  8 40  1  0  0  0  0
  8 41  1  0  0  0  0
  8 42  1  0  0  0  0
  9 14  1  0  0  0  0
  9 10  2  0  0  0  0
 10 11  1  0  0  0  0
 11 12  2  0  0  0  0
 11 43  1  0  0  0  0
 12 13  1  0  0  0  0
 13 17  1  0  0  0  0
 13 14  2  0  0  0  0
 14 15  1  0  0  0  0
 15 16  2  0  0  0  0
 16 17  1  0  0  0  0
 16 44  1  0  0  0  0
 17 18  1  0  0  0  0
 18 19  1  0  0  0  0
 18 45  1  0  0  0  0
 18 46  1  0  0  0  0
 19 20  1  0  0  0  0
 19 22  1  0  0  0  0
 19 47  1  0  0  0  0
 20 21  1  0  0  0  0
 20 48  1  0  0  0  0
 20 49  1  0  0  0  0
 21 50  1  0  0  0  0
 22 26  1  0  0  0  0
 22 23  1  0  0  0  0
 22 51  1  0  0  0  0
 23 24  1  0  0  0  0
 23 52  1  0  0  0  0
 23 53  1  0  0  0  0
 24 25  1  0  0  0  0
 24 54  1  0  0  0  0
 24 55  1  0  0  0  0
 25 26  1  0  0  0  0
 26 56  1  0  0  0  0
 26 57  1  0  0  0  0
 27 28  1  0  0  0  0
 27 58  1  0  0  0  0
 27 59  1  0  0  0  0
 28 29  1  0  0  0  0
 28 60  1  0  0  0  0
 29 61  1  0  0  0  0
 29 62  1  0  0  0  0
 29 63  1  0  0  0  0
M  CHG  1   3   1
M  END
> <s_m_source_file>
AV-unprocessed.smi

> <i_m_source_file_index>
249

> <i_lp_mmshare_version>
43012

> <i_f3d_flags>
0

> <s_epik_input>
W0NIM11bQ0gyXU4xW0NIMl1bQ0gyXVtDQEhdKFtDSDJdW0NASF0xW0NIM10pTihbQ0gzXSljKG5bY0hdbjIpYyhjMjMpbltjSF1uM1tDSDJdW0NASF0oW0NIMl1bT0hdKVtDQEBIXTRbQ0gyXVtDSDJdT1tDSDJdNA==

> <s_epik_cmdline>
J2VwaWtfcHl0aG9uJywgJy1waCcsICc3LjAnLCAnLXRuJywgJzgnLCAnLW1hJywgJzIwMCcsICctbWV0YWxfYmluZGluZycsICctaW1hZScsICc8aW5maWxlLm1hZT4nLCAnLW9tYWUnLCAnPG91dGZpbGUubWFlPic=

> <r_lp_tautomer_probability>
1

> <r_epik_Ionization_Penalty>
0.00294688

> <r_epik_Ionization_Penalty_Charging>
0.00169971

> <r_epik_Ionization_Penalty_Neutral>
0.00124717

> <r_epik_State_Penalty>
-0

> <r_epik_Charging_Adjusted_Penalty>
0.00169971

> <i_epik_Tot_Q>
1

> <i_epik_Tot_abs_Q>
1

> <r_epik_Metal_State_Penalty>
-0

> <b_epik_Metal_Only>
0

> <s_lp_Force_Field>
OPLS_2005

> <r_lp_Energy>
54.0807

> <b_lp_Chiralities_Consistent>
1

> <s_lp_Variant>
AV-unprocessed.smi:249-25

> <Gold.Version>
5.8.1

> <Gold.Id.Protein>
6NUR|6NUR_protein|mol2

> <Gold.PLP.Fitness>
47.1435

> <Gold.PLP.PLP>
-42.3772

> <Gold.PLP.part.hbond>
-3.7556

> <Gold.PLP.part.metal>
0.0000

> <Gold.PLP.part.buried>
-4.9293

> <Gold.PLP.part.nonpolar>
-34.5505

> <Gold.PLP.part.repulsive>
0.1469

> <Gold.PLP.ligand.clash>
0.0000

> <Gold.PLP.ligand.torsion>
1.9135

> <Gold.PLP.Chemscore.Hbond>
2.5950

> <Gold.PLP.Chemscore.CHOScore>
0.0000

> <Gold.PLP.Chemscore.Metal>
0.0000

> <Gold.Chemscore.Hbonds>
donor molecule, donor type, donor heavy atom, donor atom, acceptor molecule, acceptor atom, score
      L1  H     3    64       P1 10747  1.00
      P1  H  6931  6943       L1    25  0.72
      P1  H  6934  6947       L1    25  0.53

> <Gold.PLP.Chemscore.Internal.Correction>
0.8082

> <Gold.Rescore>
     Score         DG    S(hbond)    S(metal)    S(lipo)     H(rot)  DE(clash)    DE(int)     intcor
     12.74     -17.27       1.96        0.00     108.27       2.90       0.00       4.54       ----

> <Gold.Chemscore.Fitness>
12.7363

> <Gold.Chemscore.DG>
-17.2737

> <Gold.Chemscore.ZeroCoef>
-5.4800

> <Gold.Chemscore.Hbond>
1.9614

> <Gold.Chemscore.Metal>
0.0000

> <Gold.Chemscore.Lipo>
108.2744

> <Gold.Chemscore.Internal_Hbond>
0.0000

> <Gold.Chemscore.DEClash>
0.0021

> <Gold.Chemscore.DEInternal>
4.5352

> <Gold.Chemscore.Rot>
2.9006

> <Gold.Chemscore.Internal.Correction>
   9.000000E+99

> <Gold.Chemscore.Hbonds>
donor molecule, donor type, donor heavy atom, donor atom, acceptor molecule, acceptor atom, score
      L1  H     3    64       P1 10747  0.98
      P1  H  6931  6943       L1    25  0.10
      P1  H  6934  6947       L1    25  0.10

> <Gold.Chemscore.Hbond.Weighted>
-6.5512

> <Gold.Chemscore.Metal.Weighted>
-0.0000

> <Gold.Chemscore.Lipo.Weighted>
-12.6681

> <Gold.Chemscore.Internal_Hbond.Weighted>
0.0000

> <Gold.Chemscore.DEClash.Weighted>
0.0021

> <Gold.Chemscore.DEInternal.Weighted>
4.5352

> <Gold.Chemscore.Rot.Weighted>
7.4256

> <Gold.Chemscore.Internal.Correction.Weighted>
   9.000000E+99

> <Gold.Protein.RotatedTorsions>
[ 6907 6896 6895 6894 ] final   95.36 input  -60.11 | X-H torsion
[ 7974 7965 7964 7962 ] final   33.88 input  175.53 | X-H torsion
[ 8008 7997 7996 7995 ] final   43.30 input   59.86 | X-H torsion
[ 10167 10162 10161 10158 ] final  102.58 input  -65.29 | X-H torsion
[ 10718 10713 10712 10709 ] final  -20.82 input   66.30 | X-H torsion
[ 10763 10752 10751 10750 ] final  -49.78 input  -60.55 | X-H torsion
[ 11005 11000 10999 10996 ] final   37.30 input  -57.11 | X-H torsion

> <Gold.Protein.ActiveResidues>
 VAL166  LYS551  ARG553  GLY616  TRP617  ASP618  TYR619  PRO620  LYS621  CYS622 
 ASP623  PHE694  ASN695  SER759  ASP760  ASP761  ALA762  ILE779  LEU786  VAL792 
 PHE793  MET794  SER795  GLU796  ALA797  LYS798  CYS799  TRP800  GLU811  SER814 

> <Gold.Protein.RotatedAtoms>
  152.5444  134.1052  159.8334 H   0  0  0  0  0  0  0  0  0  0  0  0  # atno 6907 bound_to 6896
  151.1125  133.5155  159.2612 H   0  0  0  0  0  0  0  0  0  0  0  0  # atno 6908 bound_to 6896
  151.1868  135.0395  159.8870 H   0  0  0  0  0  0  0  0  0  0  0  0  # atno 6909 bound_to 6896
  146.1391  139.6340  142.9175 H   0  0  0  0  0  0  0  0  0  0  0  0  # atno 7974 bound_to 7965
  155.3004  140.3384  155.4248 H   0  0  0  0  0  0  0  0  0  0  0  0  # atno 8008 bound_to 7997
  156.2004  140.1730  156.7950 H   0  0  0  0  0  0  0  0  0  0  0  0  # atno 8009 bound_to 7997
  154.5552  140.0698  156.8715 H   0  0  0  0  0  0  0  0  0  0  0  0  # atno 8010 bound_to 7997
  139.7338  144.7029  151.0681 H   0  0  0  0  0  0  0  0  0  0  0  0  # atno 10167 bound_to 10162
  156.5267  130.4645  149.6568 H   0  0  0  0  0  0  0  0  0  0  0  0  # atno 10718 bound_to 10713
  154.0997  135.6565  153.4866 H   0  0  0  0  0  0  0  0  0  0  0  0  # atno 10763 bound_to 10752
  153.0293  135.5222  154.7298 H   0  0  0  0  0  0  0  0  0  0  0  0  # atno 10764 bound_to 10752
  154.6447  135.2993  155.0030 H   0  0  0  0  0  0  0  0  0  0  0  0  # atno 10765 bound_to 10752
  140.2239  134.3608  155.7993 H   0  0  0  0  0  0  0  0  0  0  0  0  # atno 11005 bound_to 11000
  145.5088  141.0436  143.2499 LP  0  0  0  0  0  0  0  0  0  0  0  0  # atno 17320 bound_to 7965
  144.7772  139.6604  143.7170 LP  0  0  0  0  0  0  0  0  0  0  0  0  # atno 17321 bound_to 7965
  140.7775  143.5010  150.9771 LP  0  0  0  0  0  0  0  0  0  0  0  0  # atno 17342 bound_to 10162
  139.8698  143.7207  152.3167 LP  0  0  0  0  0  0  0  0  0  0  0  0  # atno 17343 bound_to 10162
  156.3098  130.7223  151.2113 LP  0  0  0  0  0  0  0  0  0  0  0  0  # atno 17370 bound_to 10713
  157.7428  131.0484  150.4994 LP  0  0  0  0  0  0  0  0  0  0  0  0  # atno 17371 bound_to 10713
  141.2221  133.7208  156.8620 LP  0  0  0  0  0  0  0  0  0  0  0  0  # atno 17394 bound_to 11000
  140.1821  134.9026  157.2961 LP  0  0  0  0  0  0  0  0  0  0  0  0  # atno 17395 bound_to 11000

$$$$
