AV-unprocessed.smi:2059|AV-procd|sdf|8350|dock3
  -GOLD-   2272011 23D 1   1.00000     0.00000
 Structure written by MMmdl.
 29 30  0  0  0  0  0  0  0  0  2 V2000
  145.4457  134.4442  162.6493 C   0  0  0  0  0  0  0  0  0  0  0  0
  146.4903  135.1627  161.8655 C   0  0  0  0  0  0  0  0  0  0  0  0
  147.5399  134.7317  161.1049 C   0  0  0  0  0  0  0  0  0  0  0  0
  148.1262  135.9418  160.6438 C   0  0  0  0  0  0  0  0  0  0  0  0
  149.2013  136.0395  159.8420 N   0  5  0  0  0  0  0  0  0  0  0  0
  149.3094  136.9788  158.8650 C   0  0  0  0  0  0  0  0  0  0  0  0
  148.9466  138.1458  159.0078 O   0  0  0  0  0  0  0  0  0  0  0  0
  149.8428  136.6026  157.6866 N   0  0  0  0  0  0  0  0  0  0  0  0
  150.0325  137.4529  156.5160 C   0  0  2  0  0  0  0  0  0  0  0  0
  150.7457  136.6825  155.3898 C   0  0  0  0  0  0  0  0  0  0  0  0
  151.2396  137.6871  154.3417 C   0  0  0  0  0  0  0  0  0  0  0  0
  151.6180  139.2296  155.2573 S   0  0  0  0  0  0  0  0  0  0  0  0
  153.0735  139.3566  155.4278 O   0  0  0  0  0  0  0  0  0  0  0  0
  150.8253  140.3286  154.6854 O   0  0  0  0  0  0  0  0  0  0  0  0
  150.8728  138.6975  156.8437 C   0  0  0  0  0  0  0  0  0  0  0  0
  147.4835  137.0128  161.0788 N   0  0  0  0  0  0  0  0  0  0  0  0
  146.4362  136.5219  161.8675 O   0  0  0  0  0  0  0  0  0  0  0  0
  144.7295  133.9627  161.9835 H   0  0  0  0  0  0  0  0  0  0  0  0
  144.8979  135.1297  163.2963 H   0  0  0  0  0  0  0  0  0  0  0  0
  145.8948  133.6744  163.2769 H   0  0  0  0  0  0  0  0  0  0  0  0
  147.8418  133.7140  160.9084 H   0  0  0  0  0  0  0  0  0  0  0  0
  150.1373  135.6409  157.6006 H   0  0  0  0  0  0  0  0  0  0  0  0
  149.0607  137.7745  156.1369 H   0  0  0  0  0  0  0  0  0  0  0  0
  151.6093  136.1605  155.8051 H   0  0  0  0  0  0  0  0  0  0  0  0
  150.1004  135.9243  154.9451 H   0  0  0  0  0  0  0  0  0  0  0  0
  152.1216  137.3412  153.8029 H   0  0  0  0  0  0  0  0  0  0  0  0
  150.4534  137.9093  153.6200 H   0  0  0  0  0  0  0  0  0  0  0  0
  150.2834  139.5068  157.2750 H   0  0  0  0  0  0  0  0  0  0  0  0
  151.6847  138.4553  157.5304 H   0  0  0  0  0  0  0  0  0  0  0  0
  1  2  1  0  0  0  0
  1 18  1  0  0  0  0
  1 19  1  0  0  0  0
  1 20  1  0  0  0  0
  2 17  1  0  0  0  0
  2  3  2  0  0  0  0
  3  4  1  0  0  0  0
  3 21  1  0  0  0  0
  4  5  1  0  0  0  0
  4 16  2  0  0  0  0
  5  6  1  0  0  0  0
  6  7  2  0  0  0  0
  6  8  1  0  0  0  0
  8  9  1  0  0  0  0
  8 22  1  0  0  0  0
  9 15  1  0  0  0  0
  9 10  1  0  0  0  0
  9 23  1  0  0  0  0
 10 11  1  0  0  0  0
 10 24  1  0  0  0  0
 10 25  1  0  0  0  0
 11 12  1  0  0  0  0
 11 26  1  0  0  0  0
 11 27  1  0  0  0  0
 12 13  2  0  0  0  0
 12 14  2  0  0  0  0
 12 15  1  0  0  0  0
 15 28  1  0  0  0  0
 15 29  1  0  0  0  0
 16 17  1  0  0  0  0
M  CHG  1   5  -1
M  END
> <s_m_source_file>
AV-unprocessed.smi

> <i_m_source_file_index>
2059

> <i_lp_mmshare_version>
43012

> <i_f3d_flags>
0

> <s_epik_input>
W0NIM11jMVtjSF1jKG5vMSlbTkhdQyg9TylbTkhdW0NAQEhdKFtDSDJdMilbQ0gyXVtDSDJdUzIoPU8pPU8=

> <s_epik_cmdline>
J2VwaWtfcHl0aG9uJywgJy1waCcsICc3LjAnLCAnLXRuJywgJzgnLCAnLW1hJywgJzIwMCcsICctbWV0YWxfYmluZGluZycsICctaW1hZScsICc8aW5maWxlLm1hZT4nLCAnLW9tYWUnLCAnPG91dGZpbGUubWFlPic=

> <r_lp_tautomer_probability>
1

> <r_epik_Ionization_Penalty>
6.15571

> <r_epik_Ionization_Penalty_Charging>
6.1556

> <r_epik_Ionization_Penalty_Neutral>
0.000110918

> <r_epik_State_Penalty>
6.15558

> <r_epik_Charging_Adjusted_Penalty>
12.3112

> <i_epik_Tot_Q>
-1

> <i_epik_Tot_abs_Q>
1

> <r_epik_Metal_State_Penalty>
2.1059

> <b_epik_Metal_Only>
1

> <s_lp_Force_Field>
OPLS_2005

> <r_lp_Energy>
-1.67492

> <b_lp_Chiralities_Consistent>
1

> <s_lp_Variant>
AV-unprocessed.smi:2059-3

> <Gold.Version>
5.8.1

> <Gold.Id.Protein>
6NUR|6NUR_protein|mol2

> <Gold.PLP.Fitness>
43.2651

> <Gold.PLP.PLP>
-26.7691

> <Gold.PLP.part.hbond>
-6.6954

> <Gold.PLP.part.metal>
0.0000

> <Gold.PLP.part.buried>
-4.2079

> <Gold.PLP.part.nonpolar>
-17.8107

> <Gold.PLP.part.repulsive>
0.1492

> <Gold.PLP.ligand.clash>
0.0000

> <Gold.PLP.ligand.torsion>
0.6083

> <Gold.PLP.Chemscore.Hbond>
5.9040

> <Gold.PLP.Chemscore.CHOScore>
0.0000

> <Gold.PLP.Chemscore.Metal>
0.0000

> <Gold.Chemscore.Hbonds>
donor molecule, donor type, donor heavy atom, donor atom, acceptor molecule, acceptor atom, score
      P1  H  6896  6909       L1     5  2.00
      P1  H  6931  6943       L1    16  0.67
      P1  H  6934  6947       L1    16  0.99
      P1  H  7989  7998       L1    14  1.00
      P1  H  7997  8008       L1    13  1.00

> <Gold.PLP.Chemscore.Internal.Correction>
0.0005

> <Gold.Rescore>
     Score         DG    S(hbond)    S(metal)    S(lipo)     H(rot)  DE(clash)    DE(int)     intcor
     16.94     -19.84       3.56        0.00      43.05       1.00       0.06       2.85       ----

> <Gold.Chemscore.Fitness>
16.9353

> <Gold.Chemscore.DG>
-19.8432

> <Gold.Chemscore.ZeroCoef>
-5.4800

> <Gold.Chemscore.Hbond>
3.5587

> <Gold.Chemscore.Metal>
0.0000

> <Gold.Chemscore.Lipo>
43.0515

> <Gold.Chemscore.Internal_Hbond>
0.0000

> <Gold.Chemscore.DEClash>
0.0556

> <Gold.Chemscore.DEInternal>
2.8523

> <Gold.Chemscore.Rot>
1.0000

> <Gold.Chemscore.Internal.Correction>
   9.000000E+99

> <Gold.Chemscore.Hbonds>
donor molecule, donor type, donor heavy atom, donor atom, acceptor molecule, acceptor atom, score
      P1  H  6896  6909       L1     5  0.65
      P1  H  6931  6943       L1    16  0.29
      P1  H  6934  6947       L1    16  0.48
      P1  H  7989  7998       L1    14  0.56
      P1  H  7997  8008       L1    13  1.00

> <Gold.Chemscore.Hbond.Weighted>
-11.8862

> <Gold.Chemscore.Metal.Weighted>
-0.0000

> <Gold.Chemscore.Lipo.Weighted>
-5.0370

> <Gold.Chemscore.Internal_Hbond.Weighted>
0.0000

> <Gold.Chemscore.DEClash.Weighted>
0.0556

> <Gold.Chemscore.DEInternal.Weighted>
2.8523

> <Gold.Chemscore.Rot.Weighted>
2.5600

> <Gold.Chemscore.Internal.Correction.Weighted>
   9.000000E+99

> <Gold.Protein.RotatedTorsions>
[ 6907 6896 6895 6894 ] final   60.38 input  -60.11 | X-H torsion
[ 7974 7965 7964 7962 ] final  -58.50 input  175.53 | X-H torsion
[ 8008 7997 7996 7995 ] final  -29.16 input   59.86 | X-H torsion
[ 10167 10162 10161 10158 ] final    2.26 input  -65.29 | X-H torsion
[ 10718 10713 10712 10709 ] final   25.43 input   66.30 | X-H torsion
[ 10763 10752 10751 10750 ] final   -5.93 input  -60.55 | X-H torsion
[ 11005 11000 10999 10996 ] final  -47.91 input  -57.11 | X-H torsion

> <Gold.Protein.ActiveResidues>
 VAL166  LYS551  ARG553  GLY616  TRP617  ASP618  TYR619  PRO620  LYS621  CYS622 
 ASP623  PHE694  ASN695  SER759  ASP760  ASP761  ALA762  ILE779  LEU786  VAL792 
 PHE793  MET794  SER795  GLU796  ALA797  LYS798  CYS799  TRP800  GLU811  SER814 

> <Gold.Protein.RotatedAtoms>
  152.3998  134.6306  160.0074 H   0  0  0  0  0  0  0  0  0  0  0  0  # atno 6907 bound_to 6896
  151.6514  133.3315  159.3161 H   0  0  0  0  0  0  0  0  0  0  0  0  # atno 6908 bound_to 6896
  150.7900  134.6958  159.6567 H   0  0  0  0  0  0  0  0  0  0  0  0  # atno 6909 bound_to 6896
  145.8385  140.8433  143.0046 H   0  0  0  0  0  0  0  0  0  0  0  0  # atno 7974 bound_to 7965
  154.4301  140.1826  156.1203 H   0  0  0  0  0  0  0  0  0  0  0  0  # atno 8008 bound_to 7997
  156.0148  140.3347  155.6952 H   0  0  0  0  0  0  0  0  0  0  0  0  # atno 8009 bound_to 7997
  155.6060  140.0645  157.2710 H   0  0  0  0  0  0  0  0  0  0  0  0  # atno 8010 bound_to 7997
  140.6643  143.7220  150.7798 H   0  0  0  0  0  0  0  0  0  0  0  0  # atno 10167 bound_to 10162
  157.1932  130.6856  149.6158 H   0  0  0  0  0  0  0  0  0  0  0  0  # atno 10718 bound_to 10713
  153.4053  135.7006  153.6397 H   0  0  0  0  0  0  0  0  0  0  0  0  # atno 10763 bound_to 10752
  153.4914  135.3672  155.2494 H   0  0  0  0  0  0  0  0  0  0  0  0  # atno 10764 bound_to 10752
  154.8713  135.4090  154.3395 H   0  0  0  0  0  0  0  0  0  0  0  0  # atno 10765 bound_to 10752
  141.0669  133.6691  156.3366 H   0  0  0  0  0  0  0  0  0  0  0  0  # atno 11005 bound_to 11000
  144.6735  140.0777  143.7470 LP  0  0  0  0  0  0  0  0  0  0  0  0  # atno 17320 bound_to 7965
  145.9491  139.2721  143.1223 LP  0  0  0  0  0  0  0  0  0  0  0  0  # atno 17321 bound_to 7965
  140.0895  143.4891  152.2486 LP  0  0  0  0  0  0  0  0  0  0  0  0  # atno 17342 bound_to 10162
  139.5887  144.7541  151.3455 LP  0  0  0  0  0  0  0  0  0  0  0  0  # atno 17343 bound_to 10162
  155.9709  130.4607  150.6084 LP  0  0  0  0  0  0  0  0  0  0  0  0  # atno 17370 bound_to 10713
  157.3840  131.0785  151.1452 LP  0  0  0  0  0  0  0  0  0  0  0  0  # atno 17371 bound_to 10713
  140.5754  134.5799  157.5467 LP  0  0  0  0  0  0  0  0  0  0  0  0  # atno 17394 bound_to 11000
  139.9485  134.7658  156.0503 LP  0  0  0  0  0  0  0  0  0  0  0  0  # atno 17395 bound_to 11000

$$$$
