AV-unprocessed.smi:1827|AV-procd|sdf|7423|dock4
  -GOLD-   22720 9103D 1   1.00000     0.00000
 Structure written by MMmdl.
 43 44  0  0  0  0  0  0  0  0  3 V2000
  151.3938  138.1905  154.6948 C   0  0  0  0  0  0  0  0  0  0  0  0
  150.3697  139.2806  154.5400 C   0  0  0  0  0  0  0  0  0  0  0  0
  150.6756  140.5047  154.9497 N   0  0  0  0  0  0  0  0  0  0  0  0
  149.5531  141.2262  154.7438 N   0  0  0  0  0  0  0  0  0  0  0  0
  148.5190  140.4928  154.2070 C   0  0  0  0  0  0  0  0  0  0  0  0
  147.1819  141.0878  153.9151 C   0  0  0  0  0  0  0  0  0  0  0  0
  149.0315  139.2391  154.0372 C   0  0  0  0  0  0  0  0  0  0  0  0
  148.3001  138.1365  153.5284 N   0  0  0  0  0  0  0  0  0  0  0  0
  147.0492  137.7816  153.8591 C   0  0  0  0  0  0  0  0  0  0  0  0
  146.3480  138.3616  154.6873 O   0  0  0  0  0  0  0  0  0  0  0  0
  146.6544  136.6911  153.1861 N   0  0  0  0  0  0  0  0  0  0  0  0
  145.3496  136.0440  153.3217 C   0  0  2  0  0  0  0  0  0  0  0  0
  145.5174  134.5599  153.6903 C   0  0  0  0  0  0  0  0  0  0  0  0
  146.0539  133.7265  152.5117 C   0  0  0  0  0  0  0  0  0  0  0  0
  145.1967  133.8783  151.3086 N   0  3  2  0  0  0  0  0  0  0  0  0
  145.6144  132.9804  150.2030 C   0  0  0  0  0  0  0  0  0  0  0  0
  145.1840  131.5391  150.4978 C   0  0  0  0  0  0  0  0  0  0  0  0
  146.2251  130.7444  150.8108 N   0  5  0  0  0  0  0  0  0  0  0  0
  143.9960  131.2317  150.4191 O   0  0  0  0  0  0  0  0  0  0  0  0
  145.0803  135.3023  150.8934 C   0  0  0  0  0  0  0  0  0  0  0  0
  144.5139  136.1677  152.0325 C   0  0  0  0  0  0  0  0  0  0  0  0
  149.5065  142.2074  154.9795 H   0  0  0  0  0  0  0  0  0  0  0  0
  150.9207  137.2302  154.9004 H   0  0  0  0  0  0  0  0  0  0  0  0
  152.0761  138.3983  155.5197 H   0  0  0  0  0  0  0  0  0  0  0  0
  151.9930  138.0849  153.7903 H   0  0  0  0  0  0  0  0  0  0  0  0
  146.4649  140.3217  153.6199 H   0  0  0  0  0  0  0  0  0  0  0  0
  147.2513  141.8133  153.1045 H   0  0  0  0  0  0  0  0  0  0  0  0
  146.7847  141.5982  154.7928 H   0  0  0  0  0  0  0  0  0  0  0  0
  148.8114  137.5048  152.9297 H   0  0  0  0  0  0  0  0  0  0  0  0
  147.3040  136.2772  152.5336 H   0  0  0  0  0  0  0  0  0  0  0  0
  144.8134  136.5344  154.1365 H   0  0  0  0  0  0  0  0  0  0  0  0
  146.1754  134.4558  154.5539 H   0  0  0  0  0  0  0  0  0  0  0  0
  144.5509  134.1574  153.9967 H   0  0  0  0  0  0  0  0  0  0  0  0
  147.0764  134.0207  152.2703 H   0  0  0  0  0  0  0  0  0  0  0  0
  146.0891  132.6771  152.8068 H   0  0  0  0  0  0  0  0  0  0  0  0
  145.2321  133.3509  149.2491 H   0  0  0  0  0  0  0  0  0  0  0  0
  146.7020  132.9719  150.1197 H   0  0  0  0  0  0  0  0  0  0  0  0
  147.1771  131.1253  150.7524 H   0  0  0  0  0  0  0  0  0  0  0  0
  146.0581  135.6753  150.5849 H   0  0  0  0  0  0  0  0  0  0  0  0
  144.4258  135.3889  150.0256 H   0  0  0  0  0  0  0  0  0  0  0  0
  143.4903  135.8526  152.2401 H   0  0  0  0  0  0  0  0  0  0  0  0
  144.4474  137.2086  151.7139 H   0  0  0  0  0  0  0  0  0  0  0  0
  144.2714  133.5726  151.5748 H   0  0  0  0  0  0  0  0  0  0  0  0
  1  2  1  0  0  0  0
  1 23  1  0  0  0  0
  1 24  1  0  0  0  0
  1 25  1  0  0  0  0
  2  7  1  0  0  0  0
  2  3  2  0  0  0  0
  3  4  1  0  0  0  0
  4 22  1  0  0  0  0
  4  5  1  0  0  0  0
  5  6  1  0  0  0  0
  5  7  2  0  0  0  0
  6 26  1  0  0  0  0
  6 27  1  0  0  0  0
  6 28  1  0  0  0  0
  7  8  1  0  0  0  0
  8  9  1  0  0  0  0
  8 29  1  0  0  0  0
  9 10  2  0  0  0  0
  9 11  1  0  0  0  0
 11 12  1  0  0  0  0
 11 30  1  0  0  0  0
 12 21  1  0  0  0  0
 12 13  1  0  0  0  0
 12 31  1  0  0  0  0
 13 14  1  0  0  0  0
 13 32  1  0  0  0  0
 13 33  1  0  0  0  0
 14 15  1  0  0  0  0
 14 34  1  0  0  0  0
 14 35  1  0  0  0  0
 15 16  1  0  0  0  0
 15 20  1  0  0  0  0
 15 43  1  0  0  0  0
 16 17  1  0  0  0  0
 16 36  1  0  0  0  0
 16 37  1  0  0  0  0
 17 18  1  0  0  0  0
 17 19  2  0  0  0  0
 18 38  1  0  0  0  0
 20 21  1  0  0  0  0
 20 39  1  0  0  0  0
 20 40  1  0  0  0  0
 21 41  1  0  0  0  0
 21 42  1  0  0  0  0
M  CHG  1  15   1
M  CHG  1  18  -1
M  END
> <s_m_source_file>
AV-unprocessed.smi

> <i_m_source_file_index>
1827

> <i_lp_mmshare_version>
43012

> <i_f3d_flags>
0

> <s_epik_input>
W0NIM11jMW5bbkhdYyhbQ0gzXSljMVtOSF1DKD1PKVtOSF1bQ0hdMltDSDJdW0NIMl1OKFtDSDJdW0NIMl0yKVtDSDJdQyg9TylbTkgyXQ==

> <s_epik_cmdline>
J2VwaWtfcHl0aG9uJywgJy1waCcsICc3LjAnLCAnLXRuJywgJzgnLCAnLW1hJywgJzIwMCcsICctbWV0YWxfYmluZGluZycsICctaW1hZScsICc8aW5maWxlLm1hZT4nLCAnLW9tYWUnLCAnPG91dGZpbGUubWFlPic=

> <r_lp_tautomer_probability>
0.5

> <r_epik_Ionization_Penalty>
5.72915

> <r_epik_Ionization_Penalty_Charging>
5.7288

> <r_epik_Ionization_Penalty_Neutral>
0.000348152

> <r_epik_State_Penalty>
6.54882

> <r_epik_Charging_Adjusted_Penalty>
12.2776

> <i_epik_Tot_Q>
0

> <i_epik_Tot_abs_Q>
2

> <r_epik_Metal_State_Penalty>
2.51333

> <b_epik_Metal_Only>
1

> <s_lp_Force_Field>
OPLS_2005

> <r_lp_Energy>
10.7358

> <b_lp_Chiralities_Consistent>
1

> <s_lp_Variant>
AV-unprocessed.smi:1827-5

> <Gold.Version>
5.8.1

> <Gold.Id.Protein>
6NUR|6NUR_protein|mol2

> <Gold.PLP.Fitness>
43.0715

> <Gold.PLP.PLP>
-31.7460

> <Gold.PLP.part.hbond>
-5.1592

> <Gold.PLP.part.metal>
0.0000

> <Gold.PLP.part.buried>
-3.2945

> <Gold.PLP.part.nonpolar>
-24.3772

> <Gold.PLP.part.repulsive>
0.6946

> <Gold.PLP.ligand.clash>
0.0000

> <Gold.PLP.ligand.torsion>
0.7244

> <Gold.PLP.Chemscore.Hbond>
4.1524

> <Gold.PLP.Chemscore.CHOScore>
0.0000

> <Gold.PLP.Chemscore.Metal>
0.0000

> <Gold.Chemscore.Hbonds>
donor molecule, donor type, donor heavy atom, donor atom, acceptor molecule, acceptor atom, score
      L1  H     8    29       P1  7948  1.00
      L1  H    11    30       P1  7948  0.99
      L1  H    18    38       P1 10747  0.94
      P1  H  7989  7998       L1     3  0.70
      P1  H 10785 10796       L1    19  0.44

> <Gold.PLP.Chemscore.Internal.Correction>
0.3169

> <Gold.Rescore>
     Score         DG    S(hbond)    S(metal)    S(lipo)     H(rot)  DE(clash)    DE(int)     intcor
     18.63     -19.51       3.51        0.00      62.60       1.96       0.03       0.84       ----

> <Gold.Chemscore.Fitness>
18.6338

> <Gold.Chemscore.DG>
-19.5088

> <Gold.Chemscore.ZeroCoef>
-5.4800

> <Gold.Chemscore.Hbond>
3.5069

> <Gold.Chemscore.Metal>
0.0000

> <Gold.Chemscore.Lipo>
62.6046

> <Gold.Chemscore.Internal_Hbond>
0.0000

> <Gold.Chemscore.DEClash>
0.0323

> <Gold.Chemscore.DEInternal>
0.8427

> <Gold.Chemscore.Rot>
1.9566

> <Gold.Chemscore.Internal.Correction>
   9.000000E+99

> <Gold.Chemscore.Hbonds>
donor molecule, donor type, donor heavy atom, donor atom, acceptor molecule, acceptor atom, score
      L1  H     8    29       P1  7948  0.98
      L1  H    11    30       P1  7948  0.93
      L1  H    18    38       P1 10747  0.91
      P1  H  7989  7998       L1     3  0.02
      P1  H 10785 10796       L1    19  0.43

> <Gold.Chemscore.Hbond.Weighted>
-11.7131

> <Gold.Chemscore.Metal.Weighted>
-0.0000

> <Gold.Chemscore.Lipo.Weighted>
-7.3247

> <Gold.Chemscore.Internal_Hbond.Weighted>
0.0000

> <Gold.Chemscore.DEClash.Weighted>
0.0323

> <Gold.Chemscore.DEInternal.Weighted>
0.8427

> <Gold.Chemscore.Rot.Weighted>
5.0090

> <Gold.Chemscore.Internal.Correction.Weighted>
   9.000000E+99

> <Gold.Protein.RotatedTorsions>
[ 6907 6896 6895 6894 ] final  117.02 input  -60.11 | X-H torsion
[ 7974 7965 7964 7962 ] final   48.08 input  175.53 | X-H torsion
[ 8008 7997 7996 7995 ] final  -94.05 input   59.86 | X-H torsion
[ 10167 10162 10161 10158 ] final  159.57 input  -65.29 | X-H torsion
[ 10718 10713 10712 10709 ] final  109.96 input   66.30 | X-H torsion
[ 10763 10752 10751 10750 ] final  127.91 input  -60.55 | X-H torsion
[ 11005 11000 10999 10996 ] final  -65.93 input  -57.11 | X-H torsion

> <Gold.Protein.ActiveResidues>
 VAL166  LYS551  ARG553  GLY616  TRP617  ASP618  TYR619  PRO620  LYS621  CYS622 
 ASP623  PHE694  ASN695  SER759  ASP760  ASP761  ALA762  ILE779  LEU786  VAL792 
 PHE793  MET794  SER795  GLU796  ALA797  LYS798  CYS799  TRP800  GLU811  SER814 

> <Gold.Protein.RotatedAtoms>
  152.4639  133.7881  159.6886 H   0  0  0  0  0  0  0  0  0  0  0  0  # atno 6907 bound_to 6896
  150.8595  133.7655  159.3003 H   0  0  0  0  0  0  0  0  0  0  0  0  # atno 6908 bound_to 6896
  151.5225  135.1070  159.9934 H   0  0  0  0  0  0  0  0  0  0  0  0  # atno 6909 bound_to 6896
  146.0237  139.4681  142.9881 H   0  0  0  0  0  0  0  0  0  0  0  0  # atno 7974 bound_to 7965
  154.7434  140.0493  157.0831 H   0  0  0  0  0  0  0  0  0  0  0  0  # atno 8008 bound_to 7997
  155.0149  140.3140  155.4796 H   0  0  0  0  0  0  0  0  0  0  0  0  # atno 8009 bound_to 7997
  156.2869  140.2177  156.5265 H   0  0  0  0  0  0  0  0  0  0  0  0  # atno 8010 bound_to 7997
  139.4833  144.4718  151.8566 H   0  0  0  0  0  0  0  0  0  0  0  0  # atno 10167 bound_to 10162
  157.6517  131.0923  150.6531 H   0  0  0  0  0  0  0  0  0  0  0  0  # atno 10718 bound_to 10713
  153.7171  135.3259  155.3258 H   0  0  0  0  0  0  0  0  0  0  0  0  # atno 10763 bound_to 10752
  154.8367  135.4490  154.1255 H   0  0  0  0  0  0  0  0  0  0  0  0  # atno 10764 bound_to 10752
  153.2365  135.6966  153.7910 H   0  0  0  0  0  0  0  0  0  0  0  0  # atno 10765 bound_to 10752
  141.1468  133.6690  156.6062 H   0  0  0  0  0  0  0  0  0  0  0  0  # atno 11005 bound_to 11000
  145.7152  141.0093  143.1432 LP  0  0  0  0  0  0  0  0  0  0  0  0  # atno 17320 bound_to 7965
  144.7000  139.8804  143.7447 LP  0  0  0  0  0  0  0  0  0  0  0  0  # atno 17321 bound_to 7965
  140.4187  144.2272  150.5887 LP  0  0  0  0  0  0  0  0  0  0  0  0  # atno 17342 bound_to 10162
  140.4895  143.2352  151.8839 LP  0  0  0  0  0  0  0  0  0  0  0  0  # atno 17343 bound_to 10162
  156.6841  130.4576  149.5619 LP  0  0  0  0  0  0  0  0  0  0  0  0  # atno 17370 bound_to 10713
  156.1908  130.6558  151.1059 LP  0  0  0  0  0  0  0  0  0  0  0  0  # atno 17371 bound_to 10713
  140.3650  134.7655  157.4560 LP  0  0  0  0  0  0  0  0  0  0  0  0  # atno 17394 bound_to 11000
  140.0755  134.5803  155.8596 LP  0  0  0  0  0  0  0  0  0  0  0  0  # atno 17395 bound_to 11000

$$$$
