#       Name:                AV-unprocessed.smi:668
#       Creating user name   scv26
#       Creation time:       Fri Mar 27 00:21:33 2020


#       File generated by GOLD software.
#

@<TRIPOS>MOLECULE
AV-unprocessed.smi:668
    45    46     1
SMALL
NO_CHARGES


@<TRIPOS>ATOM
      1 ****        -6.4975   3.0090   0.6436 C.3            1 S1                 0.0000
      2 ****        -6.0882   1.7444   0.1342 O.3            1 S1                 0.0000
      3 ****        -4.7383   1.5093  -0.0281 C.ar           1 S1                 0.0000
      4 ****        -4.3267   0.2545  -0.5194 C.ar           1 S1                 0.0000
      5 ****        -2.9509   0.0051  -0.6858 C.ar           1 S1                 0.0000
      6 ****        -2.0254   1.0213  -0.3468 C.ar           1 S1                 0.0000
      7 ****        -0.6153   0.9028  -0.4820 N.am           1 S1                 0.0000
      8 ****         0.1293  -0.2118  -0.5801 C.2            1 S1                 0.0000
      9 ****        -0.3029  -1.3636  -0.5494 O.2            1 S1                 0.0000
     10 ****         1.4312   0.0860  -0.6965 N.am           1 S1                 0.0000
     11 ****         2.5145  -0.8886  -0.8178 C.3            1 S1                 0.0000
     12 ****         3.7882  -0.2178  -1.3595 C.3            1 S1                 0.0000
     13 ****         4.7321  -0.0952  -0.1659 C.3            1 S1                 0.0000
     14 ****         4.4158  -1.3208   0.6855 C.3            1 S1                 0.0000
     15 ****         2.8940  -1.5079   0.5553 C.3            1 S1                 0.0000
     16 ****         2.4631  -2.9772   0.6865 C.2            1 S1                 0.0000
     17 ****         1.5813  -3.2685   1.6460 N.am           1 S1                 0.0000
     18 ****         2.9158  -3.8371  -0.0670 O.2            1 S1                 0.0000
     19 ****        -2.5413   2.2470   0.1226 C.ar           1 S1                 0.0000
     20 ****        -3.8583   2.4922   0.2855 N.ar           1 S1                 0.0000
     21 ****        -7.5847   3.0344   0.7140 H              1 S1                 0.0000
     22 ****        -6.1898   3.8235  -0.0140 H              1 S1                 0.0000
     23 ****        -6.0974   3.1845   1.6434 H              1 S1                 0.0000
     24 ****        -5.0545  -0.5037  -0.7682 H              1 S1                 0.0000
     25 ****        -2.6403  -0.9497  -1.0797 H              1 S1                 0.0000
     26 ****        -0.1055   1.7736  -0.4492 H              1 S1                 0.0000
     27 ****         1.6960   1.0601  -0.7070 H              1 S1                 0.0000
     28 ****         2.2036  -1.6517  -1.5350 H              1 S1                 0.0000
     29 ****         4.2440  -0.8678  -2.1078 H              1 S1                 0.0000
     30 ****         3.6029   0.7434  -1.8412 H              1 S1                 0.0000
     31 ****         5.7806  -0.0480  -0.4620 H              1 S1                 0.0000
     32 ****         4.5012   0.8117   0.3946 H              1 S1                 0.0000
     33 ****         4.9594  -2.1815   0.2923 H              1 S1                 0.0000
     34 ****         4.7263  -1.1840   1.7218 H              1 S1                 0.0000
     35 ****         2.4256  -0.9278   1.3532 H              1 S1                 0.0000
     36 ****         1.2781  -4.2219   1.7810 H              1 S1                 0.0000
     37 ****         1.2313  -2.5336   2.2432 H              1 S1                 0.0000
     38 ****        -1.8764   3.0583   0.3808 H              1 S1                 0.0000
     39 ****        -6.5177   1.6333  -0.7620 LP             1 S1                 0.0000
     40 ****        -6.4370   1.0465   0.7597 LP             1 S1                 0.0000
     41 ****        -1.2838  -1.5270  -0.4440 LP             1 S1                 0.0000
     42 ****         0.3268  -2.1363  -0.6299 LP             1 S1                 0.0000
     43 ****         3.5733  -3.5841  -0.7767 LP             1 S1                 0.0000
     44 ****         2.6264  -4.7894   0.0299 LP             1 S1                 0.0000
     45 ****        -4.1770   3.3758   0.6285 LP             1 S1                 0.0000
@<TRIPOS>BOND
    1    1    2 1     
    2    1   21 1     
    3    1   22 1     
    4    1   23 1     
    5    2    3 1     
    6    3   20 ar    
    7    3    4 ar    
    8    4    5 ar    
    9    4   24 1     
   10    5    6 ar    
   11    5   25 1     
   12    6    7 1     
   13    6   19 ar    
   14    7    8 am    
   15    7   26 1     
   16    8    9 2     
   17    8   10 am    
   18   10   11 1     
   19   10   27 1     
   20   11   15 1     
   21   11   12 1     
   22   11   28 1     
   23   12   13 1     
   24   12   29 1     
   25   12   30 1     
   26   13   14 1     
   27   13   31 1     
   28   13   32 1     
   29   14   15 1     
   30   14   33 1     
   31   14   34 1     
   32   15   16 1     
   33   15   35 1     
   34   16   17 am    
   35   16   18 2     
   36   17   36 1     
   37   17   37 1     
   38   19   20 ar    
   39   19   38 1     
   40    2   39 1     
   41    2   40 1     
   42    9   41 1     
   43    9   42 1     
   44   18   43 1     
   45   18   44 1     
   46   20   45 1     
@<TRIPOS>SUBSTRUCTURE
      1 S1             1
@<TRIPOS>SET
LONE_PAIRS      STATIC     ATOMS    <user>   **** ""
7 39 40 41 42 43 44 45
DONOR_HYDROGENS      STATIC     ATOMS    <user>   **** ""
4 26 27 36 37
ATOM$BLUE        STATIC     ATOMS    COLORGROUP SYSTEM
7 39 40 41 42 43 44 45
ATOM$RED        STATIC     ATOMS    COLORGROUP SYSTEM
4 26 27 36 37
