AV-unprocessed.smi:753|AV-procd|sdf|3602|dock6
  -GOLD-   22720 0593D 1   1.00000     0.00000
 Structure written by MMmdl.
 43 45  0  0  0  0  0  0  0  0  1 V2000
  146.0487  129.9973  151.6442 C   0  0  0  0  0  0  0  0  0  0  0  0
  145.7581  131.4554  151.3564 C   0  0  0  0  0  0  0  0  0  0  0  0
  144.5749  131.8409  150.6915 C   0  0  0  0  0  0  0  0  0  0  0  0
  144.3576  133.2112  150.4503 C   0  0  0  0  0  0  0  0  0  0  0  0
  145.3276  134.1391  150.8814 C   0  0  0  0  0  0  0  0  0  0  0  0
  145.1453  135.6241  150.6400 C   0  0  0  0  0  0  0  0  0  0  0  0
  144.9972  136.4074  151.9538 C   0  0  0  0  0  0  0  0  0  0  0  0
  146.2934  136.8265  152.4709 N   0  0  0  0  0  0  0  0  0  0  0  0
  146.4786  137.7341  153.4442 C   0  0  0  0  0  0  0  0  0  0  0  0
  145.5577  138.3323  153.9973 O   0  0  0  0  0  0  0  0  0  0  0  0
  147.7640  137.9451  153.7786 N   0  0  0  0  0  0  0  0  0  0  0  0
  148.2943  138.8614  154.7912 C   0  0  1  0  0  0  0  0  0  0  0  0
  149.6774  139.4194  154.3895 C   0  0  0  0  0  0  0  0  0  0  0  0
  149.4527  140.9431  154.4073 C   0  0  2  0  0  0  0  0  0  0  0  0
  149.2538  141.4186  155.8596 C   0  0  0  0  0  0  0  0  0  0  0  0
  147.8501  140.8840  156.2061 C   0  0  0  0  0  0  0  0  0  0  0  0
  147.4442  140.1489  154.9158 C   0  0  1  0  0  0  0  0  0  0  0  0
  148.0428  141.0555  153.8446 C   0  0  0  0  0  0  0  0  0  0  0  0
  146.4769  133.6493  151.5365 C   0  0  0  0  0  0  0  0  0  0  0  0
  146.6938  132.3375  151.7723 N   0  0  0  0  0  0  0  0  0  0  0  0
  145.2287  129.3585  151.3151 H   0  0  0  0  0  0  0  0  0  0  0  0
  146.1913  129.8427  152.7142 H   0  0  0  0  0  0  0  0  0  0  0  0
  146.9550  129.6825  151.1264 H   0  0  0  0  0  0  0  0  0  0  0  0
  143.8498  131.1069  150.3719 H   0  0  0  0  0  0  0  0  0  0  0  0
  143.4634  133.5411  149.9421 H   0  0  0  0  0  0  0  0  0  0  0  0
  145.9977  135.9977  150.0706 H   0  0  0  0  0  0  0  0  0  0  0  0
  144.2660  135.7750  150.0121 H   0  0  0  0  0  0  0  0  0  0  0  0
  144.3950  137.3012  151.7891 H   0  0  0  0  0  0  0  0  0  0  0  0
  144.4703  135.8097  152.6999 H   0  0  0  0  0  0  0  0  0  0  0  0
  147.1088  136.3865  152.0703 H   0  0  0  0  0  0  0  0  0  0  0  0
  148.4535  137.4212  153.2592 H   0  0  0  0  0  0  0  0  0  0  0  0
  148.3672  138.3410  155.7482 H   0  0  0  0  0  0  0  0  0  0  0  0
  150.4635  139.1116  155.0800 H   0  0  0  0  0  0  0  0  0  0  0  0
  149.9698  139.0906  153.3909 H   0  0  0  0  0  0  0  0  0  0  0  0
  150.2128  141.5037  153.8627 H   0  0  0  0  0  0  0  0  0  0  0  0
  150.0234  141.0338  156.5295 H   0  0  0  0  0  0  0  0  0  0  0  0
  149.2729  142.5077  155.9178 H   0  0  0  0  0  0  0  0  0  0  0  0
  147.8552  140.2277  157.0770 H   0  0  0  0  0  0  0  0  0  0  0  0
  147.1668  141.7087  156.4130 H   0  0  0  0  0  0  0  0  0  0  0  0
  146.3682  139.9903  154.8343 H   0  0  0  0  0  0  0  0  0  0  0  0
  147.6476  142.0726  153.8670 H   0  0  0  0  0  0  0  0  0  0  0  0
  147.9462  140.6559  152.8335 H   0  0  0  0  0  0  0  0  0  0  0  0
  147.2451  134.3274  151.8778 H   0  0  0  0  0  0  0  0  0  0  0  0
  1  2  1  0  0  0  0
  1 21  1  0  0  0  0
  1 22  1  0  0  0  0
  1 23  1  0  0  0  0
  2 20  1  0  0  0  0
  2  3  2  0  0  0  0
  3  4  1  0  0  0  0
  3 24  1  0  0  0  0
  4  5  2  0  0  0  0
  4 25  1  0  0  0  0
  5  6  1  0  0  0  0
  5 19  1  0  0  0  0
  6  7  1  0  0  0  0
  6 26  1  0  0  0  0
  6 27  1  0  0  0  0
  7  8  1  0  0  0  0
  7 28  1  0  0  0  0
  7 29  1  0  0  0  0
  8  9  1  0  0  0  0
  8 30  1  0  0  0  0
  9 10  2  0  0  0  0
  9 11  1  0  0  0  0
 11 12  1  0  0  0  0
 11 31  1  0  0  0  0
 12 17  1  0  0  0  0
 12 13  1  0  0  0  0
 12 32  1  0  0  0  0
 13 14  1  0  0  0  0
 13 33  1  0  0  0  0
 13 34  1  0  0  0  0
 14 18  1  0  0  0  0
 14 15  1  0  0  0  0
 14 35  1  0  0  0  0
 15 16  1  0  0  0  0
 15 36  1  0  0  0  0
 15 37  1  0  0  0  0
 16 17  1  0  0  0  0
 16 38  1  0  0  0  0
 16 39  1  0  0  0  0
 17 18  1  0  0  0  0
 17 40  1  0  0  0  0
 18 41  1  0  0  0  0
 18 42  1  0  0  0  0
 19 20  2  0  0  0  0
 19 43  1  0  0  0  0
M  END
> <s_m_source_file>
AV-unprocessed.smi

> <i_m_source_file_index>
753

> <i_lp_mmshare_version>
43012

> <i_f3d_flags>
0

> <s_epik_input>
W0NIM11jMVtjSF1bY0hdYyhbY0hdbjEpW0NIMl1bQ0gyXVtOSF1DKD1PKVtOSF1bQ0BIXShbQ0gyXVtDQEBIXTIzKVtDQEBIXShbQ0gyXTMpW0NIMl1bQ0gyXTI=

> <s_epik_cmdline>
J2VwaWtfcHl0aG9uJywgJy1waCcsICc3LjAnLCAnLXRuJywgJzgnLCAnLW1hJywgJzIwMCcsICctbWV0YWxfYmluZGluZycsICctaW1hZScsICc8aW5maWxlLm1hZT4nLCAnLW9tYWUnLCAnPG91dGZpbGUubWFlPic=

> <r_epik_Ionization_Penalty>
0.0569047

> <r_epik_Ionization_Penalty_Charging>
0

> <r_epik_Ionization_Penalty_Neutral>
0.0569047

> <r_epik_State_Penalty>
0.0490541

> <r_epik_Charging_Adjusted_Penalty>
0.0490541

> <i_epik_Tot_Q>
0

> <i_epik_Tot_abs_Q>
0

> <r_epik_Metal_State_Penalty>
0.0447357

> <b_epik_Metal_Only>
0

> <s_lp_Force_Field>
OPLS_2005

> <r_lp_Energy>
50.3887

> <b_lp_Chiralities_Consistent>
1

> <s_lp_Variant>
AV-unprocessed.smi:753-4

> <Gold.Version>
5.8.1

> <Gold.Id.Protein>
6NUR|6NUR_protein|mol2

> <Gold.PLP.Fitness>
43.3389

> <Gold.PLP.PLP>
-35.6088

> <Gold.PLP.part.hbond>
-2.0000

> <Gold.PLP.part.metal>
0.0000

> <Gold.PLP.part.buried>
-4.3315

> <Gold.PLP.part.nonpolar>
-30.1913

> <Gold.PLP.part.repulsive>
0.3100

> <Gold.PLP.ligand.clash>
0.0000

> <Gold.PLP.ligand.torsion>
0.6454

> <Gold.PLP.Chemscore.Hbond>
2.0000

> <Gold.PLP.Chemscore.CHOScore>
0.9997

> <Gold.PLP.Chemscore.Metal>
0.0000

> <Gold.Chemscore.Hbonds>
donor molecule, donor type, donor heavy atom, donor atom, acceptor molecule, acceptor atom, score
      L1  H     8    30       P1  7948  1.00
      L1  H    11    31       P1  7948  1.00
      L1  C    19    43       P1  7948  1.00

> <Gold.PLP.Chemscore.Internal.Correction>
0.0219

> <Gold.Rescore>
     Score         DG    S(hbond)    S(metal)    S(lipo)     H(rot)  DE(clash)    DE(int)     intcor
     17.71     -19.85       1.92        0.00      99.24       1.43       0.07       2.08       ----

> <Gold.Chemscore.Fitness>
17.7064

> <Gold.Chemscore.DG>
-19.8548

> <Gold.Chemscore.ZeroCoef>
-5.4800

> <Gold.Chemscore.Hbond>
1.9229

> <Gold.Chemscore.Metal>
0.0000

> <Gold.Chemscore.Lipo>
99.2373

> <Gold.Chemscore.Internal_Hbond>
0.0000

> <Gold.Chemscore.DEClash>
0.0692

> <Gold.Chemscore.DEInternal>
2.0792

> <Gold.Chemscore.Rot>
1.4291

> <Gold.Chemscore.Internal.Correction>
   9.000000E+99

> <Gold.Chemscore.Hbonds>
donor molecule, donor type, donor heavy atom, donor atom, acceptor molecule, acceptor atom, score
      L1  H     8    30       P1  7948  0.97
      L1  H    11    31       P1  7948  0.97

> <Gold.Chemscore.Hbond.Weighted>
-6.4225

> <Gold.Chemscore.Metal.Weighted>
-0.0000

> <Gold.Chemscore.Lipo.Weighted>
-11.6108

> <Gold.Chemscore.Internal_Hbond.Weighted>
0.0000

> <Gold.Chemscore.DEClash.Weighted>
0.0692

> <Gold.Chemscore.DEInternal.Weighted>
2.0792

> <Gold.Chemscore.Rot.Weighted>
3.6585

> <Gold.Chemscore.Internal.Correction.Weighted>
   9.000000E+99

> <Gold.Protein.RotatedTorsions>
[ 6907 6896 6895 6894 ] final  -29.94 input  -60.11 | X-H torsion
[ 7974 7965 7964 7962 ] final  110.17 input  175.53 | X-H torsion
[ 8008 7997 7996 7995 ] final  171.61 input   59.86 | X-H torsion
[ 10167 10162 10161 10158 ] final -115.54 input  -65.29 | X-H torsion
[ 10718 10713 10712 10709 ] final   -8.46 input   66.30 | X-H torsion
[ 10763 10752 10751 10750 ] final -118.51 input  -60.55 | X-H torsion
[ 11005 11000 10999 10996 ] final  156.52 input  -57.11 | X-H torsion

> <Gold.Protein.ActiveResidues>
 VAL166  LYS551  ARG553  GLY616  TRP617  ASP618  TYR619  PRO620  LYS621  CYS622 
 ASP623  PHE694  ASN695  SER759  ASP760  ASP761  ALA762  ILE779  LEU786  VAL792 
 PHE793  MET794  SER795  GLU796  ALA797  LYS798  CYS799  TRP800  GLU811  SER814 

> <Gold.Protein.RotatedAtoms>
  151.1124  135.0034  159.8499 H   0  0  0  0  0  0  0  0  0  0  0  0  # atno 6907 bound_to 6896
  152.5444  134.1820  159.8649 H   0  0  0  0  0  0  0  0  0  0  0  0  # atno 6908 bound_to 6896
  151.1872  133.4644  159.2627 H   0  0  0  0  0  0  0  0  0  0  0  0  # atno 6909 bound_to 6896
  145.2584  139.2712  143.4030 H   0  0  0  0  0  0  0  0  0  0  0  0  # atno 7974 bound_to 7965
  156.1255  140.1507  156.9143 H   0  0  0  0  0  0  0  0  0  0  0  0  # atno 8008 bound_to 7997
  154.4868  140.0863  156.7545 H   0  0  0  0  0  0  0  0  0  0  0  0  # atno 8009 bound_to 7997
  155.4352  140.3429  155.4286 H   0  0  0  0  0  0  0  0  0  0  0  0  # atno 8010 bound_to 7997
  140.0890  143.4717  152.1881 H   0  0  0  0  0  0  0  0  0  0  0  0  # atno 10167 bound_to 10162
  156.7022  130.5097  149.5914 H   0  0  0  0  0  0  0  0  0  0  0  0  # atno 10718 bound_to 10713
  154.8589  135.4271  154.2150 H   0  0  0  0  0  0  0  0  0  0  0  0  # atno 10763 bound_to 10752
  153.3167  135.6979  153.7072 H   0  0  0  0  0  0  0  0  0  0  0  0  # atno 10764 bound_to 10752
  153.6143  135.3513  155.2963 H   0  0  0  0  0  0  0  0  0  0  0  0  # atno 10765 bound_to 10752
  140.1683  134.8561  157.2659 H   0  0  0  0  0  0  0  0  0  0  0  0  # atno 11005 bound_to 11000
  146.3282  140.2995  142.8620 LP  0  0  0  0  0  0  0  0  0  0  0  0  # atno 17320 bound_to 7965
  144.9440  140.8108  143.5613 LP  0  0  0  0  0  0  0  0  0  0  0  0  # atno 17321 bound_to 7965
  139.5735  144.7475  151.3826 LP  0  0  0  0  0  0  0  0  0  0  0  0  # atno 17342 bound_to 10162
  140.7038  143.7564  150.7448 LP  0  0  0  0  0  0  0  0  0  0  0  0  # atno 17343 bound_to 10162
  156.1720  130.6443  151.0849 LP  0  0  0  0  0  0  0  0  0  0  0  0  # atno 17370 bound_to 10713
  157.6968  131.0791  150.6943 LP  0  0  0  0  0  0  0  0  0  0  0  0  # atno 17371 bound_to 10713
  140.2408  134.3798  155.7481 LP  0  0  0  0  0  0  0  0  0  0  0  0  # atno 17394 bound_to 11000
  141.2215  133.7264  156.8785 LP  0  0  0  0  0  0  0  0  0  0  0  0  # atno 17395 bound_to 11000

$$$$
