AV-unprocessed.smi:3337|AV-procd|sdf|12864|dock4
  -GOLD-   2272019263D 1   1.00000     0.00000
 Structure written by MMmdl.
 46 47  0  0  0  0  0  0  0  0  2 V2000
  146.2823  133.7655  151.3788 C   0  0  0  0  0  0  0  0  0  0  0  0
  145.1778  134.7066  150.8664 C   0  0  1  0  0  0  0  0  0  0  0  0
  143.8684  134.5884  151.6680 C   0  0  0  0  0  0  0  0  0  0  0  0
  143.9867  135.2504  153.0525 C   0  0  2  0  0  0  0  0  0  0  0  0
  142.6566  135.1884  153.8166 C   0  0  0  0  0  0  0  0  0  0  0  0
  144.4862  136.7013  152.9103 C   0  0  0  0  0  0  0  0  0  0  0  0
  145.7718  136.7645  152.1678 N   0  3  2  0  0  0  0  0  0  0  0  0
  146.3447  138.1338  152.1585 C   0  0  0  0  0  0  0  0  0  0  0  0
  146.9809  138.5181  153.5091 C   0  0  0  0  0  0  0  0  0  0  0  0
  148.2391  137.8138  153.7265 N   0  0  0  0  0  0  0  0  0  0  0  0
  148.9388  137.8304  154.8723 C   0  0  0  0  0  0  0  0  0  0  0  0
  148.5723  138.4519  155.8704 O   0  0  0  0  0  0  0  0  0  0  0  0
  150.2462  137.0239  154.8897 C   0  0  2  0  0  0  0  0  0  0  0  0
  150.3168  136.0519  156.0850 C   0  0  0  0  0  0  0  0  0  0  0  0
  151.3923  137.9232  154.8390 N   0  0  0  0  0  0  0  0  0  0  0  0
  151.7001  138.9640  155.6160 C   0  0  0  0  0  0  0  0  0  0  0  0
  152.8556  139.5392  155.3145 N   0  0  0  0  0  0  0  0  0  0  0  0
  153.2428  138.7415  154.2753 C   0  0  0  0  0  0  0  0  0  0  0  0
  152.4092  137.7511  153.9578 N   0  0  0  0  0  0  0  0  0  0  0  0
  145.6437  136.1747  150.8078 C   0  0  0  0  0  0  0  0  0  0  0  0
  146.5955  134.0148  152.3925 H   0  0  0  0  0  0  0  0  0  0  0  0
  147.1653  133.8179  150.7414 H   0  0  0  0  0  0  0  0  0  0  0  0
  145.9432  132.7293  151.3816 H   0  0  0  0  0  0  0  0  0  0  0  0
  144.9598  134.3934  149.8445 H   0  0  0  0  0  0  0  0  0  0  0  0
  143.0653  135.0695  151.1078 H   0  0  0  0  0  0  0  0  0  0  0  0
  143.5820  133.5409  151.7697 H   0  0  0  0  0  0  0  0  0  0  0  0
  144.7202  134.6956  153.6384 H   0  0  0  0  0  0  0  0  0  0  0  0
  141.8725  135.7392  153.2959 H   0  0  0  0  0  0  0  0  0  0  0  0
  142.7563  135.6153  154.8149 H   0  0  0  0  0  0  0  0  0  0  0  0
  142.3189  134.1582  153.9323 H   0  0  0  0  0  0  0  0  0  0  0  0
  143.7418  137.3134  152.3982 H   0  0  0  0  0  0  0  0  0  0  0  0
  144.6188  137.1302  153.9044 H   0  0  0  0  0  0  0  0  0  0  0  0
  147.0640  138.2188  151.3425 H   0  0  0  0  0  0  0  0  0  0  0  0
  145.5539  138.8547  151.9454 H   0  0  0  0  0  0  0  0  0  0  0  0
  147.1827  139.5893  153.5332 H   0  0  0  0  0  0  0  0  0  0  0  0
  146.3112  138.3108  154.3441 H   0  0  0  0  0  0  0  0  0  0  0  0
  148.6076  137.2816  152.9512 H   0  0  0  0  0  0  0  0  0  0  0  0
  150.2763  136.4187  153.9816 H   0  0  0  0  0  0  0  0  0  0  0  0
  149.4792  135.3538  156.0727 H   0  0  0  0  0  0  0  0  0  0  0  0
  150.2962  136.5738  157.0425 H   0  0  0  0  0  0  0  0  0  0  0  0
  151.2330  135.4618  156.0512 H   0  0  0  0  0  0  0  0  0  0  0  0
  151.0670  139.3072  156.4213 H   0  0  0  0  0  0  0  0  0  0  0  0
  154.1696  138.8912  153.7415 H   0  0  0  0  0  0  0  0  0  0  0  0
  146.5900  136.2281  150.2712 H   0  0  0  0  0  0  0  0  0  0  0  0
  144.9297  136.7649  150.2309 H   0  0  0  0  0  0  0  0  0  0  0  0
  146.4214  136.1857  152.6807 H   0  0  0  0  0  0  0  0  0  0  0  0
  1  2  1  0  0  0  0
  1 21  1  0  0  0  0
  1 22  1  0  0  0  0
  1 23  1  0  0  0  0
  2 20  1  0  0  0  0
  2  3  1  0  0  0  0
  2 24  1  0  0  0  0
  3  4  1  0  0  0  0
  3 25  1  0  0  0  0
  3 26  1  0  0  0  0
  4  5  1  0  0  0  0
  4  6  1  0  0  0  0
  4 27  1  0  0  0  0
  5 28  1  0  0  0  0
  5 29  1  0  0  0  0
  5 30  1  0  0  0  0
  6  7  1  0  0  0  0
  6 31  1  0  0  0  0
  6 32  1  0  0  0  0
  7  8  1  0  0  0  0
  7 20  1  0  0  0  0
  7 46  1  0  0  0  0
  8  9  1  0  0  0  0
  8 33  1  0  0  0  0
  8 34  1  0  0  0  0
  9 10  1  0  0  0  0
  9 35  1  0  0  0  0
  9 36  1  0  0  0  0
 10 11  1  0  0  0  0
 10 37  1  0  0  0  0
 11 12  2  0  0  0  0
 11 13  1  0  0  0  0
 13 14  1  0  0  0  0
 13 15  1  0  0  0  0
 13 38  1  0  0  0  0
 14 39  1  0  0  0  0
 14 40  1  0  0  0  0
 14 41  1  0  0  0  0
 15 19  1  0  0  0  0
 15 16  1  0  0  0  0
 16 17  2  0  0  0  0
 16 42  1  0  0  0  0
 17 18  1  0  0  0  0
 18 19  2  0  0  0  0
 18 43  1  0  0  0  0
 20 44  1  0  0  0  0
 20 45  1  0  0  0  0
M  CHG  1   7   1
M  END
> <s_m_source_file>
AV-unprocessed.smi

> <i_m_source_file_index>
3337

> <i_lp_mmshare_version>
43012

> <i_f3d_flags>
0

> <s_epik_input>
W0NIM11bQ0BASF0xW0NIMl1bQ0BASF0oW0NIM10pW0NIMl1OKFtDSDJdMSlbQ0gyXVtDSDJdW05IXUMoPU8pW0NASF0oW0NIM10pbjJbY0hdbltjSF1uMg==

> <s_epik_cmdline>
J2VwaWtfcHl0aG9uJywgJy1waCcsICc3LjAnLCAnLXRuJywgJzgnLCAnLW1hJywgJzIwMCcsICctbWV0YWxfYmluZGluZycsICctaW1hZScsICc8aW5maWxlLm1hZT4nLCAnLW9tYWUnLCAnPG91dGZpbGUubWFlPic=

> <r_lp_tautomer_probability>
1

> <r_epik_Ionization_Penalty>
0.00175613

> <r_epik_Ionization_Penalty_Charging>
0.00174812

> <r_epik_Ionization_Penalty_Neutral>
8.01354e-06

> <r_epik_State_Penalty>
0.00118332

> <r_epik_Charging_Adjusted_Penalty>
0.00293143

> <i_epik_Tot_Q>
1

> <i_epik_Tot_abs_Q>
1

> <r_epik_Metal_State_Penalty>
-0

> <b_epik_Metal_Only>
0

> <s_lp_Force_Field>
OPLS_2005

> <r_lp_Energy>
24.6468

> <b_lp_Chiralities_Consistent>
1

> <s_lp_Variant>
AV-unprocessed.smi:3337-4

> <Gold.Version>
5.8.1

> <Gold.Id.Protein>
6NUR|6NUR_protein|mol2

> <Gold.PLP.Fitness>
40.6043

> <Gold.PLP.PLP>
-33.7204

> <Gold.PLP.part.hbond>
-3.3868

> <Gold.PLP.part.metal>
0.0000

> <Gold.PLP.part.buried>
-5.8759

> <Gold.PLP.part.nonpolar>
-25.3781

> <Gold.PLP.part.repulsive>
0.1997

> <Gold.PLP.ligand.clash>
0.0000

> <Gold.PLP.ligand.torsion>
0.7182

> <Gold.PLP.Chemscore.Hbond>
2.7296

> <Gold.PLP.Chemscore.CHOScore>
0.0000

> <Gold.PLP.Chemscore.Metal>
0.0000

> <Gold.Chemscore.Hbonds>
donor molecule, donor type, donor heavy atom, donor atom, acceptor molecule, acceptor atom, score
      L1  H    10    37       P1  7948  1.00
      P1  H  7997  8010       L1    17  1.00
      P1  H 10752 10765       L1    19  0.57

> <Gold.PLP.Chemscore.Internal.Correction>
0.1317

> <Gold.Rescore>
     Score         DG    S(hbond)    S(metal)    S(lipo)     H(rot)  DE(clash)    DE(int)     intcor
     13.40     -14.26       2.56        0.00      57.00       2.51       0.01       0.84       ----

> <Gold.Chemscore.Fitness>
13.4050

> <Gold.Chemscore.DG>
-14.2557

> <Gold.Chemscore.ZeroCoef>
-5.4800

> <Gold.Chemscore.Hbond>
2.5568

> <Gold.Chemscore.Metal>
0.0000

> <Gold.Chemscore.Lipo>
56.9994

> <Gold.Chemscore.Internal_Hbond>
0.0000

> <Gold.Chemscore.DEClash>
0.0077

> <Gold.Chemscore.DEInternal>
0.8430

> <Gold.Chemscore.Rot>
2.5129

> <Gold.Chemscore.Internal.Correction>
   9.000000E+99

> <Gold.Chemscore.Hbonds>
donor molecule, donor type, donor heavy atom, donor atom, acceptor molecule, acceptor atom, score
      L1  H    10    37       P1  7948  0.94
      P1  H  7997  8010       L1    17  0.75
      P1  H 10752 10765       L1    19  0.41

> <Gold.Chemscore.Hbond.Weighted>
-8.5399

> <Gold.Chemscore.Metal.Weighted>
-0.0000

> <Gold.Chemscore.Lipo.Weighted>
-6.6689

> <Gold.Chemscore.Internal_Hbond.Weighted>
0.0000

> <Gold.Chemscore.DEClash.Weighted>
0.0077

> <Gold.Chemscore.DEInternal.Weighted>
0.8430

> <Gold.Chemscore.Rot.Weighted>
6.4331

> <Gold.Chemscore.Internal.Correction.Weighted>
   9.000000E+99

> <Gold.Protein.RotatedTorsions>
[ 6907 6896 6895 6894 ] final  131.12 input  -60.11 | X-H torsion
[ 7974 7965 7964 7962 ] final  -69.37 input  175.53 | X-H torsion
[ 8008 7997 7996 7995 ] final   77.37 input   59.86 | X-H torsion
[ 10167 10162 10161 10158 ] final   14.92 input  -65.29 | X-H torsion
[ 10718 10713 10712 10709 ] final   24.23 input   66.30 | X-H torsion
[ 10763 10752 10751 10750 ] final  143.60 input  -60.55 | X-H torsion
[ 11005 11000 10999 10996 ] final   72.03 input  -57.11 | X-H torsion

> <Gold.Protein.ActiveResidues>
 VAL166  LYS551  ARG553  GLY616  TRP617  ASP618  TYR619  PRO620  LYS621  CYS622 
 ASP623  PHE694  ASN695  SER759  ASP760  ASP761  ALA762  ILE779  LEU786  VAL792 
 PHE793  MET794  SER795  GLU796  ALA797  LYS798  CYS799  TRP800  GLU811  SER814 

> <Gold.Protein.RotatedAtoms>
  152.3458  133.6120  159.5908 H   0  0  0  0  0  0  0  0  0  0  0  0  # atno 6907 bound_to 6896
  150.7506  133.9652  159.3537 H   0  0  0  0  0  0  0  0  0  0  0  0  # atno 6908 bound_to 6896
  151.7510  135.0833  160.0382 H   0  0  0  0  0  0  0  0  0  0  0  0  # atno 6909 bound_to 6896
  145.7047  140.9102  143.0712 H   0  0  0  0  0  0  0  0  0  0  0  0  # atno 7974 bound_to 7965
  155.8407  140.3462  155.5630 H   0  0  0  0  0  0  0  0  0  0  0  0  # atno 8008 bound_to 7997
  155.8144  140.0903  157.1905 H   0  0  0  0  0  0  0  0  0  0  0  0  # atno 8009 bound_to 7997
  154.4005  140.1442  156.3412 H   0  0  0  0  0  0  0  0  0  0  0  0  # atno 8010 bound_to 7997
  140.5902  143.8809  150.6867 H   0  0  0  0  0  0  0  0  0  0  0  0  # atno 10167 bound_to 10162
  157.1769  130.6785  149.6098 H   0  0  0  0  0  0  0  0  0  0  0  0  # atno 10718 bound_to 10713
  153.9750  135.2947  155.3424 H   0  0  0  0  0  0  0  0  0  0  0  0  # atno 10763 bound_to 10752
  154.7301  135.5071  153.8953 H   0  0  0  0  0  0  0  0  0  0  0  0  # atno 10764 bound_to 10752
  153.0882  135.6699  154.0020 H   0  0  0  0  0  0  0  0  0  0  0  0  # atno 10765 bound_to 10752
  139.9512  134.7224  156.0859 H   0  0  0  0  0  0  0  0  0  0  0  0  # atno 11005 bound_to 11000
  144.6958  139.8994  143.7457 LP  0  0  0  0  0  0  0  0  0  0  0  0  # atno 17320 bound_to 7965
  146.0766  139.3754  143.0490 LP  0  0  0  0  0  0  0  0  0  0  0  0  # atno 17321 bound_to 7965
  140.2330  143.3721  152.1549 LP  0  0  0  0  0  0  0  0  0  0  0  0  # atno 17342 bound_to 10162
  139.5223  144.7057  151.5361 LP  0  0  0  0  0  0  0  0  0  0  0  0  # atno 17343 bound_to 10162
  155.9730  130.4660  150.6273 LP  0  0  0  0  0  0  0  0  0  0  0  0  # atno 17370 bound_to 10713
  157.3990  131.0807  151.1326 LP  0  0  0  0  0  0  0  0  0  0  0  0  # atno 17371 bound_to 10713
  141.1175  133.6623  156.3130 LP  0  0  0  0  0  0  0  0  0  0  0  0  # atno 17394 bound_to 11000
  140.5715  134.5835  157.5458 LP  0  0  0  0  0  0  0  0  0  0  0  0  # atno 17395 bound_to 11000

$$$$
