#       Name:                AV-unprocessed.smi:215
#       Creating user name   scv26
#       Creation time:       Thu Mar 26 20:04:44 2020


#       File generated by GOLD software.
#

@<TRIPOS>MOLECULE
AV-unprocessed.smi:215
    69    72     1
SMALL
NO_CHARGES


@<TRIPOS>ATOM
      1 ****        -2.4125  -1.0424   1.0887 C.3            1 S1                 0.0000
      2 ****        -2.3014   0.4901   1.0292 C.3            1 S1                 0.0000
      3 ****        -3.6508   1.2117   1.1268 C.3            1 S1                 0.0000
      4 ****        -4.3071   1.1833   2.4678 N.4            1 S1                 1.0000
      5 ****        -3.5124   1.7611   3.5833 C.3            1 S1                 0.0000
      6 ****        -5.6986   1.7055   2.4252 C.3            1 S1                 0.0000
      7 ****        -6.6051   1.0531   3.4827 C.3            1 S1                 0.0000
      8 ****        -6.7753  -0.3180   3.1922 O.3            1 S1                 0.0000
      9 ****        -3.3094   2.6004   0.5798 C.3            1 S1                 0.0000
     10 ****        -2.2831   2.2934  -0.5178 C.3            1 S1                 0.0000
     11 ****        -1.7428   0.9626  -0.2345 N.3            1 S1                 0.0000
     12 ****        -0.4015   0.8266  -0.3441 C.ar           1 S1                 0.0000
     13 ****         0.4274   1.6760   0.3185 N.ar           1 S1                 0.0000
     14 ****         1.7516   1.5247   0.2206 C.ar           1 S1                 0.0000
     15 ****         2.4382   0.6076  -0.4642 N.ar           1 S1                 0.0000
     16 ****         1.6076  -0.2505  -1.1247 C.ar           1 S1                 0.0000
     17 ****         0.1854  -0.2096  -1.1162 C.ar           1 S1                 0.0000
     18 ****        -0.3286  -1.2372  -1.8953 N.2            1 S1                 0.0000
     19 ****         0.7318  -1.8533  -2.3422 C.2            1 S1                 0.0000
     20 ****         1.9379  -1.3299  -1.9296 N.pl3          1 S1                 0.0000
     21 ****         3.2427  -1.8208  -2.2770 C.3            1 S1                 0.0000
     22 ****         4.2812  -2.1601  -1.2039 C.3            1 S1                 0.0000
     23 ****         5.4049  -1.7083  -2.1664 C.3            1 S1                 0.0000
     24 ****         6.5647  -0.9081  -1.5407 C.3            1 S1                 0.0000
     25 ****         6.1144   0.1559  -0.7259 O.3            1 S1                 0.0000
     26 ****         6.0303  -2.8568  -2.9804 C.3            1 S1                 0.0000
     27 ****         6.7450  -2.3740  -4.1002 O.3            1 S1                 0.0000
     28 ****         4.3017  -0.9043  -2.8952 C.3            1 S1                 0.0000
     29 ****        -1.6370   0.8236   1.8256 H              1 S1                 0.0000
     30 ****        -4.3245   0.7268   0.4170 H              1 S1                 0.0000
     31 ****        -2.8667  -1.3651   2.0257 H              1 S1                 0.0000
     32 ****        -1.4320  -1.5145   1.0225 H              1 S1                 0.0000
     33 ****        -3.0232  -1.4279   0.2714 H              1 S1                 0.0000
     34 ****        -3.3687   2.8350   3.4659 H              1 S1                 0.0000
     35 ****        -2.5358   1.2902   3.6767 H              1 S1                 0.0000
     36 ****        -4.0142   1.6050   4.5372 H              1 S1                 0.0000
     37 ****        -5.6832   2.7887   2.5549 H              1 S1                 0.0000
     38 ****        -6.1427   1.5277   1.4446 H              1 S1                 0.0000
     39 ****        -6.2142   1.1701   4.4928 H              1 S1                 0.0000
     40 ****        -7.5866   1.5277   3.4687 H              1 S1                 0.0000
     41 ****        -7.3827  -0.6861   3.8166 H              1 S1                 0.0000
     42 ****        -4.1799   3.1369   0.2015 H              1 S1                 0.0000
     43 ****        -2.8335   3.2227   1.3367 H              1 S1                 0.0000
     44 ****        -2.7784   2.2499  -1.4882 H              1 S1                 0.0000
     45 ****        -1.5243   3.0746  -0.5800 H              1 S1                 0.0000
     46 ****         2.3471   2.2387   0.7704 H              1 S1                 0.0000
     47 ****         0.6602  -2.7148  -2.9904 H              1 S1                 0.0000
     48 ****         3.0841  -2.6867  -2.9227 H              1 S1                 0.0000
     49 ****         4.1873  -1.5376  -0.3136 H              1 S1                 0.0000
     50 ****         4.3121  -3.2151  -0.9302 H              1 S1                 0.0000
     51 ****         7.1950  -1.5536  -0.9284 H              1 S1                 0.0000
     52 ****         7.2067  -0.4799  -2.3108 H              1 S1                 0.0000
     53 ****         6.8677   0.6116  -0.3827 H              1 S1                 0.0000
     54 ****         6.7052  -3.4517  -2.3640 H              1 S1                 0.0000
     55 ****         5.2667  -3.5443  -3.3448 H              1 S1                 0.0000
     56 ****         7.0997  -3.1122  -4.5718 H              1 S1                 0.0000
     57 ****         4.3455  -0.9451  -3.9838 H              1 S1                 0.0000
     58 ****         4.2185   0.1282  -2.5544 H              1 S1                 0.0000
     59 ****        -4.4060   0.2004   2.6800 H              1 S1                 0.0000
     60 ****        -5.8955  -0.7885   3.2606 LP             1 S1                 0.0000
     61 ****        -7.1386  -0.4236   2.2665 LP             1 S1                 0.0000
     62 ****        -2.0424   0.3573  -0.9720 LP             1 S1                 0.0000
     63 ****         0.0472   2.4125   0.8780 LP             1 S1                 0.0000
     64 ****         3.4365   0.5557  -0.4900 LP             1 S1                 0.0000
     65 ****        -1.2883  -1.4549  -2.0729 LP             1 S1                 0.0000
     66 ****         5.5667  -0.2058   0.0286 LP             1 S1                 0.0000
     67 ****         5.5588   0.7849  -1.2695 LP             1 S1                 0.0000
     68 ****         7.4893  -1.7801  -3.7946 LP             1 S1                 0.0000
     69 ****         6.1297  -1.8577  -4.6958 LP             1 S1                 0.0000
@<TRIPOS>BOND
    1    1    2 1     
    2    1   31 1     
    3    1   32 1     
    4    1   33 1     
    5    2   29 1     
    6    2   11 1     
    7    2    3 1     
    8    3   30 1     
    9    3    4 1     
   10    3    9 1     
   11    4    5 1     
   12    4    6 1     
   13    4   59 1     
   14    5   34 1     
   15    5   35 1     
   16    5   36 1     
   17    6    7 1     
   18    6   37 1     
   19    6   38 1     
   20    7    8 1     
   21    7   39 1     
   22    7   40 1     
   23    8   41 1     
   24    9   10 1     
   25    9   42 1     
   26    9   43 1     
   27   10   11 1     
   28   10   44 1     
   29   10   45 1     
   30   11   12 1     
   31   12   17 ar    
   32   12   13 ar    
   33   13   14 ar    
   34   14   15 ar    
   35   14   46 1     
   36   15   16 ar    
   37   16   20 1     
   38   16   17 ar    
   39   17   18 1     
   40   18   19 2     
   41   19   20 1     
   42   19   47 1     
   43   20   21 1     
   44   21   28 1     
   45   21   22 1     
   46   21   48 1     
   47   22   23 1     
   48   22   49 1     
   49   22   50 1     
   50   23   24 1     
   51   23   26 1     
   52   23   28 1     
   53   24   25 1     
   54   24   51 1     
   55   24   52 1     
   56   25   53 1     
   57   26   27 1     
   58   26   54 1     
   59   26   55 1     
   60   27   56 1     
   61   28   57 1     
   62   28   58 1     
   63    8   60 1     
   64    8   61 1     
   65   11   62 1     
   66   13   63 1     
   67   15   64 1     
   68   18   65 1     
   69   25   66 1     
   70   25   67 1     
   71   27   68 1     
   72   27   69 1     
@<TRIPOS>SUBSTRUCTURE
      1 S1             1
@<TRIPOS>SET
LONE_PAIRS      STATIC     ATOMS    <user>   **** ""
10 60 61 62 63 64 65 66 67 68 69
DONOR_HYDROGENS      STATIC     ATOMS    <user>   **** ""
4 59 41 53 56
ATOM$BLUE        STATIC     ATOMS    COLORGROUP SYSTEM
10 60 61 62 63 64 65 66 67 68 69
ATOM$RED        STATIC     ATOMS    COLORGROUP SYSTEM
4 59 41 53 56
