AV-unprocessed.smi:1702|AV-procd|sdf|6850|dock6
  -GOLD-   22720 8 33D 1   1.00000     0.00000
 Structure written by MMmdl.
 45 47  0  0  0  0  0  0  0  0  3 V2000
  146.9074  133.3596  154.8301 C   0  0  0  0  0  0  0  0  0  0  0  0
  147.9575  134.4120  155.2137 C   0  0  2  0  0  0  0  0  0  0  0  0
  147.4305  135.8423  155.0098 C   0  0  0  0  0  0  0  0  0  0  0  0
  148.5010  136.8881  155.3638 C   0  0  0  0  0  0  0  0  0  0  0  0
  149.7396  136.6767  154.5713 N   0  3  1  0  0  0  0  0  0  0  0  0
  150.7369  137.7577  154.7822 C   0  0  0  0  0  0  0  0  0  0  0  0
  150.8369  138.1928  156.2581 C   0  0  1  0  0  0  0  0  0  0  0  0
  151.1939  137.0707  157.0429 O   0  0  0  0  0  0  0  0  0  0  0  0
  151.8860  139.3055  156.4574 C   0  0  0  0  0  0  0  0  0  0  0  0
  151.2877  140.6405  156.5972 N   0  0  0  0  0  0  0  0  0  0  0  0
  150.4078  141.2948  155.7906 C   0  0  0  0  0  0  0  0  0  0  0  0
  150.1579  142.5093  156.3544 N   0  3  0  0  0  0  0  0  0  0  0  0
  150.8871  142.6326  157.5393 C   0  0  0  0  0  0  0  0  0  0  0  0
  150.9651  143.6739  158.4586 C   0  0  0  0  0  0  0  0  0  0  0  0
  151.8124  143.4785  159.5691 C   0  0  0  0  0  0  0  0  0  0  0  0
  151.9282  144.4618  160.4926 F   0  0  0  0  0  0  0  0  0  0  0  0
  152.5407  142.2811  159.7350 C   0  0  0  0  0  0  0  0  0  0  0  0
  153.3439  142.1343  160.8152 F   0  0  0  0  0  0  0  0  0  0  0  0
  152.4512  141.2310  158.7973 C   0  0  0  0  0  0  0  0  0  0  0  0
  151.6138  141.4346  157.7017 C   0  0  0  0  0  0  0  0  0  0  0  0
  150.2933  135.3131  154.7843 C   0  0  0  0  0  0  0  0  0  0  0  0
  149.2613  134.2335  154.4171 C   0  0  0  0  0  0  0  0  0  0  0  0
  146.6359  133.4345  153.7767 H   0  0  0  0  0  0  0  0  0  0  0  0
  145.9971  133.4808  155.4178 H   0  0  0  0  0  0  0  0  0  0  0  0
  147.2806  132.3504  155.0062 H   0  0  0  0  0  0  0  0  0  0  0  0
  148.1854  134.2818  156.2727 H   0  0  0  0  0  0  0  0  0  0  0  0
  147.1181  135.9785  153.9733 H   0  0  0  0  0  0  0  0  0  0  0  0
  146.5432  136.0048  155.6225 H   0  0  0  0  0  0  0  0  0  0  0  0
  148.1018  137.8841  155.1674 H   0  0  0  0  0  0  0  0  0  0  0  0
  148.7359  136.8440  156.4286 H   0  0  0  0  0  0  0  0  0  0  0  0
  151.7225  137.4218  154.4554 H   0  0  0  0  0  0  0  0  0  0  0  0
  150.4832  138.6082  154.1474 H   0  0  0  0  0  0  0  0  0  0  0  0
  149.8729  138.5558  156.6117 H   0  0  0  0  0  0  0  0  0  0  0  0
  150.4050  136.6612  157.3649 H   0  0  0  0  0  0  0  0  0  0  0  0
  152.4741  139.1161  157.3566 H   0  0  0  0  0  0  0  0  0  0  0  0
  152.5923  139.3305  155.6265 H   0  0  0  0  0  0  0  0  0  0  0  0
  149.9862  140.9208  154.8684 H   0  0  0  0  0  0  0  0  0  0  0  0
  150.4090  144.5918  158.3362 H   0  0  0  0  0  0  0  0  0  0  0  0
  153.0115  140.3187  158.9351 H   0  0  0  0  0  0  0  0  0  0  0  0
  151.1874  135.1657  154.1799 H   0  0  0  0  0  0  0  0  0  0  0  0
  150.5968  135.2007  155.8265 H   0  0  0  0  0  0  0  0  0  0  0  0
  149.6820  133.2452  154.6066 H   0  0  0  0  0  0  0  0  0  0  0  0
  149.0520  134.2796  153.3473 H   0  0  0  0  0  0  0  0  0  0  0  0
  149.4626  136.7349  153.6013 H   0  0  0  0  0  0  0  0  0  0  0  0
  149.5352  143.2012  155.9569 H   0  0  0  0  0  0  0  0  0  0  0  0
  1  2  1  0  0  0  0
  1 23  1  0  0  0  0
  1 24  1  0  0  0  0
  1 25  1  0  0  0  0
  2 22  1  0  0  0  0
  2  3  1  0  0  0  0
  2 26  1  0  0  0  0
  3  4  1  0  0  0  0
  3 27  1  0  0  0  0
  3 28  1  0  0  0  0
  4  5  1  0  0  0  0
  4 29  1  0  0  0  0
  4 30  1  0  0  0  0
  5  6  1  0  0  0  0
  5 21  1  0  0  0  0
  5 44  1  0  0  0  0
  6  7  1  0  0  0  0
  6 31  1  0  0  0  0
  6 32  1  0  0  0  0
  7  8  1  0  0  0  0
  7  9  1  0  0  0  0
  7 33  1  0  0  0  0
  8 34  1  0  0  0  0
  9 10  1  0  0  0  0
  9 35  1  0  0  0  0
  9 36  1  0  0  0  0
 10 20  1  0  0  0  0
 10 11  1  0  0  0  0
 11 12  2  0  0  0  0
 11 37  1  0  0  0  0
 12 13  1  0  0  0  0
 12 45  1  0  0  0  0
 13 20  2  0  0  0  0
 13 14  1  0  0  0  0
 14 15  2  0  0  0  0
 14 38  1  0  0  0  0
 15 16  1  0  0  0  0
 15 17  1  0  0  0  0
 17 18  1  0  0  0  0
 17 19  2  0  0  0  0
 19 20  1  0  0  0  0
 19 39  1  0  0  0  0
 21 22  1  0  0  0  0
 21 40  1  0  0  0  0
 21 41  1  0  0  0  0
 22 42  1  0  0  0  0
 22 43  1  0  0  0  0
M  CHG  1   5   1
M  CHG  1  12   1
M  END
> <s_m_source_file>
AV-unprocessed.smi

> <i_m_source_file_index>
1702

> <i_lp_mmshare_version>
43012

> <i_f3d_flags>
0

> <s_epik_input>
W0NIM11bQ0hdMVtDSDJdW0NIMl1OKFtDSDJdW0NIMl0xKVtDSDJdW0NASF0oW09IXSlbQ0gyXW4oW2NIXW4yKWMoYzIzKVtjSF1jKEYpYyhGKVtjSF0z

> <s_epik_cmdline>
J2VwaWtfcHl0aG9uJywgJy1waCcsICc3LjAnLCAnLXRuJywgJzgnLCAnLW1hJywgJzIwMCcsICctbWV0YWxfYmluZGluZycsICctaW1hZScsICc8aW5maWxlLm1hZT4nLCAnLW9tYWUnLCAnPG91dGZpbGUubWFlPic=

> <r_epik_Ionization_Penalty>
2.33291

> <r_epik_Ionization_Penalty_Charging>
2.33291

> <r_epik_Ionization_Penalty_Neutral>
6.90208e-07

> <r_epik_State_Penalty>
2.4838

> <r_epik_Charging_Adjusted_Penalty>
4.81672

> <i_epik_Tot_Q>
2

> <i_epik_Tot_abs_Q>
2

> <r_epik_Metal_State_Penalty>
6.56754

> <b_epik_Metal_Only>
0

> <s_lp_Force_Field>
OPLS_2005

> <r_lp_Energy>
29.8556

> <b_lp_Chiralities_Consistent>
1

> <s_lp_Variant>
AV-unprocessed.smi:1702-6

> <Gold.Version>
5.8.1

> <Gold.Id.Protein>
6NUR|6NUR_protein|mol2

> <Gold.PLP.Fitness>
52.7561

> <Gold.PLP.PLP>
-42.4864

> <Gold.PLP.part.hbond>
-2.0000

> <Gold.PLP.part.metal>
0.0000

> <Gold.PLP.part.buried>
-4.7328

> <Gold.PLP.part.nonpolar>
-35.7097

> <Gold.PLP.part.repulsive>
0.1433

> <Gold.PLP.ligand.clash>
0.0000

> <Gold.PLP.ligand.torsion>
0.8737

> <Gold.PLP.Chemscore.Hbond>
4.0000

> <Gold.PLP.Chemscore.CHOScore>
0.0000

> <Gold.PLP.Chemscore.Metal>
0.0000

> <Gold.Chemscore.Hbonds>
donor molecule, donor type, donor heavy atom, donor atom, acceptor molecule, acceptor atom, score
      L1  H     5    44       P1  7948  2.00
      L1  H    12    45       P1  8028  2.00

> <Gold.PLP.Chemscore.Internal.Correction>
0.0171

> <Gold.Rescore>
     Score         DG    S(hbond)    S(metal)    S(lipo)     H(rot)  DE(clash)    DE(int)     intcor
     15.07     -17.20       1.85        0.00      98.02       2.32       0.07       2.06       ----

> <Gold.Chemscore.Fitness>
15.0725

> <Gold.Chemscore.DG>
-17.2021

> <Gold.Chemscore.ZeroCoef>
-5.4800

> <Gold.Chemscore.Hbond>
1.8549

> <Gold.Chemscore.Metal>
0.0000

> <Gold.Chemscore.Lipo>
98.0212

> <Gold.Chemscore.Internal_Hbond>
0.0000

> <Gold.Chemscore.DEClash>
0.0653

> <Gold.Chemscore.DEInternal>
2.0643

> <Gold.Chemscore.Rot>
2.3210

> <Gold.Chemscore.Internal.Correction>
   9.000000E+99

> <Gold.Chemscore.Hbonds>
donor molecule, donor type, donor heavy atom, donor atom, acceptor molecule, acceptor atom, score
      L1  H     5    44       P1  7948  0.85
      L1  H    12    45       P1  8028  0.99

> <Gold.Chemscore.Hbond.Weighted>
-6.1953

> <Gold.Chemscore.Metal.Weighted>
-0.0000

> <Gold.Chemscore.Lipo.Weighted>
-11.4685

> <Gold.Chemscore.Internal_Hbond.Weighted>
0.0000

> <Gold.Chemscore.DEClash.Weighted>
0.0653

> <Gold.Chemscore.DEInternal.Weighted>
2.0643

> <Gold.Chemscore.Rot.Weighted>
5.9416

> <Gold.Chemscore.Internal.Correction.Weighted>
   9.000000E+99

> <Gold.Protein.RotatedTorsions>
[ 6907 6896 6895 6894 ] final   -5.00 input  -60.11 | X-H torsion
[ 7974 7965 7964 7962 ] final   90.20 input  175.53 | X-H torsion
[ 8008 7997 7996 7995 ] final  176.03 input   59.86 | X-H torsion
[ 10167 10162 10161 10158 ] final   53.20 input  -65.29 | X-H torsion
[ 10718 10713 10712 10709 ] final -131.95 input   66.30 | X-H torsion
[ 10763 10752 10751 10750 ] final  139.13 input  -60.55 | X-H torsion
[ 11005 11000 10999 10996 ] final -112.51 input  -57.11 | X-H torsion

> <Gold.Protein.ActiveResidues>
 VAL166  LYS551  ARG553  GLY616  TRP617  ASP618  TYR619  PRO620  LYS621  CYS622 
 ASP623  PHE694  ASN695  SER759  ASP760  ASP761  ALA762  ILE779  LEU786  VAL792 
 PHE793  MET794  SER795  GLU796  ALA797  LYS798  CYS799  TRP800  GLU811  SER814 

> <Gold.Protein.RotatedAtoms>
  151.4886  135.1056  159.9796 H   0  0  0  0  0  0  0  0  0  0  0  0  # atno 6907 bound_to 6896
  152.4750  133.8114  159.7016 H   0  0  0  0  0  0  0  0  0  0  0  0  # atno 6908 bound_to 6896
  150.8782  133.7346  159.2966 H   0  0  0  0  0  0  0  0  0  0  0  0  # atno 6909 bound_to 6896
  145.5222  139.2280  143.2665 H   0  0  0  0  0  0  0  0  0  0  0  0  # atno 7974 bound_to 7965
  156.0808  140.1394  156.9715 H   0  0  0  0  0  0  0  0  0  0  0  0  # atno 8008 bound_to 7997
  154.4584  140.0952  156.6872 H   0  0  0  0  0  0  0  0  0  0  0  0  # atno 8009 bound_to 7997
  155.5079  140.3453  155.4385 H   0  0  0  0  0  0  0  0  0  0  0  0  # atno 8010 bound_to 7997
  140.2433  144.3559  150.6373 H   0  0  0  0  0  0  0  0  0  0  0  0  # atno 10167 bound_to 10162
  156.2296  130.7029  151.0844 H   0  0  0  0  0  0  0  0  0  0  0  0  # atno 10718 bound_to 10713
  153.9011  135.3022  155.3448 H   0  0  0  0  0  0  0  0  0  0  0  0  # atno 10763 bound_to 10752
  154.7670  135.4905  153.9576 H   0  0  0  0  0  0  0  0  0  0  0  0  # atno 10764 bound_to 10752
  153.1244  135.6789  153.9381 H   0  0  0  0  0  0  0  0  0  0  0  0  # atno 10765 bound_to 10752
  141.0670  133.9442  157.2558 H   0  0  0  0  0  0  0  0  0  0  0  0  # atno 11005 bound_to 11000
  146.2099  140.6034  142.9064 LP  0  0  0  0  0  0  0  0  0  0  0  0  # atno 17320 bound_to 7965
  144.7670  140.5553  143.6696 LP  0  0  0  0  0  0  0  0  0  0  0  0  # atno 17321 bound_to 7965
  140.6097  143.2169  151.6911 LP  0  0  0  0  0  0  0  0  0  0  0  0  # atno 17342 bound_to 10162
  139.5070  144.3662  152.0515 LP  0  0  0  0  0  0  0  0  0  0  0  0  # atno 17343 bound_to 10162
  157.7126  131.0726  150.6443 LP  0  0  0  0  0  0  0  0  0  0  0  0  # atno 17370 bound_to 10713
  156.6510  130.4485  149.5719 LP  0  0  0  0  0  0  0  0  0  0  0  0  # atno 17371 bound_to 10713
  139.9486  135.0179  156.8928 LP  0  0  0  0  0  0  0  0  0  0  0  0  # atno 17394 bound_to 11000
  140.5752  134.0405  155.7444 LP  0  0  0  0  0  0  0  0  0  0  0  0  # atno 17395 bound_to 11000

$$$$
