#       Name:                AV-unprocessed.smi:2124
#       Creating user name   scv26
#       Creation time:       Fri Mar 27 11:41:06 2020


#       File generated by GOLD software.
#

@<TRIPOS>MOLECULE
AV-unprocessed.smi:2124
    52    54     1
SMALL
NO_CHARGES


@<TRIPOS>ATOM
      1 ****        -4.1057   6.0920   0.2915 C.3            1 S1                 0.0000
      2 ****        -3.5513   4.6892   0.1710 C.2            1 S1                 0.0000
      3 ****        -3.2326   4.1107   1.3886 N.pl3          1 S1                 0.0000
      4 ****        -2.7217   2.8248   1.3801 C.2            1 S1                 0.0000
      5 ****        -2.3982   2.2647   2.7542 C.3            1 S1                 0.0000
      6 ****        -2.5352   2.1508   0.2168 C.2            1 S1                 0.0000
      7 ****        -1.9680   0.7324   0.1638 C.3            1 S1                 0.0000
      8 ****        -0.4437   0.6101   0.2400 C.2            1 S1                 0.0000
      9 ****         0.2693   1.6137   0.2135 O.2            1 S1                 0.0000
     10 ****         0.0413  -0.6372   0.3382 N.am           1 S1                 0.0000
     11 ****         1.4572  -0.9928   0.4171 C.3            1 S1                 0.0000
     12 ****         1.9036  -0.9426   1.8902 C.3            1 S1                 0.0000
     13 ****         1.6812  -2.3822  -0.2303 C.3            1 S1                 0.0000
     14 ****         1.1752  -2.4807  -1.6926 C.3            1 S1                 0.0000
     15 ****         2.4042  -2.9960  -2.4615 C.3            1 S1                 0.0000
     16 ****         2.6913  -4.4550  -2.0630 C.3            1 S1                 0.0000
     17 ****         3.2466  -4.3114  -0.6339 C.3            1 S1                 0.0000
     18 ****         3.1678  -2.7919  -0.3890 C.3            1 S1                 0.0000
     19 ****         3.5318  -2.2460  -1.7665 C.3            1 S1                 0.0000
     20 ****        -2.8883   2.8249  -1.0547 C.2            1 S1                 0.0000
     21 ****        -2.7301   2.2720  -2.1424 O.2            1 S1                 0.0000
     22 ****        -3.4094   4.1274  -0.9908 N.2            1 S1                 0.0000
     23 ****        -3.3538   4.5770   2.2762 H              1 S1                 0.0000
     24 ****        -4.2940   6.5231  -0.6928 H              1 S1                 0.0000
     25 ****        -3.3999   6.7369   0.8158 H              1 S1                 0.0000
     26 ****        -5.0448   6.0820   0.8454 H              1 S1                 0.0000
     27 ****        -1.3463   1.9846   2.8145 H              1 S1                 0.0000
     28 ****        -3.0028   1.3807   2.9571 H              1 S1                 0.0000
     29 ****        -2.5963   2.9925   3.5421 H              1 S1                 0.0000
     30 ****        -2.3123   0.2164  -0.7331 H              1 S1                 0.0000
     31 ****        -2.3906   0.1621   0.9912 H              1 S1                 0.0000
     32 ****        -0.6193  -1.4007   0.3508 H              1 S1                 0.0000
     33 ****         2.0365  -0.2567  -0.1426 H              1 S1                 0.0000
     34 ****         2.9740  -1.1131   1.9960 H              1 S1                 0.0000
     35 ****         1.3856  -1.6935   2.4875 H              1 S1                 0.0000
     36 ****         1.6944   0.0326   2.3317 H              1 S1                 0.0000
     37 ****         1.1635  -3.1233   0.3812 H              1 S1                 0.0000
     38 ****         0.3155  -3.1446  -1.7903 H              1 S1                 0.0000
     39 ****         0.8827  -1.5051  -2.0836 H              1 S1                 0.0000
     40 ****         2.3419  -2.8404  -3.5389 H              1 S1                 0.0000
     41 ****         1.7965  -5.0771  -2.1022 H              1 S1                 0.0000
     42 ****         3.4386  -4.8996  -2.7215 H              1 S1                 0.0000
     43 ****         2.6747  -4.8844   0.0969 H              1 S1                 0.0000
     44 ****         4.2805  -4.6559  -0.5900 H              1 S1                 0.0000
     45 ****         3.8224  -2.4621   0.4165 H              1 S1                 0.0000
     46 ****         4.5245  -2.5486  -2.1043 H              1 S1                 0.0000
     47 ****         3.4442  -1.1613  -1.8457 H              1 S1                 0.0000
     48 ****        -0.1462   2.5205   0.1416 LP             1 S1                 0.0000
     49 ****         1.2638   1.5220   0.2640 LP             1 S1                 0.0000
     50 ****        -2.3552   1.3458  -2.1826 LP             1 S1                 0.0000
     51 ****        -2.9764   2.7488  -2.9861 LP             1 S1                 0.0000
     52 ****        -3.6668   4.6138  -1.8258 LP             1 S1                 0.0000
@<TRIPOS>BOND
    1    1   24 1     
    2    1   25 1     
    3    1   26 1     
    4    1    2 1     
    5    2    3 1     
    6    2   22 2     
    7    3    4 1     
    8    3   23 1     
    9    4    6 2     
   10    4    5 1     
   11    5   27 1     
   12    5   28 1     
   13    5   29 1     
   14    6   20 1     
   15    6    7 1     
   16    7    8 1     
   17    7   30 1     
   18    7   31 1     
   19    8    9 2     
   20    8   10 am    
   21   10   11 1     
   22   10   32 1     
   23   11   12 1     
   24   11   13 1     
   25   11   33 1     
   26   12   34 1     
   27   12   35 1     
   28   12   36 1     
   29   13   18 1     
   30   13   14 1     
   31   13   37 1     
   32   14   15 1     
   33   14   38 1     
   34   14   39 1     
   35   15   19 1     
   36   15   16 1     
   37   15   40 1     
   38   16   17 1     
   39   16   41 1     
   40   16   42 1     
   41   17   18 1     
   42   17   43 1     
   43   17   44 1     
   44   18   19 1     
   45   18   45 1     
   46   19   46 1     
   47   19   47 1     
   48   20   21 2     
   49   20   22 1     
   50    9   48 1     
   51    9   49 1     
   52   21   50 1     
   53   21   51 1     
   54   22   52 1     
@<TRIPOS>SUBSTRUCTURE
      1 S1             1
@<TRIPOS>SET
LONE_PAIRS      STATIC     ATOMS    <user>   **** ""
5 48 49 50 51 52
DONOR_HYDROGENS      STATIC     ATOMS    <user>   **** ""
2 23 32
ATOM$BLUE        STATIC     ATOMS    COLORGROUP SYSTEM
5 48 49 50 51 52
ATOM$RED        STATIC     ATOMS    COLORGROUP SYSTEM
2 23 32
