AV-unprocessed.smi:1669|AV-procd|sdf|6684|dock5
  -GOLD-   22720 7403D 1   1.00000     0.00000
 Structure written by MMmdl.
 48 50  0  0  0  0  0  0  0  0  2 V2000
  149.6766  141.6416  155.4735 C   0  0  0  0  0  0  0  0  0  0  0  0
  149.7957  142.2851  156.8060 N   0  3  2  0  0  0  0  0  0  0  0  0
  151.1926  142.3096  157.3113 C   0  0  0  0  0  0  0  0  0  0  0  0
  151.3534  143.1897  158.5392 C   0  0  0  0  0  0  0  0  0  0  0  0
  150.5254  144.3181  158.7207 C   0  0  0  0  0  0  0  0  0  0  0  0
  150.6742  145.1286  159.8630 C   0  0  0  0  0  0  0  0  0  0  0  0
  151.6525  144.8159  160.8264 C   0  0  0  0  0  0  0  0  0  0  0  0
  152.4832  143.6930  160.6469 C   0  0  0  0  0  0  0  0  0  0  0  0
  152.3352  142.8819  159.5047 C   0  0  0  0  0  0  0  0  0  0  0  0
  148.8513  141.7121  157.7994 C   0  0  0  0  0  0  0  0  0  0  0  0
  147.4716  141.3925  157.1820 C   0  0  2  0  0  0  0  0  0  0  0  0
  146.9794  142.5571  156.5517 O   0  0  0  0  0  0  0  0  0  0  0  0
  146.4215  140.9317  158.2135 C   0  0  0  0  0  0  0  0  0  0  0  0
  145.5325  142.0107  158.6231 N   0  0  0  0  0  0  0  0  0  0  0  0
  145.6639  142.8640  159.6715 C   0  0  0  0  0  0  0  0  0  0  0  0
  146.8418  142.7938  160.6024 C   0  0  0  0  0  0  0  0  0  0  0  0
  147.0466  141.5178  161.1738 O   0  0  0  0  0  0  0  0  0  0  0  0
  144.6828  143.7586  159.8106 N   0  0  0  0  0  0  0  0  0  0  0  0
  143.8438  143.4638  158.7548 C   0  0  0  0  0  0  0  0  0  0  0  0
  142.6249  144.0571  158.3562 C   0  0  0  0  0  0  0  0  0  0  0  0
  141.9347  143.5778  157.2237 C   0  0  0  0  0  0  0  0  0  0  0  0
  142.4526  142.5011  156.4751 C   0  0  0  0  0  0  0  0  0  0  0  0
  143.6654  141.8952  156.8558 C   0  0  0  0  0  0  0  0  0  0  0  0
  144.3492  142.3765  157.9883 C   0  0  0  0  0  0  0  0  0  0  0  0
  150.0187  140.6067  155.5101 H   0  0  0  0  0  0  0  0  0  0  0  0
  150.2683  142.1686  154.7255 H   0  0  0  0  0  0  0  0  0  0  0  0
  148.6475  141.6421  155.1170 H   0  0  0  0  0  0  0  0  0  0  0  0
  151.5046  141.3020  157.5897 H   0  0  0  0  0  0  0  0  0  0  0  0
  151.8680  142.6371  156.5191 H   0  0  0  0  0  0  0  0  0  0  0  0
  149.7712  144.5640  157.9873 H   0  0  0  0  0  0  0  0  0  0  0  0
  150.0378  145.9904  160.0004 H   0  0  0  0  0  0  0  0  0  0  0  0
  151.7659  145.4377  161.7025 H   0  0  0  0  0  0  0  0  0  0  0  0
  153.2339  143.4542  161.3858 H   0  0  0  0  0  0  0  0  0  0  0  0
  152.9757  142.0220  159.3738 H   0  0  0  0  0  0  0  0  0  0  0  0
  149.3082  140.8229  158.2351 H   0  0  0  0  0  0  0  0  0  0  0  0
  148.7006  142.4070  158.6268 H   0  0  0  0  0  0  0  0  0  0  0  0
  147.5663  140.6194  156.4209 H   0  0  0  0  0  0  0  0  0  0  0  0
  147.6977  143.1585  156.4227 H   0  0  0  0  0  0  0  0  0  0  0  0
  145.8365  140.1011  157.8193 H   0  0  0  0  0  0  0  0  0  0  0  0
  146.9182  140.5508  159.1073 H   0  0  0  0  0  0  0  0  0  0  0  0
  147.7487  143.0684  160.0642 H   0  0  0  0  0  0  0  0  0  0  0  0
  146.7023  143.5198  161.4038 H   0  0  0  0  0  0  0  0  0  0  0  0
  146.3994  141.3814  161.8485 H   0  0  0  0  0  0  0  0  0  0  0  0
  142.2205  144.8833  158.9223 H   0  0  0  0  0  0  0  0  0  0  0  0
  141.0043  144.0400  156.9273 H   0  0  0  0  0  0  0  0  0  0  0  0
  141.9181  142.1415  155.6078 H   0  0  0  0  0  0  0  0  0  0  0  0
  144.0639  141.0719  156.2820 H   0  0  0  0  0  0  0  0  0  0  0  0
  149.5256  143.2522  156.6948 H   0  0  0  0  0  0  0  0  0  0  0  0
  1  2  1  0  0  0  0
  1 25  1  0  0  0  0
  1 26  1  0  0  0  0
  1 27  1  0  0  0  0
  2  3  1  0  0  0  0
  2 10  1  0  0  0  0
  2 48  1  0  0  0  0
  3  4  1  0  0  0  0
  3 28  1  0  0  0  0
  3 29  1  0  0  0  0
  4  9  1  0  0  0  0
  4  5  2  0  0  0  0
  5  6  1  0  0  0  0
  5 30  1  0  0  0  0
  6  7  2  0  0  0  0
  6 31  1  0  0  0  0
  7  8  1  0  0  0  0
  7 32  1  0  0  0  0
  8  9  2  0  0  0  0
  8 33  1  0  0  0  0
  9 34  1  0  0  0  0
 10 11  1  0  0  0  0
 10 35  1  0  0  0  0
 10 36  1  0  0  0  0
 11 12  1  0  0  0  0
 11 13  1  0  0  0  0
 11 37  1  0  0  0  0
 12 38  1  0  0  0  0
 13 14  1  0  0  0  0
 13 39  1  0  0  0  0
 13 40  1  0  0  0  0
 14 24  1  0  0  0  0
 14 15  1  0  0  0  0
 15 16  1  0  0  0  0
 15 18  2  0  0  0  0
 16 17  1  0  0  0  0
 16 41  1  0  0  0  0
 16 42  1  0  0  0  0
 17 43  1  0  0  0  0
 18 19  1  0  0  0  0
 19 24  2  0  0  0  0
 19 20  1  0  0  0  0
 20 21  2  0  0  0  0
 20 44  1  0  0  0  0
 21 22  1  0  0  0  0
 21 45  1  0  0  0  0
 22 23  2  0  0  0  0
 22 46  1  0  0  0  0
 23 24  1  0  0  0  0
 23 47  1  0  0  0  0
M  CHG  1   2   1
M  END
> <s_m_source_file>
AV-unprocessed.smi

> <i_m_source_file_index>
1669

> <i_lp_mmshare_version>
43012

> <i_f3d_flags>
0

> <s_epik_input>
W2NIXTFbY0hdW2NIXVtjSF1bY0hdYzFbQ0gyXU4oW0NIM10pW0NIMl1bQ0BIXShbT0hdKVtDSDJdbihjKG4yKVtDSDJdW09IXSljKGMyMylbY0hdW2NIXVtjSF1bY0hdMw==

> <s_epik_cmdline>
J2VwaWtfcHl0aG9uJywgJy1waCcsICc3LjAnLCAnLXRuJywgJzgnLCAnLW1hJywgJzIwMCcsICctbWV0YWxfYmluZGluZycsICctaW1hZScsICc8aW5maWxlLm1hZT4nLCAnLW9tYWUnLCAnPG91dGZpbGUubWFlPic=

> <r_epik_Ionization_Penalty>
0.0949884

> <r_epik_Ionization_Penalty_Charging>
0.0475377

> <r_epik_Ionization_Penalty_Neutral>
0.0474507

> <r_epik_State_Penalty>
0.078247

> <r_epik_Charging_Adjusted_Penalty>
0.125785

> <i_epik_Tot_Q>
1

> <i_epik_Tot_abs_Q>
1

> <r_epik_Metal_State_Penalty>
0.0403451

> <b_epik_Metal_Only>
0

> <s_lp_Force_Field>
OPLS_2005

> <r_lp_Energy>
17.3617

> <b_lp_Chiralities_Consistent>
1

> <s_lp_Variant>
AV-unprocessed.smi:1669-2

> <Gold.Version>
5.8.1

> <Gold.Id.Protein>
6NUR|6NUR_protein|mol2

> <Gold.PLP.Fitness>
50.7215

> <Gold.PLP.PLP>
-39.0290

> <Gold.PLP.part.hbond>
-3.9910

> <Gold.PLP.part.metal>
0.0000

> <Gold.PLP.part.buried>
-2.7605

> <Gold.PLP.part.nonpolar>
-33.1507

> <Gold.PLP.part.repulsive>
0.1574

> <Gold.PLP.ligand.clash>
0.0000

> <Gold.PLP.ligand.torsion>
1.5016

> <Gold.PLP.Chemscore.Hbond>
4.7680

> <Gold.PLP.Chemscore.CHOScore>
0.0000

> <Gold.PLP.Chemscore.Metal>
0.0000

> <Gold.Chemscore.Hbonds>
donor molecule, donor type, donor heavy atom, donor atom, acceptor molecule, acceptor atom, score
      L1  H     2    48       P1  8028  2.00
      L1  H    12    38       P1  8028  0.61

> <Gold.PLP.Chemscore.Internal.Correction>
0.3917

> <Gold.Rescore>
     Score         DG    S(hbond)    S(metal)    S(lipo)     H(rot)  DE(clash)    DE(int)     intcor
     14.03     -18.43       2.64        0.00     104.65       3.17       1.10       3.30       ----

> <Gold.Chemscore.Fitness>
14.0282

> <Gold.Chemscore.DG>
-18.4312

> <Gold.Chemscore.ZeroCoef>
-5.4800

> <Gold.Chemscore.Hbond>
2.6440

> <Gold.Chemscore.Metal>
0.0000

> <Gold.Chemscore.Lipo>
104.6450

> <Gold.Chemscore.Internal_Hbond>
0.0000

> <Gold.Chemscore.DEClash>
1.0991

> <Gold.Chemscore.DEInternal>
3.3039

> <Gold.Chemscore.Rot>
3.1731

> <Gold.Chemscore.Internal.Correction>
   9.000000E+99

> <Gold.Chemscore.Hbonds>
donor molecule, donor type, donor heavy atom, donor atom, acceptor molecule, acceptor atom, score
      L1  H     2    48       P1  8028  0.97
      L1  H    12    38       P1  8028  0.06

> <Gold.Chemscore.Hbond.Weighted>
-8.8308

> <Gold.Chemscore.Metal.Weighted>
-0.0000

> <Gold.Chemscore.Lipo.Weighted>
-12.2435

> <Gold.Chemscore.Internal_Hbond.Weighted>
0.0000

> <Gold.Chemscore.DEClash.Weighted>
1.0991

> <Gold.Chemscore.DEInternal.Weighted>
3.3039

> <Gold.Chemscore.Rot.Weighted>
8.1230

> <Gold.Chemscore.Internal.Correction.Weighted>
   9.000000E+99

> <Gold.Protein.RotatedTorsions>
[ 6907 6896 6895 6894 ] final  132.46 input  -60.11 | X-H torsion
[ 7974 7965 7964 7962 ] final -178.53 input  175.53 | X-H torsion
[ 8008 7997 7996 7995 ] final  147.06 input   59.86 | X-H torsion
[ 10167 10162 10161 10158 ] final  139.88 input  -65.29 | X-H torsion
[ 10718 10713 10712 10709 ] final   58.28 input   66.30 | X-H torsion
[ 10763 10752 10751 10750 ] final   -5.74 input  -60.55 | X-H torsion
[ 11005 11000 10999 10996 ] final  -67.45 input  -57.11 | X-H torsion

> <Gold.Protein.ActiveResidues>
 VAL166  LYS551  ARG553  GLY616  TRP617  ASP618  TYR619  PRO620  LYS621  CYS622 
 ASP623  PHE694  ASN695  SER759  ASP760  ASP761  ALA762  ILE779  LEU786  VAL792 
 PHE793  MET794  SER795  GLU796  ALA797  LYS798  CYS799  TRP800  GLU811  SER814 

> <Gold.Protein.RotatedAtoms>
  152.3322  133.5971  159.5817 H   0  0  0  0  0  0  0  0  0  0  0  0  # atno 6907 bound_to 6896
  150.7429  133.9851  159.3597 H   0  0  0  0  0  0  0  0  0  0  0  0  # atno 6908 bound_to 6896
  151.7724  135.0783  160.0413 H   0  0  0  0  0  0  0  0  0  0  0  0  # atno 6909 bound_to 6896
  144.7131  140.0855  143.6424 H   0  0  0  0  0  0  0  0  0  0  0  0  # atno 7974 bound_to 7965
  156.2836  140.2166  156.5476 H   0  0  0  0  0  0  0  0  0  0  0  0  # atno 8008 bound_to 7997
  154.7318  140.0495  157.0755 H   0  0  0  0  0  0  0  0  0  0  0  0  # atno 8009 bound_to 7997
  155.0344  140.3138  155.4750 H   0  0  0  0  0  0  0  0  0  0  0  0  # atno 8010 bound_to 7997
  139.5065  144.6268  151.5918 H   0  0  0  0  0  0  0  0  0  0  0  0  # atno 10167 bound_to 10162
  157.5583  130.8817  149.9071 H   0  0  0  0  0  0  0  0  0  0  0  0  # atno 10718 bound_to 10713
  153.4027  135.7005  153.6414 H   0  0  0  0  0  0  0  0  0  0  0  0  # atno 10763 bound_to 10752
  153.4941  135.3666  155.2507 H   0  0  0  0  0  0  0  0  0  0  0  0  # atno 10764 bound_to 10752
  154.8711  135.4096  154.3365 H   0  0  0  0  0  0  0  0  0  0  0  0  # atno 10765 bound_to 10752
  141.1508  133.6719  156.6295 H   0  0  0  0  0  0  0  0  0  0  0  0  # atno 11005 bound_to 11000
  145.9666  139.2839  143.1124 LP  0  0  0  0  0  0  0  0  0  0  0  0  # atno 17320 bound_to 7965
  145.9163  140.9146  143.0428 LP  0  0  0  0  0  0  0  0  0  0  0  0  # atno 17321 bound_to 7965
  140.5987  143.9649  150.6372 LP  0  0  0  0  0  0  0  0  0  0  0  0  # atno 17342 bound_to 10162
  140.2853  143.3361  152.1113 LP  0  0  0  0  0  0  0  0  0  0  0  0  # atno 17343 bound_to 10162
  156.0639  130.3695  150.0921 LP  0  0  0  0  0  0  0  0  0  0  0  0  # atno 17370 bound_to 10713
  156.9087  130.9644  151.3566 LP  0  0  0  0  0  0  0  0  0  0  0  0  # atno 17371 bound_to 10713
  140.3478  134.7794  157.4445 LP  0  0  0  0  0  0  0  0  0  0  0  0  # atno 17394 bound_to 11000
  140.0885  134.5633  155.8467 LP  0  0  0  0  0  0  0  0  0  0  0  0  # atno 17395 bound_to 11000

$$$$
