AV-unprocessed.smi:104|AV-procd|sdf|1000|dock4
  -GOLD-   2262017583D 1   1.00000     0.00000
 Structure written by MMmdl.
 47 49  0  0  0  0  0  0  0  0  1 V2000
  151.3941  145.6527  159.6858 C   0  0  0  0  0  0  0  0  0  0  0  0
  152.1037  144.4932  158.9983 C   0  0  0  0  0  0  0  0  0  0  0  0
  152.7724  144.6642  157.9791 O   0  0  0  0  0  0  0  0  0  0  0  0
  151.9108  143.3253  159.6288 O   0  0  0  0  0  0  0  0  0  0  0  0
  152.6598  142.1833  159.2445 C   0  0  0  0  0  0  0  0  0  0  0  0
  151.7738  140.9246  159.3166 C   0  0  1  0  0  0  0  0  0  0  0  0
  150.5546  141.2078  158.6452 O   0  0  0  0  0  0  0  0  0  0  0  0
  150.6899  140.9196  157.2871 C   0  0  2  0  0  0  0  0  0  0  0  0
  149.4020  140.3134  156.8186 N   0  0  0  0  0  0  0  0  0  0  0  0
  148.7151  139.2348  157.3268 C   0  0  0  0  0  0  0  0  0  0  0  0
  149.3310  138.2546  158.8389 Br  0  0  0  0  0  0  0  0  0  0  0  0
  147.5969  138.9104  156.7401 N   0  0  0  0  0  0  0  0  0  0  0  0
  147.4938  139.8612  155.7321 C   0  0  0  0  0  0  0  0  0  0  0  0
  146.5368  140.1234  154.7199 C   0  0  0  0  0  0  0  0  0  0  0  0
  145.4294  139.3875  154.5526 N   0  0  0  0  0  0  0  0  0  0  0  0
  146.7472  141.1674  153.8848 N   0  0  0  0  0  0  0  0  0  0  0  0
  147.8422  141.9199  154.0328 C   0  0  0  0  0  0  0  0  0  0  0  0
  148.8250  141.7983  154.9291 N   0  0  0  0  0  0  0  0  0  0  0  0
  148.6133  140.7429  155.7696 C   0  0  0  0  0  0  0  0  0  0  0  0
  151.8942  139.9661  157.1203 C   0  0  2  0  0  0  0  0  0  0  0  0
  151.5413  138.7572  156.4540 O   0  0  0  0  0  0  0  0  0  0  0  0
  151.1482  138.7756  155.1715 C   0  0  0  0  0  0  0  0  0  0  0  0
  151.0750  137.3782  154.5712 C   0  0  0  0  0  0  0  0  0  0  0  0
  150.8704  139.7765  154.5111 O   0  0  0  0  0  0  0  0  0  0  0  0
  152.3072  139.6995  158.5608 C   0  0  1  0  0  0  0  0  0  0  0  0
  153.7182  139.5454  158.6523 O   0  0  0  0  0  0  0  0  0  0  0  0
  154.2935  139.2814  159.8374 C   0  0  0  0  0  0  0  0  0  0  0  0
  155.8129  139.3562  159.7729 C   0  0  0  0  0  0  0  0  0  0  0  0
  153.7062  139.0152  160.8858 O   0  0  0  0  0  0  0  0  0  0  0  0
  151.0408  145.3612  160.6754 H   0  0  0  0  0  0  0  0  0  0  0  0
  150.5381  145.9751  159.0933 H   0  0  0  0  0  0  0  0  0  0  0  0
  152.0747  146.4966  159.7991 H   0  0  0  0  0  0  0  0  0  0  0  0
  153.0048  142.3340  158.2208 H   0  0  0  0  0  0  0  0  0  0  0  0
  153.5458  142.0629  159.8698 H   0  0  0  0  0  0  0  0  0  0  0  0
  151.5602  140.6843  160.3587 H   0  0  0  0  0  0  0  0  0  0  0  0
  150.8010  141.8422  156.7184 H   0  0  0  0  0  0  0  0  0  0  0  0
  145.2483  138.6051  155.1648 H   0  0  0  0  0  0  0  0  0  0  0  0
  144.7789  139.6158  153.8150 H   0  0  0  0  0  0  0  0  0  0  0  0
  147.9457  142.7366  153.3338 H   0  0  0  0  0  0  0  0  0  0  0  0
  152.6703  140.5161  156.5852 H   0  0  0  0  0  0  0  0  0  0  0  0
  150.4663  136.7272  155.1989 H   0  0  0  0  0  0  0  0  0  0  0  0
  152.0737  136.9486  154.4924 H   0  0  0  0  0  0  0  0  0  0  0  0
  150.6324  137.4108  153.5755 H   0  0  0  0  0  0  0  0  0  0  0  0
  151.7862  138.8073  158.9129 H   0  0  0  0  0  0  0  0  0  0  0  0
  156.2023  138.5728  159.1227 H   0  0  0  0  0  0  0  0  0  0  0  0
  156.2450  139.2289  160.7657 H   0  0  0  0  0  0  0  0  0  0  0  0
  156.1289  140.3230  159.3809 H   0  0  0  0  0  0  0  0  0  0  0  0
  1  2  1  0  0  0  0
  1 30  1  0  0  0  0
  1 31  1  0  0  0  0
  1 32  1  0  0  0  0
  2  3  2  0  0  0  0
  2  4  1  0  0  0  0
  4  5  1  0  0  0  0
  5  6  1  0  0  0  0
  5 33  1  0  0  0  0
  5 34  1  0  0  0  0
  6 25  1  0  0  0  0
  6  7  1  0  0  0  0
  6 35  1  0  0  0  0
  7  8  1  0  0  0  0
  8  9  1  0  0  0  0
  8 20  1  0  0  0  0
  8 36  1  0  0  0  0
  9 19  1  0  0  0  0
  9 10  1  0  0  0  0
 10 11  1  0  0  0  0
 10 12  2  0  0  0  0
 12 13  1  0  0  0  0
 13 19  2  0  0  0  0
 13 14  1  0  0  0  0
 14 15  1  0  0  0  0
 14 16  2  0  0  0  0
 15 37  1  0  0  0  0
 15 38  1  0  0  0  0
 16 17  1  0  0  0  0
 17 18  2  0  0  0  0
 17 39  1  0  0  0  0
 18 19  1  0  0  0  0
 20 21  1  0  0  0  0
 20 25  1  0  0  0  0
 20 40  1  0  0  0  0
 21 22  1  0  0  0  0
 22 23  1  0  0  0  0
 22 24  2  0  0  0  0
 23 41  1  0  0  0  0
 23 42  1  0  0  0  0
 23 43  1  0  0  0  0
 25 26  1  0  0  0  0
 25 44  1  0  0  0  0
 26 27  1  0  0  0  0
 27 28  1  0  0  0  0
 27 29  2  0  0  0  0
 28 45  1  0  0  0  0
 28 46  1  0  0  0  0
 28 47  1  0  0  0  0
M  END
> <s_m_source_file>
AV-unprocessed.smi

> <i_m_source_file_index>
104

> <i_lp_mmshare_version>
43012

> <i_f3d_flags>
0

> <s_epik_input>
W0NIM11DKD1PKU9bQ0gyXVtDQEBIXTFPW0NASF0oW0NAQEhdKE9DKD1PKVtDSDNdKVtDQEhdMU9DKD1PKVtDSDNdKW4oYyhCciluMiljKGMyMyluW2NIXW5jM1tOSDJd

> <s_epik_cmdline>
J2VwaWtfcHl0aG9uJywgJy1waCcsICc3LjAnLCAnLXRuJywgJzgnLCAnLW1hJywgJzIwMCcsICctbWV0YWxfYmluZGluZycsICctaW1hZScsICc8aW5maWxlLm1hZT4nLCAnLW9tYWUnLCAnPG91dGZpbGUubWFlPic=

> <r_lp_tautomer_probability>
1

> <r_epik_Ionization_Penalty>
7.36622e-05

> <r_epik_Ionization_Penalty_Charging>
0

> <r_epik_Ionization_Penalty_Neutral>
7.36622e-05

> <r_epik_State_Penalty>
-0

> <r_epik_Charging_Adjusted_Penalty>
0

> <i_epik_Tot_Q>
0

> <i_epik_Tot_abs_Q>
0

> <r_epik_Metal_State_Penalty>
-0

> <b_epik_Metal_Only>
0

> <s_epik_Chemistry_Notes>
This compound has an ester and may undergo hydrolysis at high or low pH. This compound contains an acetal/aminal-like group ( X-CH(R)-Y where X, Y are N, S, or O) that may be acid/base labile, releasing an aldehyde.

> <s_lp_Force_Field>
OPLS_2005

> <r_lp_Energy>
18.9649

> <b_lp_Chiralities_Consistent>
1

> <s_lp_Variant>
AV-unprocessed.smi:104-8

> <Gold.Version>
5.8.1

> <Gold.Id.Protein>
6NUR|6NUR_protein|mol2

> <Gold.PLP.Fitness>
45.6333

> <Gold.PLP.PLP>
-41.1109

> <Gold.PLP.part.hbond>
-2.9237

> <Gold.PLP.part.metal>
0.0000

> <Gold.PLP.part.buried>
-9.1923

> <Gold.PLP.part.nonpolar>
-31.3213

> <Gold.PLP.part.repulsive>
1.3976

> <Gold.PLP.ligand.clash>
0.0000

> <Gold.PLP.ligand.torsion>
0.6888

> <Gold.PLP.Chemscore.Hbond>
1.9175

> <Gold.PLP.Chemscore.CHOScore>
0.0000

> <Gold.PLP.Chemscore.Metal>
0.0000

> <Gold.Chemscore.Hbonds>
donor molecule, donor type, donor heavy atom, donor atom, acceptor molecule, acceptor atom, score
      L1  H    15    38       P1 10175  1.00
      P1  H  7989  7998       L1    24  1.00

> <Gold.PLP.Chemscore.Internal.Correction>
0.1475

> <Gold.Rescore>
     Score         DG    S(hbond)    S(metal)    S(lipo)     H(rot)  DE(clash)    DE(int)     intcor
      4.25      -7.05       1.99        0.00      50.87       4.31       0.14       2.67       ----

> <Gold.Chemscore.Fitness>
4.2496

> <Gold.Chemscore.DG>
-7.0517

> <Gold.Chemscore.ZeroCoef>
-5.4800

> <Gold.Chemscore.Hbond>
1.9899

> <Gold.Chemscore.Metal>
0.0000

> <Gold.Chemscore.Lipo>
50.8658

> <Gold.Chemscore.Internal_Hbond>
0.0000

> <Gold.Chemscore.DEClash>
0.1369

> <Gold.Chemscore.DEInternal>
2.6651

> <Gold.Chemscore.Rot>
4.3070

> <Gold.Chemscore.Internal.Correction>
   9.000000E+99

> <Gold.Chemscore.Hbonds>
donor molecule, donor type, donor heavy atom, donor atom, acceptor molecule, acceptor atom, score
      L1  H    15    38       P1 10175  0.99
      P1  H  7989  7998       L1    24  1.00

> <Gold.Chemscore.Hbond.Weighted>
-6.6462

> <Gold.Chemscore.Metal.Weighted>
-0.0000

> <Gold.Chemscore.Lipo.Weighted>
-5.9513

> <Gold.Chemscore.Internal_Hbond.Weighted>
0.0000

> <Gold.Chemscore.DEClash.Weighted>
0.1369

> <Gold.Chemscore.DEInternal.Weighted>
2.6651

> <Gold.Chemscore.Rot.Weighted>
11.0259

> <Gold.Chemscore.Internal.Correction.Weighted>
   9.000000E+99

> <Gold.Protein.RotatedTorsions>
[ 6907 6896 6895 6894 ] final -116.28 input  -60.11 | X-H torsion
[ 7974 7965 7964 7962 ] final -116.57 input  175.53 | X-H torsion
[ 8008 7997 7996 7995 ] final  -79.41 input   59.86 | X-H torsion
[ 10167 10162 10161 10158 ] final  -96.25 input  -65.29 | X-H torsion
[ 10718 10713 10712 10709 ] final  -73.86 input   66.30 | X-H torsion
[ 10763 10752 10751 10750 ] final -148.62 input  -60.55 | X-H torsion
[ 11005 11000 10999 10996 ] final  145.24 input  -57.11 | X-H torsion

> <Gold.Protein.ActiveResidues>
 VAL166  LYS551  ARG553  GLY616  TRP617  ASP618  TYR619  PRO620  LYS621  CYS622 
 ASP623  PHE694  ASN695  SER759  ASP760  ASP761  ALA762  ILE779  LEU786  VAL792 
 PHE793  MET794  SER795  GLU796  ALA797  LYS798  CYS799  TRP800  GLU811  SER814 

> <Gold.Protein.RotatedAtoms>
  150.8043  133.8540  159.3212 H   0  0  0  0  0  0  0  0  0  0  0  0  # atno 6907 bound_to 6896
  151.6343  135.1018  160.0138 H   0  0  0  0  0  0  0  0  0  0  0  0  # atno 6908 bound_to 6896
  152.4133  133.6957  159.6451 H   0  0  0  0  0  0  0  0  0  0  0  0  # atno 6909 bound_to 6896
  145.0952  140.8516  143.3959 H   0  0  0  0  0  0  0  0  0  0  0  0  # atno 7974 bound_to 7965
  154.5783  140.0679  156.9066 H   0  0  0  0  0  0  0  0  0  0  0  0  # atno 8008 bound_to 7997
  155.2509  140.3351  155.4264 H   0  0  0  0  0  0  0  0  0  0  0  0  # atno 8009 bound_to 7997
  156.2170  140.1783  156.7550 H   0  0  0  0  0  0  0  0  0  0  0  0  # atno 8010 bound_to 7997
  140.2958  143.3193  152.0299 H   0  0  0  0  0  0  0  0  0  0  0  0  # atno 10167 bound_to 10162
  156.0264  130.4404  150.2806 H   0  0  0  0  0  0  0  0  0  0  0  0  # atno 10718 bound_to 10713
  154.8223  135.3330  154.7003 H   0  0  0  0  0  0  0  0  0  0  0  0  # atno 10763 bound_to 10752
  153.7634  135.6931  153.4925 H   0  0  0  0  0  0  0  0  0  0  0  0  # atno 10764 bound_to 10752
  153.2095  135.4487  155.0311 H   0  0  0  0  0  0  0  0  0  0  0  0  # atno 10765 bound_to 10752
  140.0696  134.9159  157.1322 H   0  0  0  0  0  0  0  0  0  0  0  0  # atno 11005 bound_to 11000
  145.1019  139.2816  143.5681 LP  0  0  0  0  0  0  0  0  0  0  0  0  # atno 17320 bound_to 7965
  146.3531  140.0589  142.8630 LP  0  0  0  0  0  0  0  0  0  0  0  0  # atno 17321 bound_to 7965
  139.4927  144.6492  151.6713 LP  0  0  0  0  0  0  0  0  0  0  0  0  # atno 17342 bound_to 10162
  140.5693  144.0135  150.6208 LP  0  0  0  0  0  0  0  0  0  0  0  0  # atno 17343 bound_to 10162
  157.0909  131.0169  151.3122 LP  0  0  0  0  0  0  0  0  0  0  0  0  # atno 17370 bound_to 10713
  157.4854  130.7790  149.7455 LP  0  0  0  0  0  0  0  0  0  0  0  0  # atno 17371 bound_to 10713
  140.3647  134.2456  155.7183 LP  0  0  0  0  0  0  0  0  0  0  0  0  # atno 17394 bound_to 11000
  141.2006  133.7982  157.0479 LP  0  0  0  0  0  0  0  0  0  0  0  0  # atno 17395 bound_to 11000

$$$$
