AV-unprocessed.smi:2128|AV-procd|sdf|8681|dock3
  -GOLD-   2272011433D 1   1.00000     0.00000
 Structure written by MMmdl.
 50 52  0  0  0  0  0  0  0  0  1 V2000
  151.7504  145.5644  159.0290 O   0  0  0  0  0  0  0  0  0  0  0  0
  152.0027  144.3707  158.8809 C   0  0  0  0  0  0  0  0  0  0  0  0
  151.4186  143.6182  157.6711 C   0  0  0  0  0  0  0  0  0  0  0  0
  151.6331  142.1633  157.6577 N   0  0  0  0  0  0  0  0  0  0  0  0
  150.9096  141.4172  156.6938 C   0  0  0  0  0  0  0  0  0  0  0  0
  150.0807  142.0600  155.7400 C   0  0  0  0  0  0  0  0  0  0  0  0
  149.3739  141.2854  154.8001 C   0  0  0  0  0  0  0  0  0  0  0  0
  149.5137  139.8793  154.8261 C   0  0  0  0  0  0  0  0  0  0  0  0
  148.8392  138.9900  153.9465 N   0  0  0  0  0  0  0  0  0  0  0  0
  147.6703  139.1735  153.3093 C   0  0  0  0  0  0  0  0  0  0  0  0
  146.9742  140.1861  153.3800 O   0  0  0  0  0  0  0  0  0  0  0  0
  147.3624  138.1120  152.5496 N   0  0  0  0  0  0  0  0  0  0  0  0
  146.1944  138.0004  151.6790 C   0  0  0  0  0  0  0  0  0  0  0  0
  145.1486  137.0152  152.2376 C   0  0  0  0  0  0  0  0  0  0  0  0
  145.2791  135.5998  151.6949 C   0  0  0  0  0  0  0  0  0  0  0  0
  146.3923  134.8649  151.8857 C   0  0  0  0  0  0  0  0  0  0  0  0
  146.5735  133.4435  151.3841 C   0  0  0  0  0  0  0  0  0  0  0  0
  145.2447  132.8004  150.9536 C   0  0  0  0  0  0  0  0  0  0  0  0
  144.3935  133.7810  150.1375 C   0  0  0  0  0  0  0  0  0  0  0  0
  144.0704  135.0510  150.9446 C   0  0  0  0  0  0  0  0  0  0  0  0
  150.3481  139.3268  155.8163 C   0  0  0  0  0  0  0  0  0  0  0  0
  151.0283  140.0662  156.7165 N   0  0  0  0  0  0  0  0  0  0  0  0
  152.0481  141.4961  158.8951 C   0  0  0  0  0  0  0  0  0  0  0  0
  153.1381  142.3005  159.6165 C   0  0  0  0  0  0  0  0  0  0  0  0
  152.7672  143.7015  159.7574 N   0  0  0  0  0  0  0  0  0  0  0  0
  150.3494  143.8305  157.6207 H   0  0  0  0  0  0  0  0  0  0  0  0
  151.8797  144.0545  156.7848 H   0  0  0  0  0  0  0  0  0  0  0  0
  149.9736  143.1332  155.7063 H   0  0  0  0  0  0  0  0  0  0  0  0
  148.7323  141.7848  154.0910 H   0  0  0  0  0  0  0  0  0  0  0  0
  149.3380  138.1413  153.7232 H   0  0  0  0  0  0  0  0  0  0  0  0
  147.9973  137.3270  152.5552 H   0  0  0  0  0  0  0  0  0  0  0  0
  145.7457  138.9904  151.5979 H   0  0  0  0  0  0  0  0  0  0  0  0
  146.4856  137.7236  150.6648 H   0  0  0  0  0  0  0  0  0  0  0  0
  145.2299  136.9907  153.3252 H   0  0  0  0  0  0  0  0  0  0  0  0
  144.1439  137.3786  152.0193 H   0  0  0  0  0  0  0  0  0  0  0  0
  147.2345  135.2927  152.4101 H   0  0  0  0  0  0  0  0  0  0  0  0
  147.2681  133.4707  150.5440 H   0  0  0  0  0  0  0  0  0  0  0  0
  147.0410  132.8425  152.1643 H   0  0  0  0  0  0  0  0  0  0  0  0
  145.4375  131.8942  150.3789 H   0  0  0  0  0  0  0  0  0  0  0  0
  144.6855  132.4924  151.8380 H   0  0  0  0  0  0  0  0  0  0  0  0
  144.9347  134.0560  149.2309 H   0  0  0  0  0  0  0  0  0  0  0  0
  143.4700  133.3020  149.8117 H   0  0  0  0  0  0  0  0  0  0  0  0
  143.2895  134.8395  151.6758 H   0  0  0  0  0  0  0  0  0  0  0  0
  143.6703  135.8081  150.2708 H   0  0  0  0  0  0  0  0  0  0  0  0
  150.4802  138.2571  155.8885 H   0  0  0  0  0  0  0  0  0  0  0  0
  151.1776  141.3776  159.5426 H   0  0  0  0  0  0  0  0  0  0  0  0
  152.4408  140.4983  158.6939 H   0  0  0  0  0  0  0  0  0  0  0  0
  153.3343  141.8771  160.6018 H   0  0  0  0  0  0  0  0  0  0  0  0
  154.0729  142.2495  159.0563 H   0  0  0  0  0  0  0  0  0  0  0  0
  153.1345  144.2019  160.5539 H   0  0  0  0  0  0  0  0  0  0  0  0
  1  2  2  0  0  0  0
  2 25  1  0  0  0  0
  2  3  1  0  0  0  0
  3  4  1  0  0  0  0
  3 26  1  0  0  0  0
  3 27  1  0  0  0  0
  4  5  1  0  0  0  0
  4 23  1  0  0  0  0
  5 22  1  0  0  0  0
  5  6  2  0  0  0  0
  6  7  1  0  0  0  0
  6 28  1  0  0  0  0
  7  8  2  0  0  0  0
  7 29  1  0  0  0  0
  8  9  1  0  0  0  0
  8 21  1  0  0  0  0
  9 10  1  0  0  0  0
  9 30  1  0  0  0  0
 10 11  2  0  0  0  0
 10 12  1  0  0  0  0
 12 13  1  0  0  0  0
 12 31  1  0  0  0  0
 13 14  1  0  0  0  0
 13 32  1  0  0  0  0
 13 33  1  0  0  0  0
 14 15  1  0  0  0  0
 14 34  1  0  0  0  0
 14 35  1  0  0  0  0
 15 20  1  0  0  0  0
 15 16  2  0  0  0  0
 16 17  1  0  0  0  0
 16 36  1  0  0  0  0
 17 18  1  0  0  0  0
 17 37  1  0  0  0  0
 17 38  1  0  0  0  0
 18 19  1  0  0  0  0
 18 39  1  0  0  0  0
 18 40  1  0  0  0  0
 19 20  1  0  0  0  0
 19 41  1  0  0  0  0
 19 42  1  0  0  0  0
 20 43  1  0  0  0  0
 20 44  1  0  0  0  0
 21 22  2  0  0  0  0
 21 45  1  0  0  0  0
 23 24  1  0  0  0  0
 23 46  1  0  0  0  0
 23 47  1  0  0  0  0
 24 25  1  0  0  0  0
 24 48  1  0  0  0  0
 24 49  1  0  0  0  0
 25 50  1  0  0  0  0
M  END
> <s_m_source_file>
AV-unprocessed.smi

> <i_m_source_file_index>
2128

> <i_lp_mmshare_version>
43012

> <i_f3d_flags>
0

> <s_epik_input>
Tz1DMVtDSDJdTihbQ0gyXVtDSDJdW05IXTEpYzJbY0hdW2NIXWMoW2NIXW4yKVtOSF1DKD1PKVtOSF1bQ0gyXVtDSDJdQzM9W0NIXVtDSDJdW0NIMl1bQ0gyXVtDSDJdMw==

> <s_epik_cmdline>
J2VwaWtfcHl0aG9uJywgJy1waCcsICc3LjAnLCAnLXRuJywgJzgnLCAnLW1hJywgJzIwMCcsICctbWV0YWxfYmluZGluZycsICctaW1hZScsICc8aW5maWxlLm1hZT4nLCAnLW9tYWUnLCAnPG91dGZpbGUubWFlPic=

> <r_lp_tautomer_probability>
1

> <r_epik_Ionization_Penalty>
0.0211825

> <r_epik_Ionization_Penalty_Charging>
0

> <r_epik_Ionization_Penalty_Neutral>
0.0211825

> <r_epik_State_Penalty>
0.0169697

> <r_epik_Charging_Adjusted_Penalty>
0.0169697

> <i_epik_Tot_Q>
0

> <i_epik_Tot_abs_Q>
0

> <r_epik_Metal_State_Penalty>
0.0163833

> <b_epik_Metal_Only>
0

> <s_lp_Force_Field>
OPLS_2005

> <r_lp_Energy>
24.085

> <b_lp_Chiralities_Consistent>
1

> <s_lp_Variant>
AV-unprocessed.smi:2128-1

> <Gold.Version>
5.8.1

> <Gold.Id.Protein>
6NUR|6NUR_protein|mol2

> <Gold.PLP.Fitness>
48.2421

> <Gold.PLP.PLP>
-46.1701

> <Gold.PLP.part.hbond>
-3.1578

> <Gold.PLP.part.metal>
0.0000

> <Gold.PLP.part.buried>
1.1528

> <Gold.PLP.part.nonpolar>
-44.3134

> <Gold.PLP.part.repulsive>
0.4297

> <Gold.PLP.ligand.clash>
0.0000

> <Gold.PLP.ligand.torsion>
0.5606

> <Gold.PLP.Chemscore.Hbond>
1.0000

> <Gold.PLP.Chemscore.CHOScore>
0.0000

> <Gold.PLP.Chemscore.Metal>
0.0000

> <Gold.Chemscore.Hbonds>
donor molecule, donor type, donor heavy atom, donor atom, acceptor molecule, acceptor atom, score
      L1  H    12    31       P1  7948  1.00

> <Gold.PLP.Chemscore.Internal.Correction>
0.1932

> <Gold.Rescore>
     Score         DG    S(hbond)    S(metal)    S(lipo)     H(rot)  DE(clash)    DE(int)     intcor
     15.33     -17.31       0.96        0.00     104.53       1.41       0.42       1.57       ----

> <Gold.Chemscore.Fitness>
15.3266

> <Gold.Chemscore.DG>
-17.3149

> <Gold.Chemscore.ZeroCoef>
-5.4800

> <Gold.Chemscore.Hbond>
0.9614

> <Gold.Chemscore.Metal>
0.0000

> <Gold.Chemscore.Lipo>
104.5302

> <Gold.Chemscore.Internal_Hbond>
0.0000

> <Gold.Chemscore.DEClash>
0.4218

> <Gold.Chemscore.DEInternal>
1.5665

> <Gold.Chemscore.Rot>
1.4087

> <Gold.Chemscore.Internal.Correction>
   9.000000E+99

> <Gold.Chemscore.Hbonds>
donor molecule, donor type, donor heavy atom, donor atom, acceptor molecule, acceptor atom, score
      L1  H    12    31       P1  7948  0.96

> <Gold.Chemscore.Hbond.Weighted>
-3.2110

> <Gold.Chemscore.Metal.Weighted>
-0.0000

> <Gold.Chemscore.Lipo.Weighted>
-12.2300

> <Gold.Chemscore.Internal_Hbond.Weighted>
0.0000

> <Gold.Chemscore.DEClash.Weighted>
0.4218

> <Gold.Chemscore.DEInternal.Weighted>
1.5665

> <Gold.Chemscore.Rot.Weighted>
3.6061

> <Gold.Chemscore.Internal.Correction.Weighted>
   9.000000E+99

> <Gold.Protein.RotatedTorsions>
[ 6907 6896 6895 6894 ] final   88.21 input  -60.11 | X-H torsion
[ 7974 7965 7964 7962 ] final  167.94 input  175.53 | X-H torsion
[ 8008 7997 7996 7995 ] final  -99.35 input   59.86 | X-H torsion
[ 10167 10162 10161 10158 ] final    3.21 input  -65.29 | X-H torsion
[ 10718 10713 10712 10709 ] final -114.39 input   66.30 | X-H torsion
[ 10763 10752 10751 10750 ] final  -55.04 input  -60.55 | X-H torsion
[ 11005 11000 10999 10996 ] final -166.76 input  -57.11 | X-H torsion

> <Gold.Protein.ActiveResidues>
 VAL166  LYS551  ARG553  GLY616  TRP617  ASP618  TYR619  PRO620  LYS621  CYS622 
 ASP623  PHE694  ASN695  SER759  ASP760  ASP761  ALA762  ILE779  LEU786  VAL792 
 PHE793  MET794  SER795  GLU796  ALA797  LYS798  CYS799  TRP800  GLU811  SER814 

> <Gold.Protein.RotatedAtoms>
  152.5422  134.2157  159.8767 H   0  0  0  0  0  0  0  0  0  0  0  0  # atno 6907 bound_to 6896
  151.2137  133.4534  159.2606 H   0  0  0  0  0  0  0  0  0  0  0  0  # atno 6908 bound_to 6896
  151.0872  134.9907  159.8441 H   0  0  0  0  0  0  0  0  0  0  0  0  # atno 6909 bound_to 6896
  144.7406  139.8834  143.6398 H   0  0  0  0  0  0  0  0  0  0  0  0  # atno 7974 bound_to 7965
  154.8136  140.0448  157.1360 H   0  0  0  0  0  0  0  0  0  0  0  0  # atno 8008 bound_to 7997
  154.9340  140.3043  155.5133 H   0  0  0  0  0  0  0  0  0  0  0  0  # atno 8009 bound_to 7997
  156.2974  140.2318  156.4403 H   0  0  0  0  0  0  0  0  0  0  0  0  # atno 8010 bound_to 7997
  140.6597  143.7336  150.7716 H   0  0  0  0  0  0  0  0  0  0  0  0  # atno 10167 bound_to 10162
  156.0827  130.6024  150.8768 H   0  0  0  0  0  0  0  0  0  0  0  0  # atno 10718 bound_to 10713
  154.1844  135.6438  153.5043 H   0  0  0  0  0  0  0  0  0  0  0  0  # atno 10763 bound_to 10752
  153.0051  135.5413  154.6481 H   0  0  0  0  0  0  0  0  0  0  0  0  # atno 10764 bound_to 10752
  154.5853  135.2929  155.0664 H   0  0  0  0  0  0  0  0  0  0  0  0  # atno 10765 bound_to 10752
  140.5609  134.5334  157.5143 H   0  0  0  0  0  0  0  0  0  0  0  0  # atno 11005 bound_to 11000
  146.1194  139.4210  143.0237 LP  0  0  0  0  0  0  0  0  0  0  0  0  # atno 17320 bound_to 7965
  145.7326  141.0037  143.1343 LP  0  0  0  0  0  0  0  0  0  0  0  0  # atno 17321 bound_to 7965
  140.1002  143.4795  152.2429 LP  0  0  0  0  0  0  0  0  0  0  0  0  # atno 17342 bound_to 10162
  139.5828  144.7518  151.3597 LP  0  0  0  0  0  0  0  0  0  0  0  0  # atno 17343 bound_to 10162
  157.5950  131.0943  150.9056 LP  0  0  0  0  0  0  0  0  0  0  0  0  # atno 17370 bound_to 10713
  156.9225  130.5320  149.5279 LP  0  0  0  0  0  0  0  0  0  0  0  0  # atno 17371 bound_to 10713
  139.9408  134.7790  156.0683 LP  0  0  0  0  0  0  0  0  0  0  0  0  # atno 17394 bound_to 11000
  141.1115  133.6641  156.2991 LP  0  0  0  0  0  0  0  0  0  0  0  0  # atno 17395 bound_to 11000

$$$$
