AV-unprocessed.smi:1709|AV-procd|sdf|6893|dock1
  -GOLD-   22720 8 93D 1   1.00000     0.00000
 Structure written by MMmdl.
 43 45  0  0  0  0  0  0  0  0  2 V2000
  150.6649  137.6089  154.3395 C   0  0  0  0  0  0  0  0  0  0  0  0
  150.0108  138.9436  154.6616 C   0  0  0  0  0  0  0  0  0  0  0  0
  150.7326  139.8989  155.4083 C   0  0  0  0  0  0  0  0  0  0  0  0
  150.1306  141.1325  155.7085 C   0  0  0  0  0  0  0  0  0  0  0  0
  148.8238  141.3594  155.2461 C   0  0  0  0  0  0  0  0  0  0  0  0
  148.1268  140.4513  154.5330 N   0  0  0  0  0  0  0  0  0  0  0  0
  148.6920  139.2535  154.2313 C   0  0  0  0  0  0  0  0  0  0  0  0
  148.0257  138.2306  153.4869 N   0  0  0  0  0  0  0  0  0  0  0  0
  146.7163  137.9729  153.2813 C   0  0  0  0  0  0  0  0  0  0  0  0
  145.8448  138.6869  153.7743 O   0  0  0  0  0  0  0  0  0  0  0  0
  146.4310  136.9089  152.5134 N   0  0  0  0  0  0  0  0  0  0  0  0
  145.0937  136.4727  152.1269 C   0  0  2  0  0  0  0  0  0  0  0  0
  144.0752  136.5738  153.2759 C   0  0  0  0  0  0  0  0  0  0  0  0
  143.1717  135.3330  153.1321 C   0  0  0  0  0  0  0  0  0  0  0  0
  143.6287  134.6566  151.9030 N   0  3  2  0  0  0  0  0  0  0  0  0
  143.3600  133.2063  151.7915 C   0  0  0  0  0  0  0  0  0  0  0  0
  143.8349  132.7060  150.4125 C   0  0  0  0  0  0  0  0  0  0  0  0
  145.3056  133.0839  150.1413 C   0  0  0  0  0  0  0  0  0  0  0  0
  145.5435  134.5901  150.3641 C   0  0  0  0  0  0  0  0  0  0  0  0
  145.0555  134.9858  151.7678 C   0  0  1  0  0  0  0  0  0  0  0  0
  151.6642  137.5416  154.7705 H   0  0  0  0  0  0  0  0  0  0  0  0
  150.7561  137.4792  153.2607 H   0  0  0  0  0  0  0  0  0  0  0  0
  150.0725  136.7855  154.7398 H   0  0  0  0  0  0  0  0  0  0  0  0
  151.7364  139.6914  155.7491 H   0  0  0  0  0  0  0  0  0  0  0  0
  150.6569  141.8840  156.2783 H   0  0  0  0  0  0  0  0  0  0  0  0
  148.3231  142.2936  155.4542 H   0  0  0  0  0  0  0  0  0  0  0  0
  148.6489  137.5510  153.0756 H   0  0  0  0  0  0  0  0  0  0  0  0
  147.2092  136.3750  152.1516 H   0  0  0  0  0  0  0  0  0  0  0  0
  144.7222  137.0618  151.2856 H   0  0  0  0  0  0  0  0  0  0  0  0
  144.5690  136.5579  154.2488 H   0  0  0  0  0  0  0  0  0  0  0  0
  143.5044  137.5010  153.2145 H   0  0  0  0  0  0  0  0  0  0  0  0
  143.3004  134.6756  153.9934 H   0  0  0  0  0  0  0  0  0  0  0  0
  142.1154  135.5936  153.0596 H   0  0  0  0  0  0  0  0  0  0  0  0
  143.8743  132.6699  152.5904 H   0  0  0  0  0  0  0  0  0  0  0  0
  142.2923  133.0211  151.9123 H   0  0  0  0  0  0  0  0  0  0  0  0
  143.7077  131.6251  150.3429 H   0  0  0  0  0  0  0  0  0  0  0  0
  143.2044  133.1399  149.6352 H   0  0  0  0  0  0  0  0  0  0  0  0
  145.9549  132.5128  150.8064 H   0  0  0  0  0  0  0  0  0  0  0  0
  145.5841  132.8058  149.1245 H   0  0  0  0  0  0  0  0  0  0  0  0
  146.6034  134.8192  150.2512 H   0  0  0  0  0  0  0  0  0  0  0  0
  145.0148  135.1674  149.6043 H   0  0  0  0  0  0  0  0  0  0  0  0
  145.6147  134.4222  152.5187 H   0  0  0  0  0  0  0  0  0  0  0  0
  143.1585  135.1108  151.1331 H   0  0  0  0  0  0  0  0  0  0  0  0
  1  2  1  0  0  0  0
  1 21  1  0  0  0  0
  1 22  1  0  0  0  0
  1 23  1  0  0  0  0
  2  7  1  0  0  0  0
  2  3  2  0  0  0  0
  3  4  1  0  0  0  0
  3 24  1  0  0  0  0
  4  5  2  0  0  0  0
  4 25  1  0  0  0  0
  5  6  1  0  0  0  0
  5 26  1  0  0  0  0
  6  7  2  0  0  0  0
  7  8  1  0  0  0  0
  8  9  1  0  0  0  0
  8 27  1  0  0  0  0
  9 10  2  0  0  0  0
  9 11  1  0  0  0  0
 11 12  1  0  0  0  0
 11 28  1  0  0  0  0
 12 20  1  0  0  0  0
 12 13  1  0  0  0  0
 12 29  1  0  0  0  0
 13 14  1  0  0  0  0
 13 30  1  0  0  0  0
 13 31  1  0  0  0  0
 14 15  1  0  0  0  0
 14 32  1  0  0  0  0
 14 33  1  0  0  0  0
 15 20  1  0  0  0  0
 15 16  1  0  0  0  0
 15 43  1  0  0  0  0
 16 17  1  0  0  0  0
 16 34  1  0  0  0  0
 16 35  1  0  0  0  0
 17 18  1  0  0  0  0
 17 36  1  0  0  0  0
 17 37  1  0  0  0  0
 18 19  1  0  0  0  0
 18 38  1  0  0  0  0
 18 39  1  0  0  0  0
 19 20  1  0  0  0  0
 19 40  1  0  0  0  0
 19 41  1  0  0  0  0
 20 42  1  0  0  0  0
M  CHG  1  15   1
M  END
> <s_m_source_file>
AV-unprocessed.smi

> <i_m_source_file_index>
1709

> <i_lp_mmshare_version>
43012

> <i_f3d_flags>
0

> <s_epik_input>
W0NIM11jMVtjSF1bY0hdW2NIXW5jMVtOSF1DKD1PKVtOSF1bQ0BIXShbQ0gyXVtDSDJdMilbQ0BASF0oTjIzKVtDSDJdW0NIMl1bQ0gyXVtDSDJdMw==

> <s_epik_cmdline>
J2VwaWtfcHl0aG9uJywgJy1waCcsICc3LjAnLCAnLXRuJywgJzgnLCAnLW1hJywgJzIwMCcsICctbWV0YWxfYmluZGluZycsICctaW1hZScsICc8aW5maWxlLm1hZT4nLCAnLW9tYWUnLCAnPG91dGZpbGUubWFlPic=

> <r_epik_Ionization_Penalty>
0.00101524

> <r_epik_Ionization_Penalty_Charging>
0.000974069

> <r_epik_Ionization_Penalty_Neutral>
4.11757e-05

> <r_epik_State_Penalty>
0.000633842

> <r_epik_Charging_Adjusted_Penalty>
0.00160791

> <i_epik_Tot_Q>
1

> <i_epik_Tot_abs_Q>
1

> <r_epik_Metal_State_Penalty>
-0

> <b_epik_Metal_Only>
0

> <s_lp_Force_Field>
OPLS_2005

> <r_lp_Energy>
38.5282

> <b_lp_Chiralities_Consistent>
1

> <s_lp_Variant>
AV-unprocessed.smi:1709-3

> <Gold.Version>
5.8.1

> <Gold.Id.Protein>
6NUR|6NUR_protein|mol2

> <Gold.PLP.Fitness>
41.0713

> <Gold.PLP.PLP>
-33.0395

> <Gold.PLP.part.hbond>
-2.3460

> <Gold.PLP.part.metal>
0.0000

> <Gold.PLP.part.buried>
-0.4562

> <Gold.PLP.part.nonpolar>
-31.5932

> <Gold.PLP.part.repulsive>
1.5875

> <Gold.PLP.ligand.clash>
0.0000

> <Gold.PLP.ligand.torsion>
0.4173

> <Gold.PLP.Chemscore.Hbond>
1.9520

> <Gold.PLP.Chemscore.CHOScore>
1.0000

> <Gold.PLP.Chemscore.Metal>
0.0000

> <Gold.Chemscore.Hbonds>
donor molecule, donor type, donor heavy atom, donor atom, acceptor molecule, acceptor atom, score
      L1  H     8    27       P1  7948  1.00
      L1  H    11    28       P1  7948  1.00
      L1  C     5    26       P1  8028  1.00

> <Gold.PLP.Chemscore.Internal.Correction>
0.0103

> <Gold.Rescore>
     Score         DG    S(hbond)    S(metal)    S(lipo)     H(rot)  DE(clash)    DE(int)     intcor
     15.15     -18.57       1.91        0.00      79.16       1.00       0.36       3.07       ----

> <Gold.Chemscore.Fitness>
15.1475

> <Gold.Chemscore.DG>
-18.5733

> <Gold.Chemscore.ZeroCoef>
-5.4800

> <Gold.Chemscore.Hbond>
1.9136

> <Gold.Chemscore.Metal>
0.0000

> <Gold.Chemscore.Lipo>
79.1617

> <Gold.Chemscore.Internal_Hbond>
0.0000

> <Gold.Chemscore.DEClash>
0.3601

> <Gold.Chemscore.DEInternal>
3.0657

> <Gold.Chemscore.Rot>
1.0000

> <Gold.Chemscore.Internal.Correction>
   9.000000E+99

> <Gold.Chemscore.Hbonds>
donor molecule, donor type, donor heavy atom, donor atom, acceptor molecule, acceptor atom, score
      L1  H     8    27       P1  7948  0.94
      L1  H    11    28       P1  7948  0.94

> <Gold.Chemscore.Hbond.Weighted>
-6.3913

> <Gold.Chemscore.Metal.Weighted>
-0.0000

> <Gold.Chemscore.Lipo.Weighted>
-9.2619

> <Gold.Chemscore.Internal_Hbond.Weighted>
0.0000

> <Gold.Chemscore.DEClash.Weighted>
0.3601

> <Gold.Chemscore.DEInternal.Weighted>
3.0657

> <Gold.Chemscore.Rot.Weighted>
2.5600

> <Gold.Chemscore.Internal.Correction.Weighted>
   9.000000E+99

> <Gold.Protein.RotatedTorsions>
[ 6907 6896 6895 6894 ] final -118.95 input  -60.11 | X-H torsion
[ 7974 7965 7964 7962 ] final  -64.70 input  175.53 | X-H torsion
[ 8008 7997 7996 7995 ] final  127.44 input   59.86 | X-H torsion
[ 10167 10162 10161 10158 ] final  100.50 input  -65.29 | X-H torsion
[ 10718 10713 10712 10709 ] final   18.58 input   66.30 | X-H torsion
[ 10763 10752 10751 10750 ] final -152.22 input  -60.55 | X-H torsion
[ 11005 11000 10999 10996 ] final   70.91 input  -57.11 | X-H torsion

> <Gold.Protein.ActiveResidues>
 VAL166  LYS551  ARG553  GLY616  TRP617  ASP618  TYR619  PRO620  LYS621  CYS622 
 ASP623  PHE694  ASN695  SER759  ASP760  ASP761  ALA762  ILE779  LEU786  VAL792 
 PHE793  MET794  SER795  GLU796  ALA797  LYS798  CYS799  TRP800  GLU811  SER814 

> <Gold.Protein.RotatedAtoms>
  150.8263  133.8166  159.3117 H   0  0  0  0  0  0  0  0  0  0  0  0  # atno 6907 bound_to 6896
  151.5909  135.1051  160.0048 H   0  0  0  0  0  0  0  0  0  0  0  0  # atno 6908 bound_to 6896
  152.4348  133.7299  159.6638 H   0  0  0  0  0  0  0  0  0  0  0  0  # atno 6909 bound_to 6896
  145.7635  140.8849  143.0417 H   0  0  0  0  0  0  0  0  0  0  0  0  # atno 7974 bound_to 7965
  156.2891  140.2669  156.2273 H   0  0  0  0  0  0  0  0  0  0  0  0  # atno 8008 bound_to 7997
  155.0108  140.0387  157.2416 H   0  0  0  0  0  0  0  0  0  0  0  0  # atno 8009 bound_to 7997
  154.7520  140.2745  155.6290 H   0  0  0  0  0  0  0  0  0  0  0  0  # atno 8010 bound_to 7997
  139.7521  144.6981  151.0416 H   0  0  0  0  0  0  0  0  0  0  0  0  # atno 10167 bound_to 10162
  157.0983  130.6457  149.5866 H   0  0  0  0  0  0  0  0  0  0  0  0  # atno 10718 bound_to 10713
  154.8008  135.3241  154.7554 H   0  0  0  0  0  0  0  0  0  0  0  0  # atno 10763 bound_to 10752
  153.8223  135.6886  153.4830 H   0  0  0  0  0  0  0  0  0  0  0  0  # atno 10764 bound_to 10752
  153.1724  135.4618  154.9863 H   0  0  0  0  0  0  0  0  0  0  0  0  # atno 10765 bound_to 10752
  139.9572  134.7124  156.0727 H   0  0  0  0  0  0  0  0  0  0  0  0  # atno 11005 bound_to 11000
  144.6826  139.9756  143.7483 LP  0  0  0  0  0  0  0  0  0  0  0  0  # atno 17320 bound_to 7965
  146.0240  139.3276  143.0795 LP  0  0  0  0  0  0  0  0  0  0  0  0  # atno 17321 bound_to 7965
  140.7799  143.4796  151.0036 LP  0  0  0  0  0  0  0  0  0  0  0  0  # atno 17342 bound_to 10162
  139.8484  143.7471  152.3179 LP  0  0  0  0  0  0  0  0  0  0  0  0  # atno 17343 bound_to 10162
  155.9880  130.4922  150.7151 LP  0  0  0  0  0  0  0  0  0  0  0  0  # atno 17370 bound_to 10713
  157.4662  131.0888  151.0692 LP  0  0  0  0  0  0  0  0  0  0  0  0  # atno 17371 bound_to 10713
  141.1245  133.6603  156.3300 LP  0  0  0  0  0  0  0  0  0  0  0  0  # atno 17394 bound_to 11000
  140.5583  134.5960  157.5426 LP  0  0  0  0  0  0  0  0  0  0  0  0  # atno 17395 bound_to 11000

$$$$
