AV-unprocessed.smi:207|AV-procd|sdf|1604|dock9
  -GOLD-   2262019523D 1   1.00000     0.00000
 Structure written by MMmdl.
 56 59  0  0  0  0  0  0  0  0  2 V2000
  142.9171  135.1099  153.0716 C   0  0  0  0  0  0  0  0  0  0  0  0
  144.2570  134.4770  152.6299 C   0  0  0  0  0  0  0  0  0  0  0  0
  144.7379  135.1643  151.3301 C   0  0  0  0  0  0  0  0  0  0  0  0
  145.2632  134.7723  153.7718 C   0  0  0  0  0  0  0  0  0  0  0  0
  146.5137  134.0400  153.6161 N   0  0  0  0  0  0  0  0  0  0  0  0
  147.5563  134.5152  154.3420 C   0  0  0  0  0  0  0  0  0  0  0  0
  148.5824  133.6891  154.6787 N   0  0  0  0  0  0  0  0  0  0  0  0
  149.6117  134.1504  155.3954 C   0  0  0  0  0  0  0  0  0  0  0  0
  149.8158  135.3826  155.8648 N   0  0  0  0  0  0  0  0  0  0  0  0
  148.7933  136.2183  155.5237 C   0  0  0  0  0  0  0  0  0  0  0  0
  147.6345  135.8686  154.7749 C   0  0  0  0  0  0  0  0  0  0  0  0
  146.8168  136.9818  154.6210 N   0  0  0  0  0  0  0  0  0  0  0  0
  147.4544  137.9341  155.2455 C   0  0  0  0  0  0  0  0  0  0  0  0
  148.6577  137.5671  155.8052 N   0  0  0  0  0  0  0  0  0  0  0  0
  149.5746  138.4207  156.5451 C   0  0  0  0  0  0  0  0  0  0  0  0
  150.3641  139.4289  155.6811 C   0  0  0  0  0  0  0  0  0  0  0  0
  149.4026  140.3242  154.8770 C   0  0  0  0  0  0  0  0  0  0  0  0
  149.9386  140.6891  153.6204 O   0  0  0  0  0  0  0  0  0  0  0  0
  151.5449  140.1385  156.3626 C   0  0  0  0  0  0  0  0  0  0  0  0
  152.5076  139.2543  155.7523 O   0  0  0  0  0  0  0  0  0  0  0  0
  151.4835  138.7755  154.8561 C   0  0  0  0  0  0  0  0  0  0  0  0
  146.3464  132.5975  153.5126 C   0  0  0  0  0  0  0  0  0  0  0  0
  145.4016  132.2592  152.3543 C   0  0  0  0  0  0  0  0  0  0  0  0
  144.1059  132.9904  152.4491 N   0  3  2  0  0  0  0  0  0  0  0  0
  143.1604  132.5632  151.3779 C   0  0  0  0  0  0  0  0  0  0  0  0
  143.8686  132.3956  150.0236 C   0  0  0  0  0  0  0  0  0  0  0  0
  142.9169  132.1421  149.0118 O   0  0  0  0  0  0  0  0  0  0  0  0
  143.0561  136.1527  153.3599 H   0  0  0  0  0  0  0  0  0  0  0  0
  142.4975  134.5895  153.9334 H   0  0  0  0  0  0  0  0  0  0  0  0
  142.1626  135.1119  152.2866 H   0  0  0  0  0  0  0  0  0  0  0  0
  144.8603  136.2376  151.4799 H   0  0  0  0  0  0  0  0  0  0  0  0
  144.0287  135.0366  150.5124 H   0  0  0  0  0  0  0  0  0  0  0  0
  145.7008  134.7795  150.9944 H   0  0  0  0  0  0  0  0  0  0  0  0
  145.4379  135.8460  153.8428 H   0  0  0  0  0  0  0  0  0  0  0  0
  144.8299  134.4759  154.7286 H   0  0  0  0  0  0  0  0  0  0  0  0
  150.3828  133.4295  155.6244 H   0  0  0  0  0  0  0  0  0  0  0  0
  147.0603  138.9373  155.3112 H   0  0  0  0  0  0  0  0  0  0  0  0
  148.9914  138.9478  157.3015 H   0  0  0  0  0  0  0  0  0  0  0  0
  150.2615  137.7822  157.1017 H   0  0  0  0  0  0  0  0  0  0  0  0
  148.4614  139.8088  154.6842 H   0  0  0  0  0  0  0  0  0  0  0  0
  149.1474  141.2278  155.4311 H   0  0  0  0  0  0  0  0  0  0  0  0
  149.7146  140.0189  152.9927 H   0  0  0  0  0  0  0  0  0  0  0  0
  151.6873  141.1713  156.0402 H   0  0  0  0  0  0  0  0  0  0  0  0
  151.5487  140.0690  157.4496 H   0  0  0  0  0  0  0  0  0  0  0  0
  151.4343  137.6865  154.8219 H   0  0  0  0  0  0  0  0  0  0  0  0
  151.6037  139.1868  153.8526 H   0  0  0  0  0  0  0  0  0  0  0  0
  147.3107  132.1143  153.3483 H   0  0  0  0  0  0  0  0  0  0  0  0
  145.9445  132.2109  154.4502 H   0  0  0  0  0  0  0  0  0  0  0  0
  145.8881  132.4976  151.4078 H   0  0  0  0  0  0  0  0  0  0  0  0
  145.2277  131.1837  152.3460 H   0  0  0  0  0  0  0  0  0  0  0  0
  142.6631  131.6252  151.6133 H   0  0  0  0  0  0  0  0  0  0  0  0
  142.3572  133.2963  151.2897 H   0  0  0  0  0  0  0  0  0  0  0  0
  144.4007  133.3122  149.7687 H   0  0  0  0  0  0  0  0  0  0  0  0
  144.6077  131.5952  150.0415 H   0  0  0  0  0  0  0  0  0  0  0  0
  142.2156  132.7715  149.0923 H   0  0  0  0  0  0  0  0  0  0  0  0
  143.6818  132.6778  153.3112 H   0  0  0  0  0  0  0  0  0  0  0  0
  1  2  1  0  0  0  0
  1 28  1  0  0  0  0
  1 29  1  0  0  0  0
  1 30  1  0  0  0  0
  2 24  1  0  0  0  0
  2  3  1  0  0  0  0
  2  4  1  0  0  0  0
  3 31  1  0  0  0  0
  3 32  1  0  0  0  0
  3 33  1  0  0  0  0
  4  5  1  0  0  0  0
  4 34  1  0  0  0  0
  4 35  1  0  0  0  0
  5  6  1  0  0  0  0
  5 22  1  0  0  0  0
  6 11  1  0  0  0  0
  6  7  2  0  0  0  0
  7  8  1  0  0  0  0
  8  9  2  0  0  0  0
  8 36  1  0  0  0  0
  9 10  1  0  0  0  0
 10 14  1  0  0  0  0
 10 11  2  0  0  0  0
 11 12  1  0  0  0  0
 12 13  2  0  0  0  0
 13 14  1  0  0  0  0
 13 37  1  0  0  0  0
 14 15  1  0  0  0  0
 15 16  1  0  0  0  0
 15 38  1  0  0  0  0
 15 39  1  0  0  0  0
 16 21  1  0  0  0  0
 16 17  1  0  0  0  0
 16 19  1  0  0  0  0
 17 18  1  0  0  0  0
 17 40  1  0  0  0  0
 17 41  1  0  0  0  0
 18 42  1  0  0  0  0
 19 20  1  0  0  0  0
 19 43  1  0  0  0  0
 19 44  1  0  0  0  0
 20 21  1  0  0  0  0
 21 45  1  0  0  0  0
 21 46  1  0  0  0  0
 22 23  1  0  0  0  0
 22 47  1  0  0  0  0
 22 48  1  0  0  0  0
 23 24  1  0  0  0  0
 23 49  1  0  0  0  0
 23 50  1  0  0  0  0
 24 25  1  0  0  0  0
 24 56  1  0  0  0  0
 25 26  1  0  0  0  0
 25 51  1  0  0  0  0
 25 52  1  0  0  0  0
 26 27  1  0  0  0  0
 26 53  1  0  0  0  0
 26 54  1  0  0  0  0
 27 55  1  0  0  0  0
M  CHG  1  24   1
M  END
> <s_m_source_file>
AV-unprocessed.smi

> <i_m_source_file_index>
207

> <i_lp_mmshare_version>
43012

> <i_f3d_flags>
0

> <s_epik_input>
W09IXVtDSDJdW0NIMl1OMVtDSDJdW0NIMl1OKFtDSDJdQzEoW0NIM10pW0NIM10pYyhuW2NIXW4yKWMoYzIzKW5bY0hdbjNbQ0gyXUM0KFtDSDJdW09IXSlbQ0gyXU9bQ0gyXTQ=

> <s_epik_cmdline>
J2VwaWtfcHl0aG9uJywgJy1waCcsICc3LjAnLCAnLXRuJywgJzgnLCAnLW1hJywgJzIwMCcsICctbWV0YWxfYmluZGluZycsICctaW1hZScsICc8aW5maWxlLm1hZT4nLCAnLW9tYWUnLCAnPG91dGZpbGUubWFlPic=

> <r_lp_tautomer_probability>
1

> <r_epik_Ionization_Penalty>
0.416568

> <r_epik_Ionization_Penalty_Charging>
0.416506

> <r_epik_Ionization_Penalty_Neutral>
6.2219e-05

> <r_epik_State_Penalty>
0.419386

> <r_epik_Charging_Adjusted_Penalty>
0.835892

> <i_epik_Tot_Q>
1

> <i_epik_Tot_abs_Q>
1

> <r_epik_Metal_State_Penalty>
0.420232

> <b_epik_Metal_Only>
0

> <s_lp_Force_Field>
OPLS_2005

> <r_lp_Energy>
56.1561

> <b_lp_Chiralities_Consistent>
1

> <s_lp_Variant>
AV-unprocessed.smi:207-3

> <Gold.Version>
5.8.1

> <Gold.Id.Protein>
6NUR|6NUR_protein|mol2

> <Gold.PLP.Fitness>
55.1924

> <Gold.PLP.PLP>
-37.6025

> <Gold.PLP.part.hbond>
-7.1283

> <Gold.PLP.part.metal>
0.0000

> <Gold.PLP.part.buried>
-5.5037

> <Gold.PLP.part.nonpolar>
-25.5421

> <Gold.PLP.part.repulsive>
0.3384

> <Gold.PLP.ligand.clash>
0.0000

> <Gold.PLP.ligand.torsion>
1.6597

> <Gold.PLP.Chemscore.Hbond>
6.6978

> <Gold.PLP.Chemscore.CHOScore>
0.0000

> <Gold.PLP.Chemscore.Metal>
0.0000

> <Gold.Chemscore.Hbonds>
donor molecule, donor type, donor heavy atom, donor atom, acceptor molecule, acceptor atom, score
      L1  H    18    42       P1  7957  0.64
      L1  H    24    56       P1 10957  2.00
      L1  H    27    55       P1 10186  0.88
      P1  H  7989  7998       L1    18  0.46
      P1  H  7997  8009       L1    20  0.84
      P1  H  8011  8017       L1    18  0.66
      P1  H 10785 10796       L1    27  0.99

> <Gold.PLP.Chemscore.Internal.Correction>
0.8160

> <Gold.Rescore>
     Score         DG    S(hbond)    S(metal)    S(lipo)     H(rot)  DE(clash)    DE(int)     intcor
     14.58     -18.01       4.12        0.00      72.51       3.80       0.11       3.32       ----

> <Gold.Chemscore.Fitness>
14.5785

> <Gold.Chemscore.DG>
-18.0077

> <Gold.Chemscore.ZeroCoef>
-5.4800

> <Gold.Chemscore.Hbond>
4.1231

> <Gold.Chemscore.Metal>
0.0000

> <Gold.Chemscore.Lipo>
72.5119

> <Gold.Chemscore.Internal_Hbond>
0.0000

> <Gold.Chemscore.DEClash>
0.1103

> <Gold.Chemscore.DEInternal>
3.3188

> <Gold.Chemscore.Rot>
3.7997

> <Gold.Chemscore.Internal.Correction>
   9.000000E+99

> <Gold.Chemscore.Hbonds>
donor molecule, donor type, donor heavy atom, donor atom, acceptor molecule, acceptor atom, score
      L1  H    18    42       P1  7957  0.64
      L1  H    24    56       P1 10957  0.38
      L1  H    27    55       P1 10186  0.86
      P1  H  7989  7998       L1    18  0.22
      P1  H  7997  8009       L1    20  0.33
      P1  H  8011  8017       L1    18  0.14
      P1  H 10785 10796       L1    27  0.27

> <Gold.Chemscore.Hbond.Weighted>
-13.7711

> <Gold.Chemscore.Metal.Weighted>
-0.0000

> <Gold.Chemscore.Lipo.Weighted>
-8.4839

> <Gold.Chemscore.Internal_Hbond.Weighted>
0.0000

> <Gold.Chemscore.DEClash.Weighted>
0.1103

> <Gold.Chemscore.DEInternal.Weighted>
3.3188

> <Gold.Chemscore.Rot.Weighted>
9.7273

> <Gold.Chemscore.Internal.Correction.Weighted>
   9.000000E+99

> <Gold.Protein.RotatedTorsions>
[ 6907 6896 6895 6894 ] final   93.71 input  -60.11 | X-H torsion
[ 7974 7965 7964 7962 ] final -167.68 input  175.53 | X-H torsion
[ 8008 7997 7996 7995 ] final -157.34 input   59.86 | X-H torsion
[ 10167 10162 10161 10158 ] final  -77.40 input  -65.29 | X-H torsion
[ 10718 10713 10712 10709 ] final -166.13 input   66.30 | X-H torsion
[ 10763 10752 10751 10750 ] final  -27.01 input  -60.55 | X-H torsion
[ 11005 11000 10999 10996 ] final  156.52 input  -57.11 | X-H torsion

> <Gold.Protein.ActiveResidues>
 VAL166  LYS551  ARG553  GLY616  TRP617  ASP618  TYR619  PRO620  LYS621  CYS622 
 ASP623  PHE694  ASN695  SER759  ASP760  ASP761  ALA762  ILE779  LEU786  VAL792 
 PHE793  MET794  SER795  GLU796  ALA797  LYS798  CYS799  TRP800  GLU811  SER814 

> <Gold.Protein.RotatedAtoms>
  152.5452  134.1306  159.8437 H   0  0  0  0  0  0  0  0  0  0  0  0  # atno 6907 bound_to 6896
  151.1352  133.5002  159.2605 H   0  0  0  0  0  0  0  0  0  0  0  0  # atno 6908 bound_to 6896
  151.1632  135.0293  159.8774 H   0  0  0  0  0  0  0  0  0  0  0  0  # atno 6909 bound_to 6896
  144.7218  140.2482  143.6282 H   0  0  0  0  0  0  0  0  0  0  0  0  # atno 7974 bound_to 7965
  155.7309  140.0802  157.2289 H   0  0  0  0  0  0  0  0  0  0  0  0  # atno 8008 bound_to 7997
  154.4033  140.1595  156.2563 H   0  0  0  0  0  0  0  0  0  0  0  0  # atno 8009 bound_to 7997
  155.9109  140.3404  155.6101 H   0  0  0  0  0  0  0  0  0  0  0  0  # atno 8010 bound_to 7997
  140.4773  143.2411  151.8112 H   0  0  0  0  0  0  0  0  0  0  0  0  # atno 10167 bound_to 10162
  156.6634  130.9055  151.3033 H   0  0  0  0  0  0  0  0  0  0  0  0  # atno 10718 bound_to 10713
  153.7252  135.6942  153.5003 H   0  0  0  0  0  0  0  0  0  0  0  0  # atno 10763 bound_to 10752
  153.2175  135.4381  155.0450 H   0  0  0  0  0  0  0  0  0  0  0  0  # atno 10764 bound_to 10752
  154.8271  135.3452  154.6784 H   0  0  0  0  0  0  0  0  0  0  0  0  # atno 10765 bound_to 10752
  140.1682  134.8561  157.2658 H   0  0  0  0  0  0  0  0  0  0  0  0  # atno 11005 bound_to 11000
  145.8254  139.2062  143.1914 LP  0  0  0  0  0  0  0  0  0  0  0  0  # atno 17320 bound_to 7965
  146.0478  140.8100  142.9797 LP  0  0  0  0  0  0  0  0  0  0  0  0  # atno 17321 bound_to 7965
  139.4827  144.4817  151.9298 LP  0  0  0  0  0  0  0  0  0  0  0  0  # atno 17342 bound_to 10162
  140.3902  144.2625  150.5900 LP  0  0  0  0  0  0  0  0  0  0  0  0  # atno 17343 bound_to 10162
  157.7102  130.9431  150.1063 LP  0  0  0  0  0  0  0  0  0  0  0  0  # atno 17370 bound_to 10713
  156.1993  130.3659  149.8808 LP  0  0  0  0  0  0  0  0  0  0  0  0  # atno 17371 bound_to 10713
  140.2408  134.3798  155.7481 LP  0  0  0  0  0  0  0  0  0  0  0  0  # atno 17394 bound_to 11000
  141.2215  133.7264  156.8786 LP  0  0  0  0  0  0  0  0  0  0  0  0  # atno 17395 bound_to 11000

$$$$
