AV-unprocessed.smi:1769|AV-procd|sdf|7151|dock5
  -GOLD-   22720 8393D 1   1.00000     0.00000
 Structure written by MMmdl.
 41 42  0  0  0  0  0  0  0  0  1 V2000
  154.1222  132.6375  161.7200 C   0  0  0  0  0  0  0  0  0  0  0  0
  154.5391  133.8751  160.9221 C   0  0  0  0  0  0  0  0  0  0  0  0
  154.6116  133.7759  159.6971 O   0  0  0  0  0  0  0  0  0  0  0  0
  154.8088  135.0280  161.5807 N   0  0  0  0  0  0  0  0  0  0  0  0
  154.6575  135.2347  163.0267 C   0  0  0  0  0  0  0  0  0  0  0  0
  153.4480  136.1555  163.2673 C   0  0  0  0  0  0  0  0  0  0  0  0
  153.6069  137.4841  162.5033 C   0  0  0  0  0  0  0  0  0  0  0  0
  153.9494  137.2535  161.0119 C   0  0  1  0  0  0  0  0  0  0  0  0
  154.2477  138.5802  160.3009 C   0  0  0  0  0  0  0  0  0  0  0  0
  155.2318  138.6843  159.5679 O   0  0  0  0  0  0  0  0  0  0  0  0
  153.3908  139.5880  160.5274 N   0  0  0  0  0  0  0  0  0  0  0  0
  153.5040  140.9252  159.9582 C   0  0  0  0  0  0  0  0  0  0  0  0
  152.8129  141.9744  160.8436 C   0  0  0  0  0  0  0  0  0  0  0  0
  152.7041  143.3190  160.1526 C   0  0  0  0  0  0  0  0  0  0  0  0
  151.9850  144.3783  160.7432 C   0  0  0  0  0  0  0  0  0  0  0  0
  151.9163  145.6111  160.0661 C   0  0  0  0  0  0  0  0  0  0  0  0
  152.5728  145.7325  158.8250 C   0  0  0  0  0  0  0  0  0  0  0  0
  153.2648  144.7251  158.2504 N   0  0  0  0  0  0  0  0  0  0  0  0
  153.3248  143.5457  158.9056 C   0  0  0  0  0  0  0  0  0  0  0  0
  155.1427  136.2788  160.8874 C   0  0  0  0  0  0  0  0  0  0  0  0
  153.2225  132.8372  162.3030 H   0  0  0  0  0  0  0  0  0  0  0  0
  154.9209  132.3258  162.3938 H   0  0  0  0  0  0  0  0  0  0  0  0
  153.9065  131.8034  161.0511 H   0  0  0  0  0  0  0  0  0  0  0  0
  154.5400  134.3112  163.5915 H   0  0  0  0  0  0  0  0  0  0  0  0
  155.5632  135.7004  163.4182 H   0  0  0  0  0  0  0  0  0  0  0  0
  152.5368  135.6520  162.9417 H   0  0  0  0  0  0  0  0  0  0  0  0
  153.3306  136.3507  164.3335 H   0  0  0  0  0  0  0  0  0  0  0  0
  152.6936  138.0733  162.5951 H   0  0  0  0  0  0  0  0  0  0  0  0
  154.3967  138.0669  162.9802 H   0  0  0  0  0  0  0  0  0  0  0  0
  153.0839  136.7922  160.5322 H   0  0  0  0  0  0  0  0  0  0  0  0
  152.6068  139.4170  161.1402 H   0  0  0  0  0  0  0  0  0  0  0  0
  154.5545  141.1815  159.8092 H   0  0  0  0  0  0  0  0  0  0  0  0
  153.0449  140.9124  158.9692 H   0  0  0  0  0  0  0  0  0  0  0  0
  151.8137  141.6338  161.1184 H   0  0  0  0  0  0  0  0  0  0  0  0
  153.3616  142.1033  161.7777 H   0  0  0  0  0  0  0  0  0  0  0  0
  151.4964  144.2507  161.6981 H   0  0  0  0  0  0  0  0  0  0  0  0
  151.3741  146.4442  160.4880 H   0  0  0  0  0  0  0  0  0  0  0  0
  152.5417  146.6640  158.2795 H   0  0  0  0  0  0  0  0  0  0  0  0
  153.8876  142.7610  158.4213 H   0  0  0  0  0  0  0  0  0  0  0  0
  156.0386  136.7072  161.3402 H   0  0  0  0  0  0  0  0  0  0  0  0
  155.3928  136.1190  159.8372 H   0  0  0  0  0  0  0  0  0  0  0  0
  1  2  1  0  0  0  0
  1 21  1  0  0  0  0
  1 22  1  0  0  0  0
  1 23  1  0  0  0  0
  2  3  2  0  0  0  0
  2  4  1  0  0  0  0
  4 20  1  0  0  0  0
  4  5  1  0  0  0  0
  5  6  1  0  0  0  0
  5 24  1  0  0  0  0
  5 25  1  0  0  0  0
  6  7  1  0  0  0  0
  6 26  1  0  0  0  0
  6 27  1  0  0  0  0
  7  8  1  0  0  0  0
  7 28  1  0  0  0  0
  7 29  1  0  0  0  0
  8  9  1  0  0  0  0
  8 20  1  0  0  0  0
  8 30  1  0  0  0  0
  9 10  2  0  0  0  0
  9 11  1  0  0  0  0
 11 12  1  0  0  0  0
 11 31  1  0  0  0  0
 12 13  1  0  0  0  0
 12 32  1  0  0  0  0
 12 33  1  0  0  0  0
 13 14  1  0  0  0  0
 13 34  1  0  0  0  0
 13 35  1  0  0  0  0
 14 19  1  0  0  0  0
 14 15  2  0  0  0  0
 15 16  1  0  0  0  0
 15 36  1  0  0  0  0
 16 17  2  0  0  0  0
 16 37  1  0  0  0  0
 17 18  1  0  0  0  0
 17 38  1  0  0  0  0
 18 19  2  0  0  0  0
 19 39  1  0  0  0  0
 20 40  1  0  0  0  0
 20 41  1  0  0  0  0
M  END
> <s_m_source_file>
AV-unprocessed.smi

> <i_m_source_file_index>
1769

> <i_lp_mmshare_version>
43012

> <i_f3d_flags>
0

> <s_epik_input>
W0NIM11DKD1PKU4xW0NIMl1bQ0gyXVtDSDJdW0NASF0oW0NIMl0xKUMoPU8pW05IXVtDSDJdW0NIMl1jMltjSF1bY0hdW2NIXW5bY0hdMg==

> <s_epik_cmdline>
J2VwaWtfcHl0aG9uJywgJy1waCcsICc3LjAnLCAnLXRuJywgJzgnLCAnLW1hJywgJzIwMCcsICctbWV0YWxfYmluZGluZycsICctaW1hZScsICc8aW5maWxlLm1hZT4nLCAnLW9tYWUnLCAnPG91dGZpbGUubWFlPic=

> <r_epik_Ionization_Penalty>
0.0134099

> <r_epik_Ionization_Penalty_Charging>
0

> <r_epik_Ionization_Penalty_Neutral>
0.0134099

> <r_epik_State_Penalty>
0.010434

> <r_epik_Charging_Adjusted_Penalty>
0.010434

> <i_epik_Tot_Q>
0

> <i_epik_Tot_abs_Q>
0

> <r_epik_Metal_State_Penalty>
0.0102025

> <b_epik_Metal_Only>
0

> <s_lp_Force_Field>
OPLS_2005

> <r_lp_Energy>
22.5889

> <b_lp_Chiralities_Consistent>
1

> <s_lp_Variant>
AV-unprocessed.smi:1769-1

> <Gold.Version>
5.8.1

> <Gold.Id.Protein>
6NUR|6NUR_protein|mol2

> <Gold.PLP.Fitness>
43.9161

> <Gold.PLP.PLP>
-40.3412

> <Gold.PLP.part.hbond>
-1.3328

> <Gold.PLP.part.metal>
0.0000

> <Gold.PLP.part.buried>
-4.0216

> <Gold.PLP.part.nonpolar>
-34.8022

> <Gold.PLP.part.repulsive>
0.1076

> <Gold.PLP.ligand.clash>
0.0000

> <Gold.PLP.ligand.torsion>
0.5219

> <Gold.PLP.Chemscore.Hbond>
1.5275

> <Gold.PLP.Chemscore.CHOScore>
0.0000

> <Gold.PLP.Chemscore.Metal>
0.0000

> <Gold.Chemscore.Hbonds>
donor molecule, donor type, donor heavy atom, donor atom, acceptor molecule, acceptor atom, score
      P1  H  6896  6907       L1     3  0.15

> <Gold.PLP.Chemscore.Internal.Correction>
0.0361

> <Gold.Rescore>
     Score         DG    S(hbond)    S(metal)    S(lipo)     H(rot)  DE(clash)    DE(int)     intcor
     19.35     -19.93       1.78        0.00     105.98       1.52       0.22       0.36       ----

> <Gold.Chemscore.Fitness>
19.3492

> <Gold.Chemscore.DG>
-19.9279

> <Gold.Chemscore.ZeroCoef>
-5.4800

> <Gold.Chemscore.Hbond>
1.7788

> <Gold.Chemscore.Metal>
0.0000

> <Gold.Chemscore.Lipo>
105.9771

> <Gold.Chemscore.Internal_Hbond>
0.0000

> <Gold.Chemscore.DEClash>
0.2232

> <Gold.Chemscore.DEInternal>
0.3555

> <Gold.Chemscore.Rot>
1.5205

> <Gold.Chemscore.Internal.Correction>
   9.000000E+99

> <Gold.Chemscore.Hbond.Weighted>
-5.9411

> <Gold.Chemscore.Metal.Weighted>
-0.0000

> <Gold.Chemscore.Lipo.Weighted>
-12.3993

> <Gold.Chemscore.Internal_Hbond.Weighted>
0.0000

> <Gold.Chemscore.DEClash.Weighted>
0.2232

> <Gold.Chemscore.DEInternal.Weighted>
0.3555

> <Gold.Chemscore.Rot.Weighted>
3.8926

> <Gold.Chemscore.Internal.Correction.Weighted>
   9.000000E+99

> <Gold.Protein.RotatedTorsions>
[ 6907 6896 6895 6894 ] final  100.15 input  -60.11 | X-H torsion
[ 7974 7965 7964 7962 ] final -174.51 input  175.53 | X-H torsion
[ 8008 7997 7996 7995 ] final   -5.11 input   59.86 | X-H torsion
[ 10167 10162 10161 10158 ] final   38.02 input  -65.29 | X-H torsion
[ 10718 10713 10712 10709 ] final   64.21 input   66.30 | X-H torsion
[ 10763 10752 10751 10750 ] final   70.67 input  -60.55 | X-H torsion
[ 11005 11000 10999 10996 ] final  -85.70 input  -57.11 | X-H torsion

> <Gold.Protein.ActiveResidues>
 VAL166  LYS551  ARG553  GLY616  TRP617  ASP618  TYR619  PRO620  LYS621  CYS622 
 ASP623  PHE694  ASN695  SER759  ASP760  ASP761  ALA762  ILE779  LEU786  VAL792 
 PHE793  MET794  SER795  GLU796  ALA797  LYS798  CYS799  TRP800  GLU811  SER814 

> <Gold.Protein.RotatedAtoms>
  152.5378  134.0321  159.8029 H   0  0  0  0  0  0  0  0  0  0  0  0  # atno 6907 bound_to 6896
  151.0490  133.5632  159.2651 H   0  0  0  0  0  0  0  0  0  0  0  0  # atno 6908 bound_to 6896
  151.2574  135.0650  159.9139 H   0  0  0  0  0  0  0  0  0  0  0  0  # atno 6909 bound_to 6896
  144.7131  140.1461  143.6388 H   0  0  0  0  0  0  0  0  0  0  0  0  # atno 7974 bound_to 7965
  154.6073  140.2467  155.7715 H   0  0  0  0  0  0  0  0  0  0  0  0  # atno 8008 bound_to 7997
  156.2348  140.2954  156.0235 H   0  0  0  0  0  0  0  0  0  0  0  0  # atno 8009 bound_to 7997
  155.2111  140.0397  157.2924 H   0  0  0  0  0  0  0  0  0  0  0  0  # atno 8010 bound_to 7997
  140.3977  144.1766  150.6132 H   0  0  0  0  0  0  0  0  0  0  0  0  # atno 10167 bound_to 10162
  157.6024  130.9147  149.9816 H   0  0  0  0  0  0  0  0  0  0  0  0  # atno 10718 bound_to 10713
  153.0354  135.5165  154.7476 H   0  0  0  0  0  0  0  0  0  0  0  0  # atno 10763 bound_to 10752
  154.6456  135.2918  155.0052 H   0  0  0  0  0  0  0  0  0  0  0  0  # atno 10764 bound_to 10752
  154.0954  135.6644  153.4912 H   0  0  0  0  0  0  0  0  0  0  0  0  # atno 10765 bound_to 10752
  141.1638  133.7414  156.9054 H   0  0  0  0  0  0  0  0  0  0  0  0  # atno 11005 bound_to 11000
  145.9158  139.2515  143.1410 LP  0  0  0  0  0  0  0  0  0  0  0  0  # atno 17320 bound_to 7965
  145.9670  140.8791  143.0182 LP  0  0  0  0  0  0  0  0  0  0  0  0  # atno 17321 bound_to 7965
  140.4773  143.2391  151.9005 LP  0  0  0  0  0  0  0  0  0  0  0  0  # atno 17342 bound_to 10162
  139.4786  144.5307  151.8671 LP  0  0  0  0  0  0  0  0  0  0  0  0  # atno 17343 bound_to 10162
  156.1101  130.3650  150.0065 LP  0  0  0  0  0  0  0  0  0  0  0  0  # atno 17370 bound_to 10713
  156.8165  130.9343  151.3642 LP  0  0  0  0  0  0  0  0  0  0  0  0  # atno 17371 bound_to 10713
  140.1554  134.9202  157.2646 LP  0  0  0  0  0  0  0  0  0  0  0  0  # atno 17394 bound_to 11000
  140.2674  134.3500  155.7385 LP  0  0  0  0  0  0  0  0  0  0  0  0  # atno 17395 bound_to 11000

$$$$
