AV-unprocessed.smi:701|AV-procd|sdf|3415|dock3
  -GOLD-   22720 0393D 1   1.00000     0.00000
 Structure written by MMmdl.
 48 50  0  0  0  0  0  0  0  0  2 V2000
  146.7155  128.3567  152.3574 C   0  0  0  0  0  0  0  0  0  0  0  0
  146.6657  129.3828  153.4912 C   0  0  0  0  0  0  0  0  0  0  0  0
  145.9820  130.5361  153.0313 O   0  0  0  0  0  0  0  0  0  0  0  0
  146.6217  131.7460  153.4021 C   0  0  1  0  0  0  0  0  0  0  0  0
  148.1510  131.6937  153.3490 C   0  0  0  0  0  0  0  0  0  0  0  0
  148.1041  133.1054  152.7540 C   0  0  2  0  0  0  0  0  0  0  0  0
  148.1985  134.1283  153.7957 N   0  0  0  0  0  0  0  0  0  0  0  0
  149.1063  134.1362  154.7808 C   0  0  0  0  0  0  0  0  0  0  0  0
  149.9510  133.2529  154.9301 O   0  0  0  0  0  0  0  0  0  0  0  0
  149.0261  135.3088  155.7653 C   0  0  0  0  0  0  0  0  0  0  0  0
  150.2779  136.0793  155.8141 N   0  0  0  0  0  0  0  0  0  0  0  0
  150.3879  137.2076  154.9824 C   0  0  0  0  0  0  0  0  0  0  0  0
  151.4958  137.9729  154.9669 C   0  0  0  0  0  0  0  0  0  0  0  0
  152.6009  137.6054  155.8436 C   0  0  0  0  0  0  0  0  0  0  0  0
  153.6223  138.2897  155.8387 O   0  0  0  0  0  0  0  0  0  0  0  0
  152.4438  136.5048  156.6361 N   0  5  0  0  0  0  0  0  0  0  0  0
  151.3102  135.7370  156.6431 C   0  0  0  0  0  0  0  0  0  0  0  0
  151.1878  134.7487  157.3682 O   0  0  0  0  0  0  0  0  0  0  0  0
  146.6458  132.8268  152.2882 C   0  0  0  0  0  0  0  0  0  0  0  0
  146.5637  132.3251  150.8268 C   0  0  0  0  0  0  0  0  0  0  0  0
  145.1448  131.9430  150.3642 C   0  0  0  0  0  0  0  0  0  0  0  0
  144.1506  133.0868  150.5885 C   0  0  0  0  0  0  0  0  0  0  0  0
  144.1999  133.5761  152.0391 C   0  0  0  0  0  0  0  0  0  0  0  0
  145.6284  133.9773  152.4377 C   0  0  0  0  0  0  0  0  0  0  0  0
  147.2342  127.4514  152.6726 H   0  0  0  0  0  0  0  0  0  0  0  0
  147.2392  128.7577  151.4894 H   0  0  0  0  0  0  0  0  0  0  0  0
  145.7105  128.0744  152.0424 H   0  0  0  0  0  0  0  0  0  0  0  0
  146.1497  128.9577  154.3533 H   0  0  0  0  0  0  0  0  0  0  0  0
  147.6779  129.6409  153.8050 H   0  0  0  0  0  0  0  0  0  0  0  0
  146.2520  132.1456  154.3491 H   0  0  0  0  0  0  0  0  0  0  0  0
  148.6386  131.6088  154.3210 H   0  0  0  0  0  0  0  0  0  0  0  0
  148.5305  130.9510  152.6460 H   0  0  0  0  0  0  0  0  0  0  0  0
  148.8020  133.2503  151.9274 H   0  0  0  0  0  0  0  0  0  0  0  0
  147.5429  134.8946  153.7486 H   0  0  0  0  0  0  0  0  0  0  0  0
  148.1896  135.9628  155.5104 H   0  0  0  0  0  0  0  0  0  0  0  0
  148.7849  134.9083  156.7507 H   0  0  0  0  0  0  0  0  0  0  0  0
  149.5226  137.4139  154.3699 H   0  0  0  0  0  0  0  0  0  0  0  0
  151.5635  138.8382  154.3245 H   0  0  0  0  0  0  0  0  0  0  0  0
  146.9473  133.0972  150.1584 H   0  0  0  0  0  0  0  0  0  0  0  0
  147.2189  131.4664  150.6779 H   0  0  0  0  0  0  0  0  0  0  0  0
  145.1623  131.6728  149.3082 H   0  0  0  0  0  0  0  0  0  0  0  0
  144.8009  131.0558  150.8947 H   0  0  0  0  0  0  0  0  0  0  0  0
  144.3886  133.9133  149.9177 H   0  0  0  0  0  0  0  0  0  0  0  0
  143.1412  132.7617  150.3349 H   0  0  0  0  0  0  0  0  0  0  0  0
  143.5269  134.4242  152.1665 H   0  0  0  0  0  0  0  0  0  0  0  0
  143.8399  132.7910  152.7055 H   0  0  0  0  0  0  0  0  0  0  0  0
  145.5983  134.3365  153.4666 H   0  0  0  0  0  0  0  0  0  0  0  0
  145.9428  134.8321  151.8370 H   0  0  0  0  0  0  0  0  0  0  0  0
  1  2  1  0  0  0  0
  1 25  1  0  0  0  0
  1 26  1  0  0  0  0
  1 27  1  0  0  0  0
  2  3  1  0  0  0  0
  2 28  1  0  0  0  0
  2 29  1  0  0  0  0
  3  4  1  0  0  0  0
  4 19  1  0  0  0  0
  4  5  1  0  0  0  0
  4 30  1  0  0  0  0
  5  6  1  0  0  0  0
  5 31  1  0  0  0  0
  5 32  1  0  0  0  0
  6  7  1  0  0  0  0
  6 19  1  0  0  0  0
  6 33  1  0  0  0  0
  7  8  1  0  0  0  0
  7 34  1  0  0  0  0
  8  9  2  0  0  0  0
  8 10  1  0  0  0  0
 10 11  1  0  0  0  0
 10 35  1  0  0  0  0
 10 36  1  0  0  0  0
 11 17  1  0  0  0  0
 11 12  1  0  0  0  0
 12 13  2  0  0  0  0
 12 37  1  0  0  0  0
 13 14  1  0  0  0  0
 13 38  1  0  0  0  0
 14 15  2  0  0  0  0
 14 16  1  0  0  0  0
 16 17  1  0  0  0  0
 17 18  2  0  0  0  0
 19 24  1  0  0  0  0
 19 20  1  0  0  0  0
 20 21  1  0  0  0  0
 20 39  1  0  0  0  0
 20 40  1  0  0  0  0
 21 22  1  0  0  0  0
 21 41  1  0  0  0  0
 21 42  1  0  0  0  0
 22 23  1  0  0  0  0
 22 43  1  0  0  0  0
 22 44  1  0  0  0  0
 23 24  1  0  0  0  0
 23 45  1  0  0  0  0
 23 46  1  0  0  0  0
 24 47  1  0  0  0  0
 24 48  1  0  0  0  0
M  CHG  1  16  -1
M  END
> <s_m_source_file>
AV-unprocessed.smi

> <i_m_source_file_index>
701

> <i_lp_mmshare_version>
43012

> <i_f3d_flags>
0

> <s_epik_input>
W0NIMl0xW0NIMl1bQ0gyXVtDSDJdW0NIMl1DMTJbQ0BIXShPW0NIMl1bQ0gzXSlbQ0gyXVtDQEhdMltOSF1DKD1PKVtDSDJdbjNbY0hdW2NIXWMoPU8pW25IXWMzPU8=

> <s_epik_cmdline>
J2VwaWtfcHl0aG9uJywgJy1waCcsICc3LjAnLCAnLXRuJywgJzgnLCAnLW1hJywgJzIwMCcsICctbWV0YWxfYmluZGluZycsICctaW1hZScsICc8aW5maWxlLm1hZT4nLCAnLW9tYWUnLCAnPG91dGZpbGUubWFlPic=

> <r_lp_tautomer_probability>
0.999537

> <r_epik_Ionization_Penalty>
3.12423

> <r_epik_Ionization_Penalty_Charging>
2.92877e-08

> <r_epik_Ionization_Penalty_Neutral>
3.12423

> <r_epik_State_Penalty>
3.12332

> <r_epik_Charging_Adjusted_Penalty>
3.12332

> <i_epik_Tot_Q>
-1

> <i_epik_Tot_abs_Q>
1

> <r_epik_Metal_State_Penalty>
0.463873

> <b_epik_Metal_Only>
1

> <s_lp_Force_Field>
OPLS_2005

> <r_lp_Energy>
37.69

> <b_lp_Chiralities_Consistent>
1

> <s_lp_Variant>
AV-unprocessed.smi:701-8

> <Gold.Version>
5.8.1

> <Gold.Id.Protein>
6NUR|6NUR_protein|mol2

> <Gold.PLP.Fitness>
46.2640

> <Gold.PLP.PLP>
-39.2830

> <Gold.PLP.part.hbond>
-3.9489

> <Gold.PLP.part.metal>
0.0000

> <Gold.PLP.part.buried>
-2.9956

> <Gold.PLP.part.nonpolar>
-33.7716

> <Gold.PLP.part.repulsive>
0.2845

> <Gold.PLP.ligand.clash>
0.0000

> <Gold.PLP.ligand.torsion>
1.3262

> <Gold.PLP.Chemscore.Hbond>
2.3440

> <Gold.PLP.Chemscore.CHOScore>
0.7560

> <Gold.PLP.Chemscore.Metal>
0.0000

> <Gold.Chemscore.Hbonds>
donor molecule, donor type, donor heavy atom, donor atom, acceptor molecule, acceptor atom, score
      P1  H  6896  6909       L1    18  0.15
      P1  H  7997  8009       L1    15  0.69
      P1  H 10752 10765       L1    16  0.56
      L1  C    12    37       P1  7948  0.28

> <Gold.PLP.Chemscore.Internal.Correction>
0.3335

> <Gold.Rescore>
     Score         DG    S(hbond)    S(metal)    S(lipo)     H(rot)  DE(clash)    DE(int)     intcor
     11.36     -15.44       1.24        0.00      94.47       2.04       1.65       2.43       ----

> <Gold.Chemscore.Fitness>
11.3584

> <Gold.Chemscore.DG>
-15.4394

> <Gold.Chemscore.ZeroCoef>
-5.4800

> <Gold.Chemscore.Hbond>
1.2362

> <Gold.Chemscore.Metal>
0.0000

> <Gold.Chemscore.Lipo>
94.4657

> <Gold.Chemscore.Internal_Hbond>
0.0000

> <Gold.Chemscore.DEClash>
1.6505

> <Gold.Chemscore.DEInternal>
2.4305

> <Gold.Chemscore.Rot>
2.0399

> <Gold.Chemscore.Internal.Correction>
   9.000000E+99

> <Gold.Chemscore.Hbonds>
donor molecule, donor type, donor heavy atom, donor atom, acceptor molecule, acceptor atom, score
      P1  H  6896  6909       L1    18  0.14
      P1  H  7997  8009       L1    15  0.67

> <Gold.Chemscore.Hbond.Weighted>
-4.1291

> <Gold.Chemscore.Metal.Weighted>
-0.0000

> <Gold.Chemscore.Lipo.Weighted>
-11.0525

> <Gold.Chemscore.Internal_Hbond.Weighted>
0.0000

> <Gold.Chemscore.DEClash.Weighted>
1.6505

> <Gold.Chemscore.DEInternal.Weighted>
2.4305

> <Gold.Chemscore.Rot.Weighted>
5.2222

> <Gold.Chemscore.Internal.Correction.Weighted>
   9.000000E+99

> <Gold.Protein.RotatedTorsions>
[ 6907 6896 6895 6894 ] final   -1.51 input  -60.11 | X-H torsion
[ 7974 7965 7964 7962 ] final  122.44 input  175.53 | X-H torsion
[ 8008 7997 7996 7995 ] final -151.63 input   59.86 | X-H torsion
[ 10167 10162 10161 10158 ] final  -48.08 input  -65.29 | X-H torsion
[ 10718 10713 10712 10709 ] final  134.17 input   66.30 | X-H torsion
[ 10763 10752 10751 10750 ] final -136.67 input  -60.55 | X-H torsion
[ 11005 11000 10999 10996 ] final   73.88 input  -57.11 | X-H torsion

> <Gold.Protein.ActiveResidues>
 VAL166  LYS551  ARG553  GLY616  TRP617  ASP618  TYR619  PRO620  LYS621  CYS622 
 ASP623  PHE694  ASN695  SER759  ASP760  ASP761  ALA762  ILE779  LEU786  VAL792 
 PHE793  MET794  SER795  GLU796  ALA797  LYS798  CYS799  TRP800  GLU811  SER814 

> <Gold.Protein.RotatedAtoms>
  151.5449  135.1068  159.9935 H   0  0  0  0  0  0  0  0  0  0  0  0  # atno 6907 bound_to 6896
  152.4518  133.7640  159.6773 H   0  0  0  0  0  0  0  0  0  0  0  0  # atno 6908 bound_to 6896
  150.8449  133.7811  159.3071 H   0  0  0  0  0  0  0  0  0  0  0  0  # atno 6909 bound_to 6896
  145.1076  139.3475  143.4780 H   0  0  0  0  0  0  0  0  0  0  0  0  # atno 7974 bound_to 7965
  155.6424  140.0703  157.2614 H   0  0  0  0  0  0  0  0  0  0  0  0  # atno 8008 bound_to 7997
  154.4181  140.1748  156.1636 H   0  0  0  0  0  0  0  0  0  0  0  0  # atno 8009 bound_to 7997
  155.9845  140.3351  155.6697 H   0  0  0  0  0  0  0  0  0  0  0  0  # atno 8010 bound_to 7997
  140.6747  143.2756  151.4019 H   0  0  0  0  0  0  0  0  0  0  0  0  # atno 10167 bound_to 10162
  157.4699  131.1079  150.9815 H   0  0  0  0  0  0  0  0  0  0  0  0  # atno 10718 bound_to 10713
  154.8679  135.3665  154.5098 H   0  0  0  0  0  0  0  0  0  0  0  0  # atno 10763 bound_to 10752
  153.5734  135.7020  153.5499 H   0  0  0  0  0  0  0  0  0  0  0  0  # atno 10764 bound_to 10752
  153.3521  135.4069  155.1617 H   0  0  0  0  0  0  0  0  0  0  0  0  # atno 10765 bound_to 10752
  139.9418  134.7385  156.1080 H   0  0  0  0  0  0  0  0  0  0  0  0  # atno 11005 bound_to 11000
  146.3527  140.0980  142.8609 LP  0  0  0  0  0  0  0  0  0  0  0  0  # atno 17320 bound_to 7965
  145.0884  140.9268  143.4784 LP  0  0  0  0  0  0  0  0  0  0  0  0  # atno 17321 bound_to 7965
  139.6033  144.1250  152.2221 LP  0  0  0  0  0  0  0  0  0  0  0  0  # atno 17342 bound_to 10162
  140.0641  144.5833  150.7241 LP  0  0  0  0  0  0  0  0  0  0  0  0  # atno 17343 bound_to 10162
  157.0584  130.5815  149.5381 LP  0  0  0  0  0  0  0  0  0  0  0  0  # atno 17370 bound_to 10713
  156.0068  130.5156  150.7857 LP  0  0  0  0  0  0  0  0  0  0  0  0  # atno 17371 bound_to 10713
  141.1055  133.6661  156.2854 LP  0  0  0  0  0  0  0  0  0  0  0  0  # atno 17394 bound_to 11000
  140.5933  134.5629  157.5503 LP  0  0  0  0  0  0  0  0  0  0  0  0  # atno 17395 bound_to 11000

$$$$
