AV-unprocessed.smi:2476|AV-procd|sdf|9757|dock4
  -GOLD-   2272013393D 1   1.00000     0.00000
 Structure written by MMmdl.
 34 35  0  0  0  0  0  0  0  0  1 V2000
  146.9904  137.0110  158.9141 C   0  0  0  0  0  0  0  0  0  0  0  0
  148.4556  136.5907  158.8702 C   0  0  0  0  0  0  0  0  0  0  0  0
  148.7857  135.4649  159.2420 O   0  0  0  0  0  0  0  0  0  0  0  0
  149.3240  137.5057  158.4143 N   0  0  0  0  0  0  0  0  0  0  0  0
  150.7629  137.3042  158.2812 C   0  0  0  0  0  0  0  0  0  0  0  0
  151.4477  138.5027  157.6023 C   0  0  2  0  0  0  0  0  0  0  0  0
  151.1264  139.8271  158.3210 C   0  0  0  0  0  0  0  0  0  0  0  0
  151.7164  140.9514  157.5987 N   0  0  0  0  0  0  0  0  0  0  0  0
  151.7176  142.2086  158.2364 C   0  0  0  0  0  0  0  0  0  0  0  0
  150.9730  143.2036  157.6920 N   0  0  0  0  0  0  0  0  0  0  0  0
  150.9718  144.4160  158.2859 C   0  0  0  0  0  0  0  0  0  0  0  0
  151.7076  144.7055  159.4503 C   0  0  0  0  0  0  0  0  0  0  0  0
  152.4773  143.6770  160.0237 C   0  0  0  0  0  0  0  0  0  0  0  0
  152.4835  142.4086  159.4116 C   0  0  0  0  0  0  0  0  0  0  0  0
  153.2008  141.3999  159.9636 F   0  0  0  0  0  0  0  0  0  0  0  0
  151.3345  140.9860  156.1910 C   0  0  0  0  0  0  0  0  0  0  0  0
  151.6305  139.6298  155.5291 C   0  0  0  0  0  0  0  0  0  0  0  0
  150.9833  138.5902  156.2563 O   0  0  0  0  0  0  0  0  0  0  0  0
  146.7269  137.5919  158.0294 H   0  0  0  0  0  0  0  0  0  0  0  0
  146.7986  137.6198  159.7980 H   0  0  0  0  0  0  0  0  0  0  0  0
  146.3393  136.1369  158.9516 H   0  0  0  0  0  0  0  0  0  0  0  0
  148.9618  138.4035  158.1272 H   0  0  0  0  0  0  0  0  0  0  0  0
  151.1814  137.1483  159.2759 H   0  0  0  0  0  0  0  0  0  0  0  0
  150.9548  136.3891  157.7187 H   0  0  0  0  0  0  0  0  0  0  0  0
  152.5284  138.3476  157.6029 H   0  0  0  0  0  0  0  0  0  0  0  0
  150.0459  139.9636  158.3867 H   0  0  0  0  0  0  0  0  0  0  0  0
  151.5147  139.7975  159.3401 H   0  0  0  0  0  0  0  0  0  0  0  0
  150.3660  145.1777  157.8181 H   0  0  0  0  0  0  0  0  0  0  0  0
  151.6789  145.6897  159.8940 H   0  0  0  0  0  0  0  0  0  0  0  0
  153.0506  143.8561  160.9214 H   0  0  0  0  0  0  0  0  0  0  0  0
  150.2692  141.2097  156.1201 H   0  0  0  0  0  0  0  0  0  0  0  0
  151.8593  141.7755  155.6541 H   0  0  0  0  0  0  0  0  0  0  0  0
  151.2654  139.6254  154.5023 H   0  0  0  0  0  0  0  0  0  0  0  0
  152.7048  139.4437  155.4859 H   0  0  0  0  0  0  0  0  0  0  0  0
  1  2  1  0  0  0  0
  1 19  1  0  0  0  0
  1 20  1  0  0  0  0
  1 21  1  0  0  0  0
  2  3  2  0  0  0  0
  2  4  1  0  0  0  0
  4  5  1  0  0  0  0
  4 22  1  0  0  0  0
  5  6  1  0  0  0  0
  5 23  1  0  0  0  0
  5 24  1  0  0  0  0
  6 18  1  0  0  0  0
  6  7  1  0  0  0  0
  6 25  1  0  0  0  0
  7  8  1  0  0  0  0
  7 26  1  0  0  0  0
  7 27  1  0  0  0  0
  8  9  1  0  0  0  0
  8 16  1  0  0  0  0
  9 14  1  0  0  0  0
  9 10  2  0  0  0  0
 10 11  1  0  0  0  0
 11 12  2  0  0  0  0
 11 28  1  0  0  0  0
 12 13  1  0  0  0  0
 12 29  1  0  0  0  0
 13 14  2  0  0  0  0
 13 30  1  0  0  0  0
 14 15  1  0  0  0  0
 16 17  1  0  0  0  0
 16 31  1  0  0  0  0
 16 32  1  0  0  0  0
 17 18  1  0  0  0  0
 17 33  1  0  0  0  0
 17 34  1  0  0  0  0
M  END
> <s_m_source_file>
AV-unprocessed.smi

> <i_m_source_file_index>
2476

> <i_lp_mmshare_version>
43012

> <i_f3d_flags>
0

> <s_epik_input>
W0NIM11DKD1PKVtOSF1bQ0gyXVtDQEBIXTFbQ0gyXU4oW0NIMl1bQ0gyXU8xKWMybltjSF1bY0hdW2NIXWMyRg==

> <s_epik_cmdline>
J2VwaWtfcHl0aG9uJywgJy1waCcsICc3LjAnLCAnLXRuJywgJzgnLCAnLW1hJywgJzIwMCcsICctbWV0YWxfYmluZGluZycsICctaW1hZScsICc8aW5maWxlLm1hZT4nLCAnLW9tYWUnLCAnPG91dGZpbGUubWFlPic=

> <r_lp_tautomer_probability>
1

> <r_epik_Ionization_Penalty>
1.69306e-05

> <r_epik_Ionization_Penalty_Charging>
0

> <r_epik_Ionization_Penalty_Neutral>
1.69306e-05

> <r_epik_State_Penalty>
-0

> <r_epik_Charging_Adjusted_Penalty>
0

> <i_epik_Tot_Q>
0

> <i_epik_Tot_abs_Q>
0

> <r_epik_Metal_State_Penalty>
-0

> <b_epik_Metal_Only>
0

> <s_lp_Force_Field>
OPLS_2005

> <r_lp_Energy>
18.0017

> <b_lp_Chiralities_Consistent>
1

> <s_lp_Variant>
AV-unprocessed.smi:2476-1

> <Gold.Version>
5.8.1

> <Gold.Id.Protein>
6NUR|6NUR_protein|mol2

> <Gold.PLP.Fitness>
38.8682

> <Gold.PLP.PLP>
-34.0400

> <Gold.PLP.part.hbond>
-1.0000

> <Gold.PLP.part.metal>
0.0000

> <Gold.PLP.part.buried>
-5.8265

> <Gold.PLP.part.nonpolar>
-28.8053

> <Gold.PLP.part.repulsive>
0.3036

> <Gold.PLP.ligand.clash>
0.0000

> <Gold.PLP.ligand.torsion>
0.3729

> <Gold.PLP.Chemscore.Hbond>
1.0000

> <Gold.PLP.Chemscore.CHOScore>
0.7721

> <Gold.PLP.Chemscore.Metal>
0.0000

> <Gold.Chemscore.Hbonds>
donor molecule, donor type, donor heavy atom, donor atom, acceptor molecule, acceptor atom, score
      P1  H  6896  6907       L1     3  0.81
      L1  C    11    28       P1  8028  0.37
      L1  C    11    28       P1  8029  0.38

> <Gold.PLP.Chemscore.Internal.Correction>
0.2577

> <Gold.Rescore>
     Score         DG    S(hbond)    S(metal)    S(lipo)     H(rot)  DE(clash)    DE(int)     intcor
     13.51     -13.94       1.00        0.00      79.07       1.61       0.01       0.42       ----

> <Gold.Chemscore.Fitness>
13.5110

> <Gold.Chemscore.DG>
-13.9406

> <Gold.Chemscore.ZeroCoef>
-5.4800

> <Gold.Chemscore.Hbond>
0.9955

> <Gold.Chemscore.Metal>
0.0000

> <Gold.Chemscore.Lipo>
79.0732

> <Gold.Chemscore.Internal_Hbond>
0.0000

> <Gold.Chemscore.DEClash>
0.0117

> <Gold.Chemscore.DEInternal>
0.4179

> <Gold.Chemscore.Rot>
1.6078

> <Gold.Chemscore.Internal.Correction>
   9.000000E+99

> <Gold.Chemscore.Hbonds>
donor molecule, donor type, donor heavy atom, donor atom, acceptor molecule, acceptor atom, score
      P1  H  6896  6907       L1     3  0.80

> <Gold.Chemscore.Hbond.Weighted>
-3.3249

> <Gold.Chemscore.Metal.Weighted>
-0.0000

> <Gold.Chemscore.Lipo.Weighted>
-9.2516

> <Gold.Chemscore.Internal_Hbond.Weighted>
0.0000

> <Gold.Chemscore.DEClash.Weighted>
0.0117

> <Gold.Chemscore.DEInternal.Weighted>
0.4179

> <Gold.Chemscore.Rot.Weighted>
4.1159

> <Gold.Chemscore.Internal.Correction.Weighted>
   9.000000E+99

> <Gold.Protein.RotatedTorsions>
[ 6907 6896 6895 6894 ] final  -67.72 input  -60.11 | X-H torsion
[ 7974 7965 7964 7962 ] final  -37.96 input  175.53 | X-H torsion
[ 8008 7997 7996 7995 ] final  168.08 input   59.86 | X-H torsion
[ 10167 10162 10161 10158 ] final  -44.71 input  -65.29 | X-H torsion
[ 10718 10713 10712 10709 ] final  -43.01 input   66.30 | X-H torsion
[ 10763 10752 10751 10750 ] final   19.87 input  -60.55 | X-H torsion
[ 11005 11000 10999 10996 ] final  179.91 input  -57.11 | X-H torsion

> <Gold.Protein.ActiveResidues>
 VAL166  LYS551  ARG553  GLY616  TRP617  ASP618  TYR619  PRO620  LYS621  CYS622 
 ASP623  PHE694  ASN695  SER759  ASP760  ASP761  ALA762  ILE779  LEU786  VAL792 
 PHE793  MET794  SER795  GLU796  ALA797  LYS798  CYS799  TRP800  GLU811  SER814 

> <Gold.Protein.RotatedAtoms>
  150.7394  134.5840  159.5953 H   0  0  0  0  0  0  0  0  0  0  0  0  # atno 6907 bound_to 6896
  152.3246  134.7334  160.0314 H   0  0  0  0  0  0  0  0  0  0  0  0  # atno 6908 bound_to 6896
  151.7838  133.3316  159.3516 H   0  0  0  0  0  0  0  0  0  0  0  0  # atno 6909 bound_to 6896
  146.0529  140.6456  142.9033 H   0  0  0  0  0  0  0  0  0  0  0  0  # atno 7974 bound_to 7965
  156.1578  140.1600  156.8663 H   0  0  0  0  0  0  0  0  0  0  0  0  # atno 8008 bound_to 7997
  154.5131  140.0796  156.8065 H   0  0  0  0  0  0  0  0  0  0  0  0  # atno 8009 bound_to 7997
  155.3768  140.3403  155.4247 H   0  0  0  0  0  0  0  0  0  0  0  0  # atno 8010 bound_to 7997
  140.6886  143.2916  151.3535 H   0  0  0  0  0  0  0  0  0  0  0  0  # atno 10167 bound_to 10162
  156.2535  130.4190  149.8623 H   0  0  0  0  0  0  0  0  0  0  0  0  # atno 10718 bound_to 10713
  153.1125  135.6700  153.9475 H   0  0  0  0  0  0  0  0  0  0  0  0  # atno 10763 bound_to 10752
  153.9014  135.3035  155.3450 H   0  0  0  0  0  0  0  0  0  0  0  0  # atno 10764 bound_to 10752
  154.7544  135.5019  153.9425 H   0  0  0  0  0  0  0  0  0  0  0  0  # atno 10765 bound_to 10752
  140.4114  134.6689  157.4616 H   0  0  0  0  0  0  0  0  0  0  0  0  # atno 11005 bound_to 11000
  144.7132  140.4116  143.7064 LP  0  0  0  0  0  0  0  0  0  0  0  0  # atno 17320 bound_to 7965
  145.6693  139.1596  143.2763 LP  0  0  0  0  0  0  0  0  0  0  0  0  # atno 17321 bound_to 7965
  139.6267  144.0800  152.2440 LP  0  0  0  0  0  0  0  0  0  0  0  0  # atno 17342 bound_to 10162
  140.0262  144.6116  150.7526 LP  0  0  0  0  0  0  0  0  0  0  0  0  # atno 17343 bound_to 10162
  156.6163  130.8608  151.3465 LP  0  0  0  0  0  0  0  0  0  0  0  0  # atno 17370 bound_to 10713
  157.7223  130.9575  150.1491 LP  0  0  0  0  0  0  0  0  0  0  0  0  # atno 17371 bound_to 10713
  140.0265  134.6469  155.9165 LP  0  0  0  0  0  0  0  0  0  0  0  0  # atno 17394 bound_to 11000
  141.1820  133.6548  156.5058 LP  0  0  0  0  0  0  0  0  0  0  0  0  # atno 17395 bound_to 11000

$$$$
