AV-unprocessed.smi:1313|AV-procd|sdf|5450|dock7
  -GOLD-   22720 5 23D 1   1.00000     0.00000
 Structure written by MMmdl.
 37 38  0  0  0  0  0  0  0  0  1 V2000
  146.4095  137.9845  152.5160 C   0  0  0  0  0  0  0  0  0  0  0  0
  147.2459  139.0557  153.1831 C   0  0  0  0  0  0  0  0  0  0  0  0
  146.7870  140.2094  153.5419 N   0  0  0  0  0  0  0  0  0  0  0  0
  147.6572  141.1189  154.1590 C   0  0  0  0  0  0  0  0  0  0  0  0
  147.0383  142.4470  154.5602 C   0  0  0  0  0  0  0  0  0  0  0  0
  148.9697  140.8150  154.3826 C   0  0  0  0  0  0  0  0  0  0  0  0
  149.9397  141.7778  155.0647 C   0  0  0  0  0  0  0  0  0  0  0  0
  149.8744  141.7875  156.5929 C   0  0  0  0  0  0  0  0  0  0  0  0
  149.0935  141.0383  157.1791 O   0  0  0  0  0  0  0  0  0  0  0  0
  150.6905  142.6448  157.2251 N   0  0  0  0  0  0  0  0  0  0  0  0
  150.7534  142.8320  158.6719 C   0  0  0  0  0  0  0  0  0  0  0  0
  150.5805  144.3181  159.0392 C   0  0  0  0  0  0  0  0  0  0  0  0
  151.6890  144.6368  160.0436 C   0  0  0  0  0  0  0  0  0  0  0  0
  152.8268  143.6959  159.6602 C   0  0  0  0  0  0  0  0  0  0  0  0
  152.1214  142.4052  159.2423 C   0  0  0  0  0  0  0  0  0  0  0  0
  149.4842  139.4967  153.9631 C   0  0  0  0  0  0  0  0  0  0  0  0
  150.6454  139.1202  154.1142 O   0  0  0  0  0  0  0  0  0  0  0  0
  148.5743  138.6836  153.3814 N   0  0  0  0  0  0  0  0  0  0  0  0
  148.8768  137.7687  153.0806 H   0  0  0  0  0  0  0  0  0  0  0  0
  145.5719  137.7097  153.1578 H   0  0  0  0  0  0  0  0  0  0  0  0
  146.9929  137.0852  152.3127 H   0  0  0  0  0  0  0  0  0  0  0  0
  146.0109  138.3539  151.5710 H   0  0  0  0  0  0  0  0  0  0  0  0
  147.5506  143.2757  154.0713 H   0  0  0  0  0  0  0  0  0  0  0  0
  147.0981  142.5878  155.6392 H   0  0  0  0  0  0  0  0  0  0  0  0
  145.9862  142.4949  154.2770 H   0  0  0  0  0  0  0  0  0  0  0  0
  150.9667  141.5589  154.7706 H   0  0  0  0  0  0  0  0  0  0  0  0
  149.7584  142.7850  154.6884 H   0  0  0  0  0  0  0  0  0  0  0  0
  151.2992  143.2228  156.6637 H   0  0  0  0  0  0  0  0  0  0  0  0
  149.9636  142.2483  159.1488 H   0  0  0  0  0  0  0  0  0  0  0  0
  150.7100  144.9498  158.1588 H   0  0  0  0  0  0  0  0  0  0  0  0
  149.5905  144.5303  159.4438 H   0  0  0  0  0  0  0  0  0  0  0  0
  151.9853  145.6859  160.0236 H   0  0  0  0  0  0  0  0  0  0  0  0
  151.3472  144.4058  161.0534 H   0  0  0  0  0  0  0  0  0  0  0  0
  153.3739  144.1077  158.8111 H   0  0  0  0  0  0  0  0  0  0  0  0
  153.5377  143.5412  160.4723 H   0  0  0  0  0  0  0  0  0  0  0  0
  151.9624  141.7815  160.1228 H   0  0  0  0  0  0  0  0  0  0  0  0
  152.7225  141.8215  158.5437 H   0  0  0  0  0  0  0  0  0  0  0  0
  1  2  1  0  0  0  0
  1 20  1  0  0  0  0
  1 21  1  0  0  0  0
  1 22  1  0  0  0  0
  2 18  1  0  0  0  0
  2  3  2  0  0  0  0
  3  4  1  0  0  0  0
  4  5  1  0  0  0  0
  4  6  2  0  0  0  0
  5 23  1  0  0  0  0
  5 24  1  0  0  0  0
  5 25  1  0  0  0  0
  6  7  1  0  0  0  0
  6 16  1  0  0  0  0
  7  8  1  0  0  0  0
  7 26  1  0  0  0  0
  7 27  1  0  0  0  0
  8  9  2  0  0  0  0
  8 10  1  0  0  0  0
 10 11  1  0  0  0  0
 10 28  1  0  0  0  0
 11 15  1  0  0  0  0
 11 12  1  0  0  0  0
 11 29  1  0  0  0  0
 12 13  1  0  0  0  0
 12 30  1  0  0  0  0
 12 31  1  0  0  0  0
 13 14  1  0  0  0  0
 13 32  1  0  0  0  0
 13 33  1  0  0  0  0
 14 15  1  0  0  0  0
 14 34  1  0  0  0  0
 14 35  1  0  0  0  0
 15 36  1  0  0  0  0
 15 37  1  0  0  0  0
 16 17  2  0  0  0  0
 16 18  1  0  0  0  0
 18 19  1  0  0  0  0
M  END
> <s_m_source_file>
AV-unprocessed.smi

> <i_m_source_file_index>
1313

> <i_lp_mmshare_version>
43012

> <i_f3d_flags>
0

> <s_epik_input>
W0NIM11jMW5jKFtDSDNdKWMoYyg9TylbbkhdMSlbQ0gyXUMoPU8pW05IXVtDSF0yW0NIMl1bQ0gyXVtDSDJdW0NIMl0y

> <s_epik_cmdline>
J2VwaWtfcHl0aG9uJywgJy1waCcsICc3LjAnLCAnLXRuJywgJzgnLCAnLW1hJywgJzIwMCcsICctbWV0YWxfYmluZGluZycsICctaW1hZScsICc8aW5maWxlLm1hZT4nLCAnLW9tYWUnLCAnPG91dGZpbGUubWFlPic=

> <r_lp_tautomer_probability>
0.839158

> <r_epik_Ionization_Penalty>
0.000387683

> <r_epik_Ionization_Penalty_Charging>
0.000355009

> <r_epik_Ionization_Penalty_Neutral>
3.26746e-05

> <r_epik_State_Penalty>
0.046959

> <r_epik_Charging_Adjusted_Penalty>
0.047314

> <i_epik_Tot_Q>
0

> <i_epik_Tot_abs_Q>
0

> <r_epik_Metal_State_Penalty>
0.222879

> <b_epik_Metal_Only>
0

> <s_lp_Force_Field>
OPLS_2005

> <r_lp_Energy>
20.1617

> <b_lp_Chiralities_Consistent>
1

> <s_lp_Variant>
AV-unprocessed.smi:1313-1

> <Gold.Version>
5.8.1

> <Gold.Id.Protein>
6NUR|6NUR_protein|mol2

> <Gold.PLP.Fitness>
39.2930

> <Gold.PLP.PLP>
-33.9909

> <Gold.PLP.part.hbond>
-3.8251

> <Gold.PLP.part.metal>
0.0000

> <Gold.PLP.part.buried>
2.1154

> <Gold.PLP.part.nonpolar>
-31.8958

> <Gold.PLP.part.repulsive>
0.4902

> <Gold.PLP.ligand.clash>
0.0000

> <Gold.PLP.ligand.torsion>
0.3501

> <Gold.PLP.Chemscore.Hbond>
2.0000

> <Gold.PLP.Chemscore.CHOScore>
0.0000

> <Gold.PLP.Chemscore.Metal>
0.0000

> <Gold.Chemscore.Hbonds>
donor molecule, donor type, donor heavy atom, donor atom, acceptor molecule, acceptor atom, score
      L1  H    18    19       P1  7948  1.00
      P1  H  7989  7998       L1    17  0.80

> <Gold.PLP.Chemscore.Internal.Correction>
0.0024

> <Gold.Rescore>
     Score         DG    S(hbond)    S(metal)    S(lipo)     H(rot)  DE(clash)    DE(int)     intcor
     14.56     -15.27       1.09        0.00      85.76       1.51       0.40       0.31       ----

> <Gold.Chemscore.Fitness>
14.5623

> <Gold.Chemscore.DG>
-15.2726

> <Gold.Chemscore.ZeroCoef>
-5.4800

> <Gold.Chemscore.Hbond>
1.0873

> <Gold.Chemscore.Metal>
0.0000

> <Gold.Chemscore.Lipo>
85.7595

> <Gold.Chemscore.Internal_Hbond>
0.0000

> <Gold.Chemscore.DEClash>
0.4049

> <Gold.Chemscore.DEInternal>
0.3055

> <Gold.Chemscore.Rot>
1.5128

> <Gold.Chemscore.Internal.Correction>
   9.000000E+99

> <Gold.Chemscore.Hbonds>
donor molecule, donor type, donor heavy atom, donor atom, acceptor molecule, acceptor atom, score
      L1  H    18    19       P1  7948  0.97
      P1  H  7989  7998       L1    17  0.18

> <Gold.Chemscore.Hbond.Weighted>
-3.6314

> <Gold.Chemscore.Metal.Weighted>
-0.0000

> <Gold.Chemscore.Lipo.Weighted>
-10.0339

> <Gold.Chemscore.Internal_Hbond.Weighted>
0.0000

> <Gold.Chemscore.DEClash.Weighted>
0.4049

> <Gold.Chemscore.DEInternal.Weighted>
0.3055

> <Gold.Chemscore.Rot.Weighted>
3.8727

> <Gold.Chemscore.Internal.Correction.Weighted>
   9.000000E+99

> <Gold.Protein.RotatedTorsions>
[ 6907 6896 6895 6894 ] final   64.04 input  -60.11 | X-H torsion
[ 7974 7965 7964 7962 ] final  153.40 input  175.53 | X-H torsion
[ 8008 7997 7996 7995 ] final   60.57 input   59.86 | X-H torsion
[ 10167 10162 10161 10158 ] final   71.26 input  -65.29 | X-H torsion
[ 10718 10713 10712 10709 ] final -107.20 input   66.30 | X-H torsion
[ 10763 10752 10751 10750 ] final   65.54 input  -60.55 | X-H torsion
[ 11005 11000 10999 10996 ] final -148.33 input  -57.11 | X-H torsion

> <Gold.Protein.ActiveResidues>
 VAL166  LYS551  ARG553  GLY616  TRP617  ASP618  TYR619  PRO620  LYS621  CYS622 
 ASP623  PHE694  ASN695  SER759  ASP760  ASP761  ALA762  ILE779  LEU786  VAL792 
 PHE793  MET794  SER795  GLU796  ALA797  LYS798  CYS799  TRP800  GLU811  SER814 

> <Gold.Protein.RotatedAtoms>
  152.4301  134.5794  159.9943 H   0  0  0  0  0  0  0  0  0  0  0  0  # atno 6907 bound_to 6896
  151.5920  133.3360  159.3037 H   0  0  0  0  0  0  0  0  0  0  0  0  # atno 6908 bound_to 6896
  150.8193  134.7428  159.6823 H   0  0  0  0  0  0  0  0  0  0  0  0  # atno 6909 bound_to 6896
  144.8157  139.6796  143.6122 H   0  0  0  0  0  0  0  0  0  0  0  0  # atno 7974 bound_to 7965
  155.5844  140.3492  155.4549 H   0  0  0  0  0  0  0  0  0  0  0  0  # atno 8008 bound_to 7997
  156.0349  140.1283  157.0244 H   0  0  0  0  0  0  0  0  0  0  0  0  # atno 8009 bound_to 7997
  154.4367  140.1036  156.6138 H   0  0  0  0  0  0  0  0  0  0  0  0  # atno 8010 bound_to 7997
  140.0480  144.5335  150.7384 H   0  0  0  0  0  0  0  0  0  0  0  0  # atno 10167 bound_to 10162
  156.0425  130.5650  150.7788 H   0  0  0  0  0  0  0  0  0  0  0  0  # atno 10718 bound_to 10713
  153.0101  135.5353  154.6684 H   0  0  0  0  0  0  0  0  0  0  0  0  # atno 10763 bound_to 10752
  154.5875  135.2855  155.0672 H   0  0  0  0  0  0  0  0  0  0  0  0  # atno 10764 bound_to 10752
  154.1778  135.6521  153.5078 H   0  0  0  0  0  0  0  0  0  0  0  0  # atno 10765 bound_to 10752
  140.7624  134.3283  157.5098 H   0  0  0  0  0  0  0  0  0  0  0  0  # atno 11005 bound_to 11000
  146.2460  139.6099  142.9459 LP  0  0  0  0  0  0  0  0  0  0  0  0  # atno 17320 bound_to 7965
  145.5220  141.0431  143.2430 LP  0  0  0  0  0  0  0  0  0  0  0  0  # atno 17321 bound_to 7965
  140.7230  143.2607  151.4216 LP  0  0  0  0  0  0  0  0  0  0  0  0  # atno 17342 bound_to 10162
  139.5971  144.1374  152.2156 LP  0  0  0  0  0  0  0  0  0  0  0  0  # atno 17343 bound_to 10162
  157.5261  131.0934  151.0016 LP  0  0  0  0  0  0  0  0  0  0  0  0  # atno 17370 bound_to 10713
  157.0334  130.5720  149.5346 LP  0  0  0  0  0  0  0  0  0  0  0  0  # atno 17371 bound_to 10713
  139.8768  134.9210  156.3265 LP  0  0  0  0  0  0  0  0  0  0  0  0  # atno 17394 bound_to 11000
  140.9651  133.7363  156.0455 LP  0  0  0  0  0  0  0  0  0  0  0  0  # atno 17395 bound_to 11000

$$$$
