#       Name:                AV-unprocessed.smi:2458
#       Creating user name   scv26
#       Creation time:       Fri Mar 27 13:35:06 2020


#       File generated by GOLD software.
#

@<TRIPOS>MOLECULE
AV-unprocessed.smi:2458
    52    53     1
SMALL
NO_CHARGES


@<TRIPOS>ATOM
      1 ****        -3.1099  -4.8235  -0.8488 C.3            1 S1                 0.0000
      2 ****        -2.3836  -4.1594   0.3374 C.3            1 S1                 0.0000
      3 ****        -2.8408  -4.8432   1.6407 C.3            1 S1                 0.0000
      4 ****        -2.5723  -2.6136   0.3688 C.3            1 S1                 0.0000
      5 ****        -1.8504  -1.9543   1.5693 C.3            1 S1                 0.0000
      6 ****        -2.0221  -0.4234   1.6003 C.3            1 S1                 0.0000
      7 ****        -1.6139   0.2790   0.2879 C.3            1 S1                 0.0000
      8 ****        -0.0879   0.4081   0.1201 C.2            1 S1                 0.0000
      9 ****         0.6392  -0.5849   0.1321 O.2            1 S1                 0.0000
     10 ****         0.3875   1.6521  -0.0364 N.am           1 S1                 0.0000
     11 ****         1.7947   1.9828  -0.2189 C.3            1 S1                 0.0000
     12 ****         1.9672   3.4611  -0.6101 C.3            1 S1                 0.0000
     13 ****         1.5214   3.6324  -1.9413 O.3            1 S1                 0.0000
     14 ****         3.4105   3.9097  -0.4451 C.ar           1 S1                 0.0000
     15 ****         4.4246   3.4578  -1.3174 C.ar           1 S1                 0.0000
     16 ****         5.7463   3.8977  -1.1118 C.ar           1 S1                 0.0000
     17 ****         6.0021   4.7728  -0.0378 C.ar           1 S1                 0.0000
     18 ****         5.0429   5.2106   0.8056 N.ar           1 S1                 0.0000
     19 ****         3.7779   4.7840   0.6011 C.ar           1 S1                 0.0000
     20 ****        -2.2881  -0.4092  -0.9164 C.3            1 S1                 0.0000
     21 ****        -2.0988  -1.9368  -0.9402 C.3            1 S1                 0.0000
     22 ****        -3.6393  -2.4124   0.4762 H              1 S1                 0.0000
     23 ****        -2.0078   1.2958   0.3368 H              1 S1                 0.0000
     24 ****        -4.1704  -4.5692  -0.8575 H              1 S1                 0.0000
     25 ****        -3.0326  -5.9100  -0.7995 H              1 S1                 0.0000
     26 ****        -2.6830  -4.5298  -1.8071 H              1 S1                 0.0000
     27 ****        -1.3191  -4.3677   0.2212 H              1 S1                 0.0000
     28 ****        -3.8778  -4.5999   1.8741 H              1 S1                 0.0000
     29 ****        -2.2251  -4.5557   2.4920 H              1 S1                 0.0000
     30 ****        -2.7666  -5.9282   1.5623 H              1 S1                 0.0000
     31 ****        -2.2407  -2.3424   2.5091 H              1 S1                 0.0000
     32 ****        -0.7925  -2.2158   1.5534 H              1 S1                 0.0000
     33 ****        -3.0683  -0.1945   1.8075 H              1 S1                 0.0000
     34 ****        -1.4590  -0.0103   2.4385 H              1 S1                 0.0000
     35 ****        -0.2689   2.4195  -0.0417 H              1 S1                 0.0000
     36 ****         2.2965   1.7962   0.7321 H              1 S1                 0.0000
     37 ****         2.2597   1.3265  -0.9571 H              1 S1                 0.0000
     38 ****         1.3409   4.0844   0.0302 H              1 S1                 0.0000
     39 ****         2.0121   3.0498  -2.5003 H              1 S1                 0.0000
     40 ****         4.1960   2.7834  -2.1297 H              1 S1                 0.0000
     41 ****         6.5454   3.5712  -1.7608 H              1 S1                 0.0000
     42 ****         7.0041   5.1296   0.1494 H              1 S1                 0.0000
     43 ****         3.0380   5.1525   1.2964 H              1 S1                 0.0000
     44 ****        -3.3561  -0.1889  -0.8936 H              1 S1                 0.0000
     45 ****        -1.9188   0.0189  -1.8494 H              1 S1                 0.0000
     46 ****        -1.0540  -2.1842  -1.1291 H              1 S1                 0.0000
     47 ****        -2.6579  -2.3191  -1.7929 H              1 S1                 0.0000
     48 ****         0.2414  -1.4945   0.2522 LP             1 S1                 0.0000
     49 ****         1.6277  -0.4821   0.0217 LP             1 S1                 0.0000
     50 ****         1.6703   4.5790  -2.2274 LP             1 S1                 0.0000
     51 ****         0.5470   3.4155  -2.0010 LP             1 S1                 0.0000
     52 ****         5.2623   5.8314   1.5583 LP             1 S1                 0.0000
@<TRIPOS>BOND
    1    1    2 1     
    2    1   24 1     
    3    1   25 1     
    4    1   26 1     
    5    2    3 1     
    6    2    4 1     
    7    2   27 1     
    8    3   28 1     
    9    3   29 1     
   10    3   30 1     
   11    4   22 1     
   12    4   21 1     
   13    4    5 1     
   14    5    6 1     
   15    5   31 1     
   16    5   32 1     
   17    6    7 1     
   18    6   33 1     
   19    6   34 1     
   20    7   23 1     
   21    7    8 1     
   22    7   20 1     
   23    8    9 2     
   24    8   10 am    
   25   10   11 1     
   26   10   35 1     
   27   11   12 1     
   28   11   36 1     
   29   11   37 1     
   30   12   13 1     
   31   12   14 1     
   32   12   38 1     
   33   13   39 1     
   34   14   19 ar    
   35   14   15 ar    
   36   15   16 ar    
   37   15   40 1     
   38   16   17 ar    
   39   16   41 1     
   40   17   18 ar    
   41   17   42 1     
   42   18   19 ar    
   43   19   43 1     
   44   20   21 1     
   45   20   44 1     
   46   20   45 1     
   47   21   46 1     
   48   21   47 1     
   49    9   48 1     
   50    9   49 1     
   51   13   50 1     
   52   13   51 1     
   53   18   52 1     
@<TRIPOS>SUBSTRUCTURE
      1 S1             1
@<TRIPOS>SET
LONE_PAIRS      STATIC     ATOMS    <user>   **** ""
5 48 49 50 51 52
DONOR_HYDROGENS      STATIC     ATOMS    <user>   **** ""
2 35 39
ATOM$BLUE        STATIC     ATOMS    COLORGROUP SYSTEM
5 48 49 50 51 52
ATOM$RED        STATIC     ATOMS    COLORGROUP SYSTEM
2 35 39
