AV-unprocessed.smi:1801|AV-procd|sdf|7270|dock5
  -GOLD-   22720 8523D 1   1.00000     0.00000
 Structure written by MMmdl.
 37 38  0  0  0  0  0  0  0  0  3 V2000
  149.4818  141.4576  155.2643 C   0  0  0  0  0  0  0  0  0  0  0  0
  150.2582  140.8865  156.4625 C   0  0  1  0  0  0  0  0  0  0  0  0
  150.9378  139.5547  156.0716 C   0  0  0  0  0  0  0  0  0  0  0  0
  152.1679  139.7497  155.3086 N   0  0  0  0  0  0  0  0  0  0  0  0
  152.8806  138.7908  154.7003 C   0  0  0  0  0  0  0  0  0  0  0  0
  152.4852  137.6233  154.7200 O   0  0  0  0  0  0  0  0  0  0  0  0
  154.0139  139.2439  154.1197 N   0  5  0  0  0  0  0  0  0  0  0  0
  155.0919  138.4464  154.0391 C   0  0  0  0  0  0  0  0  0  0  0  0
  155.3147  137.4501  154.9109 N   0  0  0  0  0  0  0  0  0  0  0  0
  156.4804  136.7439  154.6468 N   0  0  0  0  0  0  0  0  0  0  0  0
  157.1062  137.2237  153.5723 C   0  0  0  0  0  0  0  0  0  0  0  0
  156.3275  138.5801  152.7844 S   0  0  0  0  0  0  0  0  0  0  0  0
  151.2688  141.9166  157.0203 C   0  0  0  0  0  0  0  0  0  0  0  0
  150.6126  143.1723  157.4545 N   0  3  0  0  0  0  0  0  0  0  0  0
  149.6424  143.0219  158.5676 C   0  0  0  0  0  0  0  0  0  0  0  0
  149.9209  144.1589  159.5590 C   0  0  0  0  0  0  0  0  0  0  0  0
  150.7697  145.1514  158.7716 C   0  0  0  0  0  0  0  0  0  0  0  0
  151.5548  144.2467  157.8281 C   0  0  0  0  0  0  0  0  0  0  0  0
  150.1505  141.7062  154.4397 H   0  0  0  0  0  0  0  0  0  0  0  0
  148.9365  142.3617  155.5355 H   0  0  0  0  0  0  0  0  0  0  0  0
  148.7516  140.7380  154.8928 H   0  0  0  0  0  0  0  0  0  0  0  0
  149.5268  140.6602  157.2385 H   0  0  0  0  0  0  0  0  0  0  0  0
  151.1589  138.9631  156.9617 H   0  0  0  0  0  0  0  0  0  0  0  0
  150.2593  138.9545  155.4647 H   0  0  0  0  0  0  0  0  0  0  0  0
  152.5233  140.6929  155.2505 H   0  0  0  0  0  0  0  0  0  0  0  0
  158.0304  136.7752  153.2404 H   0  0  0  0  0  0  0  0  0  0  0  0
  151.8229  141.5149  157.8698 H   0  0  0  0  0  0  0  0  0  0  0  0
  152.0106  142.1434  156.2532 H   0  0  0  0  0  0  0  0  0  0  0  0
  148.6338  143.0973  158.1603 H   0  0  0  0  0  0  0  0  0  0  0  0
  149.7255  142.0535  159.0638 H   0  0  0  0  0  0  0  0  0  0  0  0
  149.0087  144.6053  159.9560 H   0  0  0  0  0  0  0  0  0  0  0  0
  150.4971  143.7753  160.4022 H   0  0  0  0  0  0  0  0  0  0  0  0
  150.1264  145.8204  158.1980 H   0  0  0  0  0  0  0  0  0  0  0  0
  151.4115  145.7614  159.4082 H   0  0  0  0  0  0  0  0  0  0  0  0
  152.4091  143.8212  158.3576 H   0  0  0  0  0  0  0  0  0  0  0  0
  151.9294  144.7759  156.9516 H   0  0  0  0  0  0  0  0  0  0  0  0
  150.0878  143.5233  156.6661 H   0  0  0  0  0  0  0  0  0  0  0  0
  1  2  1  0  0  0  0
  1 19  1  0  0  0  0
  1 20  1  0  0  0  0
  1 21  1  0  0  0  0
  2  3  1  0  0  0  0
  2 13  1  0  0  0  0
  2 22  1  0  0  0  0
  3  4  1  0  0  0  0
  3 23  1  0  0  0  0
  3 24  1  0  0  0  0
  4  5  1  0  0  0  0
  4 25  1  0  0  0  0
  5  6  2  0  0  0  0
  5  7  1  0  0  0  0
  7  8  1  0  0  0  0
  8 12  1  0  0  0  0
  8  9  2  0  0  0  0
  9 10  1  0  0  0  0
 10 11  2  0  0  0  0
 11 12  1  0  0  0  0
 11 26  1  0  0  0  0
 13 14  1  0  0  0  0
 13 27  1  0  0  0  0
 13 28  1  0  0  0  0
 14 18  1  0  0  0  0
 14 15  1  0  0  0  0
 14 37  1  0  0  0  0
 15 16  1  0  0  0  0
 15 29  1  0  0  0  0
 15 30  1  0  0  0  0
 16 17  1  0  0  0  0
 16 31  1  0  0  0  0
 16 32  1  0  0  0  0
 17 18  1  0  0  0  0
 17 33  1  0  0  0  0
 17 34  1  0  0  0  0
 18 35  1  0  0  0  0
 18 36  1  0  0  0  0
M  CHG  1   7  -1
M  CHG  1  14   1
M  END
> <s_m_source_file>
AV-unprocessed.smi

> <i_m_source_file_index>
1801

> <i_lp_mmshare_version>
43012

> <i_f3d_flags>
0

> <s_epik_input>
W0NIMl0xW0NIMl1bQ0gyXVtDSDJdTjFbQ0gyXVtDQEhdKFtDSDNdKVtDSDJdW05IXUMoPU8pW05IXWMybm5bY0hdczI=

> <s_epik_cmdline>
J2VwaWtfcHl0aG9uJywgJy1waCcsICc3LjAnLCAnLXRuJywgJzgnLCAnLW1hJywgJzIwMCcsICctbWV0YWxfYmluZGluZycsICctaW1hZScsICc8aW5maWxlLm1hZT4nLCAnLW9tYWUnLCAnPG91dGZpbGUubWFlPic=

> <r_lp_tautomer_probability>
1

> <r_epik_Ionization_Penalty>
3.29721

> <r_epik_Ionization_Penalty_Charging>
3.25987

> <r_epik_Ionization_Penalty_Neutral>
0.0373399

> <r_epik_State_Penalty>
3.2571

> <r_epik_Charging_Adjusted_Penalty>
6.51697

> <i_epik_Tot_Q>
0

> <i_epik_Tot_abs_Q>
2

> <r_epik_Metal_State_Penalty>
0.477553

> <b_epik_Metal_Only>
1

> <s_lp_Force_Field>
OPLS_2005

> <r_lp_Energy>
22.4804

> <b_lp_Chiralities_Consistent>
1

> <s_lp_Variant>
AV-unprocessed.smi:1801-4

> <Gold.Version>
5.8.1

> <Gold.Id.Protein>
6NUR|6NUR_protein|mol2

> <Gold.PLP.Fitness>
46.4658

> <Gold.PLP.PLP>
-33.5139

> <Gold.PLP.part.hbond>
-5.0000

> <Gold.PLP.part.metal>
0.0000

> <Gold.PLP.part.buried>
-3.6607

> <Gold.PLP.part.nonpolar>
-28.1841

> <Gold.PLP.part.repulsive>
0.3161

> <Gold.PLP.ligand.clash>
0.0000

> <Gold.PLP.ligand.torsion>
0.5413

> <Gold.PLP.Chemscore.Hbond>
4.5669

> <Gold.PLP.Chemscore.CHOScore>
0.0000

> <Gold.PLP.Chemscore.Metal>
0.0000

> <Gold.Chemscore.Hbonds>
donor molecule, donor type, donor heavy atom, donor atom, acceptor molecule, acceptor atom, score
      L1  H    14    37       P1  8028  2.00
      P1  H  7997  8008       L1     7  1.20
      P1  H 10752 10765       L1     6  0.58

> <Gold.PLP.Chemscore.Internal.Correction>
0.3339

> <Gold.Rescore>
     Score         DG    S(hbond)    S(metal)    S(lipo)     H(rot)  DE(clash)    DE(int)     intcor
     12.37     -15.97       1.68        0.00      83.97       1.93       1.45       2.16       ----

> <Gold.Chemscore.Fitness>
12.3659

> <Gold.Chemscore.DG>
-15.9721

> <Gold.Chemscore.ZeroCoef>
-5.4800

> <Gold.Chemscore.Hbond>
1.6766

> <Gold.Chemscore.Metal>
0.0000

> <Gold.Chemscore.Lipo>
83.9676

> <Gold.Chemscore.Internal_Hbond>
0.0000

> <Gold.Chemscore.DEClash>
1.4474

> <Gold.Chemscore.DEInternal>
2.1588

> <Gold.Chemscore.Rot>
1.9266

> <Gold.Chemscore.Internal.Correction>
   9.000000E+99

> <Gold.Chemscore.Hbonds>
donor molecule, donor type, donor heavy atom, donor atom, acceptor molecule, acceptor atom, score
      L1  H    14    37       P1  8028  0.97
      P1  H  7997  8008       L1     7  0.01
      P1  H 10752 10765       L1     6  0.53

> <Gold.Chemscore.Hbond.Weighted>
-5.5999

> <Gold.Chemscore.Metal.Weighted>
-0.0000

> <Gold.Chemscore.Lipo.Weighted>
-9.8242

> <Gold.Chemscore.Internal_Hbond.Weighted>
0.0000

> <Gold.Chemscore.DEClash.Weighted>
1.4474

> <Gold.Chemscore.DEInternal.Weighted>
2.1588

> <Gold.Chemscore.Rot.Weighted>
4.9321

> <Gold.Chemscore.Internal.Correction.Weighted>
   9.000000E+99

> <Gold.Protein.RotatedTorsions>
[ 6907 6896 6895 6894 ] final  -45.95 input  -60.11 | X-H torsion
[ 7974 7965 7964 7962 ] final  116.66 input  175.53 | X-H torsion
[ 8008 7997 7996 7995 ] final   -0.24 input   59.86 | X-H torsion
[ 10167 10162 10161 10158 ] final   10.42 input  -65.29 | X-H torsion
[ 10718 10713 10712 10709 ] final    1.43 input   66.30 | X-H torsion
[ 10763 10752 10751 10750 ] final  172.43 input  -60.55 | X-H torsion
[ 11005 11000 10999 10996 ] final  -97.17 input  -57.11 | X-H torsion

> <Gold.Protein.ActiveResidues>
 VAL166  LYS551  ARG553  GLY616  TRP617  ASP618  TYR619  PRO620  LYS621  CYS622 
 ASP623  PHE694  ASN695  SER759  ASP760  ASP761  ALA762  ILE779  LEU786  VAL792 
 PHE793  MET794  SER795  GLU796  ALA797  LYS798  CYS799  TRP800  GLU811  SER814 

> <Gold.Protein.RotatedAtoms>
  150.9164  134.8582  159.7459 H   0  0  0  0  0  0  0  0  0  0  0  0  # atno 6907 bound_to 6896
  152.4971  134.4283  159.9513 H   0  0  0  0  0  0  0  0  0  0  0  0  # atno 6908 bound_to 6896
  151.4320  133.3628  159.2805 H   0  0  0  0  0  0  0  0  0  0  0  0  # atno 6909 bound_to 6896
  145.1768  139.3071  143.4438 H   0  0  0  0  0  0  0  0  0  0  0  0  # atno 7974 bound_to 7965
  154.6604  140.2589  155.7115 H   0  0  0  0  0  0  0  0  0  0  0  0  # atno 8008 bound_to 7997
  156.2615  140.2850  156.0995 H   0  0  0  0  0  0  0  0  0  0  0  0  # atno 8009 bound_to 7997
  155.1317  140.0378  157.2767 H   0  0  0  0  0  0  0  0  0  0  0  0  # atno 8010 bound_to 7997
  140.6195  143.8235  150.7158 H   0  0  0  0  0  0  0  0  0  0  0  0  # atno 10167 bound_to 10162
  156.8480  130.5544  149.5672 H   0  0  0  0  0  0  0  0  0  0  0  0  # atno 10718 bound_to 10713
  154.4259  135.2759  155.1944 H   0  0  0  0  0  0  0  0  0  0  0  0  # atno 10763 bound_to 10752
  154.3871  135.6074  153.5826 H   0  0  0  0  0  0  0  0  0  0  0  0  # atno 10764 bound_to 10752
  152.9834  135.5894  154.4563 H   0  0  0  0  0  0  0  0  0  0  0  0  # atno 10765 bound_to 10752
  141.1387  133.8151  157.0670 H   0  0  0  0  0  0  0  0  0  0  0  0  # atno 11005 bound_to 11000
  146.3460  140.1934  142.8589 LP  0  0  0  0  0  0  0  0  0  0  0  0  # atno 17320 bound_to 7965
  145.0176  140.8767  143.5186 LP  0  0  0  0  0  0  0  0  0  0  0  0  # atno 17321 bound_to 7965
  140.1822  143.4106  152.1925 LP  0  0  0  0  0  0  0  0  0  0  0  0  # atno 17342 bound_to 10162
  139.5427  144.7271  151.4683 LP  0  0  0  0  0  0  0  0  0  0  0  0  # atno 17343 bound_to 10162
  156.0844  130.5846  150.9621 LP  0  0  0  0  0  0  0  0  0  0  0  0  # atno 17370 bound_to 10713
  157.6319  131.0920  150.8424 LP  0  0  0  0  0  0  0  0  0  0  0  0  # atno 17371 bound_to 10713
  140.0535  134.9793  157.1179 LP  0  0  0  0  0  0  0  0  0  0  0  0  # atno 17394 bound_to 11000
  140.3954  134.2139  155.7165 LP  0  0  0  0  0  0  0  0  0  0  0  0  # atno 17395 bound_to 11000

$$$$
