AV-unprocessed.smi:2489|AV-procd|sdf|9806|dock9
  -GOLD-   2272013443D 1   1.00000     0.00000
 Structure written by MMmdl.
 34 35  0  0  0  0  0  0  0  0  2 V2000
  153.4732  142.2485  161.4526 C   0  0  0  0  0  0  0  0  0  0  0  0
  153.1219  141.7699  160.1624 O   0  0  0  0  0  0  0  0  0  0  0  0
  152.3704  142.5912  159.3504 C   0  0  0  0  0  0  0  0  0  0  0  0
  152.1688  143.9759  159.5794 C   0  0  0  0  0  0  0  0  0  0  0  0
  151.3695  144.7128  158.6847 C   0  0  0  0  0  0  0  0  0  0  0  0
  150.8105  144.1020  157.6188 N   0  3  0  0  0  0  0  0  0  0  0  0
  150.9785  142.7901  157.3384 C   0  0  0  0  0  0  0  0  0  0  0  0
  150.3167  142.2823  156.1883 N   0  0  0  0  0  0  0  0  0  0  0  0
  150.4240  141.0613  155.6323 C   0  0  0  0  0  0  0  0  0  0  0  0
  151.1487  140.1629  156.0618 O   0  0  0  0  0  0  0  0  0  0  0  0
  149.5627  140.8310  154.3794 C   0  0  1  0  0  0  0  0  0  0  0  0
  148.5307  139.6919  154.5138 C   0  0  0  0  0  0  0  0  0  0  0  0
  147.1869  140.3778  154.3312 C   0  0  0  0  0  0  0  0  0  0  0  0
  147.4915  141.8331  154.6695 C   0  0  2  0  0  0  0  0  0  0  0  0
  146.5138  142.8394  154.0539 C   0  0  0  0  0  0  0  0  0  0  0  0
  148.7951  142.0071  154.1326 O   0  0  0  0  0  0  0  0  0  0  0  0
  151.7617  142.0038  158.2204 C   0  0  0  0  0  0  0  0  0  0  0  0
  154.0641  141.4915  161.9680 H   0  0  0  0  0  0  0  0  0  0  0  0
  152.5883  142.4453  162.0592 H   0  0  0  0  0  0  0  0  0  0  0  0
  154.0788  143.1538  161.3914 H   0  0  0  0  0  0  0  0  0  0  0  0
  152.6063  144.4860  160.4244 H   0  0  0  0  0  0  0  0  0  0  0  0
  151.1615  145.7678  158.7898 H   0  0  0  0  0  0  0  0  0  0  0  0
  149.7428  142.9447  155.6869 H   0  0  0  0  0  0  0  0  0  0  0  0
  150.2077  140.6540  153.5171 H   0  0  0  0  0  0  0  0  0  0  0  0
  148.6814  138.9204  153.7581 H   0  0  0  0  0  0  0  0  0  0  0  0
  148.5738  139.1976  155.4853 H   0  0  0  0  0  0  0  0  0  0  0  0
  146.8719  140.2908  153.2904 H   0  0  0  0  0  0  0  0  0  0  0  0
  146.4025  139.9523  154.9577 H   0  0  0  0  0  0  0  0  0  0  0  0
  147.5298  141.9642  155.7522 H   0  0  0  0  0  0  0  0  0  0  0  0
  145.5041  142.6865  154.4353 H   0  0  0  0  0  0  0  0  0  0  0  0
  146.4806  142.7463  152.9680 H   0  0  0  0  0  0  0  0  0  0  0  0
  146.8079  143.8620  154.2912 H   0  0  0  0  0  0  0  0  0  0  0  0
  151.8992  140.9457  158.0572 H   0  0  0  0  0  0  0  0  0  0  0  0
  150.2368  144.6648  156.9901 H   0  0  0  0  0  0  0  0  0  0  0  0
  1  2  1  0  0  0  0
  1 18  1  0  0  0  0
  1 19  1  0  0  0  0
  1 20  1  0  0  0  0
  2  3  1  0  0  0  0
  3 17  1  0  0  0  0
  3  4  2  0  0  0  0
  4  5  1  0  0  0  0
  4 21  1  0  0  0  0
  5  6  2  0  0  0  0
  5 22  1  0  0  0  0
  6  7  1  0  0  0  0
  6 34  1  0  0  0  0
  7  8  1  0  0  0  0
  7 17  2  0  0  0  0
  8  9  1  0  0  0  0
  8 23  1  0  0  0  0
  9 10  2  0  0  0  0
  9 11  1  0  0  0  0
 11 16  1  0  0  0  0
 11 12  1  0  0  0  0
 11 24  1  0  0  0  0
 12 13  1  0  0  0  0
 12 25  1  0  0  0  0
 12 26  1  0  0  0  0
 13 14  1  0  0  0  0
 13 27  1  0  0  0  0
 13 28  1  0  0  0  0
 14 15  1  0  0  0  0
 14 16  1  0  0  0  0
 14 29  1  0  0  0  0
 15 30  1  0  0  0  0
 15 31  1  0  0  0  0
 15 32  1  0  0  0  0
 17 33  1  0  0  0  0
M  CHG  1   6   1
M  END
> <s_m_source_file>
AV-unprocessed.smi

> <i_m_source_file_index>
2489

> <i_lp_mmshare_version>
43012

> <i_f3d_flags>
0

> <s_epik_input>
W0NIM11PYzFbY0hdW2NIXW5jKFtjSF0xKVtOSF1DKD1PKVtDQEBIXTJbQ0gyXVtDSDJdW0NASF0oTzIpW0NIM10=

> <s_epik_cmdline>
J2VwaWtfcHl0aG9uJywgJy1waCcsICc3LjAnLCAnLXRuJywgJzgnLCAnLW1hJywgJzIwMCcsICctbWV0YWxfYmluZGluZycsICctaW1hZScsICc8aW5maWxlLm1hZT4nLCAnLW9tYWUnLCAnPG91dGZpbGUubWFlPic=

> <r_epik_Ionization_Penalty>
1.58956

> <r_epik_Ionization_Penalty_Charging>
1.1784

> <r_epik_Ionization_Penalty_Neutral>
0.411158

> <r_epik_State_Penalty>
1.31089

> <r_epik_Charging_Adjusted_Penalty>
2.48928

> <i_epik_Tot_Q>
1

> <i_epik_Tot_abs_Q>
1

> <r_epik_Metal_State_Penalty>
5.00213

> <b_epik_Metal_Only>
0

> <s_lp_Force_Field>
OPLS_2005

> <r_lp_Energy>
33.2408

> <b_lp_Chiralities_Consistent>
1

> <s_lp_Variant>
AV-unprocessed.smi:2489-12

> <Gold.Version>
5.8.1

> <Gold.Id.Protein>
6NUR|6NUR_protein|mol2

> <Gold.PLP.Fitness>
49.4548

> <Gold.PLP.PLP>
-40.0935

> <Gold.PLP.part.hbond>
-3.0000

> <Gold.PLP.part.metal>
0.0000

> <Gold.PLP.part.buried>
-5.7526

> <Gold.PLP.part.nonpolar>
-31.9988

> <Gold.PLP.part.repulsive>
0.3958

> <Gold.PLP.ligand.clash>
0.0000

> <Gold.PLP.ligand.torsion>
0.1986

> <Gold.PLP.Chemscore.Hbond>
3.2498

> <Gold.PLP.Chemscore.CHOScore>
0.0000

> <Gold.PLP.Chemscore.Metal>
0.0000

> <Gold.Chemscore.Hbonds>
donor molecule, donor type, donor heavy atom, donor atom, acceptor molecule, acceptor atom, score
      L1  H     6    34       P1  8028  1.98
      L1  H     8    23       P1  8028  0.96
      P1  H  8011  8017       L1    16  0.24

> <Gold.PLP.Chemscore.Internal.Correction>
0.0091

> <Gold.Rescore>
     Score         DG    S(hbond)    S(metal)    S(lipo)     H(rot)  DE(clash)    DE(int)     intcor
     17.09     -18.72       1.82        0.00      88.25       1.24       0.16       1.47       ----

> <Gold.Chemscore.Fitness>
17.0877

> <Gold.Chemscore.DG>
-18.7162

> <Gold.Chemscore.ZeroCoef>
-5.4800

> <Gold.Chemscore.Hbond>
1.8226

> <Gold.Chemscore.Metal>
0.0000

> <Gold.Chemscore.Lipo>
88.2524

> <Gold.Chemscore.Internal_Hbond>
0.0000

> <Gold.Chemscore.DEClash>
0.1588

> <Gold.Chemscore.DEInternal>
1.4697

> <Gold.Chemscore.Rot>
1.2409

> <Gold.Chemscore.Internal.Correction>
   9.000000E+99

> <Gold.Chemscore.Hbonds>
donor molecule, donor type, donor heavy atom, donor atom, acceptor molecule, acceptor atom, score
      L1  H     6    34       P1  8028  0.57
      L1  H     8    23       P1  8028  0.91
      P1  H  8011  8017       L1    16  0.02

> <Gold.Chemscore.Hbond.Weighted>
-6.0874

> <Gold.Chemscore.Metal.Weighted>
-0.0000

> <Gold.Chemscore.Lipo.Weighted>
-10.3255

> <Gold.Chemscore.Internal_Hbond.Weighted>
0.0000

> <Gold.Chemscore.DEClash.Weighted>
0.1588

> <Gold.Chemscore.DEInternal.Weighted>
1.4697

> <Gold.Chemscore.Rot.Weighted>
3.1767

> <Gold.Chemscore.Internal.Correction.Weighted>
   9.000000E+99

> <Gold.Protein.RotatedTorsions>
[ 6907 6896 6895 6894 ] final -157.52 input  -60.11 | X-H torsion
[ 7974 7965 7964 7962 ] final  -68.74 input  175.53 | X-H torsion
[ 8008 7997 7996 7995 ] final  156.69 input   59.86 | X-H torsion
[ 10167 10162 10161 10158 ] final -152.36 input  -65.29 | X-H torsion
[ 10718 10713 10712 10709 ] final  -69.82 input   66.30 | X-H torsion
[ 10763 10752 10751 10750 ] final    1.12 input  -60.55 | X-H torsion
[ 11005 11000 10999 10996 ] final   63.15 input  -57.11 | X-H torsion

> <Gold.Protein.ActiveResidues>
 VAL166  LYS551  ARG553  GLY616  TRP617  ASP618  TYR619  PRO620  LYS621  CYS622 
 ASP623  PHE694  ASN695  SER759  ASP760  ASP761  ALA762  ILE779  LEU786  VAL792 
 PHE793  MET794  SER795  GLU796  ALA797  LYS798  CYS799  TRP800  GLU811  SER814 

> <Gold.Protein.RotatedAtoms>
  151.3041  133.4109  159.2641 H   0  0  0  0  0  0  0  0  0  0  0  0  # atno 6907 bound_to 6896
  151.0170  134.9441  159.8049 H   0  0  0  0  0  0  0  0  0  0  0  0  # atno 6908 bound_to 6896
  152.5315  134.3005  159.9129 H   0  0  0  0  0  0  0  0  0  0  0  0  # atno 6909 bound_to 6896
  145.7126  140.9072  143.0672 H   0  0  0  0  0  0  0  0  0  0  0  0  # atno 7974 bound_to 7965
  156.2408  140.1905  156.6994 H   0  0  0  0  0  0  0  0  0  0  0  0  # atno 8008 bound_to 7997
  154.6193  140.0611  156.9621 H   0  0  0  0  0  0  0  0  0  0  0  0  # atno 8009 bound_to 7997
  155.1888  140.3282  155.4365 H   0  0  0  0  0  0  0  0  0  0  0  0  # atno 8010 bound_to 7997
  139.7188  143.8990  152.2496 H   0  0  0  0  0  0  0  0  0  0  0  0  # atno 10167 bound_to 10162
  156.0437  130.4320  150.2205 H   0  0  0  0  0  0  0  0  0  0  0  0  # atno 10718 bound_to 10713
  153.3121  135.6963  153.7106 H   0  0  0  0  0  0  0  0  0  0  0  0  # atno 10763 bound_to 10752
  153.5980  135.3467  155.2935 H   0  0  0  0  0  0  0  0  0  0  0  0  # atno 10764 bound_to 10752
  154.8577  135.4333  154.2262 H   0  0  0  0  0  0  0  0  0  0  0  0  # atno 10765 bound_to 10752
  140.0044  134.6392  155.9879 H   0  0  0  0  0  0  0  0  0  0  0  0  # atno 11005 bound_to 11000
  144.6938  139.9095  143.7463 LP  0  0  0  0  0  0  0  0  0  0  0  0  # atno 17320 bound_to 7965
  146.0698  139.3688  143.0530 LP  0  0  0  0  0  0  0  0  0  0  0  0  # atno 17321 bound_to 7965
  139.8880  144.6981  150.8802 LP  0  0  0  0  0  0  0  0  0  0  0  0  # atno 17342 bound_to 10162
  140.7749  143.3608  151.1831 LP  0  0  0  0  0  0  0  0  0  0  0  0  # atno 17343 bound_to 10162
  157.0297  131.0004  151.3316 LP  0  0  0  0  0  0  0  0  0  0  0  0  # atno 17370 bound_to 10713
  157.5286  130.8044  149.7891 LP  0  0  0  0  0  0  0  0  0  0  0  0  # atno 17371 bound_to 10713
  141.1666  133.6537  156.4501 LP  0  0  0  0  0  0  0  0  0  0  0  0  # atno 17394 bound_to 11000
  140.4668  134.6790  157.5111 LP  0  0  0  0  0  0  0  0  0  0  0  0  # atno 17395 bound_to 11000

$$$$
