#       Name:                AV-unprocessed.smi:1041
#       Creating user name   scv26
#       Creation time:       Fri Mar 27 02:56:13 2020


#       File generated by GOLD software.
#

@<TRIPOS>MOLECULE
AV-unprocessed.smi:1041
    60    61     1
SMALL
NO_CHARGES


@<TRIPOS>ATOM
      1 ****        -5.1058  -5.5731   2.0880 C.3            1 S1                 0.0000
      2 ****        -4.7637  -4.2083   1.9243 O.3            1 S1                 0.0000
      3 ****        -4.7632  -3.8069   0.5637 C.3            1 S1                 0.0000
      4 ****        -4.3511  -2.3299   0.4424 C.3            1 S1                 0.0000
      5 ****        -2.9101  -2.0695   0.4501 N.3            1 S1                 0.0000
      6 ****        -2.2841  -2.3957   1.7340 C.3            1 S1                 0.0000
      7 ****        -0.7642  -2.1580   1.7305 C.3            1 S1                 0.0000
      8 ****        -0.4327  -0.7026   1.3555 C.3            1 S1                 0.0000
      9 ****         1.0879  -0.4666   1.3018 C.3            1 S1                 0.0000
     10 ****         1.3932   0.9327   1.0383 N.am           1 S1                 0.0000
     11 ****         2.6283   1.4315   0.8911 C.2            1 S1                 0.0000
     12 ****         3.6493   0.7516   0.9911 O.2            1 S1                 0.0000
     13 ****         2.7225   2.9243   0.5710 C.3            1 S1                 0.0000
     14 ****         3.4762   3.2745  -0.7114 C.2            1 S1                 0.0000
     15 ****         2.9289   3.1522  -1.9553 C.2            1 S1                 0.0000
     16 ****         1.5169   2.6436  -2.1932 C.3            1 S1                 0.0000
     17 ****         3.6567   3.4966  -3.1070 N.2            1 S1                 0.0000
     18 ****         4.8516   3.9359  -2.9888 C.2            1 S1                 0.0000
     19 ****         5.6292   4.3090  -4.2328 C.3            1 S1                 0.0000
     20 ****         5.4939   4.0999  -1.7824 N.pl3          1 S1                -1.0000
     21 ****         4.8589   3.7782  -0.6194 C.2            1 S1                 0.0000
     22 ****         5.4069   3.8954   0.4759 O.2            1 S1                 0.0000
     23 ****        -1.1399  -0.3551   0.0292 C.3            1 S1                 0.0000
     24 ****        -2.6424  -0.6710   0.1140 C.3            1 S1                 0.0000
     25 ****        -5.1052  -5.8264   3.1480 H              1 S1                 0.0000
     26 ****        -4.3860  -6.2217   1.5872 H              1 S1                 0.0000
     27 ****        -6.1005  -5.7816   1.6924 H              1 S1                 0.0000
     28 ****        -4.1009  -4.4376  -0.0320 H              1 S1                 0.0000
     29 ****        -5.7712  -3.9308   0.1649 H              1 S1                 0.0000
     30 ****        -4.7526  -1.9705  -0.5060 H              1 S1                 0.0000
     31 ****        -4.8485  -1.7413   1.2149 H              1 S1                 0.0000
     32 ****        -2.7454  -1.8106   2.5312 H              1 S1                 0.0000
     33 ****        -2.4540  -3.4432   1.9780 H              1 S1                 0.0000
     34 ****        -0.3526  -2.3967   2.7116 H              1 S1                 0.0000
     35 ****        -0.2926  -2.8404   1.0220 H              1 S1                 0.0000
     36 ****        -0.8436  -0.0585   2.1350 H              1 S1                 0.0000
     37 ****         1.5447  -0.7556   2.2496 H              1 S1                 0.0000
     38 ****         1.5385  -1.0889   0.5265 H              1 S1                 0.0000
     39 ****         0.6104   1.5623   0.9388 H              1 S1                 0.0000
     40 ****         1.7171   3.3407   0.4981 H              1 S1                 0.0000
     41 ****         3.1610   3.4271   1.4332 H              1 S1                 0.0000
     42 ****         1.4134   1.6187  -1.8374 H              1 S1                 0.0000
     43 ****         1.2690   2.6523  -3.2551 H              1 S1                 0.0000
     44 ****         0.7882   3.2676  -1.6763 H              1 S1                 0.0000
     45 ****         6.6415   3.9062  -4.1863 H              1 S1                 0.0000
     46 ****         5.6920   5.3936  -4.3253 H              1 S1                 0.0000
     47 ****         5.1481   3.9146  -5.1287 H              1 S1                 0.0000
     48 ****        -1.0059   0.6994  -0.2132 H              1 S1                 0.0000
     49 ****        -0.6936  -0.9204  -0.7903 H              1 S1                 0.0000
     50 ****        -3.1033  -0.4294  -0.8445 H              1 S1                 0.0000
     51 ****        -3.1096  -0.0174   0.8525 H              1 S1                 0.0000
     52 ****        -3.8502  -4.0592   2.3028 LP             1 S1                 0.0000
     53 ****        -5.4264  -3.6497   2.4231 LP             1 S1                 0.0000
     54 ****        -2.5069  -2.6686  -0.2416 LP             1 S1                 0.0000
     55 ****         3.5815  -0.2257   1.1920 LP             1 S1                 0.0000
     56 ****         4.5466   1.1764   0.8715 LP             1 S1                 0.0000
     57 ****         3.2431   3.3988  -4.0122 LP             1 S1                 0.0000
     58 ****         6.4281   4.4557  -1.7589 LP             1 S1                 0.0000
     59 ****         4.9143   3.6484   1.3104 LP             1 S1                 0.0000
     60 ****         6.3448   4.2376   0.5317 LP             1 S1                 0.0000
@<TRIPOS>BOND
    1    1    2 1     
    2    1   25 1     
    3    1   26 1     
    4    1   27 1     
    5    2    3 1     
    6    3    4 1     
    7    3   28 1     
    8    3   29 1     
    9    4    5 1     
   10    4   30 1     
   11    4   31 1     
   12    5   24 1     
   13    5    6 1     
   14    6    7 1     
   15    6   32 1     
   16    6   33 1     
   17    7    8 1     
   18    7   34 1     
   19    7   35 1     
   20    8    9 1     
   21    8   23 1     
   22    8   36 1     
   23    9   10 1     
   24    9   37 1     
   25    9   38 1     
   26   10   11 am    
   27   10   39 1     
   28   11   12 2     
   29   11   13 1     
   30   13   14 1     
   31   13   40 1     
   32   13   41 1     
   33   14   21 1     
   34   14   15 2     
   35   15   16 1     
   36   15   17 1     
   37   16   42 1     
   38   16   43 1     
   39   16   44 1     
   40   17   18 2     
   41   18   19 1     
   42   18   20 1     
   43   19   45 1     
   44   19   46 1     
   45   19   47 1     
   46   20   21 1     
   47   21   22 2     
   48   23   24 1     
   49   23   48 1     
   50   23   49 1     
   51   24   50 1     
   52   24   51 1     
   53    2   52 1     
   54    2   53 1     
   55    5   54 1     
   56   12   55 1     
   57   12   56 1     
   58   17   57 1     
   59   20   58 1     
   60   22   59 1     
   61   22   60 1     
@<TRIPOS>SUBSTRUCTURE
      1 S1             1
@<TRIPOS>SET
LONE_PAIRS      STATIC     ATOMS    <user>   **** ""
9 52 53 54 55 56 57 58 59 60
DONOR_HYDROGENS      STATIC     ATOMS    <user>   **** ""
1 39
ATOM$BLUE        STATIC     ATOMS    COLORGROUP SYSTEM
9 52 53 54 55 56 57 58 59 60
ATOM$RED        STATIC     ATOMS    COLORGROUP SYSTEM
1 39
