#       Name:                AV-unprocessed.smi:2483
#       Creating user name   scv26
#       Creation time:       Fri Mar 27 13:42:35 2020


#       File generated by GOLD software.
#

@<TRIPOS>MOLECULE
AV-unprocessed.smi:2483
    42    43     1
SMALL
NO_CHARGES


@<TRIPOS>ATOM
      1 ****        -2.1382  -1.3189  -3.7581 C.3            1 S1                 0.0000
      2 ****        -1.3318  -0.5856  -2.7904 N.3            1 S1                 0.0000
      3 ****        -1.7658   0.7726  -2.4935 C.3            1 S1                 0.0000
      4 ****         0.0664  -0.7072  -2.9214 C.ar           1 S1                 0.0000
      5 ****         0.5780  -0.8379  -4.1697 N.ar           1 S1                 0.0000
      6 ****         1.9030  -0.9329  -4.2875 C.ar           1 S1                 0.0000
      7 ****         2.7939  -0.9199  -3.2962 N.ar           1 S1                 0.0000
      8 ****         2.3072  -0.7931  -2.0442 C.ar           1 S1                 0.0000
      9 ****         0.9190  -0.6712  -1.7865 C.ar           1 S1                 0.0000
     10 ****         0.3688  -0.5862  -0.4768 N.am           1 S1                 0.0000
     11 ****         0.9479  -0.1095   0.6370 C.2            1 S1                 0.0000
     12 ****         2.0920   0.3390   0.7043 O.2            1 S1                 0.0000
     13 ****         0.1039  -0.1637   1.6795 N.am           1 S1                 0.0000
     14 ****         0.3672   0.2839   3.0542 C.3            1 S1                 0.0000
     15 ****         1.4090  -0.6210   3.7141 C.3            1 S1                 0.0000
     16 ****         0.5402   1.8182   3.1309 C.3            1 S1                 0.0000
     17 ****        -0.9694   1.9583   3.3398 C.3            1 S1                 0.0000
     18 ****        -0.9757   0.4929   3.7826 C.3            1 S1                 0.0000
     19 ****        -1.7673  -2.3368  -3.8830 H              1 S1                 0.0000
     20 ****        -2.1276  -0.8232  -4.7294 H              1 S1                 0.0000
     21 ****        -3.1723  -1.3790  -3.4182 H              1 S1                 0.0000
     22 ****        -1.2741   1.1699  -1.6059 H              1 S1                 0.0000
     23 ****        -2.8413   0.7974  -2.3161 H              1 S1                 0.0000
     24 ****        -1.5445   1.4346  -3.3314 H              1 S1                 0.0000
     25 ****         2.2939  -1.0352  -5.2890 H              1 S1                 0.0000
     26 ****         3.0433  -0.8196  -1.2557 H              1 S1                 0.0000
     27 ****        -0.6056  -0.8393  -0.4011 H              1 S1                 0.0000
     28 ****        -0.8144  -0.5469   1.5094 H              1 S1                 0.0000
     29 ****         1.5372  -0.3714   4.7675 H              1 S1                 0.0000
     30 ****         2.3873  -0.5261   3.2430 H              1 S1                 0.0000
     31 ****         1.1163  -1.6702   3.6630 H              1 S1                 0.0000
     32 ****         1.1079   2.1301   4.0092 H              1 S1                 0.0000
     33 ****         0.9174   2.3061   2.2316 H              1 S1                 0.0000
     34 ****        -1.2595   2.6709   4.1123 H              1 S1                 0.0000
     35 ****        -1.5130   2.1233   2.4083 H              1 S1                 0.0000
     36 ****        -1.8124  -0.0940   3.4013 H              1 S1                 0.0000
     37 ****        -0.8875   0.3904   4.8655 H              1 S1                 0.0000
     38 ****        -1.5431  -1.1010  -1.9599 LP             1 S1                 0.0000
     39 ****        -0.0166  -0.8622  -4.9733 LP             1 S1                 0.0000
     40 ****         3.7751  -1.0002  -3.4718 LP             1 S1                 0.0000
     41 ****         2.6668   0.3674  -0.1135 LP             1 S1                 0.0000
     42 ****         2.4468   0.6751   1.5768 LP             1 S1                 0.0000
@<TRIPOS>BOND
    1    1    2 1     
    2    1   19 1     
    3    1   20 1     
    4    1   21 1     
    5    2    3 1     
    6    2    4 1     
    7    3   22 1     
    8    3   23 1     
    9    3   24 1     
   10    4    9 ar    
   11    4    5 ar    
   12    5    6 ar    
   13    6    7 ar    
   14    6   25 1     
   15    7    8 ar    
   16    8    9 ar    
   17    8   26 1     
   18    9   10 1     
   19   10   11 am    
   20   10   27 1     
   21   11   12 2     
   22   11   13 am    
   23   13   14 1     
   24   13   28 1     
   25   14   18 1     
   26   14   15 1     
   27   14   16 1     
   28   15   29 1     
   29   15   30 1     
   30   15   31 1     
   31   16   17 1     
   32   16   32 1     
   33   16   33 1     
   34   17   18 1     
   35   17   34 1     
   36   17   35 1     
   37   18   36 1     
   38   18   37 1     
   39    2   38 1     
   40    5   39 1     
   41    7   40 1     
   42   12   41 1     
   43   12   42 1     
@<TRIPOS>SUBSTRUCTURE
      1 S1             1
@<TRIPOS>SET
LONE_PAIRS      STATIC     ATOMS    <user>   **** ""
5 38 39 40 41 42
DONOR_HYDROGENS      STATIC     ATOMS    <user>   **** ""
2 27 28
ATOM$BLUE        STATIC     ATOMS    COLORGROUP SYSTEM
5 38 39 40 41 42
ATOM$RED        STATIC     ATOMS    COLORGROUP SYSTEM
2 27 28
