AV-unprocessed.smi:623|AV-procd|sdf|3093|dock2
  -GOLD-   22720 0 13D 1   1.00000     0.00000
 Structure written by MMmdl.
 45 47  0  0  0  0  0  0  0  0  1 V2000
  147.3190  134.1442  153.6713 C   0  0  0  0  0  0  0  0  0  0  0  0
  147.5409  132.6050  153.6434 C   0  0  0  0  0  0  0  0  0  0  0  0
  146.6636  132.0903  152.4672 C   0  0  0  0  0  0  0  0  0  0  0  0
  149.0207  132.1787  153.5651 C   0  0  2  0  0  0  0  0  0  0  0  0
  148.9591  130.6372  153.6615 C   0  0  0  0  0  0  0  0  0  0  0  0
  147.7855  130.4092  154.6367 C   0  0  0  0  0  0  0  0  0  0  0  0
  147.3500  131.8547  154.9922 C   0  0  2  0  0  0  0  0  0  0  0  0
  145.9347  131.9118  155.6006 C   0  0  0  0  0  0  0  0  0  0  0  0
  148.4894  132.3997  155.9086 C   0  0  2  0  0  0  0  0  0  0  0  0
  148.0995  133.5900  156.6589 N   0  0  0  0  0  0  0  0  0  0  0  0
  148.7419  134.1459  157.6986 C   0  0  0  0  0  0  0  0  0  0  0  0
  149.8100  133.7207  158.1362 O   0  0  0  0  0  0  0  0  0  0  0  0
  148.0782  135.3575  158.3762 C   0  0  0  0  0  0  0  0  0  0  0  0
  147.4997  135.0646  159.6990 N   0  0  0  0  0  0  0  0  0  0  0  0
  146.8168  133.8746  159.9088 C   0  0  0  0  0  0  0  0  0  0  0  0
  146.2168  133.5554  161.0795 C   0  0  0  0  0  0  0  0  0  0  0  0
  146.2626  134.4783  162.2083 C   0  0  0  0  0  0  0  0  0  0  0  0
  145.7481  134.2812  163.3066 O   0  0  0  0  0  0  0  0  0  0  0  0
  146.9591  135.6636  161.9587 N   0  0  0  0  0  0  0  0  0  0  0  0
  147.5791  135.9994  160.7544 C   0  0  0  0  0  0  0  0  0  0  0  0
  148.1544  137.0802  160.6360 O   0  0  0  0  0  0  0  0  0  0  0  0
  149.6215  132.6843  154.8970 C   0  0  0  0  0  0  0  0  0  0  0  0
  147.0159  136.3347  162.7110 H   0  0  0  0  0  0  0  0  0  0  0  0
  147.5316  134.5794  152.6943 H   0  0  0  0  0  0  0  0  0  0  0  0
  147.9363  134.6925  154.3770 H   0  0  0  0  0  0  0  0  0  0  0  0
  146.2822  134.3843  153.9075 H   0  0  0  0  0  0  0  0  0  0  0  0
  146.6933  131.0159  152.3012 H   0  0  0  0  0  0  0  0  0  0  0  0
  146.9705  132.5529  151.5285 H   0  0  0  0  0  0  0  0  0  0  0  0
  145.6165  132.3505  152.6239 H   0  0  0  0  0  0  0  0  0  0  0  0
  149.5576  132.5362  152.6862 H   0  0  0  0  0  0  0  0  0  0  0  0
  148.7627  130.1808  152.6912 H   0  0  0  0  0  0  0  0  0  0  0  0
  149.8907  130.2087  154.0331 H   0  0  0  0  0  0  0  0  0  0  0  0
  146.9826  129.8472  154.1592 H   0  0  0  0  0  0  0  0  0  0  0  0
  148.0859  129.8312  155.5116 H   0  0  0  0  0  0  0  0  0  0  0  0
  145.9003  131.3825  156.5529 H   0  0  0  0  0  0  0  0  0  0  0  0
  145.2009  131.4494  154.9404 H   0  0  0  0  0  0  0  0  0  0  0  0
  145.6104  132.9369  155.7803 H   0  0  0  0  0  0  0  0  0  0  0  0
  148.8157  131.6299  156.6099 H   0  0  0  0  0  0  0  0  0  0  0  0
  147.2310  134.0213  156.3777 H   0  0  0  0  0  0  0  0  0  0  0  0
  148.8278  136.1442  158.4731 H   0  0  0  0  0  0  0  0  0  0  0  0
  147.3240  135.7662  157.7013 H   0  0  0  0  0  0  0  0  0  0  0  0
  146.7502  133.1654  159.0957 H   0  0  0  0  0  0  0  0  0  0  0  0
  145.6967  132.6137  161.1805 H   0  0  0  0  0  0  0  0  0  0  0  0
  150.5412  132.1600  155.1596 H   0  0  0  0  0  0  0  0  0  0  0  0
  149.8732  133.7438  154.8435 H   0  0  0  0  0  0  0  0  0  0  0  0
  1  2  1  0  0  0  0
  1 24  1  0  0  0  0
  1 25  1  0  0  0  0
  1 26  1  0  0  0  0
  2  7  1  0  0  0  0
  2  3  1  0  0  0  0
  2  4  1  0  0  0  0
  3 27  1  0  0  0  0
  3 28  1  0  0  0  0
  3 29  1  0  0  0  0
  4 22  1  0  0  0  0
  4  5  1  0  0  0  0
  4 30  1  0  0  0  0
  5  6  1  0  0  0  0
  5 31  1  0  0  0  0
  5 32  1  0  0  0  0
  6  7  1  0  0  0  0
  6 33  1  0  0  0  0
  6 34  1  0  0  0  0
  7  8  1  0  0  0  0
  7  9  1  0  0  0  0
  8 35  1  0  0  0  0
  8 36  1  0  0  0  0
  8 37  1  0  0  0  0
  9 10  1  0  0  0  0
  9 22  1  0  0  0  0
  9 38  1  0  0  0  0
 10 11  1  0  0  0  0
 10 39  1  0  0  0  0
 11 12  2  0  0  0  0
 11 13  1  0  0  0  0
 13 14  1  0  0  0  0
 13 40  1  0  0  0  0
 13 41  1  0  0  0  0
 14 20  1  0  0  0  0
 14 15  1  0  0  0  0
 15 16  2  0  0  0  0
 15 42  1  0  0  0  0
 16 17  1  0  0  0  0
 16 43  1  0  0  0  0
 17 18  2  0  0  0  0
 17 19  1  0  0  0  0
 19 23  1  0  0  0  0
 19 20  1  0  0  0  0
 20 21  2  0  0  0  0
 22 44  1  0  0  0  0
 22 45  1  0  0  0  0
M  END
> <s_m_source_file>
AV-unprocessed.smi

> <i_m_source_file_index>
623

> <i_lp_mmshare_version>
43012

> <i_f3d_flags>
0

> <s_epik_input>
W0NIM11bQ0BdMTJDKFtDSDNdKShbQ0gzXSlbQ0BIXShbQ0gyXVtDSDJdMSlbQ0gyXVtDQEBIXTJbTkhdQyg9TylbQ0gyXW4zW2NIXVtjSF1jKD1PKVtuSF1jMz1P

> <s_epik_cmdline>
J2VwaWtfcHl0aG9uJywgJy1waCcsICc3LjAnLCAnLXRuJywgJzgnLCAnLW1hJywgJzIwMCcsICctbWV0YWxfYmluZGluZycsICctaW1hZScsICc8aW5maWxlLm1hZT4nLCAnLW9tYWUnLCAnPG91dGZpbGUubWFlPic=

> <r_lp_tautomer_probability>
0.999537

> <r_epik_Ionization_Penalty>
0.00303563

> <r_epik_Ionization_Penalty_Charging>
0.00303561

> <r_epik_Ionization_Penalty_Neutral>
2.03238e-08

> <r_epik_State_Penalty>
0.00213308

> <r_epik_Charging_Adjusted_Penalty>
0.00516869

> <i_epik_Tot_Q>
0

> <i_epik_Tot_abs_Q>
0

> <r_epik_Metal_State_Penalty>
0.361714

> <b_epik_Metal_Only>
0

> <s_lp_Force_Field>
OPLS_2005

> <r_lp_Energy>
55.1954

> <b_lp_Chiralities_Consistent>
1

> <s_lp_Variant>
AV-unprocessed.smi:623-3

> <Gold.Version>
5.8.1

> <Gold.Id.Protein>
6NUR|6NUR_protein|mol2

> <Gold.PLP.Fitness>
34.0130

> <Gold.PLP.PLP>
-27.8437

> <Gold.PLP.part.hbond>
-3.7950

> <Gold.PLP.part.metal>
0.0000

> <Gold.PLP.part.buried>
-3.4086

> <Gold.PLP.part.nonpolar>
-20.7062

> <Gold.PLP.part.repulsive>
0.1508

> <Gold.PLP.ligand.clash>
0.0000

> <Gold.PLP.ligand.torsion>
0.6311

> <Gold.PLP.Chemscore.Hbond>
2.4720

> <Gold.PLP.Chemscore.CHOScore>
0.0000

> <Gold.PLP.Chemscore.Metal>
0.0000

> <Gold.Chemscore.Hbonds>
donor molecule, donor type, donor heavy atom, donor atom, acceptor molecule, acceptor atom, score
      P1  H  6896  6908       L1    12  0.88
      P1  H  6931  6943       L1    21  0.85
      P1  H  6934  6947       L1    21  0.43

> <Gold.PLP.Chemscore.Internal.Correction>
0.0155

> <Gold.Rescore>
     Score         DG    S(hbond)    S(metal)    S(lipo)     H(rot)  DE(clash)    DE(int)     intcor
     14.44     -15.43       2.43        0.00      52.21       1.66       0.33       0.66       ----

> <Gold.Chemscore.Fitness>
14.4444

> <Gold.Chemscore.DG>
-15.4319

> <Gold.Chemscore.ZeroCoef>
-5.4800

> <Gold.Chemscore.Hbond>
2.4267

> <Gold.Chemscore.Metal>
0.0000

> <Gold.Chemscore.Lipo>
52.2073

> <Gold.Chemscore.Internal_Hbond>
0.0000

> <Gold.Chemscore.DEClash>
0.3294

> <Gold.Chemscore.DEInternal>
0.6581

> <Gold.Chemscore.Rot>
1.6647

> <Gold.Chemscore.Internal.Correction>
   9.000000E+99

> <Gold.Chemscore.Hbonds>
donor molecule, donor type, donor heavy atom, donor atom, acceptor molecule, acceptor atom, score
      P1  H  6896  6908       L1    12  0.86
      P1  H  6931  6943       L1    21  0.84
      P1  H  6934  6947       L1    21  0.45

> <Gold.Chemscore.Hbond.Weighted>
-8.1053

> <Gold.Chemscore.Metal.Weighted>
-0.0000

> <Gold.Chemscore.Lipo.Weighted>
-6.1082

> <Gold.Chemscore.Internal_Hbond.Weighted>
0.0000

> <Gold.Chemscore.DEClash.Weighted>
0.3294

> <Gold.Chemscore.DEInternal.Weighted>
0.6581

> <Gold.Chemscore.Rot.Weighted>
4.2617

> <Gold.Chemscore.Internal.Correction.Weighted>
   9.000000E+99

> <Gold.Protein.RotatedTorsions>
[ 6907 6896 6895 6894 ] final  122.93 input  -60.11 | X-H torsion
[ 7974 7965 7964 7962 ] final  -32.66 input  175.53 | X-H torsion
[ 8008 7997 7996 7995 ] final -168.34 input   59.86 | X-H torsion
[ 10167 10162 10161 10158 ] final    6.55 input  -65.29 | X-H torsion
[ 10718 10713 10712 10709 ] final  -31.84 input   66.30 | X-H torsion
[ 10763 10752 10751 10750 ] final  161.91 input  -60.55 | X-H torsion
[ 11005 11000 10999 10996 ] final   13.93 input  -57.11 | X-H torsion

> <Gold.Protein.ActiveResidues>
 VAL166  LYS551  ARG553  GLY616  TRP617  ASP618  TYR619  PRO620  LYS621  CYS622 
 ASP623  PHE694  ASN695  SER759  ASP760  ASP761  ALA762  ILE779  LEU786  VAL792 
 PHE793  MET794  SER795  GLU796  ALA797  LYS798  CYS799  TRP800  GLU811  SER814 

> <Gold.Protein.RotatedAtoms>
  152.4203  133.7105  159.6475 H   0  0  0  0  0  0  0  0  0  0  0  0  # atno 6907 bound_to 6896
  150.8079  133.8465  159.3202 H   0  0  0  0  0  0  0  0  0  0  0  0  # atno 6908 bound_to 6896
  151.6183  135.1036  160.0147 H   0  0  0  0  0  0  0  0  0  0  0  0  # atno 6909 bound_to 6896
  146.0972  140.5820  142.8837 H   0  0  0  0  0  0  0  0  0  0  0  0  # atno 7974 bound_to 7965
  155.8901  140.1023  157.1425 H   0  0  0  0  0  0  0  0  0  0  0  0  # atno 8008 bound_to 7997
  154.4014  140.1312  156.4368 H   0  0  0  0  0  0  0  0  0  0  0  0  # atno 8009 bound_to 7997
  155.7544  140.3464  155.5169 H   0  0  0  0  0  0  0  0  0  0  0  0  # atno 8010 bound_to 7997
  140.6421  143.7749  150.7444 H   0  0  0  0  0  0  0  0  0  0  0  0  # atno 10167 bound_to 10162
  156.3822  130.4358  149.7460 H   0  0  0  0  0  0  0  0  0  0  0  0  # atno 10718 bound_to 10713
  154.2703  135.2766  155.2741 H   0  0  0  0  0  0  0  0  0  0  0  0  # atno 10763 bound_to 10752
  154.5307  135.5730  153.6760 H   0  0  0  0  0  0  0  0  0  0  0  0  # atno 10764 bound_to 10752
  152.9946  135.6227  154.2857 H   0  0  0  0  0  0  0  0  0  0  0  0  # atno 10765 bound_to 10752
  140.4752  134.0990  155.7740 H   0  0  0  0  0  0  0  0  0  0  0  0  # atno 11005 bound_to 11000
  144.7404  140.4927  143.6873 LP  0  0  0  0  0  0  0  0  0  0  0  0  # atno 17320 bound_to 7965
  145.5925  139.1497  143.3174 LP  0  0  0  0  0  0  0  0  0  0  0  0  # atno 17321 bound_to 7965
  140.1382  143.4464  152.2210 LP  0  0  0  0  0  0  0  0  0  0  0  0  # atno 17342 bound_to 10162
  139.5631  144.7418  151.4100 LP  0  0  0  0  0  0  0  0  0  0  0  0  # atno 17343 bound_to 10162
  156.4545  130.7922  151.2944 LP  0  0  0  0  0  0  0  0  0  0  0  0  # atno 17370 bound_to 10713
  157.7493  131.0085  150.3230 LP  0  0  0  0  0  0  0  0  0  0  0  0  # atno 17371 bound_to 10713
  141.1558  133.8886  157.1982 LP  0  0  0  0  0  0  0  0  0  0  0  0  # atno 17394 bound_to 11000
  139.9860  135.0082  156.9863 LP  0  0  0  0  0  0  0  0  0  0  0  0  # atno 17395 bound_to 11000

$$$$
