AV-unprocessed.smi:713|AV-procd|sdf|3477|dock5
  -GOLD-   22720 0473D 1   1.00000     0.00000
 Structure written by MMmdl.
 41 42  0  0  0  0  0  0  0  0  1 V2000
  144.5728  135.9086  151.8382 C   0  0  0  0  0  0  0  0  0  0  0  0
  145.7385  134.9153  151.6795 C   0  0  1  0  0  0  0  0  0  0  0  0
  146.2264  134.3615  153.0262 C   0  0  0  0  0  0  0  0  0  0  0  0
  145.4438  133.8000  153.7942 O   0  0  0  0  0  0  0  0  0  0  0  0
  147.5308  134.5254  153.2978 N   0  0  0  0  0  0  0  0  0  0  0  0
  148.2049  134.0684  154.5087 C   0  0  1  0  0  0  0  0  0  0  0  0
  148.9903  132.7793  154.2072 C   0  0  0  0  0  0  0  0  0  0  0  0
  149.7528  132.2882  155.4473 C   0  0  0  0  0  0  0  0  0  0  0  0
  150.6824  133.3801  155.9988 C   0  0  0  0  0  0  0  0  0  0  0  0
  149.9097  134.6761  156.3058 C   0  0  1  0  0  0  0  0  0  0  0  0
  151.0805  135.9700  156.9220 S   0  0  0  0  0  0  0  0  0  0  0  0
  150.8481  137.3393  155.7134 C   0  0  0  0  0  0  0  0  0  0  0  0
  150.6098  136.4272  158.2382 O   0  0  0  0  0  0  0  0  0  0  0  0
  152.4553  135.4674  156.7781 O   0  0  0  0  0  0  0  0  0  0  0  0
  149.1422  135.1626  155.0604 C   0  0  0  0  0  0  0  0  0  0  0  0
  145.3803  133.8236  150.7832 N   0  0  0  0  0  0  0  0  0  0  0  0
  144.1682  133.5629  150.1733 C   0  0  0  0  0  0  0  0  0  0  0  0
  144.3204  132.4302  149.4264 C   0  0  0  0  0  0  0  0  0  0  0  0
  145.6770  132.0624  149.6444 C   0  0  0  0  0  0  0  0  0  0  0  0
  146.3078  132.8964  150.4550 N   0  0  0  0  0  0  0  0  0  0  0  0
  144.8419  136.7291  152.5040 H   0  0  0  0  0  0  0  0  0  0  0  0
  143.6810  135.4294  152.2441 H   0  0  0  0  0  0  0  0  0  0  0  0
  144.3026  136.3445  150.8759 H   0  0  0  0  0  0  0  0  0  0  0  0
  146.5699  135.4635  151.2309 H   0  0  0  0  0  0  0  0  0  0  0  0
  148.1009  134.9949  152.6087 H   0  0  0  0  0  0  0  0  0  0  0  0
  147.4505  133.8362  155.2630 H   0  0  0  0  0  0  0  0  0  0  0  0
  148.3114  131.9990  153.8611 H   0  0  0  0  0  0  0  0  0  0  0  0
  149.6972  132.9569  153.3953 H   0  0  0  0  0  0  0  0  0  0  0  0
  149.0427  131.9889  156.2192 H   0  0  0  0  0  0  0  0  0  0  0  0
  150.3321  131.3986  155.1987 H   0  0  0  0  0  0  0  0  0  0  0  0
  151.1775  133.0174  156.9000 H   0  0  0  0  0  0  0  0  0  0  0  0
  151.4723  133.5860  155.2753 H   0  0  0  0  0  0  0  0  0  0  0  0
  149.2004  134.4807  157.1108 H   0  0  0  0  0  0  0  0  0  0  0  0
  151.4274  138.2039  156.0362 H   0  0  0  0  0  0  0  0  0  0  0  0
  149.7939  137.6109  155.6654 H   0  0  0  0  0  0  0  0  0  0  0  0
  151.1937  137.0316  154.7274 H   0  0  0  0  0  0  0  0  0  0  0  0
  149.8502  135.4608  154.2859 H   0  0  0  0  0  0  0  0  0  0  0  0
  148.5608  136.0507  155.3055 H   0  0  0  0  0  0  0  0  0  0  0  0
  143.3074  134.1992  150.3200 H   0  0  0  0  0  0  0  0  0  0  0  0
  143.5758  131.9398  148.8171 H   0  0  0  0  0  0  0  0  0  0  0  0
  146.2189  131.2203  149.2398 H   0  0  0  0  0  0  0  0  0  0  0  0
  1  2  1  0  0  0  0
  1 21  1  0  0  0  0
  1 22  1  0  0  0  0
  1 23  1  0  0  0  0
  2  3  1  0  0  0  0
  2 16  1  0  0  0  0
  2 24  1  0  0  0  0
  3  4  2  0  0  0  0
  3  5  1  0  0  0  0
  5  6  1  0  0  0  0
  5 25  1  0  0  0  0
  6 15  1  0  0  0  0
  6  7  1  0  0  0  0
  6 26  1  0  0  0  0
  7  8  1  0  0  0  0
  7 27  1  0  0  0  0
  7 28  1  0  0  0  0
  8  9  1  0  0  0  0
  8 29  1  0  0  0  0
  8 30  1  0  0  0  0
  9 10  1  0  0  0  0
  9 31  1  0  0  0  0
  9 32  1  0  0  0  0
 10 11  1  0  0  0  0
 10 15  1  0  0  0  0
 10 33  1  0  0  0  0
 11 12  1  0  0  0  0
 11 13  2  0  0  0  0
 11 14  2  0  0  0  0
 12 34  1  0  0  0  0
 12 35  1  0  0  0  0
 12 36  1  0  0  0  0
 15 37  1  0  0  0  0
 15 38  1  0  0  0  0
 16 20  1  0  0  0  0
 16 17  1  0  0  0  0
 17 18  2  0  0  0  0
 17 39  1  0  0  0  0
 18 19  1  0  0  0  0
 18 40  1  0  0  0  0
 19 20  2  0  0  0  0
 19 41  1  0  0  0  0
M  END
> <s_m_source_file>
AV-unprocessed.smi

> <i_m_source_file_index>
713

> <i_lp_mmshare_version>
43012

> <i_f3d_flags>
0

> <s_epik_input>
bjFbY0hdW2NIXVtjSF1uMVtDQEhdKFtDSDNdKUMoPU8pW05IXVtDQEBIXTJbQ0gyXVtDSDJdW0NIMl1bQ0BIXShbQ0gyXTIpUyg9TykoPU8pW0NIM10=

> <s_epik_cmdline>
J2VwaWtfcHl0aG9uJywgJy1waCcsICc3LjAnLCAnLXRuJywgJzgnLCAnLW1hJywgJzIwMCcsICctbWV0YWxfYmluZGluZycsICctaW1hZScsICc8aW5maWxlLm1hZT4nLCAnLW9tYWUnLCAnPG91dGZpbGUubWFlPic=

> <r_lp_tautomer_probability>
1

> <r_epik_Ionization_Penalty>
4.07816e-05

> <r_epik_Ionization_Penalty_Charging>
0

> <r_epik_Ionization_Penalty_Neutral>
4.07816e-05

> <r_epik_State_Penalty>
-0

> <r_epik_Charging_Adjusted_Penalty>
0

> <i_epik_Tot_Q>
0

> <i_epik_Tot_abs_Q>
0

> <r_epik_Metal_State_Penalty>
-0

> <b_epik_Metal_Only>
0

> <s_lp_Force_Field>
OPLS_2005

> <r_lp_Energy>
7.49251

> <b_lp_Chiralities_Consistent>
1

> <s_lp_Variant>
AV-unprocessed.smi:713-4

> <Gold.Version>
5.8.1

> <Gold.Id.Protein>
6NUR|6NUR_protein|mol2

> <Gold.PLP.Fitness>
45.4292

> <Gold.PLP.PLP>
-33.9905

> <Gold.PLP.part.hbond>
-3.0000

> <Gold.PLP.part.metal>
0.0000

> <Gold.PLP.part.buried>
-5.8226

> <Gold.PLP.part.nonpolar>
-26.3752

> <Gold.PLP.part.repulsive>
0.3162

> <Gold.PLP.ligand.clash>
0.0000

> <Gold.PLP.ligand.torsion>
0.4021

> <Gold.PLP.Chemscore.Hbond>
2.8000

> <Gold.PLP.Chemscore.CHOScore>
1.2138

> <Gold.PLP.Chemscore.Metal>
0.0000

> <Gold.Chemscore.Hbonds>
donor molecule, donor type, donor heavy atom, donor atom, acceptor molecule, acceptor atom, score
      L1  H     5    25       P1  7948  1.00
      P1  H  6896  6909       L1    13  0.62
      P1  H 10752 10763       L1    14  1.00
      L1  C    17    39       P1 10186  1.00

> <Gold.PLP.Chemscore.Internal.Correction>
0.2015

> <Gold.Rescore>
     Score         DG    S(hbond)    S(metal)    S(lipo)     H(rot)  DE(clash)    DE(int)     intcor
     18.64     -19.00       2.85        0.00      72.05       1.72       0.01       0.34       ----

> <Gold.Chemscore.Fitness>
18.6418

> <Gold.Chemscore.DG>
-18.9965

> <Gold.Chemscore.ZeroCoef>
-5.4800

> <Gold.Chemscore.Hbond>
2.8450

> <Gold.Chemscore.Metal>
0.0000

> <Gold.Chemscore.Lipo>
72.0502

> <Gold.Chemscore.Internal_Hbond>
0.0000

> <Gold.Chemscore.DEClash>
0.0149

> <Gold.Chemscore.DEInternal>
0.3398

> <Gold.Chemscore.Rot>
1.7249

> <Gold.Chemscore.Internal.Correction>
   9.000000E+99

> <Gold.Chemscore.Hbonds>
donor molecule, donor type, donor heavy atom, donor atom, acceptor molecule, acceptor atom, score
      L1  H     5    25       P1  7948  0.85
      P1  H  6896  6909       L1    13  0.48
      P1  H 10752 10763       L1    14  0.94

> <Gold.Chemscore.Hbond.Weighted>
-9.5023

> <Gold.Chemscore.Metal.Weighted>
-0.0000

> <Gold.Chemscore.Lipo.Weighted>
-8.4299

> <Gold.Chemscore.Internal_Hbond.Weighted>
0.0000

> <Gold.Chemscore.DEClash.Weighted>
0.0149

> <Gold.Chemscore.DEInternal.Weighted>
0.3398

> <Gold.Chemscore.Rot.Weighted>
4.4157

> <Gold.Chemscore.Internal.Correction.Weighted>
   9.000000E+99

> <Gold.Protein.RotatedTorsions>
[ 6907 6896 6895 6894 ] final   79.19 input  -60.11 | X-H torsion
[ 7974 7965 7964 7962 ] final   -1.87 input  175.53 | X-H torsion
[ 8008 7997 7996 7995 ] final  -33.51 input   59.86 | X-H torsion
[ 10167 10162 10161 10158 ] final  -32.40 input  -65.29 | X-H torsion
[ 10718 10713 10712 10709 ] final   24.50 input   66.30 | X-H torsion
[ 10763 10752 10751 10750 ] final   92.92 input  -60.55 | X-H torsion
[ 11005 11000 10999 10996 ] final  -72.02 input  -57.11 | X-H torsion

> <Gold.Protein.ActiveResidues>
 VAL166  LYS551  ARG553  GLY616  TRP617  ASP618  TYR619  PRO620  LYS621  CYS622 
 ASP623  PHE694  ASN695  SER759  ASP760  ASP761  ALA762  ILE779  LEU786  VAL792 
 PHE793  MET794  SER795  GLU796  ALA797  LYS798  CYS799  TRP800  GLU811  SER814 

> <Gold.Protein.RotatedAtoms>
  152.5189  134.3550  159.9264 H   0  0  0  0  0  0  0  0  0  0  0  0  # atno 6907 bound_to 6896
  151.3501  133.3922  159.2687 H   0  0  0  0  0  0  0  0  0  0  0  0  # atno 6908 bound_to 6896
  150.9734  134.9121  159.7859 H   0  0  0  0  0  0  0  0  0  0  0  0  # atno 6909 bound_to 6896
  146.2412  140.1485  142.8334 H   0  0  0  0  0  0  0  0  0  0  0  0  # atno 7974 bound_to 7965
  154.4147  140.1708  156.1900 H   0  0  0  0  0  0  0  0  0  0  0  0  # atno 8008 bound_to 7997
  155.9611  140.3393  155.6468 H   0  0  0  0  0  0  0  0  0  0  0  0  # atno 8009 bound_to 7997
  155.6747  140.0715  157.2498 H   0  0  0  0  0  0  0  0  0  0  0  0  # atno 8010 bound_to 7997
  140.7222  143.3697  151.1802 H   0  0  0  0  0  0  0  0  0  0  0  0  # atno 10167 bound_to 10162
  157.1806  130.6801  149.6111 H   0  0  0  0  0  0  0  0  0  0  0  0  # atno 10718 bound_to 10713
  153.2245  135.4344  155.0526 H   0  0  0  0  0  0  0  0  0  0  0  0  # atno 10763 bound_to 10752
  154.8266  135.3364  154.6879 H   0  0  0  0  0  0  0  0  0  0  0  0  # atno 10764 bound_to 10752
  153.7309  135.7011  153.5046 H   0  0  0  0  0  0  0  0  0  0  0  0  # atno 10765 bound_to 10752
  141.1602  133.6834  156.6994 H   0  0  0  0  0  0  0  0  0  0  0  0  # atno 11005 bound_to 11000
  145.0187  140.8775  143.5180 LP  0  0  0  0  0  0  0  0  0  0  0  0  # atno 17320 bound_to 7965
  145.1530  139.2503  143.5431 LP  0  0  0  0  0  0  0  0  0  0  0  0  # atno 17321 bound_to 7965
  139.7266  143.9139  152.3005 LP  0  0  0  0  0  0  0  0  0  0  0  0  # atno 17342 bound_to 10162
  139.8913  144.6963  150.8767 LP  0  0  0  0  0  0  0  0  0  0  0  0  # atno 17343 bound_to 10162
  155.9725  130.4648  150.6231 LP  0  0  0  0  0  0  0  0  0  0  0  0  # atno 17370 bound_to 10713
  157.3956  131.0802  151.1354 LP  0  0  0  0  0  0  0  0  0  0  0  0  # atno 17371 bound_to 10713
  140.2970  134.8195  157.4065 LP  0  0  0  0  0  0  0  0  0  0  0  0  # atno 17394 bound_to 11000
  140.1296  134.5113  155.8116 LP  0  0  0  0  0  0  0  0  0  0  0  0  # atno 17395 bound_to 11000

$$$$
