AV-unprocessed.smi:1703|AV-procd|sdf|6873|dock4
  -GOLD-   22720 8 73D 1   1.00000     0.00000
 Structure written by MMmdl.
 50 52  0  0  0  0  0  0  0  0  3 V2000
  149.0789  132.1365  153.9066 C   0  0  0  0  0  0  0  0  0  0  0  0
  148.6734  133.6115  153.9997 C   0  0  2  0  0  0  0  0  0  0  0  0
  149.7955  134.4832  154.5922 C   0  0  0  0  0  0  0  0  0  0  0  0
  149.3348  135.8818  154.7465 N   0  3  2  0  0  0  0  0  0  0  0  0
  150.4151  136.7949  155.1990 C   0  0  0  0  0  0  0  0  0  0  0  0
  150.0705  138.2789  154.9634 C   0  0  2  0  0  0  0  0  0  0  0  0
  149.6557  138.4434  153.6205 O   0  0  0  0  0  0  0  0  0  0  0  0
  151.2738  139.1995  155.2488 C   0  0  0  0  0  0  0  0  0  0  0  0
  150.8815  140.4685  155.8853 N   0  0  0  0  0  0  0  0  0  0  0  0
  149.9736  141.4051  155.4835 C   0  0  0  0  0  0  0  0  0  0  0  0
  149.1296  141.3576  154.2493 C   0  0  0  0  0  0  0  0  0  0  0  0
  148.3749  142.5334  154.0445 O   0  0  0  0  0  0  0  0  0  0  0  0
  149.9899  142.4051  156.4106 N   0  3  0  0  0  0  0  0  0  0  0  0
  150.9098  142.1059  157.4154 C   0  0  0  0  0  0  0  0  0  0  0  0
  151.2725  142.8144  158.5565 C   0  0  0  0  0  0  0  0  0  0  0  0
  152.2549  142.2273  159.3804 C   0  0  0  0  0  0  0  0  0  0  0  0
  152.8355  140.9840  159.0571 C   0  0  0  0  0  0  0  0  0  0  0  0
  152.4593  140.2749  157.8973 C   0  0  0  0  0  0  0  0  0  0  0  0
  151.4867  140.8616  157.0868 C   0  0  0  0  0  0  0  0  0  0  0  0
  148.1173  135.9308  155.5926 C   0  0  0  0  0  0  0  0  0  0  0  0
  147.0130  135.0186  155.0234 C   0  0  1  0  0  0  0  0  0  0  0  0
  146.3457  135.5823  153.7561 C   0  0  0  0  0  0  0  0  0  0  0  0
  147.5173  133.6971  154.8289 O   0  0  0  0  0  0  0  0  0  0  0  0
  149.9575  132.0093  153.2740 H   0  0  0  0  0  0  0  0  0  0  0  0
  148.2739  131.5375  153.4801 H   0  0  0  0  0  0  0  0  0  0  0  0
  149.3123  131.7275  154.8901 H   0  0  0  0  0  0  0  0  0  0  0  0
  148.4327  133.9588  152.9947 H   0  0  0  0  0  0  0  0  0  0  0  0
  150.1111  134.0940  155.5619 H   0  0  0  0  0  0  0  0  0  0  0  0
  150.6654  134.4513  153.9347 H   0  0  0  0  0  0  0  0  0  0  0  0
  150.6225  136.6113  156.2545 H   0  0  0  0  0  0  0  0  0  0  0  0
  151.3385  136.5657  154.6646 H   0  0  0  0  0  0  0  0  0  0  0  0
  149.2461  138.5811  155.6085 H   0  0  0  0  0  0  0  0  0  0  0  0
  149.6686  137.6008  153.1929 H   0  0  0  0  0  0  0  0  0  0  0  0
  151.9700  138.7009  155.9236 H   0  0  0  0  0  0  0  0  0  0  0  0
  151.8389  139.4075  154.3403 H   0  0  0  0  0  0  0  0  0  0  0  0
  149.7750  141.1967  153.3856 H   0  0  0  0  0  0  0  0  0  0  0  0
  148.4452  140.5113  154.3054 H   0  0  0  0  0  0  0  0  0  0  0  0
  148.7482  143.2271  154.5671 H   0  0  0  0  0  0  0  0  0  0  0  0
  150.8297  143.7677  158.8058 H   0  0  0  0  0  0  0  0  0  0  0  0
  152.5696  142.7409  160.2774 H   0  0  0  0  0  0  0  0  0  0  0  0
  153.5860  140.5657  159.7122 H   0  0  0  0  0  0  0  0  0  0  0  0
  152.9160  139.3253  157.6631 H   0  0  0  0  0  0  0  0  0  0  0  0
  148.3731  135.6063  156.6025 H   0  0  0  0  0  0  0  0  0  0  0  0
  147.7415  136.9499  155.6777 H   0  0  0  0  0  0  0  0  0  0  0  0
  146.2312  134.9338  155.7789 H   0  0  0  0  0  0  0  0  0  0  0  0
  145.8566  136.5332  153.9683 H   0  0  0  0  0  0  0  0  0  0  0  0
  145.5842  134.8983  153.3804 H   0  0  0  0  0  0  0  0  0  0  0  0
  147.0613  135.7605  152.9540 H   0  0  0  0  0  0  0  0  0  0  0  0
  149.0675  136.1942  153.8236 H   0  0  0  0  0  0  0  0  0  0  0  0
  149.4125  143.2343  156.3528 H   0  0  0  0  0  0  0  0  0  0  0  0
  1  2  1  0  0  0  0
  1 24  1  0  0  0  0
  1 25  1  0  0  0  0
  1 26  1  0  0  0  0
  2 23  1  0  0  0  0
  2  3  1  0  0  0  0
  2 27  1  0  0  0  0
  3  4  1  0  0  0  0
  3 28  1  0  0  0  0
  3 29  1  0  0  0  0
  4  5  1  0  0  0  0
  4 20  1  0  0  0  0
  4 49  1  0  0  0  0
  5  6  1  0  0  0  0
  5 30  1  0  0  0  0
  5 31  1  0  0  0  0
  6  7  1  0  0  0  0
  6  8  1  0  0  0  0
  6 32  1  0  0  0  0
  7 33  1  0  0  0  0
  8  9  1  0  0  0  0
  8 34  1  0  0  0  0
  8 35  1  0  0  0  0
  9 19  1  0  0  0  0
  9 10  1  0  0  0  0
 10 11  1  0  0  0  0
 10 13  2  0  0  0  0
 11 12  1  0  0  0  0
 11 36  1  0  0  0  0
 11 37  1  0  0  0  0
 12 38  1  0  0  0  0
 13 14  1  0  0  0  0
 13 50  1  0  0  0  0
 14 19  2  0  0  0  0
 14 15  1  0  0  0  0
 15 16  2  0  0  0  0
 15 39  1  0  0  0  0
 16 17  1  0  0  0  0
 16 40  1  0  0  0  0
 17 18  2  0  0  0  0
 17 41  1  0  0  0  0
 18 19  1  0  0  0  0
 18 42  1  0  0  0  0
 20 21  1  0  0  0  0
 20 43  1  0  0  0  0
 20 44  1  0  0  0  0
 21 22  1  0  0  0  0
 21 23  1  0  0  0  0
 21 45  1  0  0  0  0
 22 46  1  0  0  0  0
 22 47  1  0  0  0  0
 22 48  1  0  0  0  0
M  CHG  1   4   1
M  CHG  1  13   1
M  END
> <s_m_source_file>
AV-unprocessed.smi

> <i_m_source_file_index>
1703

> <i_lp_mmshare_version>
43012

> <i_f3d_flags>
0

> <s_epik_input>
W0NIM11bQ0BASF0xW0NIMl1OKFtDSDJdW0NASF0oTzEpW0NIM10pW0NIMl1bQ0BIXShbT0hdKVtDSDJdbihjKG4yKVtDSDJdW09IXSljKGMyMylbY0hdW2NIXVtjSF1bY0hdMw==

> <s_epik_cmdline>
J2VwaWtfcHl0aG9uJywgJy1waCcsICc3LjAnLCAnLXRuJywgJzgnLCAnLW1hJywgJzIwMCcsICctbWV0YWxfYmluZGluZycsICctaW1hZScsICc8aW5maWxlLm1hZT4nLCAnLW9tYWUnLCAnPG91dGZpbGUubWFlPic=

> <r_epik_Ionization_Penalty>
2.22579

> <r_epik_Ionization_Penalty_Charging>
2.22492

> <r_epik_Ionization_Penalty_Neutral>
0.000870007

> <r_epik_State_Penalty>
2.3141

> <r_epik_Charging_Adjusted_Penalty>
4.53902

> <i_epik_Tot_Q>
2

> <i_epik_Tot_abs_Q>
2

> <r_epik_Metal_State_Penalty>
6.36517

> <b_epik_Metal_Only>
0

> <s_lp_Force_Field>
OPLS_2005

> <r_lp_Energy>
31.3711

> <b_lp_Chiralities_Consistent>
1

> <s_lp_Variant>
AV-unprocessed.smi:1703-21

> <Gold.Version>
5.8.1

> <Gold.Id.Protein>
6NUR|6NUR_protein|mol2

> <Gold.PLP.Fitness>
59.9029

> <Gold.PLP.PLP>
-43.2861

> <Gold.PLP.part.hbond>
-6.3644

> <Gold.PLP.part.metal>
0.0000

> <Gold.PLP.part.buried>
-2.0323

> <Gold.PLP.part.nonpolar>
-33.7917

> <Gold.PLP.part.repulsive>
0.1398

> <Gold.PLP.ligand.clash>
0.0000

> <Gold.PLP.ligand.torsion>
0.7048

> <Gold.PLP.Chemscore.Hbond>
6.0000

> <Gold.PLP.Chemscore.CHOScore>
0.0000

> <Gold.PLP.Chemscore.Metal>
0.0000

> <Gold.Chemscore.Hbonds>
donor molecule, donor type, donor heavy atom, donor atom, acceptor molecule, acceptor atom, score
      L1  H     4    49       P1  7948  2.00
      L1  H     7    33       P1  7948  1.00
      L1  H    12    38       P1  8028  1.00
      L1  H    13    50       P1  8028  2.00

> <Gold.PLP.Chemscore.Internal.Correction>
0.0265

> <Gold.Rescore>
     Score         DG    S(hbond)    S(metal)    S(lipo)     H(rot)  DE(clash)    DE(int)     intcor
     20.15     -21.74       3.88        0.00      94.54       3.04       0.03       1.56       ----

> <Gold.Chemscore.Fitness>
20.1473

> <Gold.Chemscore.DG>
-21.7351

> <Gold.Chemscore.ZeroCoef>
-5.4800

> <Gold.Chemscore.Hbond>
3.8833

> <Gold.Chemscore.Metal>
0.0000

> <Gold.Chemscore.Lipo>
94.5424

> <Gold.Chemscore.Internal_Hbond>
0.0000

> <Gold.Chemscore.DEClash>
0.0255

> <Gold.Chemscore.DEInternal>
1.5623

> <Gold.Chemscore.Rot>
3.0378

> <Gold.Chemscore.Internal.Correction>
   9.000000E+99

> <Gold.Chemscore.Hbonds>
donor molecule, donor type, donor heavy atom, donor atom, acceptor molecule, acceptor atom, score
      L1  H     4    49       P1  7948  0.95
      L1  H     7    33       P1  7948  0.69
      L1  H    12    38       P1  8028  1.00
      L1  H    13    50       P1  8028  0.98

> <Gold.Chemscore.Hbond.Weighted>
-12.9703

> <Gold.Chemscore.Metal.Weighted>
-0.0000

> <Gold.Chemscore.Lipo.Weighted>
-11.0615

> <Gold.Chemscore.Internal_Hbond.Weighted>
0.0000

> <Gold.Chemscore.DEClash.Weighted>
0.0255

> <Gold.Chemscore.DEInternal.Weighted>
1.5623

> <Gold.Chemscore.Rot.Weighted>
7.7767

> <Gold.Chemscore.Internal.Correction.Weighted>
   9.000000E+99

> <Gold.Protein.RotatedTorsions>
[ 6907 6896 6895 6894 ] final   10.08 input  -60.11 | X-H torsion
[ 7974 7965 7964 7962 ] final  107.98 input  175.53 | X-H torsion
[ 8008 7997 7996 7995 ] final -150.86 input   59.86 | X-H torsion
[ 10167 10162 10161 10158 ] final   -0.85 input  -65.29 | X-H torsion
[ 10718 10713 10712 10709 ] final  -18.83 input   66.30 | X-H torsion
[ 10763 10752 10751 10750 ] final  -86.92 input  -60.55 | X-H torsion
[ 11005 11000 10999 10996 ] final -113.23 input  -57.11 | X-H torsion

> <Gold.Protein.ActiveResidues>
 VAL166  LYS551  ARG553  GLY616  TRP617  ASP618  TYR619  PRO620  LYS621  CYS622 
 ASP623  PHE694  ASN695  SER759  ASP760  ASP761  ALA762  ILE779  LEU786  VAL792 
 PHE793  MET794  SER795  GLU796  ALA797  LYS798  CYS799  TRP800  GLU811  SER814 

> <Gold.Protein.RotatedAtoms>
  151.7325  135.0872  160.0302 H   0  0  0  0  0  0  0  0  0  0  0  0  # atno 6907 bound_to 6896
  152.3532  133.6200  159.5968 H   0  0  0  0  0  0  0  0  0  0  0  0  # atno 6908 bound_to 6896
  150.7553  133.9458  159.3512 H   0  0  0  0  0  0  0  0  0  0  0  0  # atno 6909 bound_to 6896
  145.2866  139.2614  143.3887 H   0  0  0  0  0  0  0  0  0  0  0  0  # atno 7974 bound_to 7965
  155.6302  140.0690  157.2651 H   0  0  0  0  0  0  0  0  0  0  0  0  # atno 8008 bound_to 7997
  154.4207  140.1769  156.1513 H   0  0  0  0  0  0  0  0  0  0  0  0  # atno 8009 bound_to 7997
  155.9939  140.3342  155.6783 H   0  0  0  0  0  0  0  0  0  0  0  0  # atno 8010 bound_to 7997
  140.6785  143.6845  150.8078 H   0  0  0  0  0  0  0  0  0  0  0  0  # atno 10167 bound_to 10162
  156.5541  130.4709  149.6438 H   0  0  0  0  0  0  0  0  0  0  0  0  # atno 10718 bound_to 10713
  154.6278  135.5432  153.7647 H   0  0  0  0  0  0  0  0  0  0  0  0  # atno 10763 bound_to 10752
  153.0269  135.6428  154.1346 H   0  0  0  0  0  0  0  0  0  0  0  0  # atno 10764 bound_to 10752
  154.1277  135.2916  155.3173 H   0  0  0  0  0  0  0  0  0  0  0  0  # atno 10765 bound_to 10752
  141.0627  133.9509  157.2637 H   0  0  0  0  0  0  0  0  0  0  0  0  # atno 11005 bound_to 11000
  146.3199  140.3347  142.8643 LP  0  0  0  0  0  0  0  0  0  0  0  0  # atno 17320 bound_to 7965
  144.9208  140.7865  143.5749 LP  0  0  0  0  0  0  0  0  0  0  0  0  # atno 17321 bound_to 7965
  140.0542  143.5219  152.2659 LP  0  0  0  0  0  0  0  0  0  0  0  0  # atno 17342 bound_to 10162
  139.6092  144.7604  151.2991 LP  0  0  0  0  0  0  0  0  0  0  0  0  # atno 17343 bound_to 10162
  156.2858  130.7096  151.1932 LP  0  0  0  0  0  0  0  0  0  0  0  0  # atno 17370 bound_to 10713
  157.7382  131.0544  150.5311 LP  0  0  0  0  0  0  0  0  0  0  0  0  # atno 17371 bound_to 10713
  139.9447  135.0186  156.8817 LP  0  0  0  0  0  0  0  0  0  0  0  0  # atno 17394 bound_to 11000
  140.5836  134.0328  155.7473 LP  0  0  0  0  0  0  0  0  0  0  0  0  # atno 17395 bound_to 11000

$$$$
