AV-unprocessed.smi:1229|AV-procd|sdf|5150|dock4
  -GOLD-   22720 4223D 1   1.00000     0.00000
 Structure written by MMmdl.
 46 47  0  0  0  0  0  0  0  0  2 V2000
  147.6463  133.0582  151.9505 C   0  0  0  0  0  0  0  0  0  0  0  0
  146.2484  133.1080  151.3554 C   0  0  0  0  0  0  0  0  0  0  0  0
  145.6735  131.9248  150.8447 C   0  0  0  0  0  0  0  0  0  0  0  0
  144.3811  131.9721  150.2950 C   0  0  0  0  0  0  0  0  0  0  0  0
  143.7144  133.2092  150.2780 C   0  0  0  0  0  0  0  0  0  0  0  0
  144.2564  134.3450  150.7632 N   0  0  0  0  0  0  0  0  0  0  0  0
  145.5030  134.3162  151.2985 C   0  0  0  0  0  0  0  0  0  0  0  0
  146.1382  135.4751  151.8282 N   0  0  0  0  0  0  0  0  0  0  0  0
  145.5711  136.5557  152.3931 C   0  0  0  0  0  0  0  0  0  0  0  0
  144.3627  136.7255  152.5589 O   0  0  0  0  0  0  0  0  0  0  0  0
  146.4963  137.4553  152.7593 N   0  0  0  0  0  0  0  0  0  0  0  0
  146.2100  138.7348  153.4015 C   0  0  0  0  0  0  0  0  0  0  0  0
  147.4379  139.6689  153.4019 C   0  0  2  0  0  0  0  0  0  0  0  0
  148.6016  138.8651  153.4061 O   0  0  0  0  0  0  0  0  0  0  0  0
  147.4777  140.5548  154.6636 C   0  0  0  0  0  0  0  0  0  0  0  0
  146.3394  141.5074  154.7229 N   0  3  0  0  0  0  0  0  0  0  0  0
  146.6306  142.7828  154.0181 C   0  0  0  0  0  0  0  0  0  0  0  0
  145.3858  143.6854  153.9661 C   0  0  0  0  0  0  0  0  0  0  0  0
  144.8372  143.9512  155.3740 C   0  0  0  0  0  0  0  0  0  0  0  0
  144.5800  142.6223  156.0961 C   0  0  0  0  0  0  0  0  0  0  0  0
  145.8452  141.7483  156.1056 C   0  0  0  0  0  0  0  0  0  0  0  0
  148.0525  132.0467  151.9263 H   0  0  0  0  0  0  0  0  0  0  0  0
  147.6318  133.3882  152.9897 H   0  0  0  0  0  0  0  0  0  0  0  0
  148.3224  133.7044  151.3900 H   0  0  0  0  0  0  0  0  0  0  0  0
  146.2137  130.9897  150.8727 H   0  0  0  0  0  0  0  0  0  0  0  0
  143.9134  131.0837  149.8966 H   0  0  0  0  0  0  0  0  0  0  0  0
  142.7200  133.2899  149.8644 H   0  0  0  0  0  0  0  0  0  0  0  0
  147.1452  135.4804  151.7646 H   0  0  0  0  0  0  0  0  0  0  0  0
  147.4675  137.2378  152.5893 H   0  0  0  0  0  0  0  0  0  0  0  0
  145.3819  139.2046  152.8676 H   0  0  0  0  0  0  0  0  0  0  0  0
  145.8505  138.5599  154.4166 H   0  0  0  0  0  0  0  0  0  0  0  0
  147.4358  140.2885  152.5059 H   0  0  0  0  0  0  0  0  0  0  0  0
  149.0689  139.0099  152.5968 H   0  0  0  0  0  0  0  0  0  0  0  0
  147.4733  139.9414  155.5660 H   0  0  0  0  0  0  0  0  0  0  0  0
  148.4234  141.0994  154.6742 H   0  0  0  0  0  0  0  0  0  0  0  0
  147.4517  143.2985  154.5187 H   0  0  0  0  0  0  0  0  0  0  0  0
  146.9599  142.5745  152.9993 H   0  0  0  0  0  0  0  0  0  0  0  0
  145.6292  144.6289  153.4766 H   0  0  0  0  0  0  0  0  0  0  0  0
  144.6158  143.2104  153.3568 H   0  0  0  0  0  0  0  0  0  0  0  0
  145.5517  144.5481  155.9425 H   0  0  0  0  0  0  0  0  0  0  0  0
  143.9178  144.5345  155.3173 H   0  0  0  0  0  0  0  0  0  0  0  0
  144.2496  142.8115  157.1178 H   0  0  0  0  0  0  0  0  0  0  0  0
  143.7682  142.0861  155.6025 H   0  0  0  0  0  0  0  0  0  0  0  0
  145.6181  140.8055  156.6016 H   0  0  0  0  0  0  0  0  0  0  0  0
  146.6277  142.2310  156.6936 H   0  0  0  0  0  0  0  0  0  0  0  0
  145.5857  141.0714  154.2105 H   0  0  0  0  0  0  0  0  0  0  0  0
  1  2  1  0  0  0  0
  1 22  1  0  0  0  0
  1 23  1  0  0  0  0
  1 24  1  0  0  0  0
  2  7  1  0  0  0  0
  2  3  2  0  0  0  0
  3  4  1  0  0  0  0
  3 25  1  0  0  0  0
  4  5  2  0  0  0  0
  4 26  1  0  0  0  0
  5  6  1  0  0  0  0
  5 27  1  0  0  0  0
  6  7  2  0  0  0  0
  7  8  1  0  0  0  0
  8  9  1  0  0  0  0
  8 28  1  0  0  0  0
  9 10  2  0  0  0  0
  9 11  1  0  0  0  0
 11 12  1  0  0  0  0
 11 29  1  0  0  0  0
 12 13  1  0  0  0  0
 12 30  1  0  0  0  0
 12 31  1  0  0  0  0
 13 14  1  0  0  0  0
 13 15  1  0  0  0  0
 13 32  1  0  0  0  0
 14 33  1  0  0  0  0
 15 16  1  0  0  0  0
 15 34  1  0  0  0  0
 15 35  1  0  0  0  0
 16 21  1  0  0  0  0
 16 17  1  0  0  0  0
 16 46  1  0  0  0  0
 17 18  1  0  0  0  0
 17 36  1  0  0  0  0
 17 37  1  0  0  0  0
 18 19  1  0  0  0  0
 18 38  1  0  0  0  0
 18 39  1  0  0  0  0
 19 20  1  0  0  0  0
 19 40  1  0  0  0  0
 19 41  1  0  0  0  0
 20 21  1  0  0  0  0
 20 42  1  0  0  0  0
 20 43  1  0  0  0  0
 21 44  1  0  0  0  0
 21 45  1  0  0  0  0
M  CHG  1  16   1
M  END
> <s_m_source_file>
AV-unprocessed.smi

> <i_m_source_file_index>
1229

> <i_lp_mmshare_version>
43012

> <i_f3d_flags>
0

> <s_epik_input>
W0NIM11jMVtjSF1bY0hdW2NIXW5jMVtOSF1DKD1PKVtOSF1bQ0gyXVtDQEhdKFtPSF0pW0NIMl1OMltDSDJdW0NIMl1bQ0gyXVtDSDJdW0NIMl0y

> <s_epik_cmdline>
J2VwaWtfcHl0aG9uJywgJy1waCcsICc3LjAnLCAnLXRuJywgJzgnLCAnLW1hJywgJzIwMCcsICctbWV0YWxfYmluZGluZycsICctaW1hZScsICc8aW5maWxlLm1hZT4nLCAnLW9tYWUnLCAnPG91dGZpbGUubWFlPic=

> <r_epik_Ionization_Penalty>
0.00511007

> <r_epik_Ionization_Penalty_Charging>
0.00506051

> <r_epik_Ionization_Penalty_Neutral>
4.95577e-05

> <r_epik_State_Penalty>
0.00368188

> <r_epik_Charging_Adjusted_Penalty>
0.0087424

> <i_epik_Tot_Q>
1

> <i_epik_Tot_abs_Q>
1

> <r_epik_Metal_State_Penalty>
-0

> <b_epik_Metal_Only>
0

> <s_lp_Force_Field>
OPLS_2005

> <r_lp_Energy>
20.9384

> <b_lp_Chiralities_Consistent>
1

> <s_lp_Variant>
AV-unprocessed.smi:1229-1

> <Gold.Version>
5.8.1

> <Gold.Id.Protein>
6NUR|6NUR_protein|mol2

> <Gold.PLP.Fitness>
46.2293

> <Gold.PLP.PLP>
-36.3550

> <Gold.PLP.part.hbond>
-3.8133

> <Gold.PLP.part.metal>
0.0000

> <Gold.PLP.part.buried>
-6.1526

> <Gold.PLP.part.nonpolar>
-27.6348

> <Gold.PLP.part.repulsive>
0.3896

> <Gold.PLP.ligand.clash>
0.0000

> <Gold.PLP.ligand.torsion>
1.0933

> <Gold.PLP.Chemscore.Hbond>
3.0000

> <Gold.PLP.Chemscore.CHOScore>
1.0000

> <Gold.PLP.Chemscore.Metal>
0.0000

> <Gold.Chemscore.Hbonds>
donor molecule, donor type, donor heavy atom, donor atom, acceptor molecule, acceptor atom, score
      L1  H     8    28       P1  7948  1.00
      L1  H    11    29       P1  7948  1.00
      L1  H    14    33       P1  7957  1.00
      L1  C     5    27       P1 10186  1.00

> <Gold.PLP.Chemscore.Internal.Correction>
0.0609

> <Gold.Rescore>
     Score         DG    S(hbond)    S(metal)    S(lipo)     H(rot)  DE(clash)    DE(int)     intcor
     16.67     -18.84       2.93        0.00      81.20       2.31       0.15       2.02       ----

> <Gold.Chemscore.Fitness>
16.6707

> <Gold.Chemscore.DG>
-18.8380

> <Gold.Chemscore.ZeroCoef>
-5.4800

> <Gold.Chemscore.Hbond>
2.9252

> <Gold.Chemscore.Metal>
0.0000

> <Gold.Chemscore.Lipo>
81.1979

> <Gold.Chemscore.Internal_Hbond>
0.0000

> <Gold.Chemscore.DEClash>
0.1464

> <Gold.Chemscore.DEInternal>
2.0209

> <Gold.Chemscore.Rot>
2.3095

> <Gold.Chemscore.Internal.Correction>
   9.000000E+99

> <Gold.Chemscore.Hbonds>
donor molecule, donor type, donor heavy atom, donor atom, acceptor molecule, acceptor atom, score
      L1  H     8    28       P1  7948  0.98
      L1  H    11    29       P1  7948  0.98
      L1  H    14    33       P1  7957  0.97

> <Gold.Chemscore.Hbond.Weighted>
-9.7703

> <Gold.Chemscore.Metal.Weighted>
-0.0000

> <Gold.Chemscore.Lipo.Weighted>
-9.5002

> <Gold.Chemscore.Internal_Hbond.Weighted>
0.0000

> <Gold.Chemscore.DEClash.Weighted>
0.1464

> <Gold.Chemscore.DEInternal.Weighted>
2.0209

> <Gold.Chemscore.Rot.Weighted>
5.9124

> <Gold.Chemscore.Internal.Correction.Weighted>
   9.000000E+99

> <Gold.Protein.RotatedTorsions>
[ 6907 6896 6895 6894 ] final  137.22 input  -60.11 | X-H torsion
[ 7974 7965 7964 7962 ] final   70.48 input  175.53 | X-H torsion
[ 8008 7997 7996 7995 ] final  123.31 input   59.86 | X-H torsion
[ 10167 10162 10161 10158 ] final  141.36 input  -65.29 | X-H torsion
[ 10718 10713 10712 10709 ] final   56.53 input   66.30 | X-H torsion
[ 10763 10752 10751 10750 ] final  -13.77 input  -60.55 | X-H torsion
[ 11005 11000 10999 10996 ] final  -43.27 input  -57.11 | X-H torsion

> <Gold.Protein.ActiveResidues>
 VAL166  LYS551  ARG553  GLY616  TRP617  ASP618  TYR619  PRO620  LYS621  CYS622 
 ASP623  PHE694  ASN695  SER759  ASP760  ASP761  ALA762  ILE779  LEU786  VAL792 
 PHE793  MET794  SER795  GLU796  ALA797  LYS798  CYS799  TRP800  GLU811  SER814 

> <Gold.Protein.RotatedAtoms>
  152.2806  133.5466  159.5494 H   0  0  0  0  0  0  0  0  0  0  0  0  # atno 6907 bound_to 6896
  150.7194  134.0570  159.3827 H   0  0  0  0  0  0  0  0  0  0  0  0  # atno 6908 bound_to 6896
  151.8481  135.0567  160.0506 H   0  0  0  0  0  0  0  0  0  0  0  0  # atno 6909 bound_to 6896
  145.7776  139.2872  143.1284 H   0  0  0  0  0  0  0  0  0  0  0  0  # atno 7974 bound_to 7965
  156.2761  140.2766  156.1607 H   0  0  0  0  0  0  0  0  0  0  0  0  # atno 8008 bound_to 7997
  155.0757  140.0387  157.2640 H   0  0  0  0  0  0  0  0  0  0  0  0  # atno 8009 bound_to 7997
  154.7005  140.2648  155.6730 H   0  0  0  0  0  0  0  0  0  0  0  0  # atno 8010 bound_to 7997
  139.5023  144.6176  151.6127 H   0  0  0  0  0  0  0  0  0  0  0  0  # atno 10167 bound_to 10162
  157.5438  130.8716  149.8861 H   0  0  0  0  0  0  0  0  0  0  0  0  # atno 10718 bound_to 10713
  153.5182  135.7016  153.5745 H   0  0  0  0  0  0  0  0  0  0  0  0  # atno 10763 bound_to 10752
  153.3805  135.3921  155.1853 H   0  0  0  0  0  0  0  0  0  0  0  0  # atno 10764 bound_to 10752
  154.8697  135.3834  154.4669 H   0  0  0  0  0  0  0  0  0  0  0  0  # atno 10765 bound_to 10752
  141.0372  133.6795  156.2709 H   0  0  0  0  0  0  0  0  0  0  0  0  # atno 11005 bound_to 11000
  146.0107  140.8438  142.9972 LP  0  0  0  0  0  0  0  0  0  0  0  0  # atno 17320 bound_to 7965
  144.6802  140.2485  143.7334 LP  0  0  0  0  0  0  0  0  0  0  0  0  # atno 17321 bound_to 7965
  140.5869  143.9849  150.6301 LP  0  0  0  0  0  0  0  0  0  0  0  0  # atno 17342 bound_to 10162
  140.3016  143.3257  152.0966 LP  0  0  0  0  0  0  0  0  0  0  0  0  # atno 17343 bound_to 10162
  156.0519  130.3716  150.1182 LP  0  0  0  0  0  0  0  0  0  0  0  0  # atno 17370 bound_to 10713
  156.9360  130.9729  151.3524 LP  0  0  0  0  0  0  0  0  0  0  0  0  # atno 17371 bound_to 10713
  140.6300  134.5274  157.5558 LP  0  0  0  0  0  0  0  0  0  0  0  0  # atno 17394 bound_to 11000
  139.9249  134.8075  156.1098 LP  0  0  0  0  0  0  0  0  0  0  0  0  # atno 17395 bound_to 11000

$$$$
