AV-unprocessed.smi:249|AV-procd|sdf|1928|dock7
  -GOLD-   2262021 43D 1   1.00000     0.00000
 Structure written by MMmdl.
 64 67  0  0  0  0  0  0  0  0  2 V2000
  143.3445  132.4910  149.6069 C   0  0  0  0  0  0  0  0  0  0  0  0
  144.0976  133.5509  150.4259 C   0  0  0  0  0  0  0  0  0  0  0  0
  145.5575  133.6066  150.1187 N   0  3  2  0  0  0  0  0  0  0  0  0
  146.1958  132.2713  149.9441 C   0  0  0  0  0  0  0  0  0  0  0  0
  146.3556  131.5304  151.2851 C   0  0  0  0  0  0  0  0  0  0  0  0
  147.1522  132.3847  152.2911 C   0  0  2  0  0  0  0  0  0  0  0  0
  147.3254  131.7129  153.5839 N   0  0  0  0  0  0  0  0  0  0  0  0
  146.7184  130.4018  153.8122 C   0  0  0  0  0  0  0  0  0  0  0  0
  148.5186  131.9381  154.1914 C   0  0  0  0  0  0  0  0  0  0  0  0
  149.3031  130.8855  154.5451 N   0  0  0  0  0  0  0  0  0  0  0  0
  150.4907  131.0939  155.1200 C   0  0  0  0  0  0  0  0  0  0  0  0
  151.0731  132.2526  155.4323 N   0  0  0  0  0  0  0  0  0  0  0  0
  150.2848  133.3140  155.0978 C   0  0  0  0  0  0  0  0  0  0  0  0
  149.0091  133.2453  154.4691 C   0  0  0  0  0  0  0  0  0  0  0  0
  148.5116  134.5264  154.2652 N   0  0  0  0  0  0  0  0  0  0  0  0
  149.4427  135.3075  154.7394 C   0  0  0  0  0  0  0  0  0  0  0  0
  150.5288  134.6647  155.2914 N   0  0  0  0  0  0  0  0  0  0  0  0
  151.7006  135.3018  155.8771 C   0  0  0  0  0  0  0  0  0  0  0  0
  151.6148  136.8503  156.0116 C   0  0  1  0  0  0  0  0  0  0  0  0
  152.5694  137.3048  157.1424 C   0  0  0  0  0  0  0  0  0  0  0  0
  152.1913  136.7460  158.3839 O   0  0  0  0  0  0  0  0  0  0  0  0
  151.9304  137.6384  154.7014 C   0  0  1  0  0  0  0  0  0  0  0  0
  151.3634  139.0469  154.5855 C   0  0  0  0  0  0  0  0  0  0  0  0
  152.3363  139.8844  155.4086 C   0  0  0  0  0  0  0  0  0  0  0  0
  153.5888  139.2186  155.2926 O   0  0  0  0  0  0  0  0  0  0  0  0
  153.4201  137.9980  154.5781 C   0  0  0  0  0  0  0  0  0  0  0  0
  146.5212  133.7846  152.4286 C   0  0  0  0  0  0  0  0  0  0  0  0
  146.3692  134.4538  151.0462 C   0  0  2  0  0  0  0  0  0  0  0  0
  145.8741  135.9079  151.1462 C   0  0  0  0  0  0  0  0  0  0  0  0
  142.2686  132.5957  149.7476 H   0  0  0  0  0  0  0  0  0  0  0  0
  143.6038  131.4765  149.9080 H   0  0  0  0  0  0  0  0  0  0  0  0
  143.5483  132.5945  148.5408 H   0  0  0  0  0  0  0  0  0  0  0  0
  143.6373  134.5076  150.1863 H   0  0  0  0  0  0  0  0  0  0  0  0
  143.9274  133.3892  151.4901 H   0  0  0  0  0  0  0  0  0  0  0  0
  145.6490  131.6575  149.2306 H   0  0  0  0  0  0  0  0  0  0  0  0
  147.1805  132.4190  149.4984 H   0  0  0  0  0  0  0  0  0  0  0  0
  145.3750  131.2762  151.6868 H   0  0  0  0  0  0  0  0  0  0  0  0
  146.8685  130.5829  151.1156 H   0  0  0  0  0  0  0  0  0  0  0  0
  148.1370  132.5395  151.8506 H   0  0  0  0  0  0  0  0  0  0  0  0
  146.8016  130.1165  154.8618 H   0  0  0  0  0  0  0  0  0  0  0  0
  147.2046  129.6330  153.2111 H   0  0  0  0  0  0  0  0  0  0  0  0
  145.6578  130.4076  153.5659 H   0  0  0  0  0  0  0  0  0  0  0  0
  151.0552  130.2065  155.3657 H   0  0  0  0  0  0  0  0  0  0  0  0
  149.3526  136.3840  154.7170 H   0  0  0  0  0  0  0  0  0  0  0  0
  151.8310  134.8401  156.8559 H   0  0  0  0  0  0  0  0  0  0  0  0
  152.5840  135.0257  155.3002 H   0  0  0  0  0  0  0  0  0  0  0  0
  150.6079  137.1256  156.3219 H   0  0  0  0  0  0  0  0  0  0  0  0
  153.5974  137.0192  156.9162 H   0  0  0  0  0  0  0  0  0  0  0  0
  152.5690  138.3857  157.2683 H   0  0  0  0  0  0  0  0  0  0  0  0
  151.6158  137.3525  158.8242 H   0  0  0  0  0  0  0  0  0  0  0  0
  151.6050  137.0410  153.8487 H   0  0  0  0  0  0  0  0  0  0  0  0
  151.4192  139.3655  153.5434 H   0  0  0  0  0  0  0  0  0  0  0  0
  150.3250  139.1625  154.8769 H   0  0  0  0  0  0  0  0  0  0  0  0
  152.3978  140.9138  155.0553 H   0  0  0  0  0  0  0  0  0  0  0  0
  152.0425  139.9018  156.4586 H   0  0  0  0  0  0  0  0  0  0  0  0
  154.1059  137.2385  154.9491 H   0  0  0  0  0  0  0  0  0  0  0  0
  153.6743  138.1781  153.5324 H   0  0  0  0  0  0  0  0  0  0  0  0
  145.5481  133.7310  152.9159 H   0  0  0  0  0  0  0  0  0  0  0  0
  147.1510  134.4027  153.0697 H   0  0  0  0  0  0  0  0  0  0  0  0
  147.3649  134.5130  150.6031 H   0  0  0  0  0  0  0  0  0  0  0  0
  146.6096  136.5277  151.6599 H   0  0  0  0  0  0  0  0  0  0  0  0
  144.9443  135.9902  151.7091 H   0  0  0  0  0  0  0  0  0  0  0  0
  145.7159  136.3417  150.1583 H   0  0  0  0  0  0  0  0  0  0  0  0
  145.6179  134.0594  149.2177 H   0  0  0  0  0  0  0  0  0  0  0  0
  1  2  1  0  0  0  0
  1 30  1  0  0  0  0
  1 31  1  0  0  0  0
  1 32  1  0  0  0  0
  2  3  1  0  0  0  0
  2 33  1  0  0  0  0
  2 34  1  0  0  0  0
  3 28  1  0  0  0  0
  3  4  1  0  0  0  0
  3 64  1  0  0  0  0
  4  5  1  0  0  0  0
  4 35  1  0  0  0  0
  4 36  1  0  0  0  0
  5  6  1  0  0  0  0
  5 37  1  0  0  0  0
  5 38  1  0  0  0  0
  6  7  1  0  0  0  0
  6 27  1  0  0  0  0
  6 39  1  0  0  0  0
  7  8  1  0  0  0  0
  7  9  1  0  0  0  0
  8 40  1  0  0  0  0
  8 41  1  0  0  0  0
  8 42  1  0  0  0  0
  9 14  1  0  0  0  0
  9 10  2  0  0  0  0
 10 11  1  0  0  0  0
 11 12  2  0  0  0  0
 11 43  1  0  0  0  0
 12 13  1  0  0  0  0
 13 17  1  0  0  0  0
 13 14  2  0  0  0  0
 14 15  1  0  0  0  0
 15 16  2  0  0  0  0
 16 17  1  0  0  0  0
 16 44  1  0  0  0  0
 17 18  1  0  0  0  0
 18 19  1  0  0  0  0
 18 45  1  0  0  0  0
 18 46  1  0  0  0  0
 19 20  1  0  0  0  0
 19 22  1  0  0  0  0
 19 47  1  0  0  0  0
 20 21  1  0  0  0  0
 20 48  1  0  0  0  0
 20 49  1  0  0  0  0
 21 50  1  0  0  0  0
 22 26  1  0  0  0  0
 22 23  1  0  0  0  0
 22 51  1  0  0  0  0
 23 24  1  0  0  0  0
 23 52  1  0  0  0  0
 23 53  1  0  0  0  0
 24 25  1  0  0  0  0
 24 54  1  0  0  0  0
 24 55  1  0  0  0  0
 25 26  1  0  0  0  0
 26 56  1  0  0  0  0
 26 57  1  0  0  0  0
 27 28  1  0  0  0  0
 27 58  1  0  0  0  0
 27 59  1  0  0  0  0
 28 29  1  0  0  0  0
 28 60  1  0  0  0  0
 29 61  1  0  0  0  0
 29 62  1  0  0  0  0
 29 63  1  0  0  0  0
M  CHG  1   3   1
M  END
> <s_m_source_file>
AV-unprocessed.smi

> <i_m_source_file_index>
249

> <i_lp_mmshare_version>
43012

> <i_f3d_flags>
0

> <s_epik_input>
W0NIM11bQ0gyXU4xW0NIMl1bQ0gyXVtDQEhdKFtDSDJdW0NASF0xW0NIM10pTihbQ0gzXSljKG5bY0hdbjIpYyhjMjMpbltjSF1uM1tDSDJdW0NASF0oW0NIMl1bT0hdKVtDQEBIXTRbQ0gyXVtDSDJdT1tDSDJdNA==

> <s_epik_cmdline>
J2VwaWtfcHl0aG9uJywgJy1waCcsICc3LjAnLCAnLXRuJywgJzgnLCAnLW1hJywgJzIwMCcsICctbWV0YWxfYmluZGluZycsICctaW1hZScsICc8aW5maWxlLm1hZT4nLCAnLW9tYWUnLCAnPG91dGZpbGUubWFlPic=

> <r_lp_tautomer_probability>
1

> <r_epik_Ionization_Penalty>
0.00294688

> <r_epik_Ionization_Penalty_Charging>
0.00169971

> <r_epik_Ionization_Penalty_Neutral>
0.00124717

> <r_epik_State_Penalty>
-0

> <r_epik_Charging_Adjusted_Penalty>
0.00169971

> <i_epik_Tot_Q>
1

> <i_epik_Tot_abs_Q>
1

> <r_epik_Metal_State_Penalty>
-0

> <b_epik_Metal_Only>
0

> <s_lp_Force_Field>
OPLS_2005

> <r_lp_Energy>
58.8032

> <b_lp_Chiralities_Consistent>
1

> <s_lp_Variant>
AV-unprocessed.smi:249-31

> <Gold.Version>
5.8.1

> <Gold.Id.Protein>
6NUR|6NUR_protein|mol2

> <Gold.PLP.Fitness>
52.1053

> <Gold.PLP.PLP>
-46.3379

> <Gold.PLP.part.hbond>
-3.0000

> <Gold.PLP.part.metal>
0.0000

> <Gold.PLP.part.buried>
-0.3893

> <Gold.PLP.part.nonpolar>
-43.6441

> <Gold.PLP.part.repulsive>
0.2935

> <Gold.PLP.ligand.clash>
0.0000

> <Gold.PLP.ligand.torsion>
1.9605

> <Gold.PLP.Chemscore.Hbond>
2.8580

> <Gold.PLP.Chemscore.CHOScore>
0.0000

> <Gold.PLP.Chemscore.Metal>
0.0000

> <Gold.Chemscore.Hbonds>
donor molecule, donor type, donor heavy atom, donor atom, acceptor molecule, acceptor atom, score
      L1  H     3    64       P1  7921  1.00
      P1  H  6896  6907       L1    21  0.07
      P1  H  7997  8008       L1    25  0.75
      L1  C    16    44       P1  7948  0.03

> <Gold.PLP.Chemscore.Internal.Correction>
1.1144

> <Gold.Rescore>
     Score         DG    S(hbond)    S(metal)    S(lipo)     H(rot)  DE(clash)    DE(int)     intcor
     14.04     -19.66       2.49        0.00     108.28       2.65       0.30       5.33       ----

> <Gold.Chemscore.Fitness>
14.0368

> <Gold.Chemscore.DG>
-19.6609

> <Gold.Chemscore.ZeroCoef>
-5.4800

> <Gold.Chemscore.Hbond>
2.4851

> <Gold.Chemscore.Metal>
0.0000

> <Gold.Chemscore.Lipo>
108.2792

> <Gold.Chemscore.Internal_Hbond>
0.0000

> <Gold.Chemscore.DEClash>
0.2961

> <Gold.Chemscore.DEInternal>
5.3279

> <Gold.Chemscore.Rot>
2.6515

> <Gold.Chemscore.Internal.Correction>
   9.000000E+99

> <Gold.Chemscore.Hbonds>
donor molecule, donor type, donor heavy atom, donor atom, acceptor molecule, acceptor atom, score
      L1  H     3    64       P1  7921  0.65
      P1  H  7997  8008       L1    25  0.25

> <Gold.Chemscore.Hbond.Weighted>
-8.3002

> <Gold.Chemscore.Metal.Weighted>
-0.0000

> <Gold.Chemscore.Lipo.Weighted>
-12.6687

> <Gold.Chemscore.Internal_Hbond.Weighted>
0.0000

> <Gold.Chemscore.DEClash.Weighted>
0.2961

> <Gold.Chemscore.DEInternal.Weighted>
5.3279

> <Gold.Chemscore.Rot.Weighted>
6.7880

> <Gold.Chemscore.Internal.Correction.Weighted>
   9.000000E+99

> <Gold.Protein.RotatedTorsions>
[ 6907 6896 6895 6894 ] final   -2.56 input  -60.11 | X-H torsion
[ 7974 7965 7964 7962 ] final   76.11 input  175.53 | X-H torsion
[ 8008 7997 7996 7995 ] final  -14.70 input   59.86 | X-H torsion
[ 10167 10162 10161 10158 ] final  119.89 input  -65.29 | X-H torsion
[ 10718 10713 10712 10709 ] final   91.33 input   66.30 | X-H torsion
[ 10763 10752 10751 10750 ] final  -56.95 input  -60.55 | X-H torsion
[ 11005 11000 10999 10996 ] final   19.35 input  -57.11 | X-H torsion

> <Gold.Protein.ActiveResidues>
 VAL166  LYS551  ARG553  GLY616  TRP617  ASP618  TYR619  PRO620  LYS621  CYS622 
 ASP623  PHE694  ASN695  SER759  ASP760  ASP761  ALA762  ILE779  LEU786  VAL792 
 PHE793  MET794  SER795  GLU796  ALA797  LYS798  CYS799  TRP800  GLU811  SER814 

> <Gold.Protein.RotatedAtoms>
  151.5279  135.1068  159.9894 H   0  0  0  0  0  0  0  0  0  0  0  0  # atno 6907 bound_to 6896
  152.4591  133.7781  159.6846 H   0  0  0  0  0  0  0  0  0  0  0  0  # atno 6908 bound_to 6896
  150.8546  133.7669  159.3038 H   0  0  0  0  0  0  0  0  0  0  0  0  # atno 6909 bound_to 6896
  145.7070  139.2602  143.1672 H   0  0  0  0  0  0  0  0  0  0  0  0  # atno 7974 bound_to 7965
  154.5189  140.2216  155.9013 H   0  0  0  0  0  0  0  0  0  0  0  0  # atno 8008 bound_to 7997
  156.1639  140.3136  155.8820 H   0  0  0  0  0  0  0  0  0  0  0  0  # atno 8009 bound_to 7997
  155.3695  140.0466  157.3036 H   0  0  0  0  0  0  0  0  0  0  0  0  # atno 8010 bound_to 7997
  139.6017  144.7058  151.3048 H   0  0  0  0  0  0  0  0  0  0  0  0  # atno 10167 bound_to 10162
  157.6960  131.0403  150.3713 H   0  0  0  0  0  0  0  0  0  0  0  0  # atno 10718 bound_to 10713
  154.2147  135.6388  153.5126 H   0  0  0  0  0  0  0  0  0  0  0  0  # atno 10763 bound_to 10752
  152.9982  135.5482  154.6178 H   0  0  0  0  0  0  0  0  0  0  0  0  # atno 10764 bound_to 10752
  154.5623  135.2910  155.0881 H   0  0  0  0  0  0  0  0  0  0  0  0  # atno 10765 bound_to 10752
  140.4146  134.1582  155.7669 H   0  0  0  0  0  0  0  0  0  0  0  0  # atno 11005 bound_to 11000
  146.0747  140.7831  142.9671 LP  0  0  0  0  0  0  0  0  0  0  0  0  # atno 17320 bound_to 7965
  144.6952  140.3396  143.7201 LP  0  0  0  0  0  0  0  0  0  0  0  0  # atno 17321 bound_to 7965
  140.7254  143.7018  150.7839 LP  0  0  0  0  0  0  0  0  0  0  0  0  # atno 17342 bound_to 10162
  140.0595  143.5169  152.2634 LP  0  0  0  0  0  0  0  0  0  0  0  0  # atno 17343 bound_to 10162
  156.4137  130.3939  149.6873 LP  0  0  0  0  0  0  0  0  0  0  0  0  # atno 17370 bound_to 10713
  156.4148  130.7740  151.2754 LP  0  0  0  0  0  0  0  0  0  0  0  0  # atno 17371 bound_to 10713
  141.1808  133.8418  157.1265 LP  0  0  0  0  0  0  0  0  0  0  0  0  # atno 17394 bound_to 11000
  140.0243  134.9931  157.0654 LP  0  0  0  0  0  0  0  0  0  0  0  0  # atno 17395 bound_to 11000

$$$$
