AV-unprocessed.smi:772|AV-procd|sdf|3687|dock8
  -GOLD-   22720 1103D 1   1.00000     0.00000
 Structure written by MMmdl.
 47 48  0  0  0  0  0  0  0  0  2 V2000
  157.1608  137.8173  153.3366 C   0  0  0  0  0  0  0  0  0  0  0  0
  158.1115  136.7802  152.7778 C   0  0  0  0  0  0  0  0  0  0  0  0
  159.0466  136.1003  153.5869 C   0  0  0  0  0  0  0  0  0  0  0  0
  159.9093  135.1547  152.9953 C   0  0  0  0  0  0  0  0  0  0  0  0
  159.8210  134.9084  151.6077 C   0  0  0  0  0  0  0  0  0  0  0  0
  160.7648  133.9242  150.9396 C   0  0  0  0  0  0  0  0  0  0  0  0
  160.3716  132.4499  151.1567 C   0  0  0  0  0  0  0  0  0  0  0  0
  160.1647  131.7365  149.8985 N   0  0  0  0  0  0  0  0  0  0  0  0
  160.8906  130.6956  149.4527 C   0  0  0  0  0  0  0  0  0  0  0  0
  161.8375  130.2351  150.0923 O   0  0  0  0  0  0  0  0  0  0  0  0
  160.5290  130.2344  148.2288 N   0  0  0  0  0  0  0  0  0  0  0  0
  159.1794  130.3004  147.6460 C   0  0  0  0  0  0  0  0  0  0  0  0
  158.4639  128.9640  147.8945 C   0  0  0  0  0  0  0  0  0  0  0  0
  159.3312  127.5984  147.0624 S   0  0  0  0  0  0  0  0  0  0  0  0
  161.0401  127.8976  147.6396 C   0  0  1  0  0  0  0  0  0  0  0  0
  162.0568  126.9184  147.0000 C   0  0  0  0  0  0  0  0  0  0  0  0
  162.2495  127.1183  145.4849 C   0  0  0  0  0  0  0  0  0  0  0  0
  161.7229  125.4516  147.3209 C   0  0  0  0  0  0  0  0  0  0  0  0
  161.4215  129.3810  147.4346 C   0  0  0  0  0  0  0  0  0  0  0  0
  158.8603  135.6129  150.8503 C   0  0  0  0  0  0  0  0  0  0  0  0
  158.0534  136.5120  151.4541 N   0  3  0  0  0  0  0  0  0  0  0  0
  157.2069  137.8462  154.4256 H   0  0  0  0  0  0  0  0  0  0  0  0
  156.1346  137.5911  153.0461 H   0  0  0  0  0  0  0  0  0  0  0  0
  157.4171  138.8070  152.9576 H   0  0  0  0  0  0  0  0  0  0  0  0
  159.1096  136.3032  154.6461 H   0  0  0  0  0  0  0  0  0  0  0  0
  160.6391  134.6344  153.5985 H   0  0  0  0  0  0  0  0  0  0  0  0
  160.7921  134.1404  149.8710 H   0  0  0  0  0  0  0  0  0  0  0  0
  161.7781  134.0926  151.3073 H   0  0  0  0  0  0  0  0  0  0  0  0
  161.1207  131.9434  151.7674 H   0  0  0  0  0  0  0  0  0  0  0  0
  159.4411  132.4038  151.7228 H   0  0  0  0  0  0  0  0  0  0  0  0
  159.4086  132.0625  149.3142 H   0  0  0  0  0  0  0  0  0  0  0  0
  158.5803  131.1215  148.0396 H   0  0  0  0  0  0  0  0  0  0  0  0
  159.2461  130.4924  146.5742 H   0  0  0  0  0  0  0  0  0  0  0  0
  158.4073  128.7535  148.9630 H   0  0  0  0  0  0  0  0  0  0  0  0
  157.4405  129.0049  147.5217 H   0  0  0  0  0  0  0  0  0  0  0  0
  161.0393  127.7073  148.7140 H   0  0  0  0  0  0  0  0  0  0  0  0
  163.0222  127.1170  147.4671 H   0  0  0  0  0  0  0  0  0  0  0  0
  161.3314  126.9256  144.9300 H   0  0  0  0  0  0  0  0  0  0  0  0
  163.0100  126.4391  145.0987 H   0  0  0  0  0  0  0  0  0  0  0  0
  162.5772  128.1301  145.2489 H   0  0  0  0  0  0  0  0  0  0  0  0
  160.7837  125.1413  146.8626 H   0  0  0  0  0  0  0  0  0  0  0  0
  161.6378  125.2924  148.3962 H   0  0  0  0  0  0  0  0  0  0  0  0
  162.5029  124.7841  146.9534 H   0  0  0  0  0  0  0  0  0  0  0  0
  161.3472  129.6566  146.3824 H   0  0  0  0  0  0  0  0  0  0  0  0
  162.4675  129.5425  147.6997 H   0  0  0  0  0  0  0  0  0  0  0  0
  158.7241  135.4978  149.7849 H   0  0  0  0  0  0  0  0  0  0  0  0
  157.3720  137.0147  150.8849 H   0  0  0  0  0  0  0  0  0  0  0  0
  1  2  1  0  0  0  0
  1 22  1  0  0  0  0
  1 23  1  0  0  0  0
  1 24  1  0  0  0  0
  2 21  1  0  0  0  0
  2  3  2  0  0  0  0
  3  4  1  0  0  0  0
  3 25  1  0  0  0  0
  4  5  2  0  0  0  0
  4 26  1  0  0  0  0
  5  6  1  0  0  0  0
  5 20  1  0  0  0  0
  6  7  1  0  0  0  0
  6 27  1  0  0  0  0
  6 28  1  0  0  0  0
  7  8  1  0  0  0  0
  7 29  1  0  0  0  0
  7 30  1  0  0  0  0
  8  9  1  0  0  0  0
  8 31  1  0  0  0  0
  9 10  2  0  0  0  0
  9 11  1  0  0  0  0
 11 19  1  0  0  0  0
 11 12  1  0  0  0  0
 12 13  1  0  0  0  0
 12 32  1  0  0  0  0
 12 33  1  0  0  0  0
 13 14  1  0  0  0  0
 13 34  1  0  0  0  0
 13 35  1  0  0  0  0
 14 15  1  0  0  0  0
 15 16  1  0  0  0  0
 15 19  1  0  0  0  0
 15 36  1  0  0  0  0
 16 17  1  0  0  0  0
 16 18  1  0  0  0  0
 16 37  1  0  0  0  0
 17 38  1  0  0  0  0
 17 39  1  0  0  0  0
 17 40  1  0  0  0  0
 18 41  1  0  0  0  0
 18 42  1  0  0  0  0
 18 43  1  0  0  0  0
 19 44  1  0  0  0  0
 19 45  1  0  0  0  0
 20 21  2  0  0  0  0
 20 46  1  0  0  0  0
 21 47  1  0  0  0  0
M  CHG  1  21   1
M  END
> <s_m_source_file>
AV-unprocessed.smi

> <i_m_source_file_index>
772

> <i_lp_mmshare_version>
43012

> <i_f3d_flags>
0

> <s_epik_input>
W0NIM11jMVtjSF1bY0hdYyhbY0hdbjEpW0NIMl1bQ0gyXVtOSF1DKD1PKU4yW0NIMl1bQ0gyXVNbQ0BIXShbQ0gyXTIpW0NIXShbQ0gzXSlbQ0gzXQ==

> <s_epik_cmdline>
J2VwaWtfcHl0aG9uJywgJy1waCcsICc3LjAnLCAnLXRuJywgJzgnLCAnLW1hJywgJzIwMCcsICctbWV0YWxfYmluZGluZycsICctaW1hZScsICc8aW5maWxlLm1hZT4nLCAnLW9tYWUnLCAnPG91dGZpbGUubWFlPic=

> <r_epik_Ionization_Penalty>
1.41908

> <r_epik_Ionization_Penalty_Charging>
1.41903

> <r_epik_Ionization_Penalty_Neutral>
4.72921e-05

> <r_epik_State_Penalty>
1.50265

> <r_epik_Charging_Adjusted_Penalty>
2.92168

> <i_epik_Tot_Q>
1

> <i_epik_Tot_abs_Q>
1

> <r_epik_Metal_State_Penalty>
1.55496

> <b_epik_Metal_Only>
0

> <s_lp_Force_Field>
OPLS_2005

> <r_lp_Energy>
32.521

> <b_lp_Chiralities_Consistent>
1

> <s_lp_Variant>
AV-unprocessed.smi:772-3

> <Gold.Version>
5.8.1

> <Gold.Id.Protein>
6NUR|6NUR_protein|mol2

> <Gold.PLP.Fitness>
41.7693

> <Gold.PLP.PLP>
-40.4813

> <Gold.PLP.part.hbond>
-1.0000

> <Gold.PLP.part.metal>
0.0000

> <Gold.PLP.part.buried>
-3.7567

> <Gold.PLP.part.nonpolar>
-35.5238

> <Gold.PLP.part.repulsive>
0.1021

> <Gold.PLP.ligand.clash>
0.0000

> <Gold.PLP.ligand.torsion>
0.8667

> <Gold.PLP.Chemscore.Hbond>
0.9760

> <Gold.PLP.Chemscore.CHOScore>
0.0000

> <Gold.PLP.Chemscore.Metal>
0.0000

> <Gold.Chemscore.Hbonds>
donor molecule, donor type, donor heavy atom, donor atom, acceptor molecule, acceptor atom, score
      L1  H    21    47       P1 10674  0.73

> <Gold.PLP.Chemscore.Internal.Correction>
0.0934

> <Gold.Rescore>
     Score         DG    S(hbond)    S(metal)    S(lipo)     H(rot)  DE(clash)    DE(int)     intcor
     18.25     -20.56       0.98        0.00     131.50       1.39       1.64       0.67       ----

> <Gold.Chemscore.Fitness>
18.2543

> <Gold.Chemscore.DG>
-20.5612

> <Gold.Chemscore.ZeroCoef>
-5.4800

> <Gold.Chemscore.Hbond>
0.9780

> <Gold.Chemscore.Metal>
0.0000

> <Gold.Chemscore.Lipo>
131.4994

> <Gold.Chemscore.Internal_Hbond>
0.0000

> <Gold.Chemscore.DEClash>
1.6358

> <Gold.Chemscore.DEInternal>
0.6711

> <Gold.Chemscore.Rot>
1.3949

> <Gold.Chemscore.Internal.Correction>
   9.000000E+99

> <Gold.Chemscore.Hbonds>
donor molecule, donor type, donor heavy atom, donor atom, acceptor molecule, acceptor atom, score
      L1  H    21    47       P1 10674  0.71

> <Gold.Chemscore.Hbond.Weighted>
-3.2667

> <Gold.Chemscore.Metal.Weighted>
-0.0000

> <Gold.Chemscore.Lipo.Weighted>
-15.3854

> <Gold.Chemscore.Internal_Hbond.Weighted>
0.0000

> <Gold.Chemscore.DEClash.Weighted>
1.6358

> <Gold.Chemscore.DEInternal.Weighted>
0.6711

> <Gold.Chemscore.Rot.Weighted>
3.5709

> <Gold.Chemscore.Internal.Correction.Weighted>
   9.000000E+99

> <Gold.Protein.RotatedTorsions>
[ 6907 6896 6895 6894 ] final -155.62 input  -60.11 | X-H torsion
[ 7974 7965 7964 7962 ] final  126.73 input  175.53 | X-H torsion
[ 8008 7997 7996 7995 ] final   86.17 input   59.86 | X-H torsion
[ 10167 10162 10161 10158 ] final   36.61 input  -65.29 | X-H torsion
[ 10718 10713 10712 10709 ] final  -17.12 input   66.30 | X-H torsion
[ 10763 10752 10751 10750 ] final -109.55 input  -60.55 | X-H torsion
[ 11005 11000 10999 10996 ] final  -77.98 input  -57.11 | X-H torsion

> <Gold.Protein.ActiveResidues>
 VAL166  LYS551  ARG553  GLY616  TRP617  ASP618  TYR619  PRO620  LYS621  CYS622 
 ASP623  PHE694  ASN695  SER759  ASP760  ASP761  ALA762  ILE779  LEU786  VAL792 
 PHE793  MET794  SER795  GLU796  ALA797  LYS798  CYS799  TRP800  GLU811  SER814 

> <Gold.Protein.RotatedAtoms>
  151.2753  133.4235  159.2623 H   0  0  0  0  0  0  0  0  0  0  0  0  # atno 6907 bound_to 6896
  151.0409  134.9606  159.8171 H   0  0  0  0  0  0  0  0  0  0  0  0  # atno 6908 bound_to 6896
  152.5365  134.2711  159.9024 H   0  0  0  0  0  0  0  0  0  0  0  0  # atno 6909 bound_to 6896
  145.0584  139.3825  143.5018 H   0  0  0  0  0  0  0  0  0  0  0  0  # atno 7974 bound_to 7965
  155.9594  140.3394  155.6477 H   0  0  0  0  0  0  0  0  0  0  0  0  # atno 8008 bound_to 7997
  155.6817  140.0738  157.2500 H   0  0  0  0  0  0  0  0  0  0  0  0  # atno 8009 bound_to 7997
  154.4140  140.1673  156.1977 H   0  0  0  0  0  0  0  0  0  0  0  0  # atno 8010 bound_to 7997
  140.4112  144.1590  150.6139 H   0  0  0  0  0  0  0  0  0  0  0  0  # atno 10167 bound_to 10162
  156.5780  130.4766  149.6333 H   0  0  0  0  0  0  0  0  0  0  0  0  # atno 10718 bound_to 10713
  154.8199  135.4597  154.0750 H   0  0  0  0  0  0  0  0  0  0  0  0  # atno 10763 bound_to 10752
  153.2112  135.6882  153.8119 H   0  0  0  0  0  0  0  0  0  0  0  0  # atno 10764 bound_to 10752
  153.7569  135.3290  155.3307 H   0  0  0  0  0  0  0  0  0  0  0  0  # atno 10765 bound_to 10752
  141.1663  133.7044  156.7902 H   0  0  0  0  0  0  0  0  0  0  0  0  # atno 11005 bound_to 11000
  146.3523  140.0270  142.8653 LP  0  0  0  0  0  0  0  0  0  0  0  0  # atno 17320 bound_to 7965
  145.1439  140.9586  143.4472 LP  0  0  0  0  0  0  0  0  0  0  0  0  # atno 17321 bound_to 7965
  140.4636  143.2439  151.9186 LP  0  0  0  0  0  0  0  0  0  0  0  0  # atno 17342 bound_to 10162
  139.4782  144.5442  151.8483 LP  0  0  0  0  0  0  0  0  0  0  0  0  # atno 17343 bound_to 10162
  156.2656  130.6988  151.1770 LP  0  0  0  0  0  0  0  0  0  0  0  0  # atno 17370 bound_to 10713
  157.7333  131.0592  150.5583 LP  0  0  0  0  0  0  0  0  0  0  0  0  # atno 17371 bound_to 10713
  140.2331  134.8671  157.3497 LP  0  0  0  0  0  0  0  0  0  0  0  0  # atno 17394 bound_to 11000
  140.1871  134.4417  155.7737 LP  0  0  0  0  0  0  0  0  0  0  0  0  # atno 17395 bound_to 11000

$$$$
