AV-unprocessed.smi:1920|AV-procd|sdf|7784|dock9
  -GOLD-   22720 9533D 1   1.00000     0.00000
 Structure written by MMmdl.
 36 37  0  0  0  0  0  0  0  0  1 V2000
  146.7835  141.9987  154.5156 C   0  0  0  0  0  0  0  0  0  0  0  0
  147.9906  141.3086  155.1650 C   0  0  1  0  0  0  0  0  0  0  0  0
  149.0384  140.8962  154.1110 C   0  0  0  0  0  0  0  0  0  0  0  0
  149.9383  139.8618  154.5889 N   0  0  0  0  0  0  0  0  0  0  0  0
  150.1068  138.5873  154.0639 C   0  0  0  0  0  0  0  0  0  0  0  0
  151.0613  137.9667  154.8375 C   0  0  0  0  0  0  0  0  0  0  0  0
  151.4979  138.8378  155.8329 N   0  0  0  0  0  0  0  0  0  0  0  0
  150.7894  139.9394  155.6213 C   0  0  0  0  0  0  0  0  0  0  0  0
  148.5838  142.2111  156.1509 N   0  0  0  0  0  0  0  0  0  0  0  0
  148.6954  141.9736  157.4676 C   0  0  0  0  0  0  0  0  0  0  0  0
  148.2680  140.9558  158.0130 O   0  0  0  0  0  0  0  0  0  0  0  0
  149.4085  143.0529  158.2907 C   0  0  0  0  0  0  0  0  0  0  0  0
  150.8904  143.2636  157.9059 C   0  0  1  0  0  0  0  0  0  0  0  0
  151.3454  144.6993  158.0119 C   0  0  0  0  0  0  0  0  0  0  0  0
  152.4052  144.8485  158.8023 C   0  0  0  0  0  0  0  0  0  0  0  0
  152.8759  143.5457  159.3859 C   0  0  0  0  0  0  0  0  0  0  0  0
  151.8720  142.5064  158.8375 C   0  0  0  0  0  0  0  0  0  0  0  0
  146.3013  141.3431  153.7900 H   0  0  0  0  0  0  0  0  0  0  0  0
  147.0780  142.9109  153.9953 H   0  0  0  0  0  0  0  0  0  0  0  0
  146.0357  142.2673  155.2628 H   0  0  0  0  0  0  0  0  0  0  0  0
  147.6191  140.4064  155.6543 H   0  0  0  0  0  0  0  0  0  0  0  0
  148.5418  140.5178  153.2166 H   0  0  0  0  0  0  0  0  0  0  0  0
  149.6276  141.7601  153.7987 H   0  0  0  0  0  0  0  0  0  0  0  0
  149.5454  138.2355  153.2108 H   0  0  0  0  0  0  0  0  0  0  0  0
  151.4656  136.9687  154.7538 H   0  0  0  0  0  0  0  0  0  0  0  0
  150.8896  140.8225  156.2355 H   0  0  0  0  0  0  0  0  0  0  0  0
  148.9629  143.0780  155.7984 H   0  0  0  0  0  0  0  0  0  0  0  0
  148.8696  143.9962  158.1866 H   0  0  0  0  0  0  0  0  0  0  0  0
  149.3401  142.7739  159.3426 H   0  0  0  0  0  0  0  0  0  0  0  0
  151.0522  142.9420  156.8759 H   0  0  0  0  0  0  0  0  0  0  0  0
  150.8560  145.4999  157.4777 H   0  0  0  0  0  0  0  0  0  0  0  0
  152.8992  145.7862  159.0107 H   0  0  0  0  0  0  0  0  0  0  0  0
  153.8950  143.3350  159.0596 H   0  0  0  0  0  0  0  0  0  0  0  0
  152.8598  143.5892  160.4753 H   0  0  0  0  0  0  0  0  0  0  0  0
  151.3452  142.0262  159.6631 H   0  0  0  0  0  0  0  0  0  0  0  0
  152.3905  141.7168  158.2925 H   0  0  0  0  0  0  0  0  0  0  0  0
  1  2  1  0  0  0  0
  1 18  1  0  0  0  0
  1 19  1  0  0  0  0
  1 20  1  0  0  0  0
  2  3  1  0  0  0  0
  2  9  1  0  0  0  0
  2 21  1  0  0  0  0
  3  4  1  0  0  0  0
  3 22  1  0  0  0  0
  3 23  1  0  0  0  0
  4  8  1  0  0  0  0
  4  5  1  0  0  0  0
  5  6  2  0  0  0  0
  5 24  1  0  0  0  0
  6  7  1  0  0  0  0
  6 25  1  0  0  0  0
  7  8  2  0  0  0  0
  8 26  1  0  0  0  0
  9 10  1  0  0  0  0
  9 27  1  0  0  0  0
 10 11  2  0  0  0  0
 10 12  1  0  0  0  0
 12 13  1  0  0  0  0
 12 28  1  0  0  0  0
 12 29  1  0  0  0  0
 13 17  1  0  0  0  0
 13 14  1  0  0  0  0
 13 30  1  0  0  0  0
 14 15  2  0  0  0  0
 14 31  1  0  0  0  0
 15 16  1  0  0  0  0
 15 32  1  0  0  0  0
 16 17  1  0  0  0  0
 16 33  1  0  0  0  0
 16 34  1  0  0  0  0
 17 35  1  0  0  0  0
 17 36  1  0  0  0  0
M  END
> <s_m_source_file>
AV-unprocessed.smi

> <i_m_source_file_index>
1920

> <i_lp_mmshare_version>
43012

> <i_f3d_flags>
0

> <s_epik_input>
W2NIXTFuW2NIXVtjSF1uMVtDSDJdW0NAQEhdKFtDSDNdKVtOSF1DKD1PKVtDSDJdW0NAQEhdMltDSF09W0NIXVtDSDJdW0NIMl0y

> <s_epik_cmdline>
J2VwaWtfcHl0aG9uJywgJy1waCcsICc3LjAnLCAnLXRuJywgJzgnLCAnLW1hJywgJzIwMCcsICctbWV0YWxfYmluZGluZycsICctaW1hZScsICc8aW5maWxlLm1hZT4nLCAnLW9tYWUnLCAnPG91dGZpbGUubWFlPic=

> <r_lp_tautomer_probability>
1

> <r_epik_Ionization_Penalty>
0.635367

> <r_epik_Ionization_Penalty_Charging>
0.635367

> <r_epik_Ionization_Penalty_Neutral>
2.1249e-08

> <r_epik_State_Penalty>
0.65258

> <r_epik_Charging_Adjusted_Penalty>
1.28795

> <i_epik_Tot_Q>
0

> <i_epik_Tot_abs_Q>
0

> <r_epik_Metal_State_Penalty>
0.310403

> <b_epik_Metal_Only>
0

> <s_lp_Force_Field>
OPLS_2005

> <r_lp_Energy>
18.2419

> <b_lp_Chiralities_Consistent>
1

> <s_lp_Variant>
AV-unprocessed.smi:1920-8

> <Gold.Version>
5.8.1

> <Gold.Id.Protein>
6NUR|6NUR_protein|mol2

> <Gold.PLP.Fitness>
45.8281

> <Gold.PLP.PLP>
-39.0348

> <Gold.PLP.part.hbond>
-1.3465

> <Gold.PLP.part.metal>
0.0000

> <Gold.PLP.part.buried>
-0.1474

> <Gold.PLP.part.nonpolar>
-36.3266

> <Gold.PLP.part.repulsive>
0.0727

> <Gold.PLP.ligand.clash>
0.0000

> <Gold.PLP.ligand.torsion>
0.6939

> <Gold.PLP.Chemscore.Hbond>
1.0000

> <Gold.PLP.Chemscore.CHOScore>
1.7177

> <Gold.PLP.Chemscore.Metal>
0.0000

> <Gold.Chemscore.Hbonds>
donor molecule, donor type, donor heavy atom, donor atom, acceptor molecule, acceptor atom, score
      L1  H     9    27       P1  8028  0.99
      L1  C     5    24       P1  7948  1.00
      L1  C     5    24       P1  7957  0.34

> <Gold.PLP.Chemscore.Internal.Correction>
0.0283

> <Gold.Rescore>
     Score         DG    S(hbond)    S(metal)    S(lipo)     H(rot)  DE(clash)    DE(int)     intcor
     14.81     -15.66       0.94        0.00     102.33       1.93       0.04       0.81       ----

> <Gold.Chemscore.Fitness>
14.8066

> <Gold.Chemscore.DG>
-15.6638

> <Gold.Chemscore.ZeroCoef>
-5.4800

> <Gold.Chemscore.Hbond>
0.9443

> <Gold.Chemscore.Metal>
0.0000

> <Gold.Chemscore.Lipo>
102.3270

> <Gold.Chemscore.Internal_Hbond>
0.0000

> <Gold.Chemscore.DEClash>
0.0431

> <Gold.Chemscore.DEInternal>
0.8142

> <Gold.Chemscore.Rot>
1.9306

> <Gold.Chemscore.Internal.Correction>
   9.000000E+99

> <Gold.Chemscore.Hbonds>
donor molecule, donor type, donor heavy atom, donor atom, acceptor molecule, acceptor atom, score
      L1  H     9    27       P1  8028  0.94

> <Gold.Chemscore.Hbond.Weighted>
-3.1540

> <Gold.Chemscore.Metal.Weighted>
-0.0000

> <Gold.Chemscore.Lipo.Weighted>
-11.9723

> <Gold.Chemscore.Internal_Hbond.Weighted>
0.0000

> <Gold.Chemscore.DEClash.Weighted>
0.0431

> <Gold.Chemscore.DEInternal.Weighted>
0.8142

> <Gold.Chemscore.Rot.Weighted>
4.9424

> <Gold.Chemscore.Internal.Correction.Weighted>
   9.000000E+99

> <Gold.Protein.RotatedTorsions>
[ 6907 6896 6895 6894 ] final  -86.13 input  -60.11 | X-H torsion
[ 7974 7965 7964 7962 ] final    3.39 input  175.53 | X-H torsion
[ 8008 7997 7996 7995 ] final   52.11 input   59.86 | X-H torsion
[ 10167 10162 10161 10158 ] final   76.50 input  -65.29 | X-H torsion
[ 10718 10713 10712 10709 ] final   70.40 input   66.30 | X-H torsion
[ 10763 10752 10751 10750 ] final  150.03 input  -60.55 | X-H torsion
[ 11005 11000 10999 10996 ] final  -11.53 input  -57.11 | X-H torsion

> <Gold.Protein.ActiveResidues>
 VAL166  LYS551  ARG553  GLY616  TRP617  ASP618  TYR619  PRO620  LYS621  CYS622 
 ASP623  PHE694  ASN695  SER759  ASP760  ASP761  ALA762  ILE779  LEU786  VAL792 
 PHE793  MET794  SER795  GLU796  ALA797  LYS798  CYS799  TRP800  GLU811  SER814 

> <Gold.Protein.RotatedAtoms>
  150.6868  134.3098  159.4741 H   0  0  0  0  0  0  0  0  0  0  0  0  # atno 6907 bound_to 6896
  152.0985  134.9355  160.0579 H   0  0  0  0  0  0  0  0  0  0  0  0  # atno 6908 bound_to 6896
  152.0643  133.4042  159.4468 H   0  0  0  0  0  0  0  0  0  0  0  0  # atno 6909 bound_to 6896
  146.2445  140.0693  142.8363 H   0  0  0  0  0  0  0  0  0  0  0  0  # atno 7974 bound_to 7965
  155.4465  140.3456  155.4296 H   0  0  0  0  0  0  0  0  0  0  0  0  # atno 8008 bound_to 7997
  156.1247  140.1497  156.9184 H   0  0  0  0  0  0  0  0  0  0  0  0  # atno 8009 bound_to 7997
  154.4849  140.0858  156.7443 H   0  0  0  0  0  0  0  0  0  0  0  0  # atno 8010 bound_to 7997
  139.9915  144.5753  150.7813 H   0  0  0  0  0  0  0  0  0  0  0  0  # atno 10167 bound_to 10162
  157.6398  130.9475  150.0645 H   0  0  0  0  0  0  0  0  0  0  0  0  # atno 10718 bound_to 10713
  154.0809  135.2859  155.3290 H   0  0  0  0  0  0  0  0  0  0  0  0  # atno 10763 bound_to 10752
  154.6685  135.5308  153.8110 H   0  0  0  0  0  0  0  0  0  0  0  0  # atno 10764 bound_to 10752
  153.0449  135.6551  154.0984 H   0  0  0  0  0  0  0  0  0  0  0  0  # atno 10765 bound_to 10752
  140.7562  133.8552  155.9086 H   0  0  0  0  0  0  0  0  0  0  0  0  # atno 11005 bound_to 11000
  145.0830  140.9234  143.4814 LP  0  0  0  0  0  0  0  0  0  0  0  0  # atno 17320 bound_to 7965
  145.0850  139.2932  143.5764 LP  0  0  0  0  0  0  0  0  0  0  0  0  # atno 17321 bound_to 7965
  140.7453  143.2873  151.3428 LP  0  0  0  0  0  0  0  0  0  0  0  0  # atno 17342 bound_to 10162
  139.6336  144.0673  152.2497 LP  0  0  0  0  0  0  0  0  0  0  0  0  # atno 17343 bound_to 10162
  156.1668  130.3645  149.9221 LP  0  0  0  0  0  0  0  0  0  0  0  0  # atno 17370 bound_to 10713
  156.7206  130.9005  151.3618 LP  0  0  0  0  0  0  0  0  0  0  0  0  # atno 17371 bound_to 10713
  140.9705  134.1537  157.4580 LP  0  0  0  0  0  0  0  0  0  0  0  0  # atno 17394 bound_to 11000
  139.8778  134.9977  156.5859 LP  0  0  0  0  0  0  0  0  0  0  0  0  # atno 17395 bound_to 11000

$$$$
