AV-unprocessed.smi:3054|AV-procd|sdf|11640|dock9
  -GOLD-   2272017 33D 1   1.00000     0.00000
 Structure written by MMmdl.
 40 41  0  0  0  0  0  0  0  0  2 V2000
  145.3031  136.9598  155.1686 C   0  0  0  0  0  0  0  0  0  0  0  0
  146.1917  136.0574  154.3009 C   0  0  0  0  0  0  0  0  0  0  0  0
  145.5854  135.7431  152.9084 C   0  0  1  0  0  0  0  0  0  0  0  0
  145.3230  137.0234  152.0811 C   0  0  0  0  0  0  0  0  0  0  0  0
  144.1065  137.7191  152.4968 N   0  0  0  0  0  0  0  0  0  0  0  0
  142.9682  137.1326  152.8937 C   0  0  0  0  0  0  0  0  0  0  0  0
  142.8276  135.9135  152.9815 O   0  0  0  0  0  0  0  0  0  0  0  0
  142.0258  138.0424  153.1879 N   0  0  0  0  0  0  0  0  0  0  0  0
  140.7054  137.7923  153.6380 C   0  0  0  0  0  0  0  0  0  0  0  0
  140.2364  136.8079  154.5570 C   0  0  0  0  0  0  0  0  0  0  0  0
  138.9239  136.8917  154.7204 N   0  0  0  0  0  0  0  0  0  0  0  0
  138.5512  137.9129  153.9168 N   0  0  0  0  0  0  0  0  0  0  0  0
  139.6036  138.4888  153.2399 C   0  0  0  0  0  0  0  0  0  0  0  0
  146.3850  134.7528  152.1293 N   0  3  0  0  0  0  0  0  0  0  0  0
  146.8021  133.5150  152.8361 C   0  0  0  0  0  0  0  0  0  0  0  0
  146.2613  132.3460  152.0112 C   0  0  0  0  0  0  0  0  0  0  0  0
  146.2126  132.9096  150.5967 C   0  0  0  0  0  0  0  0  0  0  0  0
  145.8028  134.3642  150.8222 C   0  0  0  0  0  0  0  0  0  0  0  0
  137.5857  138.2007  153.8414 H   0  0  0  0  0  0  0  0  0  0  0  0
  145.7403  137.0934  156.1582 H   0  0  0  0  0  0  0  0  0  0  0  0
  144.3115  136.5269  155.3024 H   0  0  0  0  0  0  0  0  0  0  0  0
  145.1821  137.9506  154.7313 H   0  0  0  0  0  0  0  0  0  0  0  0
  147.1686  136.5292  154.1964 H   0  0  0  0  0  0  0  0  0  0  0  0
  146.3647  135.1350  154.8546 H   0  0  0  0  0  0  0  0  0  0  0  0
  144.6133  135.2740  153.0716 H   0  0  0  0  0  0  0  0  0  0  0  0
  146.1447  137.7271  152.2078 H   0  0  0  0  0  0  0  0  0  0  0  0
  145.2923  136.7907  151.0153 H   0  0  0  0  0  0  0  0  0  0  0  0
  144.1265  138.7278  152.4545 H   0  0  0  0  0  0  0  0  0  0  0  0
  142.2758  139.0142  153.0767 H   0  0  0  0  0  0  0  0  0  0  0  0
  140.7813  136.0511  155.1013 H   0  0  0  0  0  0  0  0  0  0  0  0
  139.4779  139.3165  152.5572 H   0  0  0  0  0  0  0  0  0  0  0  0
  147.8919  133.4853  152.8296 H   0  0  0  0  0  0  0  0  0  0  0  0
  146.4938  133.4643  153.8793 H   0  0  0  0  0  0  0  0  0  0  0  0
  146.8778  131.4501  152.0912 H   0  0  0  0  0  0  0  0  0  0  0  0
  145.2534  132.0923  152.3430 H   0  0  0  0  0  0  0  0  0  0  0  0
  147.2056  132.8664  150.1468 H   0  0  0  0  0  0  0  0  0  0  0  0
  145.5231  132.3700  149.9467 H   0  0  0  0  0  0  0  0  0  0  0  0
  144.7150  134.4322  150.8457 H   0  0  0  0  0  0  0  0  0  0  0  0
  146.1538  135.0211  150.0258 H   0  0  0  0  0  0  0  0  0  0  0  0
  147.2484  135.2262  151.9032 H   0  0  0  0  0  0  0  0  0  0  0  0
  1  2  1  0  0  0  0
  1 20  1  0  0  0  0
  1 21  1  0  0  0  0
  1 22  1  0  0  0  0
  2  3  1  0  0  0  0
  2 23  1  0  0  0  0
  2 24  1  0  0  0  0
  3  4  1  0  0  0  0
  3 14  1  0  0  0  0
  3 25  1  0  0  0  0
  4  5  1  0  0  0  0
  4 26  1  0  0  0  0
  4 27  1  0  0  0  0
  5  6  1  0  0  0  0
  5 28  1  0  0  0  0
  6  7  2  0  0  0  0
  6  8  1  0  0  0  0
  8  9  1  0  0  0  0
  8 29  1  0  0  0  0
  9 13  2  0  0  0  0
  9 10  1  0  0  0  0
 10 11  2  0  0  0  0
 10 30  1  0  0  0  0
 11 12  1  0  0  0  0
 12 19  1  0  0  0  0
 12 13  1  0  0  0  0
 13 31  1  0  0  0  0
 14 18  1  0  0  0  0
 14 15  1  0  0  0  0
 14 40  1  0  0  0  0
 15 16  1  0  0  0  0
 15 32  1  0  0  0  0
 15 33  1  0  0  0  0
 16 17  1  0  0  0  0
 16 34  1  0  0  0  0
 16 35  1  0  0  0  0
 17 18  1  0  0  0  0
 17 36  1  0  0  0  0
 17 37  1  0  0  0  0
 18 38  1  0  0  0  0
 18 39  1  0  0  0  0
M  CHG  1  14   1
M  END
> <s_m_source_file>
AV-unprocessed.smi

> <i_m_source_file_index>
3054

> <i_lp_mmshare_version>
43012

> <i_f3d_flags>
0

> <s_epik_input>
W0NIMl0xW0NIMl1bQ0gyXVtDSDJdTjFbQ0BIXShbQ0gyXVtDSDNdKVtDSDJdW05IXUMoPU8pW05IXWMyW2NIXW5bbkhdW2NIXTI=

> <s_epik_cmdline>
J2VwaWtfcHl0aG9uJywgJy1waCcsICc3LjAnLCAnLXRuJywgJzgnLCAnLW1hJywgJzIwMCcsICctbWV0YWxfYmluZGluZycsICctaW1hZScsICc8aW5maWxlLm1hZT4nLCAnLW9tYWUnLCAnPG91dGZpbGUubWFlPic=

> <r_lp_tautomer_probability>
0.5

> <r_epik_Ionization_Penalty>
0.00108132

> <r_epik_Ionization_Penalty_Charging>
0.00104139

> <r_epik_Ionization_Penalty_Neutral>
3.99244e-05

> <r_epik_State_Penalty>
0.00068071

> <r_epik_Charging_Adjusted_Penalty>
0.0017221

> <i_epik_Tot_Q>
1

> <i_epik_Tot_abs_Q>
1

> <r_epik_Metal_State_Penalty>
-0

> <b_epik_Metal_Only>
0

> <s_lp_Force_Field>
OPLS_2005

> <r_lp_Energy>
40.663

> <b_lp_Chiralities_Consistent>
1

> <s_lp_Variant>
AV-unprocessed.smi:3054-2

> <Gold.Version>
5.8.1

> <Gold.Id.Protein>
6NUR|6NUR_protein|mol2

> <Gold.PLP.Fitness>
43.2029

> <Gold.PLP.PLP>
-26.6510

> <Gold.PLP.part.hbond>
-4.0000

> <Gold.PLP.part.metal>
0.0000

> <Gold.PLP.part.buried>
-4.5986

> <Gold.PLP.part.nonpolar>
-19.2947

> <Gold.PLP.part.repulsive>
0.3217

> <Gold.PLP.ligand.clash>
0.0000

> <Gold.PLP.ligand.torsion>
0.7557

> <Gold.PLP.Chemscore.Hbond>
3.9920

> <Gold.PLP.Chemscore.CHOScore>
1.9892

> <Gold.PLP.Chemscore.Metal>
0.0000

> <Gold.Chemscore.Hbonds>
donor molecule, donor type, donor heavy atom, donor atom, acceptor molecule, acceptor atom, score
      L1  H     5    28       P1 10175  1.00
      L1  H     8    29       P1 10175  0.99
      L1  H    14    40       P1  7948  2.00
      L1  C    10    30       P1 11000  1.00
      L1  C    13    31       P1 10160  1.00

> <Gold.PLP.Chemscore.Internal.Correction>
0.1197

> <Gold.Rescore>
     Score         DG    S(hbond)    S(metal)    S(lipo)     H(rot)  DE(clash)    DE(int)     intcor
     14.66     -17.05       2.90        0.00      55.74       1.81       0.12       2.27       ----

> <Gold.Chemscore.Fitness>
14.6567

> <Gold.Chemscore.DG>
-17.0487

> <Gold.Chemscore.ZeroCoef>
-5.4800

> <Gold.Chemscore.Hbond>
2.8979

> <Gold.Chemscore.Metal>
0.0000

> <Gold.Chemscore.Lipo>
55.7413

> <Gold.Chemscore.Internal_Hbond>
0.0000

> <Gold.Chemscore.DEClash>
0.1232

> <Gold.Chemscore.DEInternal>
2.2687

> <Gold.Chemscore.Rot>
1.8094

> <Gold.Chemscore.Internal.Correction>
   9.000000E+99

> <Gold.Chemscore.Hbonds>
donor molecule, donor type, donor heavy atom, donor atom, acceptor molecule, acceptor atom, score
      L1  H     5    28       P1 10175  1.00
      L1  H     8    29       P1 10175  0.88
      L1  H    14    40       P1  7948  0.98

> <Gold.Chemscore.Hbond.Weighted>
-9.6791

> <Gold.Chemscore.Metal.Weighted>
-0.0000

> <Gold.Chemscore.Lipo.Weighted>
-6.5217

> <Gold.Chemscore.Internal_Hbond.Weighted>
0.0000

> <Gold.Chemscore.DEClash.Weighted>
0.1232

> <Gold.Chemscore.DEInternal.Weighted>
2.2687

> <Gold.Chemscore.Rot.Weighted>
4.6322

> <Gold.Chemscore.Internal.Correction.Weighted>
   9.000000E+99

> <Gold.Protein.RotatedTorsions>
[ 6907 6896 6895 6894 ] final -122.29 input  -60.11 | X-H torsion
[ 7974 7965 7964 7962 ] final  155.21 input  175.53 | X-H torsion
[ 8008 7997 7996 7995 ] final  -12.86 input   59.86 | X-H torsion
[ 10167 10162 10161 10158 ] final -118.20 input  -65.29 | X-H torsion
[ 10718 10713 10712 10709 ] final  -85.03 input   66.30 | X-H torsion
[ 10763 10752 10751 10750 ] final   45.90 input  -60.55 | X-H torsion
[ 11005 11000 10999 10996 ] final  -75.70 input  -57.11 | X-H torsion

> <Gold.Protein.ActiveResidues>
 VAL166  LYS551  ARG553  GLY616  TRP617  ASP618  TYR619  PRO620  LYS621  CYS622 
 ASP623  PHE694  ASN695  SER759  ASP760  ASP761  ALA762  ILE779  LEU786  VAL792 
 PHE793  MET794  SER795  GLU796  ALA797  LYS798  CYS799  TRP800  GLU811  SER814 

> <Gold.Protein.RotatedAtoms>
  150.8562  133.7711  159.3007 H   0  0  0  0  0  0  0  0  0  0  0  0  # atno 6907 bound_to 6896
  151.5368  135.1067  159.9926 H   0  0  0  0  0  0  0  0  0  0  0  0  # atno 6908 bound_to 6896
  152.4592  133.7742  159.6871 H   0  0  0  0  0  0  0  0  0  0  0  0  # atno 6909 bound_to 6896
  144.8039  139.7038  143.6170 H   0  0  0  0  0  0  0  0  0  0  0  0  # atno 7974 bound_to 7965
  154.5341  140.2265  155.8753 H   0  0  0  0  0  0  0  0  0  0  0  0  # atno 8008 bound_to 7997
  156.1793  140.3104  155.9082 H   0  0  0  0  0  0  0  0  0  0  0  0  # atno 8009 bound_to 7997
  155.3391  140.0449  157.3035 H   0  0  0  0  0  0  0  0  0  0  0  0  # atno 8010 bound_to 7997
  140.0600  143.4977  152.2036 H   0  0  0  0  0  0  0  0  0  0  0  0  # atno 10167 bound_to 10162
  156.0000  130.4717  150.4500 H   0  0  0  0  0  0  0  0  0  0  0  0  # atno 10718 bound_to 10713
  152.9818  135.6025  154.3512 H   0  0  0  0  0  0  0  0  0  0  0  0  # atno 10763 bound_to 10752
  154.3201  135.2770  155.2526 H   0  0  0  0  0  0  0  0  0  0  0  0  # atno 10764 bound_to 10752
  154.4696  135.5945  153.6368 H   0  0  0  0  0  0  0  0  0  0  0  0  # atno 10765 bound_to 10752
  141.1648  133.6956  156.7556 H   0  0  0  0  0  0  0  0  0  0  0  0  # atno 11005 bound_to 11000
  146.2326  139.5844  142.9545 LP  0  0  0  0  0  0  0  0  0  0  0  0  # atno 17320 bound_to 7965
  145.5485  141.0415  143.2291 LP  0  0  0  0  0  0  0  0  0  0  0  0  # atno 17321 bound_to 7965
  139.5899  144.7546  151.3426 LP  0  0  0  0  0  0  0  0  0  0  0  0  # atno 17342 bound_to 10162
  140.7176  143.7224  150.7686 LP  0  0  0  0  0  0  0  0  0  0  0  0  # atno 17343 bound_to 10162
  157.2534  131.0551  151.2365 LP  0  0  0  0  0  0  0  0  0  0  0  0  # atno 17370 bound_to 10713
  157.3506  130.7080  149.6438 LP  0  0  0  0  0  0  0  0  0  0  0  0  # atno 17371 bound_to 10713
  140.2571  134.8495  157.3723 LP  0  0  0  0  0  0  0  0  0  0  0  0  # atno 17394 bound_to 11000
  140.1646  134.4685  155.7871 LP  0  0  0  0  0  0  0  0  0  0  0  0  # atno 17395 bound_to 11000

$$$$
