#       Name:                AV-unprocessed.smi:743
#       Creating user name   scv26
#       Creation time:       Fri Mar 27 00:56:18 2020


#       File generated by GOLD software.
#

@<TRIPOS>MOLECULE
AV-unprocessed.smi:743
    32    33     1
SMALL
NO_CHARGES


@<TRIPOS>ATOM
      1 ****        -4.3242   1.3782   0.0097 C.3            1 S1                 0.0000
      2 ****        -3.0522   0.7601  -0.2977 N.pl3          1 S1                 0.0000
      3 ****        -1.7852   1.1984   0.0205 C.2            1 S1                 0.0000
      4 ****        -0.8948   0.2841  -0.4700 C.2            1 S1                 0.0000
      5 ****         0.6132   0.2997  -0.3778 C.3            1 S1                 0.0000
      6 ****         1.2078  -0.4045  -1.5182 N.am           1 S1                 0.0000
      7 ****         2.2949  -1.1968  -1.5081 C.2            1 S1                 0.0000
      8 ****         2.7341  -1.6960  -2.5414 O.2            1 S1                 0.0000
      9 ****         2.9801  -1.5083  -0.1700 C.3            1 S1                 0.0000
     10 ****         2.6118  -0.5186   0.9449 C.3            1 S1                 0.0000
     11 ****         1.0981  -0.2783   0.9733 C.3            1 S1                 0.0000
     12 ****         0.7659   0.6117   2.0714 N.3            1 S1                 0.0000
     13 ****        -1.7366  -0.6925  -1.0794 C.2            1 S1                 0.0000
     14 ****        -3.0234  -0.4051  -0.9753 N.2            1 S1                 0.0000
     15 ****         0.6010  -1.2325   1.1557 H              1 S1                 0.0000
     16 ****        -4.1802   2.4359   0.2314 H              1 S1                 0.0000
     17 ****        -4.7673   0.8896   0.8776 H              1 S1                 0.0000
     18 ****        -5.0024   1.2854  -0.8395 H              1 S1                 0.0000
     19 ****        -1.6216   2.1150   0.5681 H              1 S1                 0.0000
     20 ****         0.9738   1.3266  -0.4583 H              1 S1                 0.0000
     21 ****         0.7698  -0.2430  -2.4136 H              1 S1                 0.0000
     22 ****         2.6842  -2.5157   0.1248 H              1 S1                 0.0000
     23 ****         4.0616  -1.5288  -0.3100 H              1 S1                 0.0000
     24 ****         2.9522  -0.9105   1.9042 H              1 S1                 0.0000
     25 ****         3.1399   0.4236   0.7890 H              1 S1                 0.0000
     26 ****         1.1157   0.2256   2.9366 H              1 S1                 0.0000
     27 ****         1.2351   1.4968   1.9432 H              1 S1                 0.0000
     28 ****        -1.4503  -1.6001  -1.5903 H              1 S1                 0.0000
     29 ****         2.2817  -1.5164  -3.4150 LP             1 S1                 0.0000
     30 ****         3.5438  -2.2818  -2.5088 LP             1 S1                 0.0000
     31 ****        -0.2273   0.7252   2.0967 LP             1 S1                 0.0000
     32 ****        -3.7994  -0.9327  -1.3210 LP             1 S1                 0.0000
@<TRIPOS>BOND
    1    1    2 1     
    2    1   16 1     
    3    1   17 1     
    4    1   18 1     
    5    2   14 1     
    6    2    3 1     
    7    3    4 2     
    8    3   19 1     
    9    4    5 1     
   10    4   13 1     
   11    5   11 1     
   12    5    6 1     
   13    5   20 1     
   14    6    7 am    
   15    6   21 1     
   16    7    8 2     
   17    7    9 1     
   18    9   10 1     
   19    9   22 1     
   20    9   23 1     
   21   10   11 1     
   22   10   24 1     
   23   10   25 1     
   24   11   15 1     
   25   11   12 1     
   26   12   26 1     
   27   12   27 1     
   28   13   14 2     
   29   13   28 1     
   30    8   29 1     
   31    8   30 1     
   32   12   31 1     
   33   14   32 1     
@<TRIPOS>SUBSTRUCTURE
      1 S1             1
@<TRIPOS>SET
LONE_PAIRS      STATIC     ATOMS    <user>   **** ""
4 29 30 31 32
DONOR_HYDROGENS      STATIC     ATOMS    <user>   **** ""
3 21 26 27
ATOM$BLUE        STATIC     ATOMS    COLORGROUP SYSTEM
4 29 30 31 32
ATOM$RED        STATIC     ATOMS    COLORGROUP SYSTEM
3 21 26 27
