#       Name:                AV-unprocessed.smi:480
#       Creating user name   scv26
#       Creation time:       Thu Mar 26 23:10:09 2020


#       File generated by GOLD software.
#

@<TRIPOS>MOLECULE
AV-unprocessed.smi:480
    52    54     1
SMALL
NO_CHARGES


@<TRIPOS>ATOM
      1 ****         0.7125   2.9462  -0.0407 C.3            1 S1                 0.0000
      2 ****        -0.5567   2.6091   0.7539 C.3            1 S1                 0.0000
      3 ****        -1.3903   1.5536   0.0935 C.2            1 S1                 0.0000
      4 ****        -1.5523   1.3848  -1.2505 N.pl3          1 S1                 1.0000
      5 ****        -2.4093   0.3122  -1.4959 C.ar           1 S1                 0.0000
      6 ****        -2.8557  -0.2431  -2.6910 C.ar           1 S1                 0.0000
      7 ****        -3.7354  -1.3407  -2.5885 C.ar           1 S1                 0.0000
      8 ****        -4.1398  -1.8431  -1.3345 C.ar           1 S1                 0.0000
      9 ****        -3.6810  -1.2704  -0.1299 C.ar           1 S1                 0.0000
     10 ****        -2.8086  -0.1882  -0.2406 C.ar           1 S1                 0.0000
     11 ****        -2.1583   0.6060   0.7101 N.pl3          1 S1                 0.0000
     12 ****        -2.3671   0.3162   2.1383 C.3            1 S1                 0.0000
     13 ****        -1.5674  -0.9060   2.6460 C.3            1 S1                 0.0000
     14 ****        -1.7296  -0.9848   4.0462 O.3            1 S1                 0.0000
     15 ****        -0.0622  -0.8660   2.3229 C.3            1 S1                 0.0000
     16 ****         0.1207  -1.1749   0.9467 O.3            1 S1                 0.0000
     17 ****         1.3355  -0.8875   0.3671 C.ar           1 S1                 0.0000
     18 ****         1.3995  -0.9385  -1.0402 C.ar           1 S1                 0.0000
     19 ****         2.5975  -0.6422  -1.7172 C.ar           1 S1                 0.0000
     20 ****         3.7529  -0.2974  -0.9891 C.ar           1 S1                 0.0000
     21 ****         5.0427   0.0189  -1.7177 C.3            1 S1                 0.0000
     22 ****         5.6921  -1.1923  -2.2421 C.1            1 S1                 0.0000
     23 ****         6.2022  -2.1451  -2.6550 N.1            1 S1                 0.0000
     24 ****         3.7025  -0.2541   0.4183 C.ar           1 S1                 0.0000
     25 ****         2.5029  -0.5483   1.0949 C.ar           1 S1                 0.0000
     26 ****         1.3035   3.6999   0.4797 H              1 S1                 0.0000
     27 ****         0.4742   3.3407  -1.0288 H              1 S1                 0.0000
     28 ****         1.3422   2.0661  -0.1719 H              1 S1                 0.0000
     29 ****        -0.2721   2.2769   1.7516 H              1 S1                 0.0000
     30 ****        -1.1653   3.5044   0.8819 H              1 S1                 0.0000
     31 ****        -2.5481   0.1409  -3.6526 H              1 S1                 0.0000
     32 ****        -4.1084  -1.8057  -3.4896 H              1 S1                 0.0000
     33 ****        -4.8154  -2.6853  -1.2950 H              1 S1                 0.0000
     34 ****        -3.9959  -1.6623   0.8259 H              1 S1                 0.0000
     35 ****        -2.0854   1.2082   2.6983 H              1 S1                 0.0000
     36 ****        -3.4359   0.1796   2.3092 H              1 S1                 0.0000
     37 ****        -1.9894  -1.8203   2.2280 H              1 S1                 0.0000
     38 ****        -1.2817  -1.7562   4.3585 H              1 S1                 0.0000
     39 ****         0.3406   0.1149   2.5792 H              1 S1                 0.0000
     40 ****         0.4719  -1.6114   2.9144 H              1 S1                 0.0000
     41 ****         0.5174  -1.1991  -1.6068 H              1 S1                 0.0000
     42 ****         2.6290  -0.6819  -2.7962 H              1 S1                 0.0000
     43 ****         4.8413   0.6913  -2.5522 H              1 S1                 0.0000
     44 ****         5.7420   0.5238  -1.0505 H              1 S1                 0.0000
     45 ****         4.5858   0.0031   0.9847 H              1 S1                 0.0000
     46 ****         2.5031  -0.5120   2.1738 H              1 S1                 0.0000
     47 ****        -1.1000   1.9618  -1.9479 H              1 S1                 0.0000
     48 ****        -2.7024  -1.0463   4.2698 LP             1 S1                 0.0000
     49 ****        -1.3394  -0.1711   4.4770 LP             1 S1                 0.0000
     50 ****        -0.5769  -0.6726   0.4358 LP             1 S1                 0.0000
     51 ****        -0.0320  -2.1576   0.8415 LP             1 S1                 0.0000
     52 ****         6.6431  -2.9687  -3.0119 LP             1 S1                 0.0000
@<TRIPOS>BOND
    1    1    2 1     
    2    1   26 1     
    3    1   27 1     
    4    1   28 1     
    5    2    3 1     
    6    2   29 1     
    7    2   30 1     
    8    3   11 1     
    9    3    4 2     
   10    4    5 1     
   11    4   47 1     
   12    5   10 ar    
   13    5    6 ar    
   14    6    7 ar    
   15    6   31 1     
   16    7    8 ar    
   17    7   32 1     
   18    8    9 ar    
   19    8   33 1     
   20    9   10 ar    
   21    9   34 1     
   22   10   11 1     
   23   11   12 1     
   24   12   13 1     
   25   12   35 1     
   26   12   36 1     
   27   13   14 1     
   28   13   15 1     
   29   13   37 1     
   30   14   38 1     
   31   15   16 1     
   32   15   39 1     
   33   15   40 1     
   34   16   17 1     
   35   17   25 ar    
   36   17   18 ar    
   37   18   19 ar    
   38   18   41 1     
   39   19   20 ar    
   40   19   42 1     
   41   20   21 1     
   42   20   24 ar    
   43   21   22 1     
   44   21   43 1     
   45   21   44 1     
   46   22   23 3     
   47   24   25 ar    
   48   24   45 1     
   49   25   46 1     
   50   14   48 1     
   51   14   49 1     
   52   16   50 1     
   53   16   51 1     
   54   23   52 1     
@<TRIPOS>SUBSTRUCTURE
      1 S1             1
@<TRIPOS>SET
LONE_PAIRS      STATIC     ATOMS    <user>   **** ""
5 48 49 50 51 52
DONOR_HYDROGENS      STATIC     ATOMS    <user>   **** ""
2 47 38
ATOM$BLUE        STATIC     ATOMS    COLORGROUP SYSTEM
5 48 49 50 51 52
ATOM$RED        STATIC     ATOMS    COLORGROUP SYSTEM
2 47 38
