#       Name:                AV-unprocessed.smi:1184
#       Creating user name   scv26
#       Creation time:       Fri Mar 27 03:56:35 2020


#       File generated by GOLD software.
#

@<TRIPOS>MOLECULE
AV-unprocessed.smi:1184
    48    49     1
SMALL
NO_CHARGES


@<TRIPOS>ATOM
      1 ****        -3.0689   4.8720   0.9833 C.3            1 S1                 0.0000
      2 ****        -1.9501   3.9010   0.5813 C.3            1 S1                 0.0000
      3 ****        -2.3821   2.4851   0.6583 N.4            1 S1                 1.0000
      4 ****        -3.4517   2.1065  -0.2928 C.3            1 S1                 0.0000
      5 ****        -3.2063   0.6362  -0.6200 C.3            1 S1                 0.0000
      6 ****        -1.6833   0.5481  -0.6266 C.3            1 S1                 0.0000
      7 ****        -1.1413  -0.8889  -0.5014 C.3            1 S1                 0.0000
      8 ****         0.3099  -0.9434  -0.6474 N.am           1 S1                 0.0000
      9 ****         1.1996  -0.9044   0.3569 C.2            1 S1                 0.0000
     10 ****         0.8832  -0.7962   1.5412 O.2            1 S1                 0.0000
     11 ****         2.6744  -1.0026  -0.0333 C.3            1 S1                 0.0000
     12 ****         3.0801  -2.4513  -0.1282 C.2            1 S1                 0.0000
     13 ****         3.0931  -3.2923  -1.2793 C.2            1 S1                 0.0000
     14 ****         2.7091  -2.9641  -2.6936 C.3            1 S1                 0.0000
     15 ****         3.5118  -4.5133  -0.9939 N.2            1 S1                 0.0000
     16 ****         3.7910  -4.5133   0.3757 O.3            1 S1                 0.0000
     17 ****         3.5263  -3.2768   0.8679 C.2            1 S1                 0.0000
     18 ****         3.7640  -3.0766   2.3264 C.3            1 S1                 0.0000
     19 ****        -1.2811   1.5031   0.5088 C.3            1 S1                 0.0000
     20 ****        -2.7080   5.9006   0.9716 H              1 S1                 0.0000
     21 ****        -3.4321   4.6600   1.9894 H              1 S1                 0.0000
     22 ****        -3.9170   4.8159   0.3004 H              1 S1                 0.0000
     23 ****        -1.5909   4.1273  -0.4237 H              1 S1                 0.0000
     24 ****        -1.1058   4.0454   1.2567 H              1 S1                 0.0000
     25 ****        -4.4424   2.2805   0.1280 H              1 S1                 0.0000
     26 ****        -3.3654   2.6974  -1.2062 H              1 S1                 0.0000
     27 ****        -3.6214   0.0042   0.1665 H              1 S1                 0.0000
     28 ****        -3.6532   0.3351  -1.5681 H              1 S1                 0.0000
     29 ****        -1.3333   0.9745  -1.5685 H              1 S1                 0.0000
     30 ****        -1.4539  -1.3405   0.4418 H              1 S1                 0.0000
     31 ****        -1.5709  -1.5073  -1.2899 H              1 S1                 0.0000
     32 ****         0.6670  -1.0407  -1.5871 H              1 S1                 0.0000
     33 ****         2.8377  -0.4758  -0.9742 H              1 S1                 0.0000
     34 ****         3.2708  -0.4738   0.7112 H              1 S1                 0.0000
     35 ****         2.1592  -2.0252  -2.7522 H              1 S1                 0.0000
     36 ****         2.0752  -3.7418  -3.1203 H              1 S1                 0.0000
     37 ****         3.5926  -2.8706  -3.3255 H              1 S1                 0.0000
     38 ****         3.2384  -2.1946   2.6920 H              1 S1                 0.0000
     39 ****         4.8268  -2.9448   2.5288 H              1 S1                 0.0000
     40 ****         3.4137  -3.9363   2.8979 H              1 S1                 0.0000
     41 ****        -0.3168   1.9728   0.3083 H              1 S1                 0.0000
     42 ****        -1.1935   0.9667   1.4539 H              1 S1                 0.0000
     43 ****        -2.7532   2.3402   1.5867 H              1 S1                 0.0000
     44 ****        -0.0814  -0.7319   1.7972 LP             1 S1                 0.0000
     45 ****         1.5906  -0.7724   2.2476 LP             1 S1                 0.0000
     46 ****         3.6089  -5.2802  -1.6283 LP             1 S1                 0.0000
     47 ****         4.7545  -4.7363   0.5237 LP             1 S1                 0.0000
     48 ****         3.2174  -5.1901   0.8371 LP             1 S1                 0.0000
@<TRIPOS>BOND
    1    1    2 1     
    2    1   20 1     
    3    1   21 1     
    4    1   22 1     
    5    2    3 1     
    6    2   23 1     
    7    2   24 1     
    8    3   19 1     
    9    3    4 1     
   10    3   43 1     
   11    4    5 1     
   12    4   25 1     
   13    4   26 1     
   14    5    6 1     
   15    5   27 1     
   16    5   28 1     
   17    6    7 1     
   18    6   19 1     
   19    6   29 1     
   20    7    8 1     
   21    7   30 1     
   22    7   31 1     
   23    8    9 am    
   24    8   32 1     
   25    9   10 2     
   26    9   11 1     
   27   11   12 1     
   28   11   33 1     
   29   11   34 1     
   30   12   17 2     
   31   12   13 1     
   32   13   14 1     
   33   13   15 2     
   34   14   35 1     
   35   14   36 1     
   36   14   37 1     
   37   15   16 1     
   38   16   17 1     
   39   17   18 1     
   40   18   38 1     
   41   18   39 1     
   42   18   40 1     
   43   19   41 1     
   44   19   42 1     
   45   10   44 1     
   46   10   45 1     
   47   15   46 1     
   48   16   47 1     
   49   16   48 1     
@<TRIPOS>SUBSTRUCTURE
      1 S1             1
@<TRIPOS>SET
LONE_PAIRS      STATIC     ATOMS    <user>   **** ""
5 44 45 46 47 48
DONOR_HYDROGENS      STATIC     ATOMS    <user>   **** ""
2 43 32
ATOM$BLUE        STATIC     ATOMS    COLORGROUP SYSTEM
5 44 45 46 47 48
ATOM$RED        STATIC     ATOMS    COLORGROUP SYSTEM
2 43 32
