#       Name:                AV-unprocessed.smi:2999
#       Creating user name   scv26
#       Creation time:       Fri Mar 27 16:34:11 2020


#       File generated by GOLD software.
#

@<TRIPOS>MOLECULE
AV-unprocessed.smi:2999
    43    45     1
SMALL
NO_CHARGES


@<TRIPOS>ATOM
      1 ****        -0.6409   1.8201   1.6287 O.2            1 S1                 0.0000
      2 ****        -1.0647   0.7510   2.0691 C.2            1 S1                 0.0000
      3 ****        -0.2815  -0.3057   2.3289 N.am           1 S1                 0.0000
      4 ****         1.1678  -0.3489   2.1576 C.3            1 S1                 0.0000
      5 ****         1.5780  -1.0513   0.8514 C.3            1 S1                 0.0000
      6 ****         1.1735  -0.2752  -0.4213 C.3            1 S1                 0.0000
      7 ****         1.6521  -0.9282  -1.6338 N.3            1 S1                 0.0000
      8 ****         1.2789  -0.1684  -2.8175 C.3            1 S1                 0.0000
      9 ****        -0.0855  -0.3682  -3.4249 C.3            1 S1                 0.0000
     10 ****         1.1521  -0.8761  -4.1417 C.3            1 S1                 0.0000
     11 ****         3.0982  -1.0825  -1.5449 C.3            1 S1                 0.0000
     12 ****         3.5082  -1.8599  -0.2837 C.3            1 S1                 0.0000
     13 ****         2.9965  -1.1971   0.8682 O.3            1 S1                 0.0000
     14 ****        -2.3516   0.4803   2.3484 N.am           1 S1                 0.0000
     15 ****        -3.4734   1.3441   2.2464 C.2            1 S1                 0.0000
     16 ****        -3.4146   2.6120   1.8223 N.2            1 S1                 0.0000
     17 ****        -4.6692   3.2268   1.8322 C.2            1 S1                 0.0000
     18 ****        -5.6794   2.4064   2.2697 C.2            1 S1                 0.0000
     19 ****        -5.0918   0.8189   2.6866 S.3            1 S1                 0.0000
     20 ****        -0.7188  -1.1436   2.6839 H              1 S1                 0.0000
     21 ****         1.6036   0.6503   2.2073 H              1 S1                 0.0000
     22 ****         1.5764  -0.8989   3.0057 H              1 S1                 0.0000
     23 ****         1.1294  -2.0463   0.8297 H              1 S1                 0.0000
     24 ****         0.0880  -0.1847  -0.4669 H              1 S1                 0.0000
     25 ****         1.5675   0.7411  -0.3669 H              1 S1                 0.0000
     26 ****         1.6946   0.8382  -2.8130 H              1 S1                 0.0000
     27 ****        -0.7417  -1.1084  -2.9706 H              1 S1                 0.0000
     28 ****        -0.5834   0.5060  -3.8391 H              1 S1                 0.0000
     29 ****         1.4762  -0.3384  -5.0303 H              1 S1                 0.0000
     30 ****         1.3142  -1.9522  -4.1612 H              1 S1                 0.0000
     31 ****         3.4691  -1.6027  -2.4290 H              1 S1                 0.0000
     32 ****         3.5774  -0.1023  -1.5356 H              1 S1                 0.0000
     33 ****         3.1334  -2.8839  -0.3204 H              1 S1                 0.0000
     34 ****         4.5940  -1.9175  -0.2093 H              1 S1                 0.0000
     35 ****        -2.5500  -0.4476   2.6925 H              1 S1                 0.0000
     36 ****        -4.7527   4.2547   1.5119 H              1 S1                 0.0000
     37 ****        -6.7292   2.6388   2.3712 H              1 S1                 0.0000
     38 ****         0.3357   1.9336   1.4459 LP             1 S1                 0.0000
     39 ****        -1.2734   2.5747   1.4538 LP             1 S1                 0.0000
     40 ****         1.2268  -1.8295  -1.7165 LP             1 S1                 0.0000
     41 ****         3.2517  -1.7254   1.6779 LP             1 S1                 0.0000
     42 ****         3.4085  -0.2874   0.9202 LP             1 S1                 0.0000
     43 ****        -2.5720   3.0659   1.5324 LP             1 S1                 0.0000
@<TRIPOS>BOND
    1    1    2 2     
    2    2    3 am    
    3    2   14 am    
    4    3    4 1     
    5    3   20 1     
    6    4    5 1     
    7    4   21 1     
    8    4   22 1     
    9    5   13 1     
   10    5    6 1     
   11    5   23 1     
   12    6    7 1     
   13    6   24 1     
   14    6   25 1     
   15    7    8 1     
   16    7   11 1     
   17    8   10 1     
   18    8    9 1     
   19    8   26 1     
   20    9   10 1     
   21    9   27 1     
   22    9   28 1     
   23   10   29 1     
   24   10   30 1     
   25   11   12 1     
   26   11   31 1     
   27   11   32 1     
   28   12   13 1     
   29   12   33 1     
   30   12   34 1     
   31   14   15 1     
   32   14   35 1     
   33   15   19 1     
   34   15   16 2     
   35   16   17 1     
   36   17   18 2     
   37   17   36 1     
   38   18   19 1     
   39   18   37 1     
   40    1   38 1     
   41    1   39 1     
   42    7   40 1     
   43   13   41 1     
   44   13   42 1     
   45   16   43 1     
@<TRIPOS>SUBSTRUCTURE
      1 S1             1
@<TRIPOS>SET
LONE_PAIRS      STATIC     ATOMS    <user>   **** ""
6 38 39 40 41 42 43
DONOR_HYDROGENS      STATIC     ATOMS    <user>   **** ""
2 20 35
ATOM$BLUE        STATIC     ATOMS    COLORGROUP SYSTEM
6 38 39 40 41 42 43
ATOM$RED        STATIC     ATOMS    COLORGROUP SYSTEM
2 20 35
