AV-unprocessed.smi:653|AV-procd|sdf|3205|dock6
  -GOLD-   22720 0143D 1   1.00000     0.00000
 Structure written by MMmdl.
 44 45  0  0  0  0  0  0  0  0  1 V2000
  153.7522  143.1245  163.6087 C   0  0  0  0  0  0  0  0  0  0  0  0
  153.2375  142.9899  162.1907 C   0  0  0  0  0  0  0  0  0  0  0  0
  152.3640  143.9555  161.6477 C   0  0  0  0  0  0  0  0  0  0  0  0
  151.9185  143.7873  160.3228 C   0  0  0  0  0  0  0  0  0  0  0  0
  152.3620  142.6646  159.5932 C   0  0  0  0  0  0  0  0  0  0  0  0
  151.9137  142.4394  158.1610 C   0  0  0  0  0  0  0  0  0  0  0  0
  151.2505  141.0687  158.0219 C   0  0  0  0  0  0  0  0  0  0  0  0
  150.0417  140.9483  158.2215 O   0  0  0  0  0  0  0  0  0  0  0  0
  152.0523  140.0481  157.6802 N   0  0  0  0  0  0  0  0  0  0  0  0
  151.6274  138.6668  157.4715 C   0  0  0  0  0  0  0  0  0  0  0  0
  150.6625  138.5250  156.2680 C   0  0  1  0  0  0  0  0  0  0  0  0
  151.1074  139.3147  155.0445 C   0  0  0  0  0  0  0  0  0  0  0  0
  152.0920  138.3679  154.3564 C   0  0  0  0  0  0  0  0  0  0  0  0
  151.8053  137.0676  154.8647 O   0  0  0  0  0  0  0  0  0  0  0  0
  150.6209  137.1145  155.6520 C   0  0  1  0  0  0  0  0  0  0  0  0
  150.5338  135.9118  156.6194 C   0  0  0  0  0  0  0  0  0  0  0  0
  150.5886  134.5814  155.8512 C   0  0  0  0  0  0  0  0  0  0  0  0
  149.2607  135.9642  157.4814 C   0  0  0  0  0  0  0  0  0  0  0  0
  153.2362  141.7581  160.2299 C   0  0  0  0  0  0  0  0  0  0  0  0
  153.6688  141.9114  161.4997 N   0  0  0  0  0  0  0  0  0  0  0  0
  153.0581  143.7016  164.2203 H   0  0  0  0  0  0  0  0  0  0  0  0
  154.7168  143.6327  163.6115 H   0  0  0  0  0  0  0  0  0  0  0  0
  153.8775  142.1457  164.0733 H   0  0  0  0  0  0  0  0  0  0  0  0
  152.0433  144.8069  162.2299 H   0  0  0  0  0  0  0  0  0  0  0  0
  151.2514  144.5094  159.8755 H   0  0  0  0  0  0  0  0  0  0  0  0
  151.2260  143.2313  157.8600 H   0  0  0  0  0  0  0  0  0  0  0  0
  152.7717  142.4956  157.4900 H   0  0  0  0  0  0  0  0  0  0  0  0
  153.0323  140.2464  157.5395 H   0  0  0  0  0  0  0  0  0  0  0  0
  152.4848  138.0006  157.3623 H   0  0  0  0  0  0  0  0  0  0  0  0
  151.1279  138.3614  158.3899 H   0  0  0  0  0  0  0  0  0  0  0  0
  149.6637  138.8352  156.5781 H   0  0  0  0  0  0  0  0  0  0  0  0
  150.2497  139.4815  154.3912 H   0  0  0  0  0  0  0  0  0  0  0  0
  151.5379  140.2910  155.2626 H   0  0  0  0  0  0  0  0  0  0  0  0
  151.9855  138.3965  153.2719 H   0  0  0  0  0  0  0  0  0  0  0  0
  153.1227  138.6236  154.6042 H   0  0  0  0  0  0  0  0  0  0  0  0
  149.7760  137.0654  154.9618 H   0  0  0  0  0  0  0  0  0  0  0  0
  151.3973  135.9309  157.2846 H   0  0  0  0  0  0  0  0  0  0  0  0
  149.7552  134.4914  155.1533 H   0  0  0  0  0  0  0  0  0  0  0  0
  150.5442  133.7318  156.5332 H   0  0  0  0  0  0  0  0  0  0  0  0
  151.5125  134.4900  155.2797 H   0  0  0  0  0  0  0  0  0  0  0  0
  148.3637  135.9406  156.8615 H   0  0  0  0  0  0  0  0  0  0  0  0
  149.2188  136.8679  158.0884 H   0  0  0  0  0  0  0  0  0  0  0  0
  149.2145  135.1147  158.1632 H   0  0  0  0  0  0  0  0  0  0  0  0
  153.6003  140.8868  159.7055 H   0  0  0  0  0  0  0  0  0  0  0  0
  1  2  1  0  0  0  0
  1 21  1  0  0  0  0
  1 22  1  0  0  0  0
  1 23  1  0  0  0  0
  2 20  1  0  0  0  0
  2  3  2  0  0  0  0
  3  4  1  0  0  0  0
  3 24  1  0  0  0  0
  4  5  2  0  0  0  0
  4 25  1  0  0  0  0
  5  6  1  0  0  0  0
  5 19  1  0  0  0  0
  6  7  1  0  0  0  0
  6 26  1  0  0  0  0
  6 27  1  0  0  0  0
  7  8  2  0  0  0  0
  7  9  1  0  0  0  0
  9 10  1  0  0  0  0
  9 28  1  0  0  0  0
 10 11  1  0  0  0  0
 10 29  1  0  0  0  0
 10 30  1  0  0  0  0
 11 15  1  0  0  0  0
 11 12  1  0  0  0  0
 11 31  1  0  0  0  0
 12 13  1  0  0  0  0
 12 32  1  0  0  0  0
 12 33  1  0  0  0  0
 13 14  1  0  0  0  0
 13 34  1  0  0  0  0
 13 35  1  0  0  0  0
 14 15  1  0  0  0  0
 15 16  1  0  0  0  0
 15 36  1  0  0  0  0
 16 17  1  0  0  0  0
 16 18  1  0  0  0  0
 16 37  1  0  0  0  0
 17 38  1  0  0  0  0
 17 39  1  0  0  0  0
 17 40  1  0  0  0  0
 18 41  1  0  0  0  0
 18 42  1  0  0  0  0
 18 43  1  0  0  0  0
 19 20  2  0  0  0  0
 19 44  1  0  0  0  0
M  END
> <s_m_source_file>
AV-unprocessed.smi

> <i_m_source_file_index>
653

> <i_lp_mmshare_version>
43012

> <i_f3d_flags>
0

> <s_epik_input>
W0NIM11jMVtjSF1bY0hdYyhbY0hdbjEpW0NIMl1DKD1PKVtOSF1bQ0gyXVtDQEBIXTJbQ0gyXVtDSDJdT1tDQEhdMltDSF0oW0NIM10pW0NIM10=

> <s_epik_cmdline>
J2VwaWtfcHl0aG9uJywgJy1waCcsICc3LjAnLCAnLXRuJywgJzgnLCAnLW1hJywgJzIwMCcsICctbWV0YWxfYmluZGluZycsICctaW1hZScsICc8aW5maWxlLm1hZT4nLCAnLW9tYWUnLCAnPG91dGZpbGUubWFlPic=

> <r_epik_Ionization_Penalty>
0.0166429

> <r_epik_Ionization_Penalty_Charging>
0

> <r_epik_Ionization_Penalty_Neutral>
0.0166429

> <r_epik_State_Penalty>
0.0131478

> <r_epik_Charging_Adjusted_Penalty>
0.0131478

> <i_epik_Tot_Q>
0

> <i_epik_Tot_abs_Q>
0

> <r_epik_Metal_State_Penalty>
0.012786

> <b_epik_Metal_Only>
0

> <s_lp_Force_Field>
OPLS_2005

> <r_lp_Energy>
21.9695

> <b_lp_Chiralities_Consistent>
1

> <s_lp_Variant>
AV-unprocessed.smi:653-2

> <Gold.Version>
5.8.1

> <Gold.Id.Protein>
6NUR|6NUR_protein|mol2

> <Gold.PLP.Fitness>
43.0143

> <Gold.PLP.PLP>
-41.1720

> <Gold.PLP.part.hbond>
-1.0000

> <Gold.PLP.part.metal>
0.0000

> <Gold.PLP.part.buried>
-6.7670

> <Gold.PLP.part.nonpolar>
-32.4491

> <Gold.PLP.part.repulsive>
0.2224

> <Gold.PLP.ligand.clash>
0.0000

> <Gold.PLP.ligand.torsion>
0.5826

> <Gold.PLP.Chemscore.Hbond>
0.9920

> <Gold.PLP.Chemscore.CHOScore>
0.0000

> <Gold.PLP.Chemscore.Metal>
0.0000

> <Gold.Chemscore.Hbonds>
donor molecule, donor type, donor heavy atom, donor atom, acceptor molecule, acceptor atom, score
      P1  H 10752 10764       L1    14  1.00

> <Gold.PLP.Chemscore.Internal.Correction>
0.0316

> <Gold.Rescore>
     Score         DG    S(hbond)    S(metal)    S(lipo)     H(rot)  DE(clash)    DE(int)     intcor
     18.22     -18.79       0.92        0.00     119.87       1.48       0.01       0.55       ----

> <Gold.Chemscore.Fitness>
18.2200

> <Gold.Chemscore.DG>
-18.7855

> <Gold.Chemscore.ZeroCoef>
-5.4800

> <Gold.Chemscore.Hbond>
0.9230

> <Gold.Chemscore.Metal>
0.0000

> <Gold.Chemscore.Lipo>
119.8656

> <Gold.Chemscore.Internal_Hbond>
0.0000

> <Gold.Chemscore.DEClash>
0.0149

> <Gold.Chemscore.DEInternal>
0.5507

> <Gold.Chemscore.Rot>
1.4850

> <Gold.Chemscore.Internal.Correction>
   9.000000E+99

> <Gold.Chemscore.Hbonds>
donor molecule, donor type, donor heavy atom, donor atom, acceptor molecule, acceptor atom, score
      P1  H 10752 10764       L1    14  0.95

> <Gold.Chemscore.Hbond.Weighted>
-3.0828

> <Gold.Chemscore.Metal.Weighted>
-0.0000

> <Gold.Chemscore.Lipo.Weighted>
-14.0243

> <Gold.Chemscore.Internal_Hbond.Weighted>
0.0000

> <Gold.Chemscore.DEClash.Weighted>
0.0149

> <Gold.Chemscore.DEInternal.Weighted>
0.5507

> <Gold.Chemscore.Rot.Weighted>
3.8015

> <Gold.Chemscore.Internal.Correction.Weighted>
   9.000000E+99

> <Gold.Protein.RotatedTorsions>
[ 6907 6896 6895 6894 ] final   29.26 input  -60.11 | X-H torsion
[ 7974 7965 7964 7962 ] final -104.16 input  175.53 | X-H torsion
[ 8008 7997 7996 7995 ] final  164.09 input   59.86 | X-H torsion
[ 10167 10162 10161 10158 ] final    8.75 input  -65.29 | X-H torsion
[ 10718 10713 10712 10709 ] final  147.64 input   66.30 | X-H torsion
[ 10763 10752 10751 10750 ] final  -58.72 input  -60.55 | X-H torsion
[ 11005 11000 10999 10996 ] final   87.48 input  -57.11 | X-H torsion

> <Gold.Protein.ActiveResidues>
 VAL166  LYS551  ARG553  GLY616  TRP617  ASP618  TYR619  PRO620  LYS621  CYS622 
 ASP623  PHE694  ASN695  SER759  ASP760  ASP761  ALA762  ILE779  LEU786  VAL792 
 PHE793  MET794  SER795  GLU796  ALA797  LYS798  CYS799  TRP800  GLU811  SER814 

> <Gold.Protein.RotatedAtoms>
  152.0289  134.9779  160.0571 H   0  0  0  0  0  0  0  0  0  0  0  0  # atno 6907 bound_to 6896
  152.1263  133.4377  159.4708 H   0  0  0  0  0  0  0  0  0  0  0  0  # atno 6908 bound_to 6896
  150.6853  134.2392  159.4509 H   0  0  0  0  0  0  0  0  0  0  0  0  # atno 6909 bound_to 6896
  145.2466  140.9224  143.3119 H   0  0  0  0  0  0  0  0  0  0  0  0  # atno 7974 bound_to 7965
  156.1907  140.1706  156.8097 H   0  0  0  0  0  0  0  0  0  0  0  0  # atno 8008 bound_to 7997
  154.5468  140.0725  156.8634 H   0  0  0  0  0  0  0  0  0  0  0  0  # atno 8009 bound_to 7997
  155.3106  140.3367  155.4246 H   0  0  0  0  0  0  0  0  0  0  0  0  # atno 8010 bound_to 7997
  140.6296  143.8024  150.7278 H   0  0  0  0  0  0  0  0  0  0  0  0  # atno 10167 bound_to 10162
  157.3184  131.0900  151.1260 H   0  0  0  0  0  0  0  0  0  0  0  0  # atno 10718 bound_to 10713
  154.2426  135.6341  153.5212 H   0  0  0  0  0  0  0  0  0  0  0  0  # atno 10763 bound_to 10752
  152.9927  135.5545  154.5894 H   0  0  0  0  0  0  0  0  0  0  0  0  # atno 10764 bound_to 10752
  154.5403  135.2894  155.1076 H   0  0  0  0  0  0  0  0  0  0  0  0  # atno 10765 bound_to 10752
  139.8919  134.8425  156.2865 H   0  0  0  0  0  0  0  0  0  0  0  0  # atno 11005 bound_to 11000
  144.9540  139.4051  143.6388 LP  0  0  0  0  0  0  0  0  0  0  0  0  # atno 17320 bound_to 7965
  146.3314  139.8562  142.8864 LP  0  0  0  0  0  0  0  0  0  0  0  0  # atno 17321 bound_to 7965
  140.1632  143.4257  152.2052 LP  0  0  0  0  0  0  0  0  0  0  0  0  # atno 17342 bound_to 10162
  139.5512  144.7338  151.4431 LP  0  0  0  0  0  0  0  0  0  0  0  0  # atno 17343 bound_to 10162
  157.2554  130.6634  149.5950 LP  0  0  0  0  0  0  0  0  0  0  0  0  # atno 17370 bound_to 10713
  155.9683  130.4525  150.5776 LP  0  0  0  0  0  0  0  0  0  0  0  0  # atno 17371 bound_to 10713
  141.0004  133.7155  156.0951 LP  0  0  0  0  0  0  0  0  0  0  0  0  # atno 17394 bound_to 11000
  140.7505  134.4050  157.5542 LP  0  0  0  0  0  0  0  0  0  0  0  0  # atno 17395 bound_to 11000

$$$$
