#       Name:                AV-unprocessed.smi:2379
#       Creating user name   scv26
#       Creation time:       Fri Mar 27 13:08:32 2020


#       File generated by GOLD software.
#

@<TRIPOS>MOLECULE
AV-unprocessed.smi:2379
    58    60     1
SMALL
NO_CHARGES


@<TRIPOS>ATOM
      1 ****        -6.3811   2.0853   2.9995 C.3            1 S1                 0.0000
      2 ****        -5.6937   0.8927   2.3686 C.ar           1 S1                 0.0000
      3 ****        -6.4446  -0.1567   1.8054 C.ar           1 S1                 0.0000
      4 ****        -5.7490  -1.2385   1.2312 C.ar           1 S1                 0.0000
      5 ****        -6.4951  -2.3999   0.6089 C.3            1 S1                 0.0000
      6 ****        -4.4011  -1.3142   1.2001 N.ar           1 S1                 0.0000
      7 ****        -3.6675  -0.3091   1.7389 C.ar           1 S1                 0.0000
      8 ****        -2.2473  -0.2897   1.7473 N.am           1 S1                 0.0000
      9 ****        -1.4032  -1.2476   1.3251 C.2            1 S1                 0.0000
     10 ****        -1.7357  -2.3535   0.8983 O.2            1 S1                 0.0000
     11 ****        -0.1257  -0.8520   1.4302 N.am           1 S1                 0.0000
     12 ****         1.0414  -1.6606   1.0768 C.3            1 S1                 0.0000
     13 ****         2.3188  -1.0560   1.6850 C.3            1 S1                 0.0000
     14 ****         2.7406   0.2454   0.9767 C.3            1 S1                 0.0000
     15 ****         2.8981   0.0400  -0.4873 N.4            1 S1                 1.0000
     16 ****         3.4391   1.2396  -1.1789 C.3            1 S1                 0.0000
     17 ****         4.4526   0.8773  -2.2832 C.3            1 S1                 0.0000
     18 ****         5.2173   2.0763  -2.8095 C.3            1 S1                 0.0000
     19 ****         5.7683   1.5474  -4.1285 C.3            1 S1                 0.0000
     20 ****         4.7779   0.6509  -4.6179 O.3            1 S1                 0.0000
     21 ****         3.8544   0.3296  -3.5824 C.3            1 S1                 0.0000
     22 ****         1.6436  -0.4719  -1.0986 C.3            1 S1                 0.0000
     23 ****         1.2140  -1.7978  -0.4493 C.3            1 S1                 0.0000
     24 ****        -4.2867   0.8151   2.3303 C.ar           1 S1                 0.0000
     25 ****        -7.4154   1.8528   3.2548 H              1 S1                 0.0000
     26 ****        -6.3793   2.9293   2.3096 H              1 S1                 0.0000
     27 ****        -5.8668   2.3855   3.9128 H              1 S1                 0.0000
     28 ****        -7.5247  -0.1333   1.8128 H              1 S1                 0.0000
     29 ****        -7.5230  -2.1236   0.3722 H              1 S1                 0.0000
     30 ****        -6.5165  -3.2453   1.2966 H              1 S1                 0.0000
     31 ****        -6.0105  -2.7195  -0.3144 H              1 S1                 0.0000
     32 ****        -1.8285   0.5544   2.1084 H              1 S1                 0.0000
     33 ****         0.0534   0.0705   1.7991 H              1 S1                 0.0000
     34 ****         0.8976  -2.6539   1.5061 H              1 S1                 0.0000
     35 ****         2.1819  -0.8755   2.7520 H              1 S1                 0.0000
     36 ****         3.1293  -1.7816   1.6041 H              1 S1                 0.0000
     37 ****         2.0078   1.0333   1.1579 H              1 S1                 0.0000
     38 ****         3.6842   0.5872   1.4039 H              1 S1                 0.0000
     39 ****         2.6310   1.8629  -1.5653 H              1 S1                 0.0000
     40 ****         3.9659   1.8603  -0.4526 H              1 S1                 0.0000
     41 ****         5.1773   0.1596  -1.8944 H              1 S1                 0.0000
     42 ****         4.5401   2.9112  -2.9963 H              1 S1                 0.0000
     43 ****         6.0007   2.4175  -2.1321 H              1 S1                 0.0000
     44 ****         5.9781   2.3422  -4.8446 H              1 S1                 0.0000
     45 ****         6.6903   0.9895  -3.9599 H              1 S1                 0.0000
     46 ****         3.6827  -0.7460  -3.5384 H              1 S1                 0.0000
     47 ****         2.9059   0.8174  -3.8110 H              1 S1                 0.0000
     48 ****         0.8533   0.2732  -0.9941 H              1 S1                 0.0000
     49 ****         1.7775  -0.6326  -2.1663 H              1 S1                 0.0000
     50 ****         1.9712  -2.5553  -0.6558 H              1 S1                 0.0000
     51 ****         0.2966  -2.1606  -0.9137 H              1 S1                 0.0000
     52 ****        -3.6908   1.6108   2.7537 H              1 S1                 0.0000
     53 ****         3.5945  -0.6842  -0.5912 H              1 S1                 0.0000
     54 ****        -3.9487  -2.1031   0.7841 LP             1 S1                 0.0000
     55 ****        -2.7037  -2.5986   0.8452 LP             1 S1                 0.0000
     56 ****        -1.0377  -3.0067   0.6047 LP             1 S1                 0.0000
     57 ****         5.2197  -0.1868  -4.9389 LP             1 S1                 0.0000
     58 ****         4.2881   1.0811  -5.3763 LP             1 S1                 0.0000
@<TRIPOS>BOND
    1    1    2 1     
    2    1   25 1     
    3    1   26 1     
    4    1   27 1     
    5    2   24 ar    
    6    2    3 ar    
    7    3    4 ar    
    8    3   28 1     
    9    4    5 1     
   10    4    6 ar    
   11    5   29 1     
   12    5   30 1     
   13    5   31 1     
   14    6    7 ar    
   15    7    8 1     
   16    7   24 ar    
   17    8    9 am    
   18    8   32 1     
   19    9   10 2     
   20    9   11 am    
   21   11   12 1     
   22   11   33 1     
   23   12   23 1     
   24   12   13 1     
   25   12   34 1     
   26   13   14 1     
   27   13   35 1     
   28   13   36 1     
   29   14   15 1     
   30   14   37 1     
   31   14   38 1     
   32   15   16 1     
   33   15   22 1     
   34   15   53 1     
   35   16   17 1     
   36   16   39 1     
   37   16   40 1     
   38   17   21 1     
   39   17   18 1     
   40   17   41 1     
   41   18   19 1     
   42   18   42 1     
   43   18   43 1     
   44   19   20 1     
   45   19   44 1     
   46   19   45 1     
   47   20   21 1     
   48   21   46 1     
   49   21   47 1     
   50   22   23 1     
   51   22   48 1     
   52   22   49 1     
   53   23   50 1     
   54   23   51 1     
   55   24   52 1     
   56    6   54 1     
   57   10   55 1     
   58   10   56 1     
   59   20   57 1     
   60   20   58 1     
@<TRIPOS>SUBSTRUCTURE
      1 S1             1
@<TRIPOS>SET
LONE_PAIRS      STATIC     ATOMS    <user>   **** ""
5 54 55 56 57 58
DONOR_HYDROGENS      STATIC     ATOMS    <user>   **** ""
3 32 33 53
ATOM$BLUE        STATIC     ATOMS    COLORGROUP SYSTEM
5 54 55 56 57 58
ATOM$RED        STATIC     ATOMS    COLORGROUP SYSTEM
3 32 33 53
