AV-unprocessed.smi:15|AV-procd|sdf|84|dock7
  -GOLD-   2262015223D 1   1.00000     0.00000
 Structure written by MMmdl.
 53 56  0  0  0  0  0  0  0  0  1 V2000
  151.4505  140.4923  156.0707 C   0  0  0  0  0  0  0  0  0  0  0  0
  151.0893  141.4639  157.2016 C   0  0  0  0  0  0  0  0  0  0  0  0
  151.6428  141.0554  158.4923 N   0  0  0  0  0  0  0  0  0  0  0  0
  152.8713  141.6772  158.9913 C   0  0  0  0  0  0  0  0  0  0  0  0
  152.6604  143.1137  159.5104 C   0  0  1  0  0  0  0  0  0  0  0  0
  152.3396  144.1225  158.4095 C   0  0  0  0  0  0  0  0  0  0  0  0
  151.5603  145.2117  159.1329 C   0  0  0  0  0  0  0  0  0  0  0  0
  151.1902  144.5771  160.4760 C   0  0  0  0  0  0  0  0  0  0  0  0
  151.4989  143.2007  160.3221 O   0  0  0  0  0  0  0  0  0  0  0  0
  151.5132  139.7508  158.8325 C   0  0  0  0  0  0  0  0  0  0  0  0
  152.6268  139.1020  159.2578 N   0  0  0  0  0  0  0  0  0  0  0  0
  152.5723  137.8023  159.5616 C   0  0  0  0  0  0  0  0  0  0  0  0
  151.5295  136.9726  159.4953 N   0  0  0  0  0  0  0  0  0  0  0  0
  150.4109  137.6171  159.0554 C   0  0  0  0  0  0  0  0  0  0  0  0
  150.3096  138.9960  158.7173 C   0  0  0  0  0  0  0  0  0  0  0  0
  149.0134  139.2852  158.3053 N   0  0  0  0  0  0  0  0  0  0  0  0
  148.3865  138.1449  158.3962 C   0  0  0  0  0  0  0  0  0  0  0  0
  149.1571  137.0836  158.8134 N   0  0  0  0  0  0  0  0  0  0  0  0
  148.7281  135.7036  158.9759 C   0  0  0  0  0  0  0  0  0  0  0  0
  147.7089  135.4694  160.1221 C   0  0  1  0  0  0  0  0  0  0  0  0
  147.5051  134.0681  160.1859 O   0  0  0  0  0  0  0  0  0  0  0  0
  148.1565  135.9561  161.4935 C   0  0  0  0  0  0  0  0  0  0  0  0
  146.8439  136.0309  162.2668 C   0  0  0  0  0  0  0  0  0  0  0  0
  145.8558  136.3856  161.3061 O   0  0  0  0  0  0  0  0  0  0  0  0
  146.3551  136.2014  159.9823 C   0  0  2  0  0  0  0  0  0  0  0  0
  145.3051  135.5353  159.0801 C   0  0  0  0  0  0  0  0  0  0  0  0
  151.0852  140.8659  155.1141 H   0  0  0  0  0  0  0  0  0  0  0  0
  151.0091  139.5080  156.2246 H   0  0  0  0  0  0  0  0  0  0  0  0
  152.5307  140.3700  155.9877 H   0  0  0  0  0  0  0  0  0  0  0  0
  151.4695  142.4519  156.9379 H   0  0  0  0  0  0  0  0  0  0  0  0
  150.0059  141.5557  157.2758 H   0  0  0  0  0  0  0  0  0  0  0  0
  153.2645  141.0612  159.7990 H   0  0  0  0  0  0  0  0  0  0  0  0
  153.6404  141.6680  158.2177 H   0  0  0  0  0  0  0  0  0  0  0  0
  153.5263  143.4593  160.0774 H   0  0  0  0  0  0  0  0  0  0  0  0
  153.2341  144.4996  157.9133 H   0  0  0  0  0  0  0  0  0  0  0  0
  151.7038  143.6627  157.6516 H   0  0  0  0  0  0  0  0  0  0  0  0
  152.1644  146.1069  159.2831 H   0  0  0  0  0  0  0  0  0  0  0  0
  150.6741  145.4953  158.5644 H   0  0  0  0  0  0  0  0  0  0  0  0
  151.7994  144.9927  161.2799 H   0  0  0  0  0  0  0  0  0  0  0  0
  150.1408  144.7185  160.7350 H   0  0  0  0  0  0  0  0  0  0  0  0
  153.4993  137.3620  159.8980 H   0  0  0  0  0  0  0  0  0  0  0  0
  147.3415  138.0421  158.1418 H   0  0  0  0  0  0  0  0  0  0  0  0
  148.3030  135.3709  158.0279 H   0  0  0  0  0  0  0  0  0  0  0  0
  149.6173  135.0927  159.1381 H   0  0  0  0  0  0  0  0  0  0  0  0
  148.2283  133.6423  159.7515 H   0  0  0  0  0  0  0  0  0  0  0  0
  148.8974  135.3112  161.9675 H   0  0  0  0  0  0  0  0  0  0  0  0
  148.5770  136.9592  161.4343 H   0  0  0  0  0  0  0  0  0  0  0  0
  146.5900  135.0561  162.6850 H   0  0  0  0  0  0  0  0  0  0  0  0
  146.8808  136.7503  163.0850 H   0  0  0  0  0  0  0  0  0  0  0  0
  146.5278  137.2120  159.6148 H   0  0  0  0  0  0  0  0  0  0  0  0
  145.6926  135.3873  158.0720 H   0  0  0  0  0  0  0  0  0  0  0  0
  144.4135  136.1578  159.0039 H   0  0  0  0  0  0  0  0  0  0  0  0
  144.9944  134.5653  159.4687 H   0  0  0  0  0  0  0  0  0  0  0  0
  1  2  1  0  0  0  0
  1 27  1  0  0  0  0
  1 28  1  0  0  0  0
  1 29  1  0  0  0  0
  2  3  1  0  0  0  0
  2 30  1  0  0  0  0
  2 31  1  0  0  0  0
  3  4  1  0  0  0  0
  3 10  1  0  0  0  0
  4  5  1  0  0  0  0
  4 32  1  0  0  0  0
  4 33  1  0  0  0  0
  5  9  1  0  0  0  0
  5  6  1  0  0  0  0
  5 34  1  0  0  0  0
  6  7  1  0  0  0  0
  6 35  1  0  0  0  0
  6 36  1  0  0  0  0
  7  8  1  0  0  0  0
  7 37  1  0  0  0  0
  7 38  1  0  0  0  0
  8  9  1  0  0  0  0
  8 39  1  0  0  0  0
  8 40  1  0  0  0  0
 10 15  1  0  0  0  0
 10 11  2  0  0  0  0
 11 12  1  0  0  0  0
 12 13  2  0  0  0  0
 12 41  1  0  0  0  0
 13 14  1  0  0  0  0
 14 18  1  0  0  0  0
 14 15  2  0  0  0  0
 15 16  1  0  0  0  0
 16 17  2  0  0  0  0
 17 18  1  0  0  0  0
 17 42  1  0  0  0  0
 18 19  1  0  0  0  0
 19 20  1  0  0  0  0
 19 43  1  0  0  0  0
 19 44  1  0  0  0  0
 20 25  1  0  0  0  0
 20 21  1  0  0  0  0
 20 22  1  0  0  0  0
 21 45  1  0  0  0  0
 22 23  1  0  0  0  0
 22 46  1  0  0  0  0
 22 47  1  0  0  0  0
 23 24  1  0  0  0  0
 23 48  1  0  0  0  0
 23 49  1  0  0  0  0
 24 25  1  0  0  0  0
 25 26  1  0  0  0  0
 25 50  1  0  0  0  0
 26 51  1  0  0  0  0
 26 52  1  0  0  0  0
 26 53  1  0  0  0  0
M  END
> <s_m_source_file>
AV-unprocessed.smi

> <i_m_source_file_index>
15

> <i_lp_mmshare_version>
43012

> <i_f3d_flags>
0

> <s_epik_input>
TzFbQ0gyXVtDSDJdW0NIMl1bQ0BIXTFbQ0gyXU4oW0NIMl1bQ0gzXSljKG5bY0hdbjIpYyhjMjMpbltjSF1uM1tDSDJdW0NAQF00KFtPSF0pW0NIMl1bQ0gyXU9bQ0BIXTRbQ0gzXQ==

> <s_epik_cmdline>
J2VwaWtfcHl0aG9uJywgJy1waCcsICc3LjAnLCAnLXRuJywgJzgnLCAnLW1hJywgJzIwMCcsICctbWV0YWxfYmluZGluZycsICctaW1hZScsICc8aW5maWxlLm1hZT4nLCAnLW9tYWUnLCAnPG91dGZpbGUubWFlPic=

> <r_lp_tautomer_probability>
1

> <r_epik_Ionization_Penalty>
0.00360814

> <r_epik_Ionization_Penalty_Charging>
0

> <r_epik_Ionization_Penalty_Neutral>
0.00360814

> <r_epik_State_Penalty>
0.00237482

> <r_epik_Charging_Adjusted_Penalty>
0.00237482

> <i_epik_Tot_Q>
0

> <i_epik_Tot_abs_Q>
0

> <r_epik_Metal_State_Penalty>
-0

> <b_epik_Metal_Only>
0

> <s_lp_Force_Field>
OPLS_2005

> <r_lp_Energy>
47.1955

> <b_lp_Chiralities_Consistent>
1

> <s_lp_Variant>
AV-unprocessed.smi:15-6

> <Gold.Version>
5.8.1

> <Gold.Id.Protein>
6NUR|6NUR_protein|mol2

> <Gold.PLP.Fitness>
47.5038

> <Gold.PLP.PLP>
-45.7052

> <Gold.PLP.part.hbond>
-1.5497

> <Gold.PLP.part.metal>
0.0000

> <Gold.PLP.part.buried>
-7.8845

> <Gold.PLP.part.nonpolar>
-36.4097

> <Gold.PLP.part.repulsive>
0.0476

> <Gold.PLP.ligand.clash>
0.0000

> <Gold.PLP.ligand.torsion>
1.0782

> <Gold.PLP.Chemscore.Hbond>
1.0000

> <Gold.PLP.Chemscore.CHOScore>
0.0000

> <Gold.PLP.Chemscore.Metal>
0.0000

> <Gold.Chemscore.Hbonds>
donor molecule, donor type, donor heavy atom, donor atom, acceptor molecule, acceptor atom, score
      P1  H  6896  6909       L1    13  1.00

> <Gold.PLP.Chemscore.Internal.Correction>
0.9550

> <Gold.Rescore>
     Score         DG    S(hbond)    S(metal)    S(lipo)     H(rot)  DE(clash)    DE(int)     intcor
     14.23     -15.44       0.99        0.00     110.28       2.44       0.06       1.14       ----

> <Gold.Chemscore.Fitness>
14.2309

> <Gold.Chemscore.DG>
-15.4374

> <Gold.Chemscore.ZeroCoef>
-5.4800

> <Gold.Chemscore.Hbond>
0.9907

> <Gold.Chemscore.Metal>
0.0000

> <Gold.Chemscore.Lipo>
110.2808

> <Gold.Chemscore.Internal_Hbond>
0.0000

> <Gold.Chemscore.DEClash>
0.0637

> <Gold.Chemscore.DEInternal>
1.1429

> <Gold.Chemscore.Rot>
2.4431

> <Gold.Chemscore.Internal.Correction>
   9.000000E+99

> <Gold.Chemscore.Hbonds>
donor molecule, donor type, donor heavy atom, donor atom, acceptor molecule, acceptor atom, score
      P1  H  6896  6909       L1    13  0.85

> <Gold.Chemscore.Hbond.Weighted>
-3.3090

> <Gold.Chemscore.Metal.Weighted>
-0.0000

> <Gold.Chemscore.Lipo.Weighted>
-12.9028

> <Gold.Chemscore.Internal_Hbond.Weighted>
0.0000

> <Gold.Chemscore.DEClash.Weighted>
0.0637

> <Gold.Chemscore.DEInternal.Weighted>
1.1429

> <Gold.Chemscore.Rot.Weighted>
6.2544

> <Gold.Chemscore.Internal.Correction.Weighted>
   9.000000E+99

> <Gold.Protein.RotatedTorsions>
[ 6907 6896 6895 6894 ] final   98.85 input  -60.11 | X-H torsion
[ 7974 7965 7964 7962 ] final -118.55 input  175.53 | X-H torsion
[ 8008 7997 7996 7995 ] final  119.20 input   59.86 | X-H torsion
[ 10167 10162 10161 10158 ] final -143.43 input  -65.29 | X-H torsion
[ 10718 10713 10712 10709 ] final  168.39 input   66.30 | X-H torsion
[ 10763 10752 10751 10750 ] final   -1.50 input  -60.55 | X-H torsion
[ 11005 11000 10999 10996 ] final  160.84 input  -57.11 | X-H torsion

> <Gold.Protein.ActiveResidues>
 VAL166  LYS551  ARG553  GLY616  TRP617  ASP618  TYR619  PRO620  LYS621  CYS622 
 ASP623  PHE694  ASN695  SER759  ASP760  ASP761  ALA762  ILE779  LEU786  VAL792 
 PHE793  MET794  SER795  GLU796  ALA797  LYS798  CYS799  TRP800  GLU811  SER814 

> <Gold.Protein.RotatedAtoms>
  152.5402  134.0517  159.8112 H   0  0  0  0  0  0  0  0  0  0  0  0  # atno 6907 bound_to 6896
  151.0658  133.5499  159.2638 H   0  0  0  0  0  0  0  0  0  0  0  0  # atno 6908 bound_to 6896
  151.2380  135.0587  159.9068 H   0  0  0  0  0  0  0  0  0  0  0  0  # atno 6909 bound_to 6896
  145.0726  140.8370  143.4086 H   0  0  0  0  0  0  0  0  0  0  0  0  # atno 7974 bound_to 7965
  156.2584  140.2858  156.0955 H   0  0  0  0  0  0  0  0  0  0  0  0  # atno 8008 bound_to 7997
  155.1416  140.0395  157.2817 H   0  0  0  0  0  0  0  0  0  0  0  0  # atno 8009 bound_to 7997
  154.6525  140.2548  155.7204 H   0  0  0  0  0  0  0  0  0  0  0  0  # atno 8010 bound_to 7997
  139.7994  143.7854  152.2657 H   0  0  0  0  0  0  0  0  0  0  0  0  # atno 10167 bound_to 10162
  157.0378  131.0278  151.2723 H   0  0  0  0  0  0  0  0  0  0  0  0  # atno 10718 bound_to 10713
  153.3457  135.6983  153.6830 H   0  0  0  0  0  0  0  0  0  0  0  0  # atno 10763 bound_to 10752
  153.5577  135.3541  155.2787 H   0  0  0  0  0  0  0  0  0  0  0  0  # atno 10764 bound_to 10752
  154.8644  135.4242  154.2680 H   0  0  0  0  0  0  0  0  0  0  0  0  # atno 10765 bound_to 10752
  140.2099  134.8275  157.3109 H   0  0  0  0  0  0  0  0  0  0  0  0  # atno 11005 bound_to 11000
  145.1274  139.2654  143.5557 LP  0  0  0  0  0  0  0  0  0  0  0  0  # atno 17320 bound_to 7965
  146.3529  140.0915  142.8612 LP  0  0  0  0  0  0  0  0  0  0  0  0  # atno 17321 bound_to 7965
  139.7970  144.7389  150.9877 LP  0  0  0  0  0  0  0  0  0  0  0  0  # atno 17342 bound_to 10162
  140.7820  143.4384  151.0589 LP  0  0  0  0  0  0  0  0  0  0  0  0  # atno 17343 bound_to 10162
  157.5128  130.7949  149.7723 LP  0  0  0  0  0  0  0  0  0  0  0  0  # atno 17370 bound_to 10713
  156.0048  130.3861  150.2472 LP  0  0  0  0  0  0  0  0  0  0  0  0  # atno 17371 bound_to 10713
  140.1962  134.4311  155.7688 LP  0  0  0  0  0  0  0  0  0  0  0  0  # atno 17394 bound_to 11000
  141.2226  133.7050  156.8108 LP  0  0  0  0  0  0  0  0  0  0  0  0  # atno 17395 bound_to 11000

$$$$
