#       Name:                AV-unprocessed.smi:139
#       Creating user name   scv26
#       Creation time:       Thu Mar 26 18:33:44 2020


#       File generated by GOLD software.
#

@<TRIPOS>MOLECULE
AV-unprocessed.smi:139
    58    61     1
SMALL
NO_CHARGES


@<TRIPOS>ATOM
      1 ****        -0.8043   0.1177  -0.6288 O.2            1 S1                 0.0000
      2 ****        -0.1701  -0.9220  -0.8139 C.2            1 S1                 0.0000
      3 ****         1.3568  -0.9570  -0.6527 C.3            1 S1                 0.0000
      4 ****         1.9138   0.2595  -0.0218 N.am           1 S1                 0.0000
      5 ****         2.3177   1.3342  -0.8523 C.2            1 S1                 0.0000
      6 ****         2.2104   1.2699  -2.0779 O.2            1 S1                 0.0000
      7 ****         2.8551   2.4989  -0.1582 C.2            1 S1                 0.0000
      8 ****         3.2773   3.5600  -0.8666 F              1 S1                 0.0000
      9 ****         2.9418   2.5271   1.1876 C.2            1 S1                 0.0000
     10 ****         2.5304   1.4759   1.9874 N.am           1 S1                 0.0000
     11 ****         2.6377   1.5341   3.4974 C.3            1 S1                 0.0000
     12 ****         3.8911   0.7904   3.9704 C.3            1 S1                 0.0000
     13 ****         4.9263   1.8931   3.9448 C.3            1 S1                 0.0000
     14 ****         4.1030   3.1020   4.3784 C.3            1 S1                 0.0000
     15 ****         2.7781   2.8656   3.9025 O.3            1 S1                 0.0000
     16 ****         2.0011   0.3113   1.3897 C.2            1 S1                 0.0000
     17 ****         1.6265  -0.6365   2.0839 O.2            1 S1                 0.0000
     18 ****        -0.7414  -2.0824  -1.1776 N.am           1 S1                 0.0000
     19 ****        -2.1673  -2.3232  -1.4142 C.3            1 S1                 0.0000
     20 ****        -2.9763  -2.2509  -0.1020 C.3            1 S1                 0.0000
     21 ****        -4.4807  -2.3353  -0.3651 C.3            1 S1                 0.0000
     22 ****        -4.9464  -1.1764  -1.2531 C.3            1 S1                 0.0000
     23 ****        -4.0801  -0.9767  -2.4874 C.ar           1 S1                 0.0000
     24 ****        -4.6055  -0.2382  -3.5686 C.ar           1 S1                 0.0000
     25 ****        -3.8372  -0.0240  -4.7274 C.ar           1 S1                 0.0000
     26 ****        -2.5364  -0.5507  -4.8126 C.ar           1 S1                 0.0000
     27 ****        -2.0045  -1.2867  -3.7377 C.ar           1 S1                 0.0000
     28 ****        -2.7621  -1.4990  -2.5625 C.ar           1 S1                 0.0000
     29 ****         1.6294  -1.8470  -0.0830 H              1 S1                 0.0000
     30 ****         1.7990  -1.1286  -1.6353 H              1 S1                 0.0000
     31 ****         3.3547   3.4151   1.6416 H              1 S1                 0.0000
     32 ****         1.7013   1.1230   3.8782 H              1 S1                 0.0000
     33 ****         3.7264   0.4433   4.9911 H              1 S1                 0.0000
     34 ****         4.1355  -0.0654   3.3403 H              1 S1                 0.0000
     35 ****         5.7770   1.6990   4.5982 H              1 S1                 0.0000
     36 ****         5.3004   2.0337   2.9300 H              1 S1                 0.0000
     37 ****         4.0733   3.1695   5.4665 H              1 S1                 0.0000
     38 ****         4.5041   4.0389   3.9918 H              1 S1                 0.0000
     39 ****        -0.1305  -2.8753  -1.3089 H              1 S1                 0.0000
     40 ****        -2.2271  -3.3554  -1.7612 H              1 S1                 0.0000
     41 ****        -2.6621  -3.0448   0.5763 H              1 S1                 0.0000
     42 ****        -2.7804  -1.3118   0.4162 H              1 S1                 0.0000
     43 ****        -4.7046  -3.2837  -0.8549 H              1 S1                 0.0000
     44 ****        -5.0343  -2.3320   0.5741 H              1 S1                 0.0000
     45 ****        -5.9819  -1.3381  -1.5549 H              1 S1                 0.0000
     46 ****        -4.9290  -0.2483  -0.6807 H              1 S1                 0.0000
     47 ****        -5.6047   0.1682  -3.5112 H              1 S1                 0.0000
     48 ****        -4.2466   0.5422  -5.5509 H              1 S1                 0.0000
     49 ****        -1.9463  -0.3922  -5.7030 H              1 S1                 0.0000
     50 ****        -1.0066  -1.6907  -3.8235 H              1 S1                 0.0000
     51 ****        -0.3252   0.9562  -0.3693 LP             1 S1                 0.0000
     52 ****        -1.7983   0.1232  -0.7380 LP             1 S1                 0.0000
     53 ****         1.8323   0.4481  -2.5043 LP             1 S1                 0.0000
     54 ****         2.5013   2.0395  -2.6463 LP             1 S1                 0.0000
     55 ****         2.1252   3.0580   4.6352 LP             1 S1                 0.0000
     56 ****         2.5943   3.4678   3.1256 LP             1 S1                 0.0000
     57 ****         1.2544  -1.4573   1.6506 LP             1 S1                 0.0000
     58 ****         1.6948  -0.5843   3.0802 LP             1 S1                 0.0000
@<TRIPOS>BOND
    1    1    2 2     
    2    2    3 1     
    3    2   18 am    
    4    3    4 1     
    5    3   29 1     
    6    3   30 1     
    7    4   16 am    
    8    4    5 am    
    9    5    6 2     
   10    5    7 1     
   11    7    8 1     
   12    7    9 2     
   13    9   10 1     
   14    9   31 1     
   15   10   11 1     
   16   10   16 am    
   17   11   15 1     
   18   11   12 1     
   19   11   32 1     
   20   12   13 1     
   21   12   33 1     
   22   12   34 1     
   23   13   14 1     
   24   13   35 1     
   25   13   36 1     
   26   14   15 1     
   27   14   37 1     
   28   14   38 1     
   29   16   17 2     
   30   18   19 1     
   31   18   39 1     
   32   19   28 1     
   33   19   20 1     
   34   19   40 1     
   35   20   21 1     
   36   20   41 1     
   37   20   42 1     
   38   21   22 1     
   39   21   43 1     
   40   21   44 1     
   41   22   23 1     
   42   22   45 1     
   43   22   46 1     
   44   23   28 ar    
   45   23   24 ar    
   46   24   25 ar    
   47   24   47 1     
   48   25   26 ar    
   49   25   48 1     
   50   26   27 ar    
   51   26   49 1     
   52   27   28 ar    
   53   27   50 1     
   54    1   51 1     
   55    1   52 1     
   56    6   53 1     
   57    6   54 1     
   58   15   55 1     
   59   15   56 1     
   60   17   57 1     
   61   17   58 1     
@<TRIPOS>SUBSTRUCTURE
      1 S1             1
@<TRIPOS>SET
LONE_PAIRS      STATIC     ATOMS    <user>   **** ""
8 51 52 53 54 55 56 57 58
DONOR_HYDROGENS      STATIC     ATOMS    <user>   **** ""
1 39
ATOM$BLUE        STATIC     ATOMS    COLORGROUP SYSTEM
8 51 52 53 54 55 56 57 58
ATOM$RED        STATIC     ATOMS    COLORGROUP SYSTEM
1 39
