#       Name:                AV-unprocessed.smi:1208
#       Creating user name   scv26
#       Creation time:       Fri Mar 27 04:10:37 2020


#       File generated by GOLD software.
#

@<TRIPOS>MOLECULE
AV-unprocessed.smi:1208
    45    46     1
SMALL
NO_CHARGES


@<TRIPOS>ATOM
      1 ****        -2.1684  -1.4960  -1.8171 C.3            1 S1                 0.0000
      2 ****        -1.6285  -0.8712  -0.5193 C.3            1 S1                 0.0000
      3 ****        -0.1683  -0.8933  -0.5392 N.am           1 S1                 0.0000
      4 ****         0.6200   0.0820  -1.0163 C.2            1 S1                 0.0000
      5 ****         0.1854   1.1115  -1.5345 O.2            1 S1                 0.0000
      6 ****         2.1324  -0.1605  -0.9121 C.3            1 S1                 0.0000
      7 ****         2.8973   1.0756  -0.6951 N.am           1 S1                 0.0000
      8 ****         3.4990   1.5803  -1.8381 N.2            1 S1                 0.0000
      9 ****         4.1849   2.6714  -1.7769 C.2            1 S1                 0.0000
     10 ****         4.7605   3.1377  -2.9331 O.3            1 S1                 0.0000
     11 ****         4.3460   3.3860  -0.5297 C.2            1 S1                 0.0000
     12 ****         3.7615   2.8829   0.5795 C.2            1 S1                 0.0000
     13 ****         2.9778   1.6469   0.5461 C.2            1 S1                 0.0000
     14 ****         2.4391   1.1633   1.5417 O.2            1 S1                 0.0000
     15 ****        -2.1270  -1.6060   0.7402 C.3            1 S1                 0.0000
     16 ****        -3.6463  -1.5901   0.9275 C.3            1 S1                 0.0000
     17 ****        -3.7776  -1.7195   2.4272 C.3            1 S1                 0.0000
     18 ****        -2.6200  -0.8524   2.9066 C.3            1 S1                 0.0000
     19 ****        -1.6055  -0.9844   1.9155 O.3            1 S1                 0.0000
     20 ****         4.5094   2.5214  -3.6039 H              1 S1                 0.0000
     21 ****        -3.2569  -1.4533  -1.8558 H              1 S1                 0.0000
     22 ****        -1.8727  -2.5418  -1.9066 H              1 S1                 0.0000
     23 ****        -1.7936  -0.9681  -2.6946 H              1 S1                 0.0000
     24 ****        -1.9724   0.1632  -0.4630 H              1 S1                 0.0000
     25 ****         0.2765  -1.7025  -0.1305 H              1 S1                 0.0000
     26 ****         2.3419  -0.8729  -0.1115 H              1 S1                 0.0000
     27 ****         2.4573  -0.6505  -1.8316 H              1 S1                 0.0000
     28 ****         4.9218   4.2991  -0.4963 H              1 S1                 0.0000
     29 ****         3.8731   3.4063   1.5178 H              1 S1                 0.0000
     30 ****        -1.7804  -2.6409   0.7367 H              1 S1                 0.0000
     31 ****        -4.0662  -0.6374   0.6008 H              1 S1                 0.0000
     32 ****        -4.1509  -2.3899   0.3848 H              1 S1                 0.0000
     33 ****        -4.7451  -1.3888   2.8059 H              1 S1                 0.0000
     34 ****        -3.6245  -2.7561   2.7306 H              1 S1                 0.0000
     35 ****        -2.9232   0.1943   2.9528 H              1 S1                 0.0000
     36 ****        -2.2574  -1.1448   3.8922 H              1 S1                 0.0000
     37 ****        -0.8013   1.2521  -1.6160 LP             1 S1                 0.0000
     38 ****         0.8193   1.8066  -1.8737 LP             1 S1                 0.0000
     39 ****         3.4014   1.0989  -2.7092 LP             1 S1                 0.0000
     40 ****         5.7558   3.1685  -2.8409 LP             1 S1                 0.0000
     41 ****         4.4175   4.0513  -3.1511 LP             1 S1                 0.0000
     42 ****         1.9141   0.3157   1.4641 LP             1 S1                 0.0000
     43 ****         2.5265   1.6179   2.4280 LP             1 S1                 0.0000
     44 ****        -1.2564  -0.0774   1.6800 LP             1 S1                 0.0000
     45 ****        -0.8610  -1.5438   2.2800 LP             1 S1                 0.0000
@<TRIPOS>BOND
    1    1    2 1     
    2    1   21 1     
    3    1   22 1     
    4    1   23 1     
    5    2    3 1     
    6    2   15 1     
    7    2   24 1     
    8    3    4 am    
    9    3   25 1     
   10    4    5 2     
   11    4    6 1     
   12    6   26 1     
   13    6   27 1     
   14    6    7 1     
   15    7    8 1     
   16    7   13 am    
   17    8    9 2     
   18    9   10 1     
   19    9   11 1     
   20   10   20 1     
   21   11   28 1     
   22   11   12 2     
   23   12   29 1     
   24   12   13 1     
   25   13   14 2     
   26   15   19 1     
   27   15   16 1     
   28   15   30 1     
   29   16   17 1     
   30   16   31 1     
   31   16   32 1     
   32   17   18 1     
   33   17   33 1     
   34   17   34 1     
   35   18   19 1     
   36   18   35 1     
   37   18   36 1     
   38    5   37 1     
   39    5   38 1     
   40    8   39 1     
   41   10   40 1     
   42   10   41 1     
   43   14   42 1     
   44   14   43 1     
   45   19   44 1     
   46   19   45 1     
@<TRIPOS>SUBSTRUCTURE
      1 S1             1
@<TRIPOS>SET
LONE_PAIRS      STATIC     ATOMS    <user>   **** ""
9 37 38 39 40 41 42 43 44 45
DONOR_HYDROGENS      STATIC     ATOMS    <user>   **** ""
2 25 20
ATOM$BLUE        STATIC     ATOMS    COLORGROUP SYSTEM
9 37 38 39 40 41 42 43 44 45
ATOM$RED        STATIC     ATOMS    COLORGROUP SYSTEM
2 25 20
