#       Name:                AV-unprocessed.smi:1875
#       Creating user name   scv26
#       Creation time:       Fri Mar 27 09:34:41 2020


#       File generated by GOLD software.
#

@<TRIPOS>MOLECULE
AV-unprocessed.smi:1875
    53    55     1
SMALL
NO_CHARGES


@<TRIPOS>ATOM
      1 ****        -3.0809   5.3135  -1.8623 C.3            1 S1                 0.0000
      2 ****        -2.5256   4.9837  -0.4923 C.ar           1 S1                 0.0000
      3 ****        -2.4962   5.9776   0.4011 N.ar           1 S1                 0.0000
      4 ****        -1.9945   5.6870   1.6215 C.ar           1 S1                 0.0000
      5 ****        -1.5217   4.3986   1.9426 C.ar           1 S1                 0.0000
      6 ****        -1.6042   3.4329   0.9176 C.ar           1 S1                 0.0000
      7 ****        -1.1164   2.0156   1.1326 C.3            1 S1                 0.0000
      8 ****         0.3399   1.9340   1.1167 N.3            1 S1                 0.0000
      9 ****         0.8386   0.5721   1.2750 C.3            1 S1                 0.0000
     10 ****         2.3788   0.5350   1.2707 C.3            1 S1                 0.0000
     11 ****         2.8400   0.9587   2.5367 O.3            1 S1                 0.0000
     12 ****         2.9655  -0.8690   1.0231 C.3            1 S1                 0.0000
     13 ****         2.6478  -1.3973  -0.3113 N.pl3          1 S1                 0.0000
     14 ****         3.2396  -1.1316  -1.5075 C.2            1 S1                 0.0000
     15 ****         2.5990  -1.8683  -2.4563 N.pl3          1 S1                 1.0000
     16 ****         1.5833  -2.6166  -1.8579 C.ar           1 S1                 0.0000
     17 ****         0.6672  -3.5067  -2.4057 C.ar           1 S1                 0.0000
     18 ****        -0.2553  -4.1092  -1.5212 C.ar           1 S1                 0.0000
     19 ****        -1.2731  -5.0843  -2.0884 C.3            1 S1                 0.0000
     20 ****        -0.2376  -3.8109  -0.1341 C.ar           1 S1                 0.0000
     21 ****        -1.2397  -4.4576   0.8070 C.3            1 S1                 0.0000
     22 ****         0.7065  -2.9076   0.4046 C.ar           1 S1                 0.0000
     23 ****         1.6085  -2.3208  -0.4808 C.ar           1 S1                 0.0000
     24 ****        -2.1053   3.7293  -0.3021 N.ar           1 S1                 0.0000
     25 ****        -3.7839   6.1458  -1.8118 H              1 S1                 0.0000
     26 ****        -3.6046   4.4560  -2.2866 H              1 S1                 0.0000
     27 ****        -2.2710   5.5893  -2.5381 H              1 S1                 0.0000
     28 ****        -1.9682   6.4877   2.3455 H              1 S1                 0.0000
     29 ****        -1.1187   4.1672   2.9176 H              1 S1                 0.0000
     30 ****        -1.5035   1.6566   2.0870 H              1 S1                 0.0000
     31 ****        -1.5389   1.3702   0.3611 H              1 S1                 0.0000
     32 ****         0.7131   2.5158   1.8597 H              1 S1                 0.0000
     33 ****         0.4524   0.1202   2.1898 H              1 S1                 0.0000
     34 ****         0.4541  -0.0275   0.4509 H              1 S1                 0.0000
     35 ****         2.7680   1.2167   0.5128 H              1 S1                 0.0000
     36 ****         2.5528   1.8477   2.6792 H              1 S1                 0.0000
     37 ****         4.0537  -0.8317   1.0933 H              1 S1                 0.0000
     38 ****         2.6381  -1.5764   1.7850 H              1 S1                 0.0000
     39 ****         4.0687  -0.4587  -1.6732 H              1 S1                 0.0000
     40 ****         0.6582  -3.7266  -3.4633 H              1 S1                 0.0000
     41 ****        -1.1947  -6.0532  -1.5943 H              1 S1                 0.0000
     42 ****        -1.1211  -5.2430  -3.1565 H              1 S1                 0.0000
     43 ****        -2.2854  -4.7041  -1.9484 H              1 S1                 0.0000
     44 ****        -1.1259  -4.0880   1.8265 H              1 S1                 0.0000
     45 ****        -1.1039  -5.5391   0.8262 H              1 S1                 0.0000
     46 ****        -2.2596  -4.2416   0.4885 H              1 S1                 0.0000
     47 ****         0.7152  -2.6814   1.4604 H              1 S1                 0.0000
     48 ****         2.8392  -1.8588  -3.4394 H              1 S1                 0.0000
     49 ****        -2.8298   6.8932   0.1767 LP             1 S1                 0.0000
     50 ****         0.6442   2.2545   0.2196 LP             1 S1                 0.0000
     51 ****         3.8389   0.9189   2.5622 LP             1 S1                 0.0000
     52 ****         2.4645   0.3649   3.2483 LP             1 S1                 0.0000
     53 ****        -2.1590   3.0430  -1.0275 LP             1 S1                 0.0000
@<TRIPOS>BOND
    1    1    2 1     
    2    1   25 1     
    3    1   26 1     
    4    1   27 1     
    5    2   24 ar    
    6    2    3 ar    
    7    3    4 ar    
    8    4    5 ar    
    9    4   28 1     
   10    5    6 ar    
   11    5   29 1     
   12    6    7 1     
   13    6   24 ar    
   14    7    8 1     
   15    7   30 1     
   16    7   31 1     
   17    8    9 1     
   18    8   32 1     
   19    9   10 1     
   20    9   33 1     
   21    9   34 1     
   22   10   11 1     
   23   10   12 1     
   24   10   35 1     
   25   11   36 1     
   26   12   13 1     
   27   12   37 1     
   28   12   38 1     
   29   13   23 1     
   30   13   14 1     
   31   14   15 2     
   32   14   39 1     
   33   15   16 1     
   34   15   48 1     
   35   16   23 ar    
   36   16   17 ar    
   37   17   18 ar    
   38   17   40 1     
   39   18   19 1     
   40   18   20 ar    
   41   19   41 1     
   42   19   42 1     
   43   19   43 1     
   44   20   21 1     
   45   20   22 ar    
   46   21   44 1     
   47   21   45 1     
   48   21   46 1     
   49   22   23 ar    
   50   22   47 1     
   51    3   49 1     
   52    8   50 1     
   53   11   51 1     
   54   11   52 1     
   55   24   53 1     
@<TRIPOS>SUBSTRUCTURE
      1 S1             1
@<TRIPOS>SET
LONE_PAIRS      STATIC     ATOMS    <user>   **** ""
5 49 50 51 52 53
DONOR_HYDROGENS      STATIC     ATOMS    <user>   **** ""
3 32 36 48
ATOM$BLUE        STATIC     ATOMS    COLORGROUP SYSTEM
5 49 50 51 52 53
ATOM$RED        STATIC     ATOMS    COLORGROUP SYSTEM
3 32 36 48
