AV-unprocessed.smi:2528|AV-procd|sdf|9955|dock3
  -GOLD-   2272013593D 1   1.00000     0.00000
 Structure written by MMmdl.
 44 46  0  0  0  0  0  0  0  0  2 V2000
  150.1381  140.3975  156.3100 O   0  0  0  0  0  0  0  0  0  0  0  0
  150.0126  141.5915  156.0359 C   0  0  0  0  0  0  0  0  0  0  0  0
  149.2649  142.0368  155.0158 N   0  0  0  0  0  0  0  0  0  0  0  0
  148.4937  141.1887  154.1125 C   0  0  0  0  0  0  0  0  0  0  0  0
  147.0444  141.6822  153.9549 C   0  0  1  0  0  0  0  0  0  0  0  0
  146.1477  141.2167  155.1162 C   0  0  0  0  0  0  0  0  0  0  0  0
  144.7764  141.7534  154.9574 N   0  3  1  0  0  0  0  0  0  0  0  0
  143.8590  141.2916  156.0296 C   0  0  0  0  0  0  0  0  0  0  0  0
  142.4254  141.7861  155.7799 C   0  0  0  0  0  0  0  0  0  0  0  0
  142.3920  143.3141  155.6466 C   0  0  0  0  0  0  0  0  0  0  0  0
  143.3684  143.7680  154.5530 C   0  0  0  0  0  0  0  0  0  0  0  0
  144.7909  143.2351  154.8162 C   0  0  2  0  0  0  0  0  0  0  0  0
  145.7603  143.6473  153.6905 C   0  0  0  0  0  0  0  0  0  0  0  0
  147.0515  143.1058  153.9382 O   0  0  0  0  0  0  0  0  0  0  0  0
  150.5925  142.6084  156.6976 N   0  0  0  0  0  0  0  0  0  0  0  0
  151.4401  142.5457  157.8360 C   0  0  0  0  0  0  0  0  0  0  0  0
  151.9939  143.7821  158.2390 C   0  0  0  0  0  0  0  0  0  0  0  0
  152.8450  143.8275  159.3603 C   0  0  0  0  0  0  0  0  0  0  0  0
  153.1221  142.6340  160.0502 C   0  0  0  0  0  0  0  0  0  0  0  0
  152.5316  141.4457  159.5822 C   0  0  0  0  0  0  0  0  0  0  0  0
  151.7154  141.3996  158.5079 N   0  0  0  0  0  0  0  0  0  0  0  0
  149.2186  143.0326  154.8562 H   0  0  0  0  0  0  0  0  0  0  0  0
  148.9892  141.1510  153.1408 H   0  0  0  0  0  0  0  0  0  0  0  0
  148.5035  140.1710  154.5036 H   0  0  0  0  0  0  0  0  0  0  0  0
  146.6348  141.3079  153.0148 H   0  0  0  0  0  0  0  0  0  0  0  0
  146.1102  140.1269  155.1428 H   0  0  0  0  0  0  0  0  0  0  0  0
  146.5621  141.5476  156.0701 H   0  0  0  0  0  0  0  0  0  0  0  0
  143.8659  140.2018  156.0718 H   0  0  0  0  0  0  0  0  0  0  0  0
  144.2159  141.6493  156.9967 H   0  0  0  0  0  0  0  0  0  0  0  0
  142.0325  141.3287  154.8709 H   0  0  0  0  0  0  0  0  0  0  0  0
  141.7732  141.4680  156.5937 H   0  0  0  0  0  0  0  0  0  0  0  0
  141.3815  143.6505  155.4132 H   0  0  0  0  0  0  0  0  0  0  0  0
  142.6636  143.7739  156.5976 H   0  0  0  0  0  0  0  0  0  0  0  0
  143.0151  143.4157  153.5826 H   0  0  0  0  0  0  0  0  0  0  0  0
  143.3802  144.8574  154.4999 H   0  0  0  0  0  0  0  0  0  0  0  0
  145.1546  143.6600  155.7537 H   0  0  0  0  0  0  0  0  0  0  0  0
  145.3978  143.3155  152.7159 H   0  0  0  0  0  0  0  0  0  0  0  0
  145.8427  144.7336  153.6444 H   0  0  0  0  0  0  0  0  0  0  0  0
  150.3970  143.5371  156.3543 H   0  0  0  0  0  0  0  0  0  0  0  0
  151.7702  144.6905  157.6986 H   0  0  0  0  0  0  0  0  0  0  0  0
  153.2771  144.7626  159.6847 H   0  0  0  0  0  0  0  0  0  0  0  0
  153.7701  142.6288  160.9143 H   0  0  0  0  0  0  0  0  0  0  0  0
  152.7194  140.5073  160.0825 H   0  0  0  0  0  0  0  0  0  0  0  0
  144.4185  141.3821  154.0888 H   0  0  0  0  0  0  0  0  0  0  0  0
  1  2  2  0  0  0  0
  2  3  1  0  0  0  0
  2 15  1  0  0  0  0
  3  4  1  0  0  0  0
  3 22  1  0  0  0  0
  4  5  1  0  0  0  0
  4 23  1  0  0  0  0
  4 24  1  0  0  0  0
  5 14  1  0  0  0  0
  5  6  1  0  0  0  0
  5 25  1  0  0  0  0
  6  7  1  0  0  0  0
  6 26  1  0  0  0  0
  6 27  1  0  0  0  0
  7 12  1  0  0  0  0
  7  8  1  0  0  0  0
  7 44  1  0  0  0  0
  8  9  1  0  0  0  0
  8 28  1  0  0  0  0
  8 29  1  0  0  0  0
  9 10  1  0  0  0  0
  9 30  1  0  0  0  0
  9 31  1  0  0  0  0
 10 11  1  0  0  0  0
 10 32  1  0  0  0  0
 10 33  1  0  0  0  0
 11 12  1  0  0  0  0
 11 34  1  0  0  0  0
 11 35  1  0  0  0  0
 12 13  1  0  0  0  0
 12 36  1  0  0  0  0
 13 14  1  0  0  0  0
 13 37  1  0  0  0  0
 13 38  1  0  0  0  0
 15 16  1  0  0  0  0
 15 39  1  0  0  0  0
 16 21  1  0  0  0  0
 16 17  2  0  0  0  0
 17 18  1  0  0  0  0
 17 40  1  0  0  0  0
 18 19  2  0  0  0  0
 18 41  1  0  0  0  0
 19 20  1  0  0  0  0
 19 42  1  0  0  0  0
 20 21  2  0  0  0  0
 20 43  1  0  0  0  0
M  CHG  1   7   1
M  END
> <s_m_source_file>
AV-unprocessed.smi

> <i_m_source_file_index>
2528

> <i_lp_mmshare_version>
43012

> <i_f3d_flags>
0

> <s_epik_input>
bjFbY0hdW2NIXVtjSF1bY0hdYzFbTkhdQyg9TylbTkhdW0NIMl1bQ0BIXShbQ0gyXTIpT1tDSDJdW0NAQEhdKE4yMylbQ0gyXVtDSDJdW0NIMl1bQ0gyXTM=

> <s_epik_cmdline>
J2VwaWtfcHl0aG9uJywgJy1waCcsICc3LjAnLCAnLXRuJywgJzgnLCAnLW1hJywgJzIwMCcsICctbWV0YWxfYmluZGluZycsICctaW1hZScsICc8aW5maWxlLm1hZT4nLCAnLW9tYWUnLCAnPG91dGZpbGUubWFlPic=

> <r_epik_Ionization_Penalty>
0.0932337

> <r_epik_Ionization_Penalty_Charging>
0.0931942

> <r_epik_Ionization_Penalty_Neutral>
3.9565e-05

> <r_epik_State_Penalty>
0.0834605

> <r_epik_Charging_Adjusted_Penalty>
0.176655

> <i_epik_Tot_Q>
1

> <i_epik_Tot_abs_Q>
1

> <r_epik_Metal_State_Penalty>
0.0834607

> <b_epik_Metal_Only>
0

> <s_lp_Force_Field>
OPLS_2005

> <r_lp_Energy>
24.376

> <b_lp_Chiralities_Consistent>
1

> <s_lp_Variant>
AV-unprocessed.smi:2528-8

> <Gold.Version>
5.8.1

> <Gold.Id.Protein>
6NUR|6NUR_protein|mol2

> <Gold.PLP.Fitness>
48.8656

> <Gold.PLP.PLP>
-37.2990

> <Gold.PLP.part.hbond>
-4.0000

> <Gold.PLP.part.metal>
0.0000

> <Gold.PLP.part.buried>
-3.4512

> <Gold.PLP.part.nonpolar>
-31.4153

> <Gold.PLP.part.repulsive>
2.0206

> <Gold.PLP.ligand.clash>
0.0000

> <Gold.PLP.ligand.torsion>
0.2818

> <Gold.PLP.Chemscore.Hbond>
4.0430

> <Gold.PLP.Chemscore.CHOScore>
0.0000

> <Gold.PLP.Chemscore.Metal>
0.0000

> <Gold.Chemscore.Hbonds>
donor molecule, donor type, donor heavy atom, donor atom, acceptor molecule, acceptor atom, score
      L1  H     3    22       P1  8028  0.93
      L1  H     7    44       P1 10175  2.00
      L1  H    15    39       P1  8028  0.86
      P1  H  8022  8030       L1    14  0.20

> <Gold.PLP.Chemscore.Internal.Correction>
0.0012

> <Gold.Rescore>
     Score         DG    S(hbond)    S(metal)    S(lipo)     H(rot)  DE(clash)    DE(int)     intcor
     18.97     -21.45       2.87        0.00      82.78       1.29       0.94       1.54       ----

> <Gold.Chemscore.Fitness>
18.9651

> <Gold.Chemscore.DG>
-21.4513

> <Gold.Chemscore.ZeroCoef>
-5.4800

> <Gold.Chemscore.Hbond>
2.8684

> <Gold.Chemscore.Metal>
0.0000

> <Gold.Chemscore.Lipo>
82.7830

> <Gold.Chemscore.Internal_Hbond>
0.0000

> <Gold.Chemscore.DEClash>
0.9432

> <Gold.Chemscore.DEInternal>
1.5430

> <Gold.Chemscore.Rot>
1.2870

> <Gold.Chemscore.Internal.Correction>
   9.000000E+99

> <Gold.Chemscore.Hbonds>
donor molecule, donor type, donor heavy atom, donor atom, acceptor molecule, acceptor atom, score
      L1  H     3    22       P1  8028  0.89
      L1  H     7    44       P1 10175  0.39
      L1  H    15    39       P1  8028  0.78
      P1  H  8022  8030       L1    14  0.11

> <Gold.Chemscore.Hbond.Weighted>
-9.5805

> <Gold.Chemscore.Metal.Weighted>
-0.0000

> <Gold.Chemscore.Lipo.Weighted>
-9.6856

> <Gold.Chemscore.Internal_Hbond.Weighted>
0.0000

> <Gold.Chemscore.DEClash.Weighted>
0.9432

> <Gold.Chemscore.DEInternal.Weighted>
1.5430

> <Gold.Chemscore.Rot.Weighted>
3.2948

> <Gold.Chemscore.Internal.Correction.Weighted>
   9.000000E+99

> <Gold.Protein.RotatedTorsions>
[ 6907 6896 6895 6894 ] final  -78.72 input  -60.11 | X-H torsion
[ 7974 7965 7964 7962 ] final -109.14 input  175.53 | X-H torsion
[ 8008 7997 7996 7995 ] final   96.28 input   59.86 | X-H torsion
[ 10167 10162 10161 10158 ] final   48.01 input  -65.29 | X-H torsion
[ 10718 10713 10712 10709 ] final  -34.08 input   66.30 | X-H torsion
[ 10763 10752 10751 10750 ] final  -81.17 input  -60.55 | X-H torsion
[ 11005 11000 10999 10996 ] final   34.16 input  -57.11 | X-H torsion

> <Gold.Protein.ActiveResidues>
 VAL166  LYS551  ARG553  GLY616  TRP617  ASP618  TYR619  PRO620  LYS621  CYS622 
 ASP623  PHE694  ASN695  SER759  ASP760  ASP761  ALA762  ILE779  LEU786  VAL792 
 PHE793  MET794  SER795  GLU796  ALA797  LYS798  CYS799  TRP800  GLU811  SER814 

> <Gold.Protein.RotatedAtoms>
  150.6966  134.4229  159.5212 H   0  0  0  0  0  0  0  0  0  0  0  0  # atno 6907 bound_to 6896
  152.1969  134.8620  160.0521 H   0  0  0  0  0  0  0  0  0  0  0  0  # atno 6908 bound_to 6896
  151.9555  133.3644  159.4052 H   0  0  0  0  0  0  0  0  0  0  0  0  # atno 6909 bound_to 6896
  145.1842  140.8985  143.3462 H   0  0  0  0  0  0  0  0  0  0  0  0  # atno 7974 bound_to 7965
  156.0779  140.3275  155.7657 H   0  0  0  0  0  0  0  0  0  0  0  0  # atno 8008 bound_to 7997
  155.5200  140.0584  157.2926 H   0  0  0  0  0  0  0  0  0  0  0  0  # atno 8009 bound_to 7997
  154.4566  140.1945  156.0381 H   0  0  0  0  0  0  0  0  0  0  0  0  # atno 8010 bound_to 7997
  140.2977  144.2971  150.6226 H   0  0  0  0  0  0  0  0  0  0  0  0  # atno 10167 bound_to 10162
  156.3549  130.4314  149.7673 H   0  0  0  0  0  0  0  0  0  0  0  0  # atno 10718 bound_to 10713
  154.5603  135.5635  153.7001 H   0  0  0  0  0  0  0  0  0  0  0  0  # atno 10763 bound_to 10752
  153.0016  135.6272  154.2254 H   0  0  0  0  0  0  0  0  0  0  0  0  # atno 10764 bound_to 10752
  154.2191  135.2870  155.2911 H   0  0  0  0  0  0  0  0  0  0  0  0  # atno 10765 bound_to 10752
  140.2557  134.3251  155.7875 H   0  0  0  0  0  0  0  0  0  0  0  0  # atno 11005 bound_to 11000
  145.0106  139.3514  143.6122 LP  0  0  0  0  0  0  0  0  0  0  0  0  # atno 17320 bound_to 7965
  146.3448  139.9366  142.8746 LP  0  0  0  0  0  0  0  0  0  0  0  0  # atno 17321 bound_to 7965
  140.5678  143.2184  151.7653 LP  0  0  0  0  0  0  0  0  0  0  0  0  # atno 17342 bound_to 10162
  139.4922  144.4260  151.9926 LP  0  0  0  0  0  0  0  0  0  0  0  0  # atno 17343 bound_to 10162
  156.4859  130.8062  151.3075 LP  0  0  0  0  0  0  0  0  0  0  0  0  # atno 17370 bound_to 10713
  157.7466  130.9991  150.2876 LP  0  0  0  0  0  0  0  0  0  0  0  0  # atno 17371 bound_to 10713
  141.2196  133.7379  156.9107 LP  0  0  0  0  0  0  0  0  0  0  0  0  # atno 17394 bound_to 11000
  140.1514  134.9227  157.2598 LP  0  0  0  0  0  0  0  0  0  0  0  0  # atno 17395 bound_to 11000

$$$$
