#       Name:                AV-unprocessed.smi:3261
#       Creating user name   scv26
#       Creation time:       Fri Mar 27 18:38:12 2020


#       File generated by GOLD software.
#

@<TRIPOS>MOLECULE
AV-unprocessed.smi:3261
    33    34     1
SMALL
NO_CHARGES


@<TRIPOS>ATOM
      1 ****         0.5832   2.5572   0.8343 O.2            1 S1                 0.0000
      2 ****         0.0851   1.4696   0.5483 C.2            1 S1                 0.0000
      3 ****         0.8873   0.3778   0.4845 N.am           1 S1                 0.0000
      4 ****         2.2960   0.2887   0.6439 C.ar           1 S1                 0.0000
      5 ****         2.8266  -0.9317   1.1162 C.ar           1 S1                 0.0000
      6 ****         4.2213  -1.0702   1.2674 C.ar           1 S1                 0.0000
      7 ****         5.0379  -0.0430   0.9485 N.pl3          1 S1                 1.0000
      8 ****         4.5779   1.1353   0.4752 C.ar           1 S1                 0.0000
      9 ****         3.1928   1.3321   0.3025 C.ar           1 S1                 0.0000
     10 ****        -1.2577   1.3419   0.3201 N.pl3          1 S1                -1.0000
     11 ****        -2.0298   0.1380  -0.0260 C.3            1 S1                 0.0000
     12 ****        -2.0042  -0.1271  -1.5457 C.3            1 S1                 0.0000
     13 ****        -3.0960  -1.1522  -1.8840 C.3            1 S1                 0.0000
     14 ****        -4.4444  -0.8640  -0.6733 S.o2           1 S1                 0.0000
     15 ****        -5.5424  -0.1331  -1.3245 O.2            1 S1                 0.0000
     16 ****        -4.7025  -2.1138   0.0593 O.2            1 S1                 0.0000
     17 ****        -3.4986   0.2945   0.3915 C.3            1 S1                 0.0000
     18 ****         0.4065  -0.5019   0.3657 H              1 S1                 0.0000
     19 ****         2.1713  -1.7532   1.3679 H              1 S1                 0.0000
     20 ****         4.7040  -1.9664   1.6290 H              1 S1                 0.0000
     21 ****         5.3264   1.8788   0.2436 H              1 S1                 0.0000
     22 ****         2.8421   2.2713  -0.0982 H              1 S1                 0.0000
     23 ****        -1.6402  -0.7512   0.4723 H              1 S1                 0.0000
     24 ****        -2.2204   0.8000  -2.0792 H              1 S1                 0.0000
     25 ****        -1.0241  -0.4659  -1.8822 H              1 S1                 0.0000
     26 ****        -3.4748  -1.0436  -2.9000 H              1 S1                 0.0000
     27 ****        -2.7357  -2.1741  -1.7560 H              1 S1                 0.0000
     28 ****        -3.6693   0.0665   1.4435 H              1 S1                 0.0000
     29 ****        -3.8631   1.3027   0.1902 H              1 S1                 0.0000
     30 ****         6.0444  -0.1641   1.0641 H              1 S1                 0.0000
     31 ****         1.5643   2.6258   1.0152 LP             1 S1                 0.0000
     32 ****         0.0071   3.3730   0.8860 LP             1 S1                 0.0000
     33 ****        -1.7892   2.1852   0.3997 LP             1 S1                 0.0000
@<TRIPOS>BOND
    1    1    2 2     
    2    2    3 am    
    3    2   10 1     
    4    3    4 1     
    5    3   18 1     
    6    4    9 ar    
    7    4    5 ar    
    8    5    6 ar    
    9    5   19 1     
   10    6    7 ar    
   11    6   20 1     
   12    7    8 ar    
   13    7   30 1     
   14    8    9 ar    
   15    8   21 1     
   16    9   22 1     
   17   10   11 1     
   18   11   17 1     
   19   11   12 1     
   20   11   23 1     
   21   12   13 1     
   22   12   24 1     
   23   12   25 1     
   24   13   14 1     
   25   13   26 1     
   26   13   27 1     
   27   14   15 2     
   28   14   16 2     
   29   14   17 1     
   30   17   28 1     
   31   17   29 1     
   32    1   31 1     
   33    1   32 1     
   34   10   33 1     
@<TRIPOS>SUBSTRUCTURE
      1 S1             1
@<TRIPOS>SET
LONE_PAIRS      STATIC     ATOMS    <user>   **** ""
5 31 32 33 15 16
DONOR_HYDROGENS      STATIC     ATOMS    <user>   **** ""
2 18 30
ATOM$BLUE        STATIC     ATOMS    COLORGROUP SYSTEM
5 31 32 33 15 16
ATOM$RED        STATIC     ATOMS    COLORGROUP SYSTEM
2 18 30
