AV-unprocessed.smi:1251|AV-procd|sdf|5263|dock6
  -GOLD-   22720 4373D 1   1.00000     0.00000
 Structure written by MMmdl.
 38 39  0  0  0  0  0  0  0  0  2 V2000
  146.2870  141.5402  155.6788 C   0  0  0  0  0  0  0  0  0  0  0  0
  147.6155  140.9763  156.1948 C   0  0  0  0  0  0  0  0  0  0  0  0
  148.4657  140.3573  155.0765 C   0  0  0  0  0  0  0  0  0  0  0  0
  149.8363  139.9871  155.5365 C   0  0  0  0  0  0  0  0  0  0  0  0
  150.7698  139.5014  154.7142 N   0  0  0  0  0  0  0  0  0  0  0  0
  151.9506  139.2066  155.3799 N   0  0  0  0  0  0  0  0  0  0  0  0
  151.8865  139.4497  156.6967 C   0  0  0  0  0  0  0  0  0  0  0  0
  152.9249  139.2309  157.5203 N   0  5  0  0  0  0  0  0  0  0  0  0
  152.9318  139.7746  158.7585 C   0  0  0  0  0  0  0  0  0  0  0  0
  153.1206  139.1723  159.8179 O   0  0  0  0  0  0  0  0  0  0  0  0
  152.6973  141.0953  158.7659 N   0  0  0  0  0  0  0  0  0  0  0  0
  152.6307  141.9685  159.9377 C   0  0  1  0  0  0  0  0  0  0  0  0
  153.9192  141.7956  160.7549 C   0  0  0  0  0  0  0  0  0  0  0  0
  152.4212  143.4340  159.5039 C   0  0  1  0  0  0  0  0  0  0  0  0
  151.2275  143.6742  158.5775 C   0  0  0  0  0  0  0  0  0  0  0  0
  150.8837  145.1370  158.8095 C   0  0  0  0  0  0  0  0  0  0  0  0
  151.6063  145.4873  160.1134 C   0  0  0  0  0  0  0  0  0  0  0  0
  152.0920  144.2506  160.6174 O   0  0  0  0  0  0  0  0  0  0  0  0
  150.3304  140.0955  157.2176 S   0  0  0  0  0  0  0  0  0  0  0  0
  145.7055  141.9717  156.4937 H   0  0  0  0  0  0  0  0  0  0  0  0
  145.6826  140.7604  155.2145 H   0  0  0  0  0  0  0  0  0  0  0  0
  146.4533  142.3225  154.9377 H   0  0  0  0  0  0  0  0  0  0  0  0
  148.1779  141.7730  156.6833 H   0  0  0  0  0  0  0  0  0  0  0  0
  147.4151  140.2257  156.9605 H   0  0  0  0  0  0  0  0  0  0  0  0
  147.9760  139.4662  154.6815 H   0  0  0  0  0  0  0  0  0  0  0  0
  148.5573  141.0570  154.2451 H   0  0  0  0  0  0  0  0  0  0  0  0
  152.5479  141.5350  157.8698 H   0  0  0  0  0  0  0  0  0  0  0  0
  151.7972  141.6724  160.5768 H   0  0  0  0  0  0  0  0  0  0  0  0
  153.8971  142.4041  161.6593 H   0  0  0  0  0  0  0  0  0  0  0  0
  154.7980  142.0872  160.1787 H   0  0  0  0  0  0  0  0  0  0  0  0
  154.0514  140.7577  161.0622 H   0  0  0  0  0  0  0  0  0  0  0  0
  153.3296  143.8240  159.0400 H   0  0  0  0  0  0  0  0  0  0  0  0
  151.4514  143.4505  157.5340 H   0  0  0  0  0  0  0  0  0  0  0  0
  150.3855  143.0509  158.8812 H   0  0  0  0  0  0  0  0  0  0  0  0
  151.2419  145.7645  157.9927 H   0  0  0  0  0  0  0  0  0  0  0  0
  149.8054  145.2761  158.8926 H   0  0  0  0  0  0  0  0  0  0  0  0
  152.4499  146.1504  159.9170 H   0  0  0  0  0  0  0  0  0  0  0  0
  150.9521  145.9743  160.8369 H   0  0  0  0  0  0  0  0  0  0  0  0
  1  2  1  0  0  0  0
  1 20  1  0  0  0  0
  1 21  1  0  0  0  0
  1 22  1  0  0  0  0
  2  3  1  0  0  0  0
  2 23  1  0  0  0  0
  2 24  1  0  0  0  0
  3  4  1  0  0  0  0
  3 25  1  0  0  0  0
  3 26  1  0  0  0  0
  4 19  1  0  0  0  0
  4  5  2  0  0  0  0
  5  6  1  0  0  0  0
  6  7  2  0  0  0  0
  7  8  1  0  0  0  0
  7 19  1  0  0  0  0
  8  9  1  0  0  0  0
  9 10  2  0  0  0  0
  9 11  1  0  0  0  0
 11 12  1  0  0  0  0
 11 27  1  0  0  0  0
 12 13  1  0  0  0  0
 12 14  1  0  0  0  0
 12 28  1  0  0  0  0
 13 29  1  0  0  0  0
 13 30  1  0  0  0  0
 13 31  1  0  0  0  0
 14 18  1  0  0  0  0
 14 15  1  0  0  0  0
 14 32  1  0  0  0  0
 15 16  1  0  0  0  0
 15 33  1  0  0  0  0
 15 34  1  0  0  0  0
 16 17  1  0  0  0  0
 16 35  1  0  0  0  0
 16 36  1  0  0  0  0
 17 18  1  0  0  0  0
 17 37  1  0  0  0  0
 17 38  1  0  0  0  0
M  CHG  1   8  -1
M  END
> <s_m_source_file>
AV-unprocessed.smi

> <i_m_source_file_index>
1251

> <i_lp_mmshare_version>
43012

> <i_f3d_flags>
0

> <s_epik_input>
W0NIM11bQ0gyXVtDSDJdYzFubmMoczEpW05IXUMoPU8pW05IXVtDQEhdKFtDSDNdKVtDQEBIXTJbQ0gyXVtDSDJdW0NIMl1PMg==

> <s_epik_cmdline>
J2VwaWtfcHl0aG9uJywgJy1waCcsICc3LjAnLCAnLXRuJywgJzgnLCAnLW1hJywgJzIwMCcsICctbWV0YWxfYmluZGluZycsICctaW1hZScsICc8aW5maWxlLm1hZT4nLCAnLW9tYWUnLCAnPG91dGZpbGUubWFlPic=

> <r_lp_tautomer_probability>
1

> <r_epik_Ionization_Penalty>
4.22551

> <r_epik_Ionization_Penalty_Charging>
4.21437

> <r_epik_Ionization_Penalty_Neutral>
0.0111434

> <r_epik_State_Penalty>
4.21389

> <r_epik_Charging_Adjusted_Penalty>
8.42826

> <i_epik_Tot_Q>
-1

> <i_epik_Tot_abs_Q>
1

> <r_epik_Metal_State_Penalty>
0.69377

> <b_epik_Metal_Only>
1

> <s_lp_Force_Field>
OPLS_2005

> <r_lp_Energy>
11.5683

> <b_lp_Chiralities_Consistent>
1

> <s_lp_Variant>
AV-unprocessed.smi:1251-8

> <Gold.Version>
5.8.1

> <Gold.Id.Protein>
6NUR|6NUR_protein|mol2

> <Gold.PLP.Fitness>
48.2799

> <Gold.PLP.PLP>
-40.4877

> <Gold.PLP.part.hbond>
-2.3965

> <Gold.PLP.part.metal>
0.0000

> <Gold.PLP.part.buried>
-5.1409

> <Gold.PLP.part.nonpolar>
-33.3360

> <Gold.PLP.part.repulsive>
0.2981

> <Gold.PLP.ligand.clash>
0.0054

> <Gold.PLP.ligand.torsion>
0.6637

> <Gold.PLP.Chemscore.Hbond>
3.0000

> <Gold.PLP.Chemscore.CHOScore>
0.0000

> <Gold.PLP.Chemscore.Metal>
0.0000

> <Gold.Chemscore.Hbonds>
donor molecule, donor type, donor heavy atom, donor atom, acceptor molecule, acceptor atom, score
      P1  H  7989  7998       L1     5  0.70
      P1  H  7997  8010       L1     8  2.00

> <Gold.PLP.Chemscore.Internal.Correction>
0.1249

> <Gold.Rescore>
     Score         DG    S(hbond)    S(metal)    S(lipo)     H(rot)  DE(clash)    DE(int)     intcor
     14.38     -15.25       0.93        0.00      90.86       1.55       0.11       0.76       ----

> <Gold.Chemscore.Fitness>
14.3776

> <Gold.Chemscore.DG>
-15.2516

> <Gold.Chemscore.ZeroCoef>
-5.4800

> <Gold.Chemscore.Hbond>
0.9284

> <Gold.Chemscore.Metal>
0.0000

> <Gold.Chemscore.Lipo>
90.8625

> <Gold.Chemscore.Internal_Hbond>
0.0000

> <Gold.Chemscore.DEClash>
0.1104

> <Gold.Chemscore.DEInternal>
0.7636

> <Gold.Chemscore.Rot>
1.5469

> <Gold.Chemscore.Internal.Correction>
   9.000000E+99

> <Gold.Chemscore.Hbonds>
donor molecule, donor type, donor heavy atom, donor atom, acceptor molecule, acceptor atom, score
      P1  H  7989  7998       L1     5  0.06
      P1  H  7997  8010       L1     8  0.18

> <Gold.Chemscore.Hbond.Weighted>
-3.1007

> <Gold.Chemscore.Metal.Weighted>
-0.0000

> <Gold.Chemscore.Lipo.Weighted>
-10.6309

> <Gold.Chemscore.Internal_Hbond.Weighted>
0.0000

> <Gold.Chemscore.DEClash.Weighted>
0.1104

> <Gold.Chemscore.DEInternal.Weighted>
0.7636

> <Gold.Chemscore.Rot.Weighted>
3.9600

> <Gold.Chemscore.Internal.Correction.Weighted>
   9.000000E+99

> <Gold.Protein.RotatedTorsions>
[ 6907 6896 6895 6894 ] final   89.23 input  -60.11 | X-H torsion
[ 7974 7965 7964 7962 ] final  -95.50 input  175.53 | X-H torsion
[ 8008 7997 7996 7995 ] final   49.21 input   59.86 | X-H torsion
[ 10167 10162 10161 10158 ] final   -9.22 input  -65.29 | X-H torsion
[ 10718 10713 10712 10709 ] final   83.78 input   66.30 | X-H torsion
[ 10763 10752 10751 10750 ] final  111.76 input  -60.55 | X-H torsion
[ 11005 11000 10999 10996 ] final   18.03 input  -57.11 | X-H torsion

> <Gold.Protein.ActiveResidues>
 VAL166  LYS551  ARG553  GLY616  TRP617  ASP618  TYR619  PRO620  LYS621  CYS622 
 ASP623  PHE694  ASN695  SER759  ASP760  ASP761  ALA762  ILE779  LEU786  VAL792 
 PHE793  MET794  SER795  GLU796  ALA797  LYS798  CYS799  TRP800  GLU811  SER814 

> <Gold.Protein.RotatedAtoms>
  152.5434  134.1999  159.8707 H   0  0  0  0  0  0  0  0  0  0  0  0  # atno 6907 bound_to 6896
  151.1988  133.4616  159.2603 H   0  0  0  0  0  0  0  0  0  0  0  0  # atno 6908 bound_to 6896
  151.1010  134.9984  159.8504 H   0  0  0  0  0  0  0  0  0  0  0  0  # atno 6909 bound_to 6896
  145.3593  140.9489  143.2510 H   0  0  0  0  0  0  0  0  0  0  0  0  # atno 7974 bound_to 7965
  155.3984  140.3436  155.4255 H   0  0  0  0  0  0  0  0  0  0  0  0  # atno 8008 bound_to 7997
  156.1518  140.1573  156.8790 H   0  0  0  0  0  0  0  0  0  0  0  0  # atno 8009 bound_to 7997
  154.5059  140.0802  156.7874 H   0  0  0  0  0  0  0  0  0  0  0  0  # atno 8010 bound_to 7997
  140.7081  143.5882  150.8921 H   0  0  0  0  0  0  0  0  0  0  0  0  # atno 10167 bound_to 10162
  157.6885  131.0105  150.2574 H   0  0  0  0  0  0  0  0  0  0  0  0  # atno 10718 bound_to 10713
  153.4681  135.3707  155.2375 H   0  0  0  0  0  0  0  0  0  0  0  0  # atno 10763 bound_to 10752
  154.8757  135.3925  154.3845 H   0  0  0  0  0  0  0  0  0  0  0  0  # atno 10764 bound_to 10752
  153.4429  135.7084  153.6222 H   0  0  0  0  0  0  0  0  0  0  0  0  # atno 10765 bound_to 10752
  140.4294  134.1436  155.7679 H   0  0  0  0  0  0  0  0  0  0  0  0  # atno 11005 bound_to 11000
  144.8659  139.5109  143.6790 LP  0  0  0  0  0  0  0  0  0  0  0  0  # atno 17320 bound_to 7965
  146.2934  139.7207  142.9144 LP  0  0  0  0  0  0  0  0  0  0  0  0  # atno 17321 bound_to 7965
  139.9608  143.6166  152.3003 LP  0  0  0  0  0  0  0  0  0  0  0  0  # atno 17342 bound_to 10162
  139.6718  144.7660  151.1769 LP  0  0  0  0  0  0  0  0  0  0  0  0  # atno 17343 bound_to 10162
  156.3159  130.3779  149.7619 LP  0  0  0  0  0  0  0  0  0  0  0  0  # atno 17370 bound_to 10713
  156.5204  130.8212  151.3201 LP  0  0  0  0  0  0  0  0  0  0  0  0  # atno 17371 bound_to 10713
  141.1752  133.8529  157.1445 LP  0  0  0  0  0  0  0  0  0  0  0  0  # atno 17394 bound_to 11000
  140.0145  134.9973  157.0464 LP  0  0  0  0  0  0  0  0  0  0  0  0  # atno 17395 bound_to 11000

$$$$
