AV-unprocessed.smi:678|AV-procd|sdf|3317|dock10
  -GOLD-   22720 0283D 1   1.00000     0.00000
 Structure written by MMmdl.
 50 51  0  0  0  0  0  0  0  0  1 V2000
  152.9525  143.8500  163.3684 C   0  0  0  0  0  0  0  0  0  0  0  0
  153.0373  143.0644  162.0714 C   0  0  0  0  0  0  0  0  0  0  0  0
  152.1967  143.3094  161.0427 C   0  0  0  0  0  0  0  0  0  0  0  0
  152.2833  142.5582  159.8143 C   0  0  0  0  0  0  0  0  0  0  0  0
  153.2255  141.6099  159.7178 C   0  0  0  0  0  0  0  0  0  0  0  0
  154.1178  141.3383  160.7721 N   0  0  0  0  0  0  0  0  0  0  0  0
  155.1012  140.2638  160.5400 C   0  0  0  0  0  0  0  0  0  0  0  0
  154.5013  138.9576  159.9922 C   0  0  0  0  0  0  0  0  0  0  0  0
  153.8523  138.9888  158.9474 O   0  0  0  0  0  0  0  0  0  0  0  0
  154.6795  137.8327  160.7044 N   0  0  0  0  0  0  0  0  0  0  0  0
  154.0467  136.5481  160.4316 C   0  0  0  0  0  0  0  0  0  0  0  0
  155.0102  135.6085  159.6853 C   0  0  2  0  0  0  0  0  0  0  0  0
  155.5841  136.2418  158.3992 C   0  0  0  0  0  0  0  0  0  0  0  0
  156.4584  135.3217  157.6789 N   0  0  0  0  0  0  0  0  0  0  0  0
  157.0068  135.9022  156.4517 C   0  0  0  0  0  0  0  0  0  0  0  0
  158.0160  135.0237  155.6792 C   0  0  0  0  0  0  0  0  0  0  0  0
  159.2426  134.7196  156.5506 C   0  0  0  0  0  0  0  0  0  0  0  0
  158.4440  135.6646  154.3487 C   0  0  0  0  0  0  0  0  0  0  0  0
  155.7221  134.0948  157.3958 C   0  0  0  0  0  0  0  0  0  0  0  0
  155.1366  133.4662  158.6720 C   0  0  0  0  0  0  0  0  0  0  0  0
  154.3109  134.4169  159.3384 O   0  0  0  0  0  0  0  0  0  0  0  0
  154.0690  142.0160  161.9608 C   0  0  0  0  0  0  0  0  0  0  0  0
  154.8412  141.7518  162.8838 O   0  0  0  0  0  0  0  0  0  0  0  0
  152.1546  144.5927  163.3341 H   0  0  0  0  0  0  0  0  0  0  0  0
  153.8905  144.3724  163.5597 H   0  0  0  0  0  0  0  0  0  0  0  0
  152.7538  143.1815  164.2068 H   0  0  0  0  0  0  0  0  0  0  0  0
  151.4440  144.0792  161.1335 H   0  0  0  0  0  0  0  0  0  0  0  0
  151.6035  142.7498  158.9969 H   0  0  0  0  0  0  0  0  0  0  0  0
  153.3523  140.9956  158.8377 H   0  0  0  0  0  0  0  0  0  0  0  0
  155.8593  140.6124  159.8368 H   0  0  0  0  0  0  0  0  0  0  0  0
  155.6541  140.0323  161.4518 H   0  0  0  0  0  0  0  0  0  0  0  0
  155.2392  137.8908  161.5428 H   0  0  0  0  0  0  0  0  0  0  0  0
  153.7019  136.0851  161.3577 H   0  0  0  0  0  0  0  0  0  0  0  0
  153.1580  136.7279  159.8263 H   0  0  0  0  0  0  0  0  0  0  0  0
  155.8309  135.3448  160.3555 H   0  0  0  0  0  0  0  0  0  0  0  0
  154.7661  136.5608  157.7513 H   0  0  0  0  0  0  0  0  0  0  0  0
  156.1370  137.1393  158.6709 H   0  0  0  0  0  0  0  0  0  0  0  0
  156.1821  136.1356  155.7765 H   0  0  0  0  0  0  0  0  0  0  0  0
  157.4756  136.8590  156.6867 H   0  0  0  0  0  0  0  0  0  0  0  0
  157.5531  134.0629  155.4582 H   0  0  0  0  0  0  0  0  0  0  0  0
  159.7790  135.6316  156.8136 H   0  0  0  0  0  0  0  0  0  0  0  0
  159.9395  134.0610  156.0314 H   0  0  0  0  0  0  0  0  0  0  0  0
  158.9527  134.2238  157.4775 H   0  0  0  0  0  0  0  0  0  0  0  0
  158.9083  136.6379  154.5091 H   0  0  0  0  0  0  0  0  0  0  0  0
  157.5916  135.8065  153.6835 H   0  0  0  0  0  0  0  0  0  0  0  0
  159.1621  135.0348  153.8230 H   0  0  0  0  0  0  0  0  0  0  0  0
  154.9121  134.3034  156.6949 H   0  0  0  0  0  0  0  0  0  0  0  0
  156.3779  133.3731  156.9075 H   0  0  0  0  0  0  0  0  0  0  0  0
  154.5409  132.5883  158.4230 H   0  0  0  0  0  0  0  0  0  0  0  0
  155.9332  133.1343  159.3394 H   0  0  0  0  0  0  0  0  0  0  0  0
  1  2  1  0  0  0  0
  1 24  1  0  0  0  0
  1 25  1  0  0  0  0
  1 26  1  0  0  0  0
  2 22  1  0  0  0  0
  2  3  2  0  0  0  0
  3  4  1  0  0  0  0
  3 27  1  0  0  0  0
  4  5  2  0  0  0  0
  4 28  1  0  0  0  0
  5  6  1  0  0  0  0
  5 29  1  0  0  0  0
  6  7  1  0  0  0  0
  6 22  1  0  0  0  0
  7  8  1  0  0  0  0
  7 30  1  0  0  0  0
  7 31  1  0  0  0  0
  8  9  2  0  0  0  0
  8 10  1  0  0  0  0
 10 11  1  0  0  0  0
 10 32  1  0  0  0  0
 11 12  1  0  0  0  0
 11 33  1  0  0  0  0
 11 34  1  0  0  0  0
 12 21  1  0  0  0  0
 12 13  1  0  0  0  0
 12 35  1  0  0  0  0
 13 14  1  0  0  0  0
 13 36  1  0  0  0  0
 13 37  1  0  0  0  0
 14 15  1  0  0  0  0
 14 19  1  0  0  0  0
 15 16  1  0  0  0  0
 15 38  1  0  0  0  0
 15 39  1  0  0  0  0
 16 17  1  0  0  0  0
 16 18  1  0  0  0  0
 16 40  1  0  0  0  0
 17 41  1  0  0  0  0
 17 42  1  0  0  0  0
 17 43  1  0  0  0  0
 18 44  1  0  0  0  0
 18 45  1  0  0  0  0
 18 46  1  0  0  0  0
 19 20  1  0  0  0  0
 19 47  1  0  0  0  0
 19 48  1  0  0  0  0
 20 21  1  0  0  0  0
 20 49  1  0  0  0  0
 20 50  1  0  0  0  0
 22 23  2  0  0  0  0
M  END
> <s_m_source_file>
AV-unprocessed.smi

> <i_m_source_file_index>
678

> <i_lp_mmshare_version>
43012

> <i_f3d_flags>
0

> <s_epik_input>
W0NIM11jMVtjSF1bY0hdW2NIXW4oYzE9TylbQ0gyXUMoPU8pW05IXVtDSDJdW0NAQEhdMltDSDJdTihbQ0gyXVtDSDJdTzIpW0NIMl1bQ0hdKFtDSDNdKVtDSDNd

> <s_epik_cmdline>
J2VwaWtfcHl0aG9uJywgJy1waCcsICc3LjAnLCAnLXRuJywgJzgnLCAnLW1hJywgJzIwMCcsICctbWV0YWxfYmluZGluZycsICctaW1hZScsICc8aW5maWxlLm1hZT4nLCAnLW9tYWUnLCAnPG91dGZpbGUubWFlPic=

> <r_lp_tautomer_probability>
1

> <r_epik_Ionization_Penalty>
1.11669

> <r_epik_Ionization_Penalty_Charging>
7.32459e-07

> <r_epik_Ionization_Penalty_Neutral>
1.11669

> <r_epik_State_Penalty>
1.17516

> <r_epik_Charging_Adjusted_Penalty>
1.17516

> <i_epik_Tot_Q>
0

> <i_epik_Tot_abs_Q>
0

> <r_epik_Metal_State_Penalty>
1.17513

> <b_epik_Metal_Only>
0

> <s_lp_Force_Field>
OPLS_2005

> <r_lp_Energy>
32.9221

> <b_lp_Chiralities_Consistent>
1

> <s_lp_Variant>
AV-unprocessed.smi:678-5

> <Gold.Version>
5.8.1

> <Gold.Id.Protein>
6NUR|6NUR_protein|mol2

> <Gold.PLP.Fitness>
42.9736

> <Gold.PLP.PLP>
-37.4732

> <Gold.PLP.part.hbond>
-3.0000

> <Gold.PLP.part.metal>
0.0000

> <Gold.PLP.part.buried>
-1.2000

> <Gold.PLP.part.nonpolar>
-32.7257

> <Gold.PLP.part.repulsive>
0.0144

> <Gold.PLP.ligand.clash>
0.0000

> <Gold.PLP.ligand.torsion>
0.2781

> <Gold.PLP.Chemscore.Hbond>
2.0000

> <Gold.PLP.Chemscore.CHOScore>
0.0000

> <Gold.PLP.Chemscore.Metal>
0.0000

> <Gold.Chemscore.Hbonds>
donor molecule, donor type, donor heavy atom, donor atom, acceptor molecule, acceptor atom, score
      P1  H  6896  6907       L1    21  1.00
      P1  H  7997  8009       L1     9  0.50

> <Gold.PLP.Chemscore.Internal.Correction>
0.0566

> <Gold.Rescore>
     Score         DG    S(hbond)    S(metal)    S(lipo)     H(rot)  DE(clash)    DE(int)     intcor
     14.48     -17.87       1.93        0.00      90.66       1.82       1.59       1.80       ----

> <Gold.Chemscore.Fitness>
14.4785

> <Gold.Chemscore.DG>
-17.8721

> <Gold.Chemscore.ZeroCoef>
-5.4800

> <Gold.Chemscore.Hbond>
1.9327

> <Gold.Chemscore.Metal>
0.0000

> <Gold.Chemscore.Lipo>
90.6598

> <Gold.Chemscore.Internal_Hbond>
0.0000

> <Gold.Chemscore.DEClash>
1.5931

> <Gold.Chemscore.DEInternal>
1.8005

> <Gold.Chemscore.Rot>
1.8243

> <Gold.Chemscore.Internal.Correction>
   9.000000E+99

> <Gold.Chemscore.Hbonds>
donor molecule, donor type, donor heavy atom, donor atom, acceptor molecule, acceptor atom, score
      P1  H  6896  6907       L1    21  0.99
      P1  H  7997  8009       L1     9  0.45

> <Gold.Chemscore.Hbond.Weighted>
-6.4552

> <Gold.Chemscore.Metal.Weighted>
-0.0000

> <Gold.Chemscore.Lipo.Weighted>
-10.6072

> <Gold.Chemscore.Internal_Hbond.Weighted>
0.0000

> <Gold.Chemscore.DEClash.Weighted>
1.5931

> <Gold.Chemscore.DEInternal.Weighted>
1.8005

> <Gold.Chemscore.Rot.Weighted>
4.6703

> <Gold.Chemscore.Internal.Correction.Weighted>
   9.000000E+99

> <Gold.Protein.RotatedTorsions>
[ 6907 6896 6895 6894 ] final   93.30 input  -60.11 | X-H torsion
[ 7974 7965 7964 7962 ] final  103.49 input  175.53 | X-H torsion
[ 8008 7997 7996 7995 ] final  134.95 input   59.86 | X-H torsion
[ 10167 10162 10161 10158 ] final   60.24 input  -65.29 | X-H torsion
[ 10718 10713 10712 10709 ] final   93.35 input   66.30 | X-H torsion
[ 10763 10752 10751 10750 ] final  142.01 input  -60.55 | X-H torsion
[ 11005 11000 10999 10996 ] final -106.90 input  -57.11 | X-H torsion

> <Gold.Protein.ActiveResidues>
 VAL166  LYS551  ARG553  GLY616  TRP617  ASP618  TYR619  PRO620  LYS621  CYS622 
 ASP623  PHE694  ASN695  SER759  ASP760  ASP761  ALA762  ILE779  LEU786  VAL792 
 PHE793  MET794  SER795  GLU796  ALA797  LYS798  CYS799  TRP800  GLU811  SER814 

> <Gold.Protein.RotatedAtoms>
  152.5452  134.1368  159.8462 H   0  0  0  0  0  0  0  0  0  0  0  0  # atno 6907 bound_to 6896
  151.1408  133.4965  159.2604 H   0  0  0  0  0  0  0  0  0  0  0  0  # atno 6908 bound_to 6896
  151.1574  135.0267  159.8750 H   0  0  0  0  0  0  0  0  0  0  0  0  # atno 6909 bound_to 6896
  145.3452  139.2452  143.3588 H   0  0  0  0  0  0  0  0  0  0  0  0  # atno 7974 bound_to 7965
  156.3001  140.2483  156.3501 H   0  0  0  0  0  0  0  0  0  0  0  0  # atno 8008 bound_to 7997
  154.8974  140.0407  157.1893 H   0  0  0  0  0  0  0  0  0  0  0  0  # atno 8009 bound_to 7997
  154.8536  140.2909  155.5587 H   0  0  0  0  0  0  0  0  0  0  0  0  # atno 8010 bound_to 7997
  140.1678  144.4307  150.6676 H   0  0  0  0  0  0  0  0  0  0  0  0  # atno 10167 bound_to 10162
  157.6955  131.0475  150.4020 H   0  0  0  0  0  0  0  0  0  0  0  0  # atno 10718 bound_to 10713
  153.9487  135.2972  155.3439 H   0  0  0  0  0  0  0  0  0  0  0  0  # atno 10763 bound_to 10752
  154.7438  135.5012  153.9171 H   0  0  0  0  0  0  0  0  0  0  0  0  # atno 10764 bound_to 10752
  153.1005  135.6733  153.9790 H   0  0  0  0  0  0  0  0  0  0  0  0  # atno 10765 bound_to 10752
  141.0981  133.8933  157.1911 H   0  0  0  0  0  0  0  0  0  0  0  0  # atno 11005 bound_to 11000
  146.2991  140.4058  142.8711 LP  0  0  0  0  0  0  0  0  0  0  0  0  # atno 17320 bound_to 7965
  144.8759  140.7336  143.6017 LP  0  0  0  0  0  0  0  0  0  0  0  0  # atno 17321 bound_to 7965
  140.6602  143.2249  151.5875 LP  0  0  0  0  0  0  0  0  0  0  0  0  # atno 17342 bound_to 10162
  139.5352  144.2802  152.1235 LP  0  0  0  0  0  0  0  0  0  0  0  0  # atno 17343 bound_to 10162
  156.4413  130.3992  149.6696 LP  0  0  0  0  0  0  0  0  0  0  0  0  # atno 17370 bound_to 10713
  156.3878  130.7612  151.2610 LP  0  0  0  0  0  0  0  0  0  0  0  0  # atno 17371 bound_to 10713
  139.9824  135.0093  156.9782 LP  0  0  0  0  0  0  0  0  0  0  0  0  # atno 17394 bound_to 11000
  140.5089  134.1022  155.7266 LP  0  0  0  0  0  0  0  0  0  0  0  0  # atno 17395 bound_to 11000

$$$$
