AV-unprocessed.smi:177|AV-procd|sdf|1442|dock1
  -GOLD-   2262019233D 1   1.00000     0.00000
 Structure written by MMmdl.
 61 65  0  0  0  0  0  0  0  0  1 V2000
  145.8781  129.4168  152.0142 C   0  0  0  0  0  0  0  0  0  0  0  0
  145.8330  130.5534  152.8632 O   0  0  0  0  0  0  0  0  0  0  0  0
  145.7080  131.7924  152.1766 C   0  0  1  0  0  0  0  0  0  0  0  0
  144.4692  131.6978  151.2714 C   0  0  0  0  0  0  0  0  0  0  0  0
  144.2279  133.0127  150.5137 C   0  0  0  0  0  0  0  0  0  0  0  0
  144.1206  134.2200  151.4616 C   0  0  1  0  0  0  0  0  0  0  0  0
  142.9066  134.1384  152.2040 O   0  0  0  0  0  0  0  0  0  0  0  0
  142.6931  135.2966  153.0041 C   0  0  0  0  0  0  0  0  0  0  0  0
  143.8292  135.4395  154.0297 C   0  0  0  0  0  0  0  0  0  0  0  0
  145.1295  135.4222  153.3577 N   0  0  0  0  0  0  0  0  0  0  0  0
  146.2202  135.8138  154.0709 C   0  0  0  0  0  0  0  0  0  0  0  0
  147.1091  134.8795  154.5050 N   0  0  0  0  0  0  0  0  0  0  0  0
  148.1946  135.2416  155.1937 C   0  0  0  0  0  0  0  0  0  0  0  0
  148.5827  136.4652  155.5546 N   0  0  0  0  0  0  0  0  0  0  0  0
  147.6970  137.4101  155.1281 C   0  0  0  0  0  0  0  0  0  0  0  0
  146.4993  137.1739  154.3937 C   0  0  0  0  0  0  0  0  0  0  0  0
  145.8460  138.3799  154.1662 N   0  0  0  0  0  0  0  0  0  0  0  0
  146.6184  139.2745  154.7175 C   0  0  0  0  0  0  0  0  0  0  0  0
  147.7616  138.7821  155.3051 N   0  0  0  0  0  0  0  0  0  0  0  0
  148.7859  139.5523  155.9971 C   0  0  0  0  0  0  0  0  0  0  0  0
  149.7745  140.3291  155.0705 C   0  0  0  0  0  0  0  0  0  0  0  0
  148.9518  141.0565  153.9708 C   0  0  0  0  0  0  0  0  0  0  0  0
  148.2682  142.2010  154.4432 O   0  0  0  0  0  0  0  0  0  0  0  0
  150.6240  141.3605  155.8579 C   0  0  0  0  0  0  0  0  0  0  0  0
  151.6350  140.6860  156.8018 C   0  0  0  0  0  0  0  0  0  0  0  0
  152.4856  139.8225  156.0579 O   0  0  0  0  0  0  0  0  0  0  0  0
  151.7841  138.7579  155.4266 C   0  0  0  0  0  0  0  0  0  0  0  0
  150.7565  139.3174  154.4236 C   0  0  0  0  0  0  0  0  0  0  0  0
  145.3221  134.3007  152.4331 C   0  0  1  0  0  0  0  0  0  0  0  0
  145.5499  132.9598  153.1694 C   0  0  0  0  0  0  0  0  0  0  0  0
  145.9503  128.5147  152.6215 H   0  0  0  0  0  0  0  0  0  0  0  0
  146.7413  129.4368  151.3496 H   0  0  0  0  0  0  0  0  0  0  0  0
  144.9732  129.3396  151.4104 H   0  0  0  0  0  0  0  0  0  0  0  0
  146.5842  131.9568  151.5463 H   0  0  0  0  0  0  0  0  0  0  0  0
  144.5925  130.8816  150.5590 H   0  0  0  0  0  0  0  0  0  0  0  0
  143.5907  131.4541  151.8708 H   0  0  0  0  0  0  0  0  0  0  0  0
  145.0511  133.1778  149.8179 H   0  0  0  0  0  0  0  0  0  0  0  0
  143.3256  132.9343  149.9064 H   0  0  0  0  0  0  0  0  0  0  0  0
  144.0886  135.1237  150.8499 H   0  0  0  0  0  0  0  0  0  0  0  0
  142.6294  136.1827  152.3708 H   0  0  0  0  0  0  0  0  0  0  0  0
  141.7355  135.2037  153.5165 H   0  0  0  0  0  0  0  0  0  0  0  0
  143.7017  136.3744  154.5770 H   0  0  0  0  0  0  0  0  0  0  0  0
  143.7784  134.6307  154.7594 H   0  0  0  0  0  0  0  0  0  0  0  0
  148.8460  134.4351  155.4969 H   0  0  0  0  0  0  0  0  0  0  0  0
  146.3732  140.3264  154.7075 H   0  0  0  0  0  0  0  0  0  0  0  0
  148.2702  140.2257  156.6797 H   0  0  0  0  0  0  0  0  0  0  0  0
  149.3427  138.8675  156.6380 H   0  0  0  0  0  0  0  0  0  0  0  0
  149.6035  141.3678  153.1538 H   0  0  0  0  0  0  0  0  0  0  0  0
  148.2034  140.3900  153.5427 H   0  0  0  0  0  0  0  0  0  0  0  0
  148.8964  142.7812  154.8456 H   0  0  0  0  0  0  0  0  0  0  0  0
  151.1922  141.9790  155.1625 H   0  0  0  0  0  0  0  0  0  0  0  0
  149.9915  142.0542  156.4107 H   0  0  0  0  0  0  0  0  0  0  0  0
  152.2493  141.4441  157.2876 H   0  0  0  0  0  0  0  0  0  0  0  0
  151.1370  140.1320  157.5978 H   0  0  0  0  0  0  0  0  0  0  0  0
  152.5061  138.1319  154.9023 H   0  0  0  0  0  0  0  0  0  0  0  0
  151.3147  138.1209  156.1765 H   0  0  0  0  0  0  0  0  0  0  0  0
  150.2073  138.4987  153.9571 H   0  0  0  0  0  0  0  0  0  0  0  0
  151.3176  139.7963  153.6209 H   0  0  0  0  0  0  0  0  0  0  0  0
  146.2008  134.4864  151.8191 H   0  0  0  0  0  0  0  0  0  0  0  0
  144.7152  132.7460  153.8374 H   0  0  0  0  0  0  0  0  0  0  0  0
  146.4348  133.0398  153.7999 H   0  0  0  0  0  0  0  0  0  0  0  0
  1  2  1  0  0  0  0
  1 31  1  0  0  0  0
  1 32  1  0  0  0  0
  1 33  1  0  0  0  0
  2  3  1  0  0  0  0
  3 30  1  0  0  0  0
  3  4  1  0  0  0  0
  3 34  1  0  0  0  0
  4  5  1  0  0  0  0
  4 35  1  0  0  0  0
  4 36  1  0  0  0  0
  5  6  1  0  0  0  0
  5 37  1  0  0  0  0
  5 38  1  0  0  0  0
  6 29  1  0  0  0  0
  6  7  1  0  0  0  0
  6 39  1  0  0  0  0
  7  8  1  0  0  0  0
  8  9  1  0  0  0  0
  8 40  1  0  0  0  0
  8 41  1  0  0  0  0
  9 10  1  0  0  0  0
  9 42  1  0  0  0  0
  9 43  1  0  0  0  0
 10 11  1  0  0  0  0
 10 29  1  0  0  0  0
 11 16  1  0  0  0  0
 11 12  2  0  0  0  0
 12 13  1  0  0  0  0
 13 14  2  0  0  0  0
 13 44  1  0  0  0  0
 14 15  1  0  0  0  0
 15 19  1  0  0  0  0
 15 16  2  0  0  0  0
 16 17  1  0  0  0  0
 17 18  2  0  0  0  0
 18 19  1  0  0  0  0
 18 45  1  0  0  0  0
 19 20  1  0  0  0  0
 20 21  1  0  0  0  0
 20 46  1  0  0  0  0
 20 47  1  0  0  0  0
 21 28  1  0  0  0  0
 21 22  1  0  0  0  0
 21 24  1  0  0  0  0
 22 23  1  0  0  0  0
 22 48  1  0  0  0  0
 22 49  1  0  0  0  0
 23 50  1  0  0  0  0
 24 25  1  0  0  0  0
 24 51  1  0  0  0  0
 24 52  1  0  0  0  0
 25 26  1  0  0  0  0
 25 53  1  0  0  0  0
 25 54  1  0  0  0  0
 26 27  1  0  0  0  0
 27 28  1  0  0  0  0
 27 55  1  0  0  0  0
 27 56  1  0  0  0  0
 28 57  1  0  0  0  0
 28 58  1  0  0  0  0
 29 30  1  0  0  0  0
 29 59  1  0  0  0  0
 30 60  1  0  0  0  0
 30 61  1  0  0  0  0
M  END
> <s_m_source_file>
AV-unprocessed.smi

> <i_m_source_file_index>
177

> <i_lp_mmshare_version>
43012

> <i_f3d_flags>
0

> <s_epik_input>
W0NIM11PW0NASF0oW0NIMl1bQ0gyXTEpW0NIMl1bQ0BIXShbQ0BASF0xMilOKFtDSDJdW0NIMl1PMiljKG5bY0hdbjMpYyhjMzQpbltjSF1uNFtDSDJdQzUoW0NIMl1bT0hdKVtDSDJdW0NIMl1PW0NIMl1bQ0gyXTU=

> <s_epik_cmdline>
J2VwaWtfcHl0aG9uJywgJy1waCcsICc3LjAnLCAnLXRuJywgJzgnLCAnLW1hJywgJzIwMCcsICctbWV0YWxfYmluZGluZycsICctaW1hZScsICc8aW5maWxlLm1hZT4nLCAnLW9tYWUnLCAnPG91dGZpbGUubWFlPic=

> <r_lp_tautomer_probability>
1

> <r_epik_Ionization_Penalty>
0.0065899

> <r_epik_Ionization_Penalty_Charging>
0

> <r_epik_Ionization_Penalty_Neutral>
0.0065899

> <r_epik_State_Penalty>
0.00470042

> <r_epik_Charging_Adjusted_Penalty>
0.00470042

> <i_epik_Tot_Q>
0

> <i_epik_Tot_abs_Q>
0

> <r_epik_Metal_State_Penalty>
-0

> <b_epik_Metal_Only>
0

> <s_lp_Force_Field>
OPLS_2005

> <r_lp_Energy>
44.6168

> <b_lp_Chiralities_Consistent>
1

> <s_lp_Variant>
AV-unprocessed.smi:177-6

> <Gold.Version>
5.8.1

> <Gold.Id.Protein>
6NUR|6NUR_protein|mol2

> <Gold.PLP.Fitness>
43.0986

> <Gold.PLP.PLP>
-39.2423

> <Gold.PLP.part.hbond>
-2.0000

> <Gold.PLP.part.metal>
0.0000

> <Gold.PLP.part.buried>
-5.7692

> <Gold.PLP.part.nonpolar>
-31.0131

> <Gold.PLP.part.repulsive>
0.7419

> <Gold.PLP.ligand.clash>
0.0000

> <Gold.PLP.ligand.torsion>
1.0037

> <Gold.PLP.Chemscore.Hbond>
1.7840

> <Gold.PLP.Chemscore.CHOScore>
0.0000

> <Gold.PLP.Chemscore.Metal>
0.0000

> <Gold.Chemscore.Hbonds>
donor molecule, donor type, donor heavy atom, donor atom, acceptor molecule, acceptor atom, score
      L1  H    23    50       P1  8028  0.62
      P1  H  7997  8009       L1    26  1.00

> <Gold.PLP.Chemscore.Internal.Correction>
0.5117

> <Gold.Rescore>
     Score         DG    S(hbond)    S(metal)    S(lipo)     H(rot)  DE(clash)    DE(int)     intcor
     13.10     -15.99       1.64        0.00      99.40       2.58       0.33       2.56       ----

> <Gold.Chemscore.Fitness>
13.1049

> <Gold.Chemscore.DG>
-15.9881

> <Gold.Chemscore.ZeroCoef>
-5.4800

> <Gold.Chemscore.Hbond>
1.6421

> <Gold.Chemscore.Metal>
0.0000

> <Gold.Chemscore.Lipo>
99.4007

> <Gold.Chemscore.Internal_Hbond>
0.0000

> <Gold.Chemscore.DEClash>
0.3267

> <Gold.Chemscore.DEInternal>
2.5565

> <Gold.Chemscore.Rot>
2.5806

> <Gold.Chemscore.Internal.Correction>
   9.000000E+99

> <Gold.Chemscore.Hbonds>
donor molecule, donor type, donor heavy atom, donor atom, acceptor molecule, acceptor atom, score
      L1  H    23    50       P1  8028  0.60
      P1  H  7997  8009       L1    26  0.85

> <Gold.Chemscore.Hbond.Weighted>
-5.4845

> <Gold.Chemscore.Metal.Weighted>
-0.0000

> <Gold.Chemscore.Lipo.Weighted>
-11.6299

> <Gold.Chemscore.Internal_Hbond.Weighted>
0.0000

> <Gold.Chemscore.DEClash.Weighted>
0.3267

> <Gold.Chemscore.DEInternal.Weighted>
2.5565

> <Gold.Chemscore.Rot.Weighted>
6.6062

> <Gold.Chemscore.Internal.Correction.Weighted>
   9.000000E+99

> <Gold.Protein.RotatedTorsions>
[ 6907 6896 6895 6894 ] final  121.05 input  -60.11 | X-H torsion
[ 7974 7965 7964 7962 ] final  -54.66 input  175.53 | X-H torsion
[ 8008 7997 7996 7995 ] final -167.63 input   59.86 | X-H torsion
[ 10167 10162 10161 10158 ] final   98.22 input  -65.29 | X-H torsion
[ 10718 10713 10712 10709 ] final   47.72 input   66.30 | X-H torsion
[ 10763 10752 10751 10750 ] final   -8.43 input  -60.55 | X-H torsion
[ 11005 11000 10999 10996 ] final   71.54 input  -57.11 | X-H torsion

> <Gold.Protein.ActiveResidues>
 VAL166  LYS551  ARG553  GLY616  TRP617  ASP618  TYR619  PRO620  LYS621  CYS622 
 ASP623  PHE694  ASN695  SER759  ASP760  ASP761  ALA762  ILE779  LEU786  VAL792 
 PHE793  MET794  SER795  GLU796  ALA797  LYS798  CYS799  TRP800  GLU811  SER814 

> <Gold.Protein.RotatedAtoms>
  152.4351  133.7347  159.6606 H   0  0  0  0  0  0  0  0  0  0  0  0  # atno 6907 bound_to 6896
  150.8234  133.8202  159.3135 H   0  0  0  0  0  0  0  0  0  0  0  0  # atno 6908 bound_to 6896
  151.5878  135.1057  160.0083 H   0  0  0  0  0  0  0  0  0  0  0  0  # atno 6909 bound_to 6896
  145.8831  140.8129  142.9830 H   0  0  0  0  0  0  0  0  0  0  0  0  # atno 7974 bound_to 7965
  155.8804  140.1008  157.1489 H   0  0  0  0  0  0  0  0  0  0  0  0  # atno 8008 bound_to 7997
  154.4004  140.1330  156.4252 H   0  0  0  0  0  0  0  0  0  0  0  0  # atno 8009 bound_to 7997
  155.7650  140.3462  155.5220 H   0  0  0  0  0  0  0  0  0  0  0  0  # atno 8010 bound_to 7997
  139.7728  144.6916  151.0131 H   0  0  0  0  0  0  0  0  0  0  0  0  # atno 10167 bound_to 10162
  157.4613  130.8198  149.7889 H   0  0  0  0  0  0  0  0  0  0  0  0  # atno 10718 bound_to 10713
  153.4403  135.7013  153.6173 H   0  0  0  0  0  0  0  0  0  0  0  0  # atno 10763 bound_to 10752
  153.4551  135.3749  155.2306 H   0  0  0  0  0  0  0  0  0  0  0  0  # atno 10764 bound_to 10752
  154.8727  135.4006  154.3801 H   0  0  0  0  0  0  0  0  0  0  0  0  # atno 10765 bound_to 10752
  139.9538  134.7180  156.0801 H   0  0  0  0  0  0  0  0  0  0  0  0  # atno 11005 bound_to 11000
  144.6728  140.1414  143.7437 LP  0  0  0  0  0  0  0  0  0  0  0  0  # atno 17320 bound_to 7965
  145.9000  139.2425  143.1499 LP  0  0  0  0  0  0  0  0  0  0  0  0  # atno 17321 bound_to 7965
  140.7815  143.4569  151.0333 LP  0  0  0  0  0  0  0  0  0  0  0  0  # atno 17342 bound_to 10162
  139.8252  143.7765  152.3178 LP  0  0  0  0  0  0  0  0  0  0  0  0  # atno 17343 bound_to 10162
  156.0030  130.3870  150.2535 LP  0  0  0  0  0  0  0  0  0  0  0  0  # atno 17370 bound_to 10713
  157.0712  131.0117  151.3189 LP  0  0  0  0  0  0  0  0  0  0  0  0  # atno 17371 bound_to 10713
  141.1206  133.6614  156.3204 LP  0  0  0  0  0  0  0  0  0  0  0  0  # atno 17394 bound_to 11000
  140.5657  134.5890  157.5445 LP  0  0  0  0  0  0  0  0  0  0  0  0  # atno 17395 bound_to 11000

$$$$
