#       Name:                AV-unprocessed.smi:2163
#       Creating user name   scv26
#       Creation time:       Fri Mar 27 11:58:56 2020


#       File generated by GOLD software.
#

@<TRIPOS>MOLECULE
AV-unprocessed.smi:2163
    49    51     1
SMALL
NO_CHARGES


@<TRIPOS>ATOM
      1 ****        -3.2273   1.4353   3.1870 C.3            1 S1                 0.0000
      2 ****        -3.6894   0.9474   1.8506 C.2            1 S1                 0.0000
      3 ****        -4.9818   0.8177   1.5497 N.2            1 S1                 0.0000
      4 ****        -4.9452   0.3567   0.2477 C.ar           1 S1                 0.0000
      5 ****        -5.9938   0.0244  -0.6396 C.ar           1 S1                 0.0000
      6 ****        -5.7079  -0.4307  -1.9437 C.ar           1 S1                 0.0000
      7 ****        -4.3728  -0.5597  -2.3787 C.ar           1 S1                 0.0000
      8 ****        -3.3130  -0.2351  -1.5101 C.ar           1 S1                 0.0000
      9 ****        -3.6041   0.2178  -0.2095 C.ar           1 S1                 0.0000
     10 ****        -2.8173   0.6080   0.8692 N.pl3          1 S1                 0.0000
     11 ****        -1.3617   0.6393   0.9005 C.3            1 S1                 0.0000
     12 ****        -0.7447  -0.7649   1.0554 C.3            1 S1                 0.0000
     13 ****        -1.1870  -1.3558   2.2611 O.3            1 S1                 0.0000
     14 ****         0.7905  -0.7316   1.0596 C.3            1 S1                 0.0000
     15 ****         1.2400  -0.3211  -0.2249 O.3            1 S1                 0.0000
     16 ****         2.5960  -0.1953  -0.4352 C.ar           1 S1                 0.0000
     17 ****         3.5853  -0.4819   0.5394 C.ar           1 S1                 0.0000
     18 ****         4.9518  -0.3260   0.2349 C.ar           1 S1                 0.0000
     19 ****         5.3489   0.1165  -1.0421 C.ar           1 S1                 0.0000
     20 ****         6.8182   0.2788  -1.3707 C.3            1 S1                 0.0000
     21 ****         7.3766  -0.9254  -2.0041 C.1            1 S1                 0.0000
     22 ****         7.8157  -1.8726  -2.5026 N.1            1 S1                 0.0000
     23 ****         4.3714   0.4025  -2.0148 C.ar           1 S1                 0.0000
     24 ****         3.0058   0.2467  -1.7099 C.ar           1 S1                 0.0000
     25 ****        -4.0782   1.6102   3.8462 H              1 S1                 0.0000
     26 ****        -2.6804   2.3721   3.0775 H              1 S1                 0.0000
     27 ****        -2.5762   0.6977   3.6562 H              1 S1                 0.0000
     28 ****        -7.0196   0.1203  -0.3162 H              1 S1                 0.0000
     29 ****        -6.5171  -0.6818  -2.6136 H              1 S1                 0.0000
     30 ****        -4.1626  -0.9082  -3.3793 H              1 S1                 0.0000
     31 ****        -2.2890  -0.3328  -1.8388 H              1 S1                 0.0000
     32 ****        -1.0190   1.0972  -0.0281 H              1 S1                 0.0000
     33 ****        -1.0236   1.2961   1.7020 H              1 S1                 0.0000
     34 ****        -1.0799  -1.4045   0.2379 H              1 S1                 0.0000
     35 ****        -2.1293  -1.4235   2.2320 H              1 S1                 0.0000
     36 ****         1.1491  -0.0497   1.8327 H              1 S1                 0.0000
     37 ****         1.1793  -1.7277   1.2789 H              1 S1                 0.0000
     38 ****         3.3220  -0.8248   1.5282 H              1 S1                 0.0000
     39 ****         5.6958  -0.5498   0.9853 H              1 S1                 0.0000
     40 ****         6.9584   1.1219  -2.0476 H              1 S1                 0.0000
     41 ****         7.3866   0.4880  -0.4641 H              1 S1                 0.0000
     42 ****         4.6668   0.7402  -2.9974 H              1 S1                 0.0000
     43 ****         2.2641   0.4691  -2.4631 H              1 S1                 0.0000
     44 ****        -5.7788   1.0069   2.1233 LP             1 S1                 0.0000
     45 ****        -0.9131  -0.7868   3.0365 LP             1 S1                 0.0000
     46 ****        -0.7858  -2.2667   2.3579 LP             1 S1                 0.0000
     47 ****         0.8279   0.5707  -0.4112 LP             1 S1                 0.0000
     48 ****         0.8992  -0.9903  -0.8852 LP             1 S1                 0.0000
     49 ****         8.1952  -2.6913  -2.9334 LP             1 S1                 0.0000
@<TRIPOS>BOND
    1    1    2 1     
    2    1   25 1     
    3    1   26 1     
    4    1   27 1     
    5    2   10 1     
    6    2    3 2     
    7    3    4 1     
    8    4    9 ar    
    9    4    5 ar    
   10    5    6 ar    
   11    5   28 1     
   12    6    7 ar    
   13    6   29 1     
   14    7    8 ar    
   15    7   30 1     
   16    8    9 ar    
   17    8   31 1     
   18    9   10 1     
   19   10   11 1     
   20   11   12 1     
   21   11   32 1     
   22   11   33 1     
   23   12   13 1     
   24   12   14 1     
   25   12   34 1     
   26   13   35 1     
   27   14   15 1     
   28   14   36 1     
   29   14   37 1     
   30   15   16 1     
   31   16   24 ar    
   32   16   17 ar    
   33   17   18 ar    
   34   17   38 1     
   35   18   19 ar    
   36   18   39 1     
   37   19   20 1     
   38   19   23 ar    
   39   20   21 1     
   40   20   40 1     
   41   20   41 1     
   42   21   22 3     
   43   23   24 ar    
   44   23   42 1     
   45   24   43 1     
   46    3   44 1     
   47   13   45 1     
   48   13   46 1     
   49   15   47 1     
   50   15   48 1     
   51   22   49 1     
@<TRIPOS>SUBSTRUCTURE
      1 S1             1
@<TRIPOS>SET
LONE_PAIRS      STATIC     ATOMS    <user>   **** ""
6 44 45 46 47 48 49
DONOR_HYDROGENS      STATIC     ATOMS    <user>   **** ""
1 35
ATOM$BLUE        STATIC     ATOMS    COLORGROUP SYSTEM
6 44 45 46 47 48 49
ATOM$RED        STATIC     ATOMS    COLORGROUP SYSTEM
1 35
