AV-unprocessed.smi:2522|AV-procd|sdf|9919|dock1
  -GOLD-   2272013553D 1   1.00000     0.00000
 Structure written by MMmdl.
 41 42  0  0  0  0  0  0  0  0  1 V2000
  155.3010  136.9046  163.8666 C   0  0  0  0  0  0  0  0  0  0  0  0
  155.4637  137.3692  162.4041 C   0  0  0  0  0  0  0  0  0  0  0  0
  156.2136  138.7142  162.3904 C   0  0  0  0  0  0  0  0  0  0  0  0
  156.3023  136.3274  161.6352 C   0  0  0  0  0  0  0  0  0  0  0  0
  154.0785  137.5711  161.7349 C   0  0  0  0  0  0  0  0  0  0  0  0
  154.1780  137.9303  160.3232 N   0  0  0  0  0  0  0  0  0  0  0  0
  153.2139  137.7849  159.4003 C   0  0  0  0  0  0  0  0  0  0  0  0
  152.1403  137.2231  159.6164 O   0  0  0  0  0  0  0  0  0  0  0  0
  153.4948  138.4020  158.0286 C   0  0  0  0  0  0  0  0  0  0  0  0
  152.7293  139.6868  157.8867 C   0  0  0  0  0  0  0  0  0  0  0  0
  151.8121  139.9998  156.9135 C   0  0  0  0  0  0  0  0  0  0  0  0
  151.1170  141.5803  157.1550 S   0  0  0  0  0  0  0  0  0  0  0  0
  152.1169  141.7647  158.5944 C   0  0  0  0  0  0  0  0  0  0  0  0
  152.0797  142.9132  159.4408 N   0  0  0  0  0  0  0  0  0  0  0  0
  151.3063  144.0945  159.0783 C   0  0  0  0  0  0  0  0  0  0  0  0
  151.3310  145.0100  160.3075 C   0  0  0  0  0  0  0  0  0  0  0  0
  152.4262  144.4488  161.2121 C   0  0  0  0  0  0  0  0  0  0  0  0
  152.7149  143.0812  160.6163 C   0  0  0  0  0  0  0  0  0  0  0  0
  153.4471  142.2729  161.1869 O   0  0  0  0  0  0  0  0  0  0  0  0
  152.9086  140.7113  158.8223 N   0  0  0  0  0  0  0  0  0  0  0  0
  156.2670  136.8222  164.3659 H   0  0  0  0  0  0  0  0  0  0  0  0
  154.8246  135.9263  163.9300 H   0  0  0  0  0  0  0  0  0  0  0  0
  154.6931  137.6041  164.4410 H   0  0  0  0  0  0  0  0  0  0  0  0
  155.6630  139.4818  162.9354 H   0  0  0  0  0  0  0  0  0  0  0  0
  156.3609  139.0764  161.3723 H   0  0  0  0  0  0  0  0  0  0  0  0
  157.1977  138.6273  162.8525 H   0  0  0  0  0  0  0  0  0  0  0  0
  157.3058  136.2410  162.0528 H   0  0  0  0  0  0  0  0  0  0  0  0
  156.4065  136.6001  160.5845 H   0  0  0  0  0  0  0  0  0  0  0  0
  155.8531  135.3346  161.6752 H   0  0  0  0  0  0  0  0  0  0  0  0
  153.5037  136.6463  161.7923 H   0  0  0  0  0  0  0  0  0  0  0  0
  153.4978  138.3152  162.2829 H   0  0  0  0  0  0  0  0  0  0  0  0
  155.0229  138.4067  160.0412 H   0  0  0  0  0  0  0  0  0  0  0  0
  154.5668  138.5722  157.9201 H   0  0  0  0  0  0  0  0  0  0  0  0
  153.2120  137.6950  157.2477 H   0  0  0  0  0  0  0  0  0  0  0  0
  151.4930  139.3913  156.0803 H   0  0  0  0  0  0  0  0  0  0  0  0
  151.7754  144.5817  158.2223 H   0  0  0  0  0  0  0  0  0  0  0  0
  150.2831  143.8347  158.8041 H   0  0  0  0  0  0  0  0  0  0  0  0
  151.5181  146.0490  160.0343 H   0  0  0  0  0  0  0  0  0  0  0  0
  150.3702  144.9734  160.8228 H   0  0  0  0  0  0  0  0  0  0  0  0
  153.3286  145.0596  161.1710 H   0  0  0  0  0  0  0  0  0  0  0  0
  152.1023  144.3709  162.2503 H   0  0  0  0  0  0  0  0  0  0  0  0
  1  2  1  0  0  0  0
  1 21  1  0  0  0  0
  1 22  1  0  0  0  0
  1 23  1  0  0  0  0
  2  3  1  0  0  0  0
  2  4  1  0  0  0  0
  2  5  1  0  0  0  0
  3 24  1  0  0  0  0
  3 25  1  0  0  0  0
  3 26  1  0  0  0  0
  4 27  1  0  0  0  0
  4 28  1  0  0  0  0
  4 29  1  0  0  0  0
  5  6  1  0  0  0  0
  5 30  1  0  0  0  0
  5 31  1  0  0  0  0
  6  7  1  0  0  0  0
  6 32  1  0  0  0  0
  7  8  2  0  0  0  0
  7  9  1  0  0  0  0
  9 10  1  0  0  0  0
  9 33  1  0  0  0  0
  9 34  1  0  0  0  0
 10 20  1  0  0  0  0
 10 11  2  0  0  0  0
 11 12  1  0  0  0  0
 11 35  1  0  0  0  0
 12 13  1  0  0  0  0
 13 14  1  0  0  0  0
 13 20  2  0  0  0  0
 14 18  1  0  0  0  0
 14 15  1  0  0  0  0
 15 16  1  0  0  0  0
 15 36  1  0  0  0  0
 15 37  1  0  0  0  0
 16 17  1  0  0  0  0
 16 38  1  0  0  0  0
 16 39  1  0  0  0  0
 17 18  1  0  0  0  0
 17 40  1  0  0  0  0
 17 41  1  0  0  0  0
 18 19  2  0  0  0  0
M  END
> <s_m_source_file>
AV-unprocessed.smi

> <i_m_source_file_index>
2522

> <i_lp_mmshare_version>
43012

> <i_f3d_flags>
0

> <s_epik_input>
W0NIM11DKFtDSDNdKShbQ0gzXSlbQ0gyXVtOSF1DKD1PKVtDSDJdYzFbY0hdc2MobjEpTjJbQ0gyXVtDSDJdW0NIMl1DMj1P

> <s_epik_cmdline>
J2VwaWtfcHl0aG9uJywgJy1waCcsICc3LjAnLCAnLXRuJywgJzgnLCAnLW1hJywgJzIwMCcsICctbWV0YWxfYmluZGluZycsICctaW1hZScsICc8aW5maWxlLm1hZT4nLCAnLW9tYWUnLCAnPG91dGZpbGUubWFlPic=

> <r_lp_tautomer_probability>
1

> <r_epik_Ionization_Penalty>
2.986e-05

> <r_epik_Ionization_Penalty_Charging>
0

> <r_epik_Ionization_Penalty_Neutral>
2.986e-05

> <r_epik_State_Penalty>
-0

> <r_epik_Charging_Adjusted_Penalty>
0

> <i_epik_Tot_Q>
0

> <i_epik_Tot_abs_Q>
0

> <r_epik_Metal_State_Penalty>
-0

> <b_epik_Metal_Only>
0

> <s_lp_Force_Field>
OPLS_2005

> <r_lp_Energy>
19.1404

> <b_lp_Chiralities_Consistent>
1

> <s_lp_Variant>
AV-unprocessed.smi:2522-1

> <Gold.Version>
5.8.1

> <Gold.Id.Protein>
6NUR|6NUR_protein|mol2

> <Gold.PLP.Fitness>
42.4965

> <Gold.PLP.PLP>
-40.2867

> <Gold.PLP.part.hbond>
-0.9985

> <Gold.PLP.part.metal>
0.0000

> <Gold.PLP.part.buried>
-6.0096

> <Gold.PLP.part.nonpolar>
-33.7415

> <Gold.PLP.part.repulsive>
0.1028

> <Gold.PLP.ligand.clash>
0.0000

> <Gold.PLP.ligand.torsion>
0.4039

> <Gold.PLP.Chemscore.Hbond>
0.9913

> <Gold.PLP.Chemscore.CHOScore>
0.0000

> <Gold.PLP.Chemscore.Metal>
0.0000

> <Gold.Chemscore.Hbonds>
donor molecule, donor type, donor heavy atom, donor atom, acceptor molecule, acceptor atom, score
      P1  H  6896  6908       L1     8  0.65

> <Gold.PLP.Chemscore.Internal.Correction>
0.0438

> <Gold.Rescore>
     Score         DG    S(hbond)    S(metal)    S(lipo)     H(rot)  DE(clash)    DE(int)     intcor
     13.20     -14.93       0.93        0.00      88.92       1.59       0.02       1.72       ----

> <Gold.Chemscore.Fitness>
13.1955

> <Gold.Chemscore.DG>
-14.9327

> <Gold.Chemscore.ZeroCoef>
-5.4800

> <Gold.Chemscore.Hbond>
0.9334

> <Gold.Chemscore.Metal>
0.0000

> <Gold.Chemscore.Lipo>
88.9180

> <Gold.Chemscore.Internal_Hbond>
0.0000

> <Gold.Chemscore.DEClash>
0.0176

> <Gold.Chemscore.DEInternal>
1.7196

> <Gold.Chemscore.Rot>
1.5892

> <Gold.Chemscore.Internal.Correction>
   9.000000E+99

> <Gold.Chemscore.Hbonds>
donor molecule, donor type, donor heavy atom, donor atom, acceptor molecule, acceptor atom, score
      P1  H  6896  6908       L1     8  0.64

> <Gold.Chemscore.Hbond.Weighted>
-3.1177

> <Gold.Chemscore.Metal.Weighted>
-0.0000

> <Gold.Chemscore.Lipo.Weighted>
-10.4034

> <Gold.Chemscore.Internal_Hbond.Weighted>
0.0000

> <Gold.Chemscore.DEClash.Weighted>
0.0176

> <Gold.Chemscore.DEInternal.Weighted>
1.7196

> <Gold.Chemscore.Rot.Weighted>
4.0684

> <Gold.Chemscore.Internal.Correction.Weighted>
   9.000000E+99

> <Gold.Protein.RotatedTorsions>
[ 6907 6896 6895 6894 ] final -124.35 input  -60.11 | X-H torsion
[ 7974 7965 7964 7962 ] final  -79.97 input  175.53 | X-H torsion
[ 8008 7997 7996 7995 ] final   19.15 input   59.86 | X-H torsion
[ 10167 10162 10161 10158 ] final   38.13 input  -65.29 | X-H torsion
[ 10718 10713 10712 10709 ] final  178.96 input   66.30 | X-H torsion
[ 10763 10752 10751 10750 ] final  156.09 input  -60.55 | X-H torsion
[ 11005 11000 10999 10996 ] final   19.24 input  -57.11 | X-H torsion

> <Gold.Protein.ActiveResidues>
 VAL166  LYS551  ARG553  GLY616  TRP617  ASP618  TYR619  PRO620  LYS621  CYS622 
 ASP623  PHE694  ASN695  SER759  ASP760  ASP761  ALA762  ILE779  LEU786  VAL792 
 PHE793  MET794  SER795  GLU796  ALA797  LYS798  CYS799  TRP800  GLU811  SER814 

> <Gold.Protein.RotatedAtoms>
  150.8759  133.7439  159.2946 H   0  0  0  0  0  0  0  0  0  0  0  0  # atno 6907 bound_to 6896
  151.5036  135.1061  159.9845 H   0  0  0  0  0  0  0  0  0  0  0  0  # atno 6908 bound_to 6896
  152.4727  133.8021  159.7014 H   0  0  0  0  0  0  0  0  0  0  0  0  # atno 6909 bound_to 6896
  145.5661  140.9474  143.1421 H   0  0  0  0  0  0  0  0  0  0  0  0  # atno 7974 bound_to 7965
  154.9165  140.3021  155.5239 H   0  0  0  0  0  0  0  0  0  0  0  0  # atno 8008 bound_to 7997
  156.3012  140.2379  156.4146 H   0  0  0  0  0  0  0  0  0  0  0  0  # atno 8009 bound_to 7997
  154.8373  140.0415  157.1507 H   0  0  0  0  0  0  0  0  0  0  0  0  # atno 8010 bound_to 7997
  140.3966  144.1781  150.6132 H   0  0  0  0  0  0  0  0  0  0  0  0  # atno 10167 bound_to 10162
  156.8828  130.9821  151.3060 H   0  0  0  0  0  0  0  0  0  0  0  0  # atno 10718 bound_to 10713
  154.1787  135.2800  155.3058 H   0  0  0  0  0  0  0  0  0  0  0  0  # atno 10763 bound_to 10752
  154.6019  135.5527  153.7386 H   0  0  0  0  0  0  0  0  0  0  0  0  # atno 10764 bound_to 10752
  153.0144  135.6394  154.1927 H   0  0  0  0  0  0  0  0  0  0  0  0  # atno 10765 bound_to 10752
  140.4159  134.1569  155.7670 H   0  0  0  0  0  0  0  0  0  0  0  0  # atno 11005 bound_to 11000
  144.7460  139.7320  143.7292 LP  0  0  0  0  0  0  0  0  0  0  0  0  # atno 17320 bound_to 7965
  146.1817  139.5012  142.9862 LP  0  0  0  0  0  0  0  0  0  0  0  0  # atno 17321 bound_to 7965
  140.4784  143.2388  151.8990 LP  0  0  0  0  0  0  0  0  0  0  0  0  # atno 17342 bound_to 10162
  139.4786  144.5295  151.8686 LP  0  0  0  0  0  0  0  0  0  0  0  0  # atno 17343 bound_to 10162
  157.6130  130.8597  149.8983 LP  0  0  0  0  0  0  0  0  0  0  0  0  # atno 17370 bound_to 10713
  156.0668  130.3691  150.0860 LP  0  0  0  0  0  0  0  0  0  0  0  0  # atno 17371 bound_to 10713
  141.1803  133.8428  157.1281 LP  0  0  0  0  0  0  0  0  0  0  0  0  # atno 17394 bound_to 11000
  140.0234  134.9935  157.0637 LP  0  0  0  0  0  0  0  0  0  0  0  0  # atno 17395 bound_to 11000

$$$$
