AV-unprocessed.smi:2330|AV-procd|sdf|9312|dock1
  -GOLD-   2272012533D 1   1.00000     0.00000
 Structure written by MMmdl.
 42 43  0  0  0  0  0  0  0  0  1 V2000
  146.2673  132.6259  150.1894 C   0  0  0  0  0  0  0  0  0  0  0  0
  146.2496  132.6345  151.7246 C   0  0  2  0  0  0  0  0  0  0  0  0
  145.7379  133.9804  152.2728 C   0  0  0  0  0  0  0  0  0  0  0  0
  145.7274  134.0024  153.8123 C   0  0  0  0  0  0  0  0  0  0  0  0
  147.1065  133.6629  154.4093 C   0  0  2  0  0  0  0  0  0  0  0  0
  148.0465  134.7538  154.1568 N   0  0  0  0  0  0  0  0  0  0  0  0
  148.8932  135.2748  155.0553 C   0  0  0  0  0  0  0  0  0  0  0  0
  148.9713  134.9047  156.2269 O   0  0  0  0  0  0  0  0  0  0  0  0
  149.6552  136.2366  154.5157 N   0  0  0  0  0  0  0  0  0  0  0  0
  150.6952  136.9859  155.2146 C   0  0  0  0  0  0  0  0  0  0  0  0
  151.1914  138.2012  154.4023 C   0  0  2  0  0  0  0  0  0  0  0  0
  152.5708  138.7360  154.8251 C   0  0  0  0  0  0  0  0  0  0  0  0
  150.1681  139.2935  154.3719 C   0  0  0  0  0  0  0  0  0  0  0  0
  150.4315  140.5686  154.6759 N   0  0  0  0  0  0  0  0  0  0  0  0
  149.3059  141.3889  154.5699 C   0  0  0  0  0  0  0  0  0  0  0  0
  148.1754  140.7185  154.1780 C   0  0  0  0  0  0  0  0  0  0  0  0
  148.4855  139.0226  153.9277 S   0  0  0  0  0  0  0  0  0  0  0  0
  147.6295  132.3251  153.8440 C   0  0  0  0  0  0  0  0  0  0  0  0
  147.6389  132.3083  152.3052 C   0  0  0  0  0  0  0  0  0  0  0  0
  146.9414  133.3876  149.7964 H   0  0  0  0  0  0  0  0  0  0  0  0
  145.2736  132.8194  149.7844 H   0  0  0  0  0  0  0  0  0  0  0  0
  146.5966  131.6599  149.8055 H   0  0  0  0  0  0  0  0  0  0  0  0
  145.5587  131.8550  152.0495 H   0  0  0  0  0  0  0  0  0  0  0  0
  146.3627  134.7925  151.8987 H   0  0  0  0  0  0  0  0  0  0  0  0
  144.7312  134.1745  151.9008 H   0  0  0  0  0  0  0  0  0  0  0  0
  145.3906  134.9763  154.1697 H   0  0  0  0  0  0  0  0  0  0  0  0
  144.9946  133.2792  154.1725 H   0  0  0  0  0  0  0  0  0  0  0  0
  146.9884  133.5628  155.4897 H   0  0  0  0  0  0  0  0  0  0  0  0
  148.0622  135.1273  153.2190 H   0  0  0  0  0  0  0  0  0  0  0  0
  149.5117  136.4629  153.5424 H   0  0  0  0  0  0  0  0  0  0  0  0
  150.2648  137.3295  156.1559 H   0  0  0  0  0  0  0  0  0  0  0  0
  151.5318  136.3385  155.4836 H   0  0  0  0  0  0  0  0  0  0  0  0
  151.2989  137.8627  153.3708 H   0  0  0  0  0  0  0  0  0  0  0  0
  152.8744  139.5729  154.1951 H   0  0  0  0  0  0  0  0  0  0  0  0
  153.3434  137.9723  154.7399 H   0  0  0  0  0  0  0  0  0  0  0  0
  152.5595  139.0841  155.8584 H   0  0  0  0  0  0  0  0  0  0  0  0
  149.3991  142.4416  154.7928 H   0  0  0  0  0  0  0  0  0  0  0  0
  147.1839  141.1172  154.0222 H   0  0  0  0  0  0  0  0  0  0  0  0
  148.6289  132.1121  154.2252 H   0  0  0  0  0  0  0  0  0  0  0  0
  146.9937  131.5150  154.2029 H   0  0  0  0  0  0  0  0  0  0  0  0
  147.9665  131.3286  151.9559 H   0  0  0  0  0  0  0  0  0  0  0  0
  148.3728  133.0256  151.9354 H   0  0  0  0  0  0  0  0  0  0  0  0
  1  2  1  0  0  0  0
  1 20  1  0  0  0  0
  1 21  1  0  0  0  0
  1 22  1  0  0  0  0
  2 19  1  0  0  0  0
  2  3  1  0  0  0  0
  2 23  1  0  0  0  0
  3  4  1  0  0  0  0
  3 24  1  0  0  0  0
  3 25  1  0  0  0  0
  4  5  1  0  0  0  0
  4 26  1  0  0  0  0
  4 27  1  0  0  0  0
  5  6  1  0  0  0  0
  5 18  1  0  0  0  0
  5 28  1  0  0  0  0
  6  7  1  0  0  0  0
  6 29  1  0  0  0  0
  7  8  2  0  0  0  0
  7  9  1  0  0  0  0
  9 10  1  0  0  0  0
  9 30  1  0  0  0  0
 10 11  1  0  0  0  0
 10 31  1  0  0  0  0
 10 32  1  0  0  0  0
 11 12  1  0  0  0  0
 11 13  1  0  0  0  0
 11 33  1  0  0  0  0
 12 34  1  0  0  0  0
 12 35  1  0  0  0  0
 12 36  1  0  0  0  0
 13 17  1  0  0  0  0
 13 14  2  0  0  0  0
 14 15  1  0  0  0  0
 15 16  2  0  0  0  0
 15 37  1  0  0  0  0
 16 17  1  0  0  0  0
 16 38  1  0  0  0  0
 18 19  1  0  0  0  0
 18 39  1  0  0  0  0
 18 40  1  0  0  0  0
 19 41  1  0  0  0  0
 19 42  1  0  0  0  0
M  END
> <s_m_source_file>
AV-unprocessed.smi

> <i_m_source_file_index>
2330

> <i_lp_mmshare_version>
43012

> <i_f3d_flags>
0

> <s_epik_input>
W0NIM11bQ0BASF0xW0NIMl1bQ0gyXVtDQEhdKFtDSDJdW0NIMl0xKVtOSF1DKD1PKVtOSF1bQ0gyXVtDQEhdKFtDSDNdKWMybltjSF1bY0hdczI=

> <s_epik_cmdline>
J2VwaWtfcHl0aG9uJywgJy1waCcsICc3LjAnLCAnLXRuJywgJzgnLCAnLW1hJywgJzIwMCcsICctbWV0YWxfYmluZGluZycsICctaW1hZScsICc8aW5maWxlLm1hZT4nLCAnLW9tYWUnLCAnPG91dGZpbGUubWFlPic=

> <r_lp_tautomer_probability>
1

> <r_epik_Ionization_Penalty>
0.000331107

> <r_epik_Ionization_Penalty_Charging>
0

> <r_epik_Ionization_Penalty_Neutral>
0.000331107

> <r_epik_State_Penalty>
-0

> <r_epik_Charging_Adjusted_Penalty>
0

> <i_epik_Tot_Q>
0

> <i_epik_Tot_abs_Q>
0

> <r_epik_Metal_State_Penalty>
-0

> <b_epik_Metal_Only>
0

> <s_lp_Force_Field>
OPLS_2005

> <r_lp_Energy>
-1.48662

> <b_lp_Chiralities_Consistent>
1

> <s_lp_Variant>
AV-unprocessed.smi:2330-3

> <Gold.Version>
5.8.1

> <Gold.Id.Protein>
6NUR|6NUR_protein|mol2

> <Gold.PLP.Fitness>
43.9600

> <Gold.PLP.PLP>
-32.8198

> <Gold.PLP.part.hbond>
-3.0000

> <Gold.PLP.part.metal>
0.0000

> <Gold.PLP.part.buried>
-0.1529

> <Gold.PLP.part.nonpolar>
-29.2440

> <Gold.PLP.part.repulsive>
0.1544

> <Gold.PLP.ligand.clash>
0.0000

> <Gold.PLP.ligand.torsion>
0.4901

> <Gold.PLP.Chemscore.Hbond>
2.9920

> <Gold.PLP.Chemscore.CHOScore>
1.0000

> <Gold.PLP.Chemscore.Metal>
0.0000

> <Gold.Chemscore.Hbonds>
donor molecule, donor type, donor heavy atom, donor atom, acceptor molecule, acceptor atom, score
      L1  H     6    29       P1  7948  0.98
      L1  H     9    30       P1  7948  1.00
      P1  H  7989  7998       L1    14  0.91
      L1  C    15    37       P1  8028  1.00

> <Gold.PLP.Chemscore.Internal.Correction>
0.1444

> <Gold.Rescore>
     Score         DG    S(hbond)    S(metal)    S(lipo)     H(rot)  DE(clash)    DE(int)     intcor
     17.40     -19.19       2.29        0.00      83.60       1.45       0.17       1.62       ----

> <Gold.Chemscore.Fitness>
17.4008

> <Gold.Chemscore.DG>
-19.1946

> <Gold.Chemscore.ZeroCoef>
-5.4800

> <Gold.Chemscore.Hbond>
2.2918

> <Gold.Chemscore.Metal>
0.0000

> <Gold.Chemscore.Lipo>
83.5990

> <Gold.Chemscore.Internal_Hbond>
0.0000

> <Gold.Chemscore.DEClash>
0.1710

> <Gold.Chemscore.DEInternal>
1.6228

> <Gold.Chemscore.Rot>
1.4536

> <Gold.Chemscore.Internal.Correction>
   9.000000E+99

> <Gold.Chemscore.Hbonds>
donor molecule, donor type, donor heavy atom, donor atom, acceptor molecule, acceptor atom, score
      L1  H     6    29       P1  7948  0.92
      L1  H     9    30       P1  7948  0.69
      P1  H  7989  7998       L1    14  0.17

> <Gold.Chemscore.Hbond.Weighted>
-7.6547

> <Gold.Chemscore.Metal.Weighted>
-0.0000

> <Gold.Chemscore.Lipo.Weighted>
-9.7811

> <Gold.Chemscore.Internal_Hbond.Weighted>
0.0000

> <Gold.Chemscore.DEClash.Weighted>
0.1710

> <Gold.Chemscore.DEInternal.Weighted>
1.6228

> <Gold.Chemscore.Rot.Weighted>
3.7212

> <Gold.Chemscore.Internal.Correction.Weighted>
   9.000000E+99

> <Gold.Protein.RotatedTorsions>
[ 6907 6896 6895 6894 ] final -124.06 input  -60.11 | X-H torsion
[ 7974 7965 7964 7962 ] final  -36.14 input  175.53 | X-H torsion
[ 8008 7997 7996 7995 ] final   58.44 input   59.86 | X-H torsion
[ 10167 10162 10161 10158 ] final  -51.08 input  -65.29 | X-H torsion
[ 10718 10713 10712 10709 ] final  -32.70 input   66.30 | X-H torsion
[ 10763 10752 10751 10750 ] final  112.52 input  -60.55 | X-H torsion
[ 11005 11000 10999 10996 ] final   -4.97 input  -57.11 | X-H torsion

> <Gold.Protein.ActiveResidues>
 VAL166  LYS551  ARG553  GLY616  TRP617  ASP618  TYR619  PRO620  LYS621  CYS622 
 ASP623  PHE694  ASN695  SER759  ASP760  ASP761  ALA762  ILE779  LEU786  VAL792 
 PHE793  MET794  SER795  GLU796  ALA797  LYS798  CYS799  TRP800  GLU811  SER814 

> <Gold.Protein.RotatedAtoms>
  150.8731  133.7477  159.2954 H   0  0  0  0  0  0  0  0  0  0  0  0  # atno 6907 bound_to 6896
  151.5083  135.1062  159.9856 H   0  0  0  0  0  0  0  0  0  0  0  0  # atno 6908 bound_to 6896
  152.4709  133.7982  159.6994 H   0  0  0  0  0  0  0  0  0  0  0  0  # atno 6909 bound_to 6896
  146.0687  140.6242  142.8962 H   0  0  0  0  0  0  0  0  0  0  0  0  # atno 7974 bound_to 7965
  155.5500  140.3486  155.4466 H   0  0  0  0  0  0  0  0  0  0  0  0  # atno 8008 bound_to 7997
  156.0590  140.1335  156.9989 H   0  0  0  0  0  0  0  0  0  0  0  0  # atno 8009 bound_to 7997
  154.4470  140.0989  156.6473 H   0  0  0  0  0  0  0  0  0  0  0  0  # atno 8010 bound_to 7997
  140.6606  143.2633  151.4452 H   0  0  0  0  0  0  0  0  0  0  0  0  # atno 10167 bound_to 10162
  156.3717  130.4341  149.7540 H   0  0  0  0  0  0  0  0  0  0  0  0  # atno 10718 bound_to 10713
  153.4790  135.3684  155.2432 H   0  0  0  0  0  0  0  0  0  0  0  0  # atno 10763 bound_to 10752
  154.8755  135.3950  154.3722 H   0  0  0  0  0  0  0  0  0  0  0  0  # atno 10764 bound_to 10752
  153.4323  135.7082  153.6288 H   0  0  0  0  0  0  0  0  0  0  0  0  # atno 10765 bound_to 10752
  140.6860  133.9112  155.8586 H   0  0  0  0  0  0  0  0  0  0  0  0  # atno 11005 bound_to 11000
  144.7218  140.4398  143.7002 LP  0  0  0  0  0  0  0  0  0  0  0  0  # atno 17320 bound_to 7965
  145.6430  139.1553  143.2905 LP  0  0  0  0  0  0  0  0  0  0  0  0  # atno 17321 bound_to 7965
  139.5839  144.1648  152.2004 LP  0  0  0  0  0  0  0  0  0  0  0  0  # atno 17342 bound_to 10162
  140.0982  144.5562  150.7007 LP  0  0  0  0  0  0  0  0  0  0  0  0  # atno 17343 bound_to 10162
  156.4664  130.7976  151.2995 LP  0  0  0  0  0  0  0  0  0  0  0  0  # atno 17370 bound_to 10713
  157.7484  131.0049  150.3095 LP  0  0  0  0  0  0  0  0  0  0  0  0  # atno 17371 bound_to 10713
  141.0279  134.0797  157.4047 LP  0  0  0  0  0  0  0  0  0  0  0  0  # atno 17394 bound_to 11000
  139.8937  135.0132  156.6914 LP  0  0  0  0  0  0  0  0  0  0  0  0  # atno 17395 bound_to 11000

$$$$
