AV-unprocessed.smi:1776|AV-procd|sdf|7174|dock7
  -GOLD-   22720 8413D 1   1.00000     0.00000
 Structure written by MMmdl.
 31 32  0  0  0  0  0  0  0  0  1 V2000
  146.9129  133.0001  154.1235 O   0  0  0  0  0  0  0  0  0  0  0  0
  147.4009  134.1147  153.9377 C   0  0  0  0  0  0  0  0  0  0  0  0
  146.9893  134.9957  153.0031 N   0  0  0  0  0  0  0  0  0  0  0  0
  145.9572  134.8979  152.0533 C   0  0  0  0  0  0  0  0  0  0  0  0
  145.6168  133.7711  151.3733 C   0  0  0  0  0  0  0  0  0  0  0  0
  144.5289  133.7495  150.4097 C   0  0  0  0  0  0  0  0  0  0  0  0
  144.2073  132.5002  149.6039 C   0  0  0  0  0  0  0  0  0  0  0  0
  143.2030  132.7153  148.7529 F   0  0  0  0  0  0  0  0  0  0  0  0
  145.2689  132.0977  148.9050 F   0  0  0  0  0  0  0  0  0  0  0  0
  143.8529  131.5120  150.4239 F   0  0  0  0  0  0  0  0  0  0  0  0
  143.8779  134.9107  150.2124 C   0  0  0  0  0  0  0  0  0  0  0  0
  144.2101  136.0689  150.9178 N   0  0  0  0  0  0  0  0  0  0  0  0
  145.2066  136.1449  151.8280 C   0  0  0  0  0  0  0  0  0  0  0  0
  145.4373  137.2060  152.4071 O   0  0  0  0  0  0  0  0  0  0  0  0
  148.5654  134.5966  154.8162 C   0  0  1  0  0  0  0  0  0  0  0  0
  149.8747  134.8244  154.0249 C   0  0  0  0  0  0  0  0  0  0  0  0
  150.8804  135.3051  154.9077 O   0  0  0  0  0  0  0  0  0  0  0  0
  150.4946  136.5311  155.5134 C   0  0  0  0  0  0  0  0  0  0  0  0
  149.2000  136.3059  156.3113 C   0  0  0  0  0  0  0  0  0  0  0  0
  148.1915  135.8267  155.4321 O   0  0  0  0  0  0  0  0  0  0  0  0
  143.6655  136.8968  150.7230 H   0  0  0  0  0  0  0  0  0  0  0  0
  147.5130  135.8585  152.9579 H   0  0  0  0  0  0  0  0  0  0  0  0
  146.1346  132.8407  151.5325 H   0  0  0  0  0  0  0  0  0  0  0  0
  143.0693  135.0442  149.5090 H   0  0  0  0  0  0  0  0  0  0  0  0
  148.7297  133.8427  155.5882 H   0  0  0  0  0  0  0  0  0  0  0  0
  150.2250  133.8913  153.5820 H   0  0  0  0  0  0  0  0  0  0  0  0
  149.7268  135.5336  153.2082 H   0  0  0  0  0  0  0  0  0  0  0  0
  151.2932  136.8706  156.1732 H   0  0  0  0  0  0  0  0  0  0  0  0
  150.3553  137.3016  154.7533 H   0  0  0  0  0  0  0  0  0  0  0  0
  149.3612  135.5961  157.1242 H   0  0  0  0  0  0  0  0  0  0  0  0
  148.8648  137.2405  156.7611 H   0  0  0  0  0  0  0  0  0  0  0  0
  1  2  2  0  0  0  0
  2  3  1  0  0  0  0
  2 15  1  0  0  0  0
  3  4  1  0  0  0  0
  3 22  1  0  0  0  0
  4 13  1  0  0  0  0
  4  5  2  0  0  0  0
  5  6  1  0  0  0  0
  5 23  1  0  0  0  0
  6  7  1  0  0  0  0
  6 11  2  0  0  0  0
  7  8  1  0  0  0  0
  7  9  1  0  0  0  0
  7 10  1  0  0  0  0
 11 12  1  0  0  0  0
 11 24  1  0  0  0  0
 12 21  1  0  0  0  0
 12 13  1  0  0  0  0
 13 14  2  0  0  0  0
 15 20  1  0  0  0  0
 15 16  1  0  0  0  0
 15 25  1  0  0  0  0
 16 17  1  0  0  0  0
 16 26  1  0  0  0  0
 16 27  1  0  0  0  0
 17 18  1  0  0  0  0
 18 19  1  0  0  0  0
 18 28  1  0  0  0  0
 18 29  1  0  0  0  0
 19 20  1  0  0  0  0
 19 30  1  0  0  0  0
 19 31  1  0  0  0  0
M  END
> <s_m_source_file>
AV-unprocessed.smi

> <i_m_source_file_index>
1776

> <i_lp_mmshare_version>
43012

> <i_f3d_flags>
0

> <s_epik_input>
TzFbQ0gyXVtDSDJdT1tDSDJdW0NASF0xQyg9TylbTkhdYzJbY0hdYyhDKEYpKEYpRilbY0hdW25IXWMyPU8=

> <s_epik_cmdline>
J2VwaWtfcHl0aG9uJywgJy1waCcsICc3LjAnLCAnLXRuJywgJzgnLCAnLW1hJywgJzIwMCcsICctbWV0YWxfYmluZGluZycsICctaW1hZScsICc8aW5maWxlLm1hZT4nLCAnLW9tYWUnLCAnPG91dGZpbGUubWFlPic=

> <r_lp_tautomer_probability>
0.999

> <r_epik_Ionization_Penalty>
0.0100875

> <r_epik_Ionization_Penalty_Charging>
0.0100873

> <r_epik_Ionization_Penalty_Neutral>
1.79075e-07

> <r_epik_State_Penalty>
0.00769562

> <r_epik_Charging_Adjusted_Penalty>
0.017783

> <i_epik_Tot_Q>
0

> <i_epik_Tot_abs_Q>
0

> <r_epik_Metal_State_Penalty>
0.325451

> <b_epik_Metal_Only>
0

> <s_lp_Force_Field>
OPLS_2005

> <r_lp_Energy>
23.697

> <b_lp_Chiralities_Consistent>
1

> <s_lp_Variant>
AV-unprocessed.smi:1776-2

> <Gold.Version>
5.8.1

> <Gold.Id.Protein>
6NUR|6NUR_protein|mol2

> <Gold.PLP.Fitness>
39.1058

> <Gold.PLP.PLP>
-30.5029

> <Gold.PLP.part.hbond>
-3.0000

> <Gold.PLP.part.metal>
0.0000

> <Gold.PLP.part.buried>
-2.5670

> <Gold.PLP.part.nonpolar>
-26.2501

> <Gold.PLP.part.repulsive>
0.4455

> <Gold.PLP.ligand.clash>
1.0405

> <Gold.PLP.ligand.torsion>
0.3287

> <Gold.PLP.Chemscore.Hbond>
2.4480

> <Gold.PLP.Chemscore.CHOScore>
0.9754

> <Gold.PLP.Chemscore.Metal>
0.0000

> <Gold.Chemscore.Hbonds>
donor molecule, donor type, donor heavy atom, donor atom, acceptor molecule, acceptor atom, score
      L1  H     3    22       P1  7948  0.53
      L1  H    12    21       P1 10171  0.78
      P1  H 10752 10763       L1    17  0.73
      L1  C    11    24       P1 10186  1.00

> <Gold.PLP.Chemscore.Internal.Correction>
0.0305

> <Gold.Rescore>
     Score         DG    S(hbond)    S(metal)    S(lipo)     H(rot)  DE(clash)    DE(int)     intcor
     13.60     -14.29       1.66        0.00      49.90       1.00       0.19       0.49       ----

> <Gold.Chemscore.Fitness>
13.6050

> <Gold.Chemscore.DG>
-14.2940

> <Gold.Chemscore.ZeroCoef>
-5.4800

> <Gold.Chemscore.Hbond>
1.6573

> <Gold.Chemscore.Metal>
0.0000

> <Gold.Chemscore.Lipo>
49.9032

> <Gold.Chemscore.Internal_Hbond>
0.0000

> <Gold.Chemscore.DEClash>
0.1948

> <Gold.Chemscore.DEInternal>
0.4943

> <Gold.Chemscore.Rot>
1.0000

> <Gold.Chemscore.Internal.Correction>
   9.000000E+99

> <Gold.Chemscore.Hbonds>
donor molecule, donor type, donor heavy atom, donor atom, acceptor molecule, acceptor atom, score
      L1  H     3    22       P1  7948  0.52
      L1  H    12    21       P1 10171  0.77
      P1  H 10752 10763       L1    17  0.24

> <Gold.Chemscore.Hbond.Weighted>
-5.5354

> <Gold.Chemscore.Metal.Weighted>
-0.0000

> <Gold.Chemscore.Lipo.Weighted>
-5.8387

> <Gold.Chemscore.Internal_Hbond.Weighted>
0.0000

> <Gold.Chemscore.DEClash.Weighted>
0.1948

> <Gold.Chemscore.DEInternal.Weighted>
0.4943

> <Gold.Chemscore.Rot.Weighted>
2.5600

> <Gold.Chemscore.Internal.Correction.Weighted>
   9.000000E+99

> <Gold.Protein.RotatedTorsions>
[ 6907 6896 6895 6894 ] final  100.38 input  -60.11 | X-H torsion
[ 7974 7965 7964 7962 ] final   39.87 input  175.53 | X-H torsion
[ 8008 7997 7996 7995 ] final -179.30 input   59.86 | X-H torsion
[ 10167 10162 10161 10158 ] final -135.30 input  -65.29 | X-H torsion
[ 10718 10713 10712 10709 ] final -117.46 input   66.30 | X-H torsion
[ 10763 10752 10751 10750 ] final   72.33 input  -60.55 | X-H torsion
[ 11005 11000 10999 10996 ] final  148.88 input  -57.11 | X-H torsion

> <Gold.Protein.ActiveResidues>
 VAL166  LYS551  ARG553  GLY616  TRP617  ASP618  TYR619  PRO620  LYS621  CYS622 
 ASP623  PHE694  ASN695  SER759  ASP760  ASP761  ALA762  ILE779  LEU786  VAL792 
 PHE793  MET794  SER795  GLU796  ALA797  LYS798  CYS799  TRP800  GLU811  SER814 

> <Gold.Protein.RotatedAtoms>
  152.5373  134.0285  159.8013 H   0  0  0  0  0  0  0  0  0  0  0  0  # atno 6907 bound_to 6896
  151.0460  133.5657  159.2654 H   0  0  0  0  0  0  0  0  0  0  0  0  # atno 6908 bound_to 6896
  151.2609  135.0661  159.9151 H   0  0  0  0  0  0  0  0  0  0  0  0  # atno 6909 bound_to 6896
  146.0950  139.5600  142.9451 H   0  0  0  0  0  0  0  0  0  0  0  0  # atno 7974 bound_to 7965
  156.0289  140.1277  157.0279 H   0  0  0  0  0  0  0  0  0  0  0  0  # atno 8008 bound_to 7997
  154.4341  140.1053  156.6140 H   0  0  0  0  0  0  0  0  0  0  0  0  # atno 8009 bound_to 7997
  155.5837  140.3468  155.4549 H   0  0  0  0  0  0  0  0  0  0  0  0  # atno 8010 bound_to 7997
  139.8793  143.6859  152.2629 H   0  0  0  0  0  0  0  0  0  0  0  0  # atno 10167 bound_to 10162
  156.1035  130.6192  150.9167 H   0  0  0  0  0  0  0  0  0  0  0  0  # atno 10718 bound_to 10713
  153.0452  135.5104  154.7728 H   0  0  0  0  0  0  0  0  0  0  0  0  # atno 10763 bound_to 10752
  154.6633  135.2942  154.9840 H   0  0  0  0  0  0  0  0  0  0  0  0  # atno 10764 bound_to 10752
  154.0683  135.6681  153.4873 H   0  0  0  0  0  0  0  0  0  0  0  0  # atno 10765 bound_to 10752
  140.0997  134.8990  157.1777 H   0  0  0  0  0  0  0  0  0  0  0  0  # atno 11005 bound_to 11000
  145.5966  141.0361  143.2041 LP  0  0  0  0  0  0  0  0  0  0  0  0  # atno 17320 bound_to 7965
  144.7388  139.7507  143.7319 LP  0  0  0  0  0  0  0  0  0  0  0  0  # atno 17321 bound_to 7965
  139.7211  144.7602  151.0954 LP  0  0  0  0  0  0  0  0  0  0  0  0  # atno 17342 bound_to 10162
  140.7747  143.5206  150.9541 LP  0  0  0  0  0  0  0  0  0  0  0  0  # atno 17343 bound_to 10162
  157.6209  131.0929  150.8623 LP  0  0  0  0  0  0  0  0  0  0  0  0  # atno 17370 bound_to 10713
  156.8747  130.5158  149.5294 LP  0  0  0  0  0  0  0  0  0  0  0  0  # atno 17371 bound_to 10713
  140.3237  134.2888  155.7241 LP  0  0  0  0  0  0  0  0  0  0  0  0  # atno 17394 bound_to 11000
  141.2102  133.7726  156.9946 LP  0  0  0  0  0  0  0  0  0  0  0  0  # atno 17395 bound_to 11000

$$$$
