AV-unprocessed.smi:1383|AV-procd|sdf|5625|dock10
  -GOLD-   22720 5243D 1   1.00000     0.00000
 Structure written by MMmdl.
 30 30  0  0  0  0  0  0  0  0  2 V2000
  147.4855  132.4289  161.7714 C   0  0  0  0  0  0  0  0  0  0  0  0
  148.2300  133.6148  161.1381 C   0  0  0  0  0  0  0  0  0  0  0  0
  147.3601  134.8763  160.9374 C   0  0  1  0  0  0  0  0  0  0  0  0
  146.5318  135.1862  162.1960 C   0  0  0  0  0  0  0  0  0  0  0  0
  148.2071  136.1040  160.5502 C   0  0  0  0  0  0  0  0  0  0  0  0
  148.0328  137.1689  161.1463 O   0  0  0  0  0  0  0  0  0  0  0  0
  149.0795  135.8289  159.5504 N   0  5  0  0  0  0  0  0  0  0  0  0
  149.1178  136.6220  158.4688 C   0  0  0  0  0  0  0  0  0  0  0  0
  150.0173  136.4752  157.4899 N   0  0  0  0  0  0  0  0  0  0  0  0
  149.8716  137.3995  156.4510 C   0  0  0  0  0  0  0  0  0  0  0  0
  150.8105  137.3650  155.2796 C   0  0  0  0  0  0  0  0  0  0  0  0
  150.5168  138.5184  154.3171 C   0  0  0  0  0  0  0  0  0  0  0  0
  149.8452  138.2274  153.1993 N   0  0  0  0  0  0  0  0  0  0  0  0
  150.9017  139.6575  154.5737 O   0  0  0  0  0  0  0  0  0  0  0  0
  148.8318  138.2708  156.6510 C   0  0  0  0  0  0  0  0  0  0  0  0
  147.9997  137.9484  158.1454 S   0  0  0  0  0  0  0  0  0  0  0  0
  148.1638  131.5921  161.9382 H   0  0  0  0  0  0  0  0  0  0  0  0
  146.6767  132.0726  161.1326 H   0  0  0  0  0  0  0  0  0  0  0  0
  147.0549  132.7053  162.7342 H   0  0  0  0  0  0  0  0  0  0  0  0
  149.0756  133.8679  161.7784 H   0  0  0  0  0  0  0  0  0  0  0  0
  148.6621  133.3026  160.1863 H   0  0  0  0  0  0  0  0  0  0  0  0
  146.6482  134.6557  160.1385 H   0  0  0  0  0  0  0  0  0  0  0  0
  145.9232  136.0810  162.0591 H   0  0  0  0  0  0  0  0  0  0  0  0
  147.1691  135.3459  163.0665 H   0  0  0  0  0  0  0  0  0  0  0  0
  145.8542  134.3643  162.4290 H   0  0  0  0  0  0  0  0  0  0  0  0
  151.8447  137.4326  155.6192 H   0  0  0  0  0  0  0  0  0  0  0  0
  150.7266  136.4209  154.7398 H   0  0  0  0  0  0  0  0  0  0  0  0
  149.6500  138.9573  152.5284 H   0  0  0  0  0  0  0  0  0  0  0  0
  149.5540  137.2778  153.0191 H   0  0  0  0  0  0  0  0  0  0  0  0
  148.5029  139.0755  156.0110 H   0  0  0  0  0  0  0  0  0  0  0  0
  1  2  1  0  0  0  0
  1 17  1  0  0  0  0
  1 18  1  0  0  0  0
  1 19  1  0  0  0  0
  2  3  1  0  0  0  0
  2 20  1  0  0  0  0
  2 21  1  0  0  0  0
  3  4  1  0  0  0  0
  3  5  1  0  0  0  0
  3 22  1  0  0  0  0
  4 23  1  0  0  0  0
  4 24  1  0  0  0  0
  4 25  1  0  0  0  0
  5  6  2  0  0  0  0
  5  7  1  0  0  0  0
  7  8  1  0  0  0  0
  8 16  1  0  0  0  0
  8  9  2  0  0  0  0
  9 10  1  0  0  0  0
 10 11  1  0  0  0  0
 10 15  2  0  0  0  0
 11 12  1  0  0  0  0
 11 26  1  0  0  0  0
 11 27  1  0  0  0  0
 12 13  1  0  0  0  0
 12 14  2  0  0  0  0
 13 28  1  0  0  0  0
 13 29  1  0  0  0  0
 15 16  1  0  0  0  0
 15 30  1  0  0  0  0
M  CHG  1   7  -1
M  END
> <s_m_source_file>
AV-unprocessed.smi

> <i_m_source_file_index>
1383

> <i_lp_mmshare_version>
43012

> <i_f3d_flags>
0

> <s_epik_input>
W0NIM11bQ0gyXVtDQEhdKFtDSDNdKUMoPU8pW05IXWMxbmMoW2NIXXMxKVtDSDJdQyg9TylbTkgyXQ==

> <s_epik_cmdline>
J2VwaWtfcHl0aG9uJywgJy1waCcsICc3LjAnLCAnLXRuJywgJzgnLCAnLW1hJywgJzIwMCcsICctbWV0YWxfYmluZGluZycsICctaW1hZScsICc8aW5maWxlLm1hZT4nLCAnLW9tYWUnLCAnPG91dGZpbGUubWFlPic=

> <r_lp_tautomer_probability>
1

> <r_epik_Ionization_Penalty>
5.3563

> <r_epik_Ionization_Penalty_Charging>
4.90463

> <r_epik_Ionization_Penalty_Neutral>
0.451677

> <r_epik_State_Penalty>
4.90447

> <r_epik_Charging_Adjusted_Penalty>
9.8091

> <i_epik_Tot_Q>
-1

> <i_epik_Tot_abs_Q>
1

> <r_epik_Metal_State_Penalty>
1.05508

> <b_epik_Metal_Only>
1

> <s_lp_Force_Field>
OPLS_2005

> <r_lp_Energy>
-0.48596

> <b_lp_Chiralities_Consistent>
1

> <s_lp_Variant>
AV-unprocessed.smi:1383-4

> <Gold.Version>
5.8.1

> <Gold.Id.Protein>
6NUR|6NUR_protein|mol2

> <Gold.PLP.Fitness>
42.1239

> <Gold.PLP.PLP>
-24.8111

> <Gold.PLP.part.hbond>
-5.9863

> <Gold.PLP.part.metal>
0.0000

> <Gold.PLP.part.buried>
-4.1420

> <Gold.PLP.part.nonpolar>
-14.6350

> <Gold.PLP.part.repulsive>
0.1691

> <Gold.PLP.ligand.clash>
0.0000

> <Gold.PLP.ligand.torsion>
0.9733

> <Gold.PLP.Chemscore.Hbond>
6.4056

> <Gold.PLP.Chemscore.CHOScore>
0.0000

> <Gold.PLP.Chemscore.Metal>
0.0000

> <Gold.Chemscore.Hbonds>
donor molecule, donor type, donor heavy atom, donor atom, acceptor molecule, acceptor atom, score
      L1  H    13    28       P1  7957  1.00
      L1  H    13    29       P1  7948  0.88
      P1  H  6896  6907       L1     7  2.00
      P1  H  6931  6943       L1     6  1.00
      P1  H  6934  6947       L1     6  0.69
      P1  H  7989  7998       L1    14  1.00

> <Gold.PLP.Chemscore.Internal.Correction>
0.0426

> <Gold.Rescore>
     Score         DG    S(hbond)    S(metal)    S(lipo)     H(rot)  DE(clash)    DE(int)     intcor
     20.46     -21.30       5.13        0.00      35.92       2.15       0.02       0.82       ----

> <Gold.Chemscore.Fitness>
20.4632

> <Gold.Chemscore.DG>
-21.3025

> <Gold.Chemscore.ZeroCoef>
-5.4800

> <Gold.Chemscore.Hbond>
5.1295

> <Gold.Chemscore.Metal>
0.0000

> <Gold.Chemscore.Lipo>
35.9166

> <Gold.Chemscore.Internal_Hbond>
0.0000

> <Gold.Chemscore.DEClash>
0.0202

> <Gold.Chemscore.DEInternal>
0.8190

> <Gold.Chemscore.Rot>
2.1532

> <Gold.Chemscore.Internal.Correction>
   9.000000E+99

> <Gold.Chemscore.Hbonds>
donor molecule, donor type, donor heavy atom, donor atom, acceptor molecule, acceptor atom, score
      L1  H    13    28       P1  7957  0.82
      L1  H    13    29       P1  7948  0.64
      P1  H  6896  6907       L1     7  0.72
      P1  H  6931  6943       L1     6  0.95
      P1  H  6934  6947       L1     6  0.64
      P1  H  7989  7998       L1    14  1.00

> <Gold.Chemscore.Hbond.Weighted>
-17.1326

> <Gold.Chemscore.Metal.Weighted>
-0.0000

> <Gold.Chemscore.Lipo.Weighted>
-4.2022

> <Gold.Chemscore.Internal_Hbond.Weighted>
0.0000

> <Gold.Chemscore.DEClash.Weighted>
0.0202

> <Gold.Chemscore.DEInternal.Weighted>
0.8190

> <Gold.Chemscore.Rot.Weighted>
5.5123

> <Gold.Chemscore.Internal.Correction.Weighted>
   9.000000E+99

> <Gold.Protein.RotatedTorsions>
[ 6907 6896 6895 6894 ] final  -64.98 input  -60.11 | X-H torsion
[ 7974 7965 7964 7962 ] final  167.06 input  175.53 | X-H torsion
[ 8008 7997 7996 7995 ] final   48.26 input   59.86 | X-H torsion
[ 10167 10162 10161 10158 ] final  158.11 input  -65.29 | X-H torsion
[ 10718 10713 10712 10709 ] final  -45.50 input   66.30 | X-H torsion
[ 10763 10752 10751 10750 ] final  -19.86 input  -60.55 | X-H torsion
[ 11005 11000 10999 10996 ] final   95.07 input  -57.11 | X-H torsion

> <Gold.Protein.ActiveResidues>
 VAL166  LYS551  ARG553  GLY616  TRP617  ASP618  TYR619  PRO620  LYS621  CYS622 
 ASP623  PHE694  ASN695  SER759  ASP760  ASP761  ALA762  ILE779  LEU786  VAL792 
 PHE793  MET794  SER795  GLU796  ALA797  LYS798  CYS799  TRP800  GLU811  SER814 

> <Gold.Protein.RotatedAtoms>
  150.7551  134.6223  159.6142 H   0  0  0  0  0  0  0  0  0  0  0  0  # atno 6907 bound_to 6896
  152.3525  134.6982  160.0241 H   0  0  0  0  0  0  0  0  0  0  0  0  # atno 6908 bound_to 6896
  151.7398  133.3285  159.3399 H   0  0  0  0  0  0  0  0  0  0  0  0  # atno 6909 bound_to 6896
  144.7438  139.8706  143.6388 H   0  0  0  0  0  0  0  0  0  0  0  0  # atno 7974 bound_to 7965
  155.3827  140.3429  155.4247 H   0  0  0  0  0  0  0  0  0  0  0  0  # atno 8008 bound_to 7997
  156.1601  140.1598  156.8659 H   0  0  0  0  0  0  0  0  0  0  0  0  # atno 8009 bound_to 7997
  154.5132  140.0785  156.8012 H   0  0  0  0  0  0  0  0  0  0  0  0  # atno 8010 bound_to 7997
  139.4825  144.4855  151.8384 H   0  0  0  0  0  0  0  0  0  0  0  0  # atno 10167 bound_to 10162
  156.2277  130.4170  149.8913 H   0  0  0  0  0  0  0  0  0  0  0  0  # atno 10718 bound_to 10713
  153.6115  135.6996  153.5345 H   0  0  0  0  0  0  0  0  0  0  0  0  # atno 10763 bound_to 10752
  153.3013  135.4128  155.1254 H   0  0  0  0  0  0  0  0  0  0  0  0  # atno 10764 bound_to 10752
  154.8562  135.3649  154.5653 H   0  0  0  0  0  0  0  0  0  0  0  0  # atno 10765 bound_to 10752
  139.8792  134.8879  156.3956 H   0  0  0  0  0  0  0  0  0  0  0  0  # atno 11005 bound_to 11000
  146.1283  139.4313  143.0185 LP  0  0  0  0  0  0  0  0  0  0  0  0  # atno 17320 bound_to 7965
  145.7202  141.0077  143.1407 LP  0  0  0  0  0  0  0  0  0  0  0  0  # atno 17321 bound_to 7965
  140.4334  144.2084  150.5888 LP  0  0  0  0  0  0  0  0  0  0  0  0  # atno 17342 bound_to 10162
  140.4756  143.2397  151.9028 LP  0  0  0  0  0  0  0  0  0  0  0  0  # atno 17343 bound_to 10162
  156.6538  130.8754  151.3536 LP  0  0  0  0  0  0  0  0  0  0  0  0  # atno 17370 bound_to 10713
  157.7118  130.9450  150.1116 LP  0  0  0  0  0  0  0  0  0  0  0  0  # atno 17371 bound_to 10713
  140.9302  133.7584  156.0015 LP  0  0  0  0  0  0  0  0  0  0  0  0  # atno 17394 bound_to 11000
  140.8339  134.3146  157.5339 LP  0  0  0  0  0  0  0  0  0  0  0  0  # atno 17395 bound_to 11000

$$$$
