AV-unprocessed.smi:287|AV-procd|sdf|2194|dock2
  -GOLD-   2262021593D 1   1.00000     0.00000
 Structure written by MMmdl.
 55 58  0  0  0  0  0  0  0  0  1 V2000
  153.6146  141.4186  161.3683 C   0  0  0  0  0  0  0  0  0  0  0  0
  152.9388  141.9005  160.1305 C   0  0  0  0  0  0  0  0  0  0  0  0
  152.0963  141.3206  159.2276 C   0  0  0  0  0  0  0  0  0  0  0  0
  151.7797  142.3060  158.2456 C   0  0  0  0  0  0  0  0  0  0  0  0
  150.8678  142.1045  157.0431 C   0  0  2  0  0  0  0  0  0  0  0  0
  151.4021  140.9562  156.1714 C   0  0  0  0  0  0  0  0  0  0  0  0
  150.8223  143.2320  156.1898 O   0  0  0  0  0  0  0  0  0  0  0  0
  149.4072  141.8208  157.4607 C   0  0  0  0  0  0  0  0  0  0  0  0
  148.4359  142.3137  156.4919 N   0  0  0  0  0  0  0  0  0  0  0  0
  147.4418  141.5226  156.0369 C   0  0  0  0  0  0  0  0  0  0  0  0
  146.1855  141.9726  156.2706 N   0  0  0  0  0  0  0  0  0  0  0  0
  145.1295  141.2620  155.8642 C   0  0  0  0  0  0  0  0  0  0  0  0
  145.1079  140.0945  155.2184 N   0  0  0  0  0  0  0  0  0  0  0  0
  146.3699  139.6354  154.9802 C   0  0  0  0  0  0  0  0  0  0  0  0
  147.5850  140.2817  155.3476 C   0  0  0  0  0  0  0  0  0  0  0  0
  148.6600  139.5077  154.9207 N   0  0  0  0  0  0  0  0  0  0  0  0
  148.1097  138.4743  154.3435 C   0  0  0  0  0  0  0  0  0  0  0  0
  146.7329  138.4731  154.3388 N   0  0  0  0  0  0  0  0  0  0  0  0
  145.7967  137.4612  153.7622 C   0  0  2  0  0  0  0  0  0  0  0  0
  146.2710  136.1974  154.0851 O   0  0  0  0  0  0  0  0  0  0  0  0
  145.7268  135.2826  153.1493 C   0  0  2  0  0  0  0  0  0  0  0  0
  146.5433  133.9811  153.1728 C   0  0  0  0  0  0  0  0  0  0  0  0
  147.9147  134.2551  152.9809 O   0  0  0  0  0  0  0  0  0  0  0  0
  145.7732  136.0493  151.8170 C   0  0  1  0  0  0  0  0  0  0  0  0
  144.6537  135.7098  151.0231 O   0  0  0  0  0  0  0  0  0  0  0  0
  145.7118  137.5233  152.2238 C   0  0  2  0  0  0  0  0  0  0  0  0
  146.7633  138.2553  151.6186 O   0  0  0  0  0  0  0  0  0  0  0  0
  152.4785  143.4243  158.6330 C   0  0  0  0  0  0  0  0  0  0  0  0
  152.6239  144.8024  158.0769 C   0  0  0  0  0  0  0  0  0  0  0  0
  153.1807  143.1874  159.7761 O   0  0  0  0  0  0  0  0  0  0  0  0
  144.8373  137.6354  154.2529 H   0  0  0  0  0  0  0  0  0  0  0  0
  144.6944  135.0903  153.4505 H   0  0  0  0  0  0  0  0  0  0  0  0
  146.6952  135.8294  151.2761 H   0  0  0  0  0  0  0  0  0  0  0  0
  144.7632  137.9925  151.9585 H   0  0  0  0  0  0  0  0  0  0  0  0
  153.1696  140.4861  161.7160 H   0  0  0  0  0  0  0  0  0  0  0  0
  153.5273  142.1528  162.1694 H   0  0  0  0  0  0  0  0  0  0  0  0
  154.6741  141.2402  161.1846 H   0  0  0  0  0  0  0  0  0  0  0  0
  151.7405  140.3018  159.2684 H   0  0  0  0  0  0  0  0  0  0  0  0
  151.4389  140.0198  156.7293 H   0  0  0  0  0  0  0  0  0  0  0  0
  152.4121  141.1651  155.8159 H   0  0  0  0  0  0  0  0  0  0  0  0
  150.7712  140.7903  155.2973 H   0  0  0  0  0  0  0  0  0  0  0  0
  149.9577  143.6100  156.2381 H   0  0  0  0  0  0  0  0  0  0  0  0
  149.2541  140.7561  157.6431 H   0  0  0  0  0  0  0  0  0  0  0  0
  149.2155  142.3361  158.4026 H   0  0  0  0  0  0  0  0  0  0  0  0
  148.5355  143.2840  156.2300 H   0  0  0  0  0  0  0  0  0  0  0  0
  144.1639  141.6897  156.0903 H   0  0  0  0  0  0  0  0  0  0  0  0
  148.6970  137.6836  153.8995 H   0  0  0  0  0  0  0  0  0  0  0  0
  146.4017  133.4456  154.1120 H   0  0  0  0  0  0  0  0  0  0  0  0
  146.2140  133.3184  152.3719 H   0  0  0  0  0  0  0  0  0  0  0  0
  148.0043  135.1491  152.6871 H   0  0  0  0  0  0  0  0  0  0  0  0
  144.7289  134.8009  150.7736 H   0  0  0  0  0  0  0  0  0  0  0  0
  147.4679  137.6561  151.4225 H   0  0  0  0  0  0  0  0  0  0  0  0
  152.9337  144.7670  157.0323 H   0  0  0  0  0  0  0  0  0  0  0  0
  153.3716  145.3736  158.6278 H   0  0  0  0  0  0  0  0  0  0  0  0
  151.6789  145.3426  158.1339 H   0  0  0  0  0  0  0  0  0  0  0  0
  1  2  1  0  0  0  0
  1 35  1  0  0  0  0
  1 36  1  0  0  0  0
  1 37  1  0  0  0  0
  2 30  1  0  0  0  0
  2  3  2  0  0  0  0
  3  4  1  0  0  0  0
  3 38  1  0  0  0  0
  4  5  1  0  0  0  0
  4 28  2  0  0  0  0
  5  6  1  0  0  0  0
  5  7  1  0  0  0  0
  5  8  1  0  0  0  0
  6 39  1  0  0  0  0
  6 40  1  0  0  0  0
  6 41  1  0  0  0  0
  7 42  1  0  0  0  0
  8  9  1  0  0  0  0
  8 43  1  0  0  0  0
  8 44  1  0  0  0  0
  9 10  1  0  0  0  0
  9 45  1  0  0  0  0
 10 15  1  0  0  0  0
 10 11  2  0  0  0  0
 11 12  1  0  0  0  0
 12 13  2  0  0  0  0
 12 46  1  0  0  0  0
 13 14  1  0  0  0  0
 14 18  1  0  0  0  0
 14 15  2  0  0  0  0
 15 16  1  0  0  0  0
 16 17  2  0  0  0  0
 17 18  1  0  0  0  0
 17 47  1  0  0  0  0
 18 19  1  0  0  0  0
 19 31  1  0  0  0  0
 19 26  1  0  0  0  0
 19 20  1  0  0  0  0
 20 21  1  0  0  0  0
 21 32  1  0  0  0  0
 21 22  1  0  0  0  0
 21 24  1  0  0  0  0
 22 23  1  0  0  0  0
 22 48  1  0  0  0  0
 22 49  1  0  0  0  0
 23 50  1  0  0  0  0
 24 33  1  0  0  0  0
 24 25  1  0  0  0  0
 24 26  1  0  0  0  0
 25 51  1  0  0  0  0
 26 34  1  0  0  0  0
 26 27  1  0  0  0  0
 27 52  1  0  0  0  0
 28 29  1  0  0  0  0
 28 30  1  0  0  0  0
 29 53  1  0  0  0  0
 29 54  1  0  0  0  0
 29 55  1  0  0  0  0
M  END
> <s_m_source_file>
AV-unprocessed.smi

> <i_m_source_file_index>
287

> <i_lp_mmshare_version>
43012

> <i_f3d_flags>
0

> <s_epik_input>
W0NIM11jMVtjSF1jKGMobzEpW0NIM10pW0NAQF0oW0NIM10pKFtPSF0pW0NIMl1bTkhdYyhuW2NIXW4yKWMoYzIzKW5bY0hdbjNbQ0BASF00T1tDQEhdKFtDSDJdW09IXSlbQ0BASF0oW09IXSlbQ0BIXTRbT0hd

> <s_epik_cmdline>
J2VwaWtfcHl0aG9uJywgJy1waCcsICc3LjAnLCAnLXRuJywgJzgnLCAnLW1hJywgJzIwMCcsICctbWV0YWxfYmluZGluZycsICctaW1hZScsICc8aW5maWxlLm1hZT4nLCAnLW9tYWUnLCAnPG91dGZpbGUubWFlPic=

> <r_lp_tautomer_probability>
1

> <r_epik_Ionization_Penalty>
0.000992612

> <r_epik_Ionization_Penalty_Charging>
0

> <r_epik_Ionization_Penalty_Neutral>
0.000992612

> <r_epik_State_Penalty>
-0

> <r_epik_Charging_Adjusted_Penalty>
0

> <i_epik_Tot_Q>
0

> <i_epik_Tot_abs_Q>
0

> <r_epik_Metal_State_Penalty>
-0

> <b_epik_Metal_Only>
0

> <s_epik_Chemistry_Notes>
This compound contains an acetal/aminal-like group ( X-CH(R)-Y where X, Y are N, S, or O) that may be acid/base labile, releasing an aldehyde.

> <s_lp_Force_Field>
OPLS_2005

> <r_lp_Energy>
43.2107

> <b_lp_Chiralities_Consistent>
1

> <s_lp_Variant>
AV-unprocessed.smi:287-18

> <Gold.Version>
5.8.1

> <Gold.Id.Protein>
6NUR|6NUR_protein|mol2

> <Gold.PLP.Fitness>
53.4795

> <Gold.PLP.PLP>
-42.1378

> <Gold.PLP.part.hbond>
-4.0255

> <Gold.PLP.part.metal>
0.0000

> <Gold.PLP.part.buried>
-7.4617

> <Gold.PLP.part.nonpolar>
-31.1982

> <Gold.PLP.part.repulsive>
0.3739

> <Gold.PLP.ligand.clash>
0.0000

> <Gold.PLP.ligand.torsion>
1.6744

> <Gold.PLP.Chemscore.Hbond>
3.8400

> <Gold.PLP.Chemscore.CHOScore>
1.0000

> <Gold.PLP.Chemscore.Metal>
0.0000

> <Gold.Chemscore.Hbonds>
donor molecule, donor type, donor heavy atom, donor atom, acceptor molecule, acceptor atom, score
      L1  H     7    42       P1  8028  0.94
      L1  H     9    45       P1  8028  1.00
      L1  H    23    50       P1  7948  0.88
      L1  H    27    52       P1  7948  0.91
      L1  C    17    47       P1  7948  1.00

> <Gold.PLP.Chemscore.Internal.Correction>
0.1705

> <Gold.Rescore>
     Score         DG    S(hbond)    S(metal)    S(lipo)     H(rot)  DE(clash)    DE(int)     intcor
     13.75     -16.54       3.81        0.00     100.99       5.27       0.07       2.72       ----

> <Gold.Chemscore.Fitness>
13.7524

> <Gold.Chemscore.DG>
-16.5369

> <Gold.Chemscore.ZeroCoef>
-5.4800

> <Gold.Chemscore.Hbond>
3.8099

> <Gold.Chemscore.Metal>
0.0000

> <Gold.Chemscore.Lipo>
100.9906

> <Gold.Chemscore.Internal_Hbond>
0.0000

> <Gold.Chemscore.DEClash>
0.0693

> <Gold.Chemscore.DEInternal>
2.7153

> <Gold.Chemscore.Rot>
5.2672

> <Gold.Chemscore.Internal.Correction>
   9.000000E+99

> <Gold.Chemscore.Hbonds>
donor molecule, donor type, donor heavy atom, donor atom, acceptor molecule, acceptor atom, score
      L1  H     7    42       P1  8028  0.91
      L1  H     9    45       P1  8028  0.86
      L1  H    23    50       P1  7948  0.83
      L1  H    27    52       P1  7948  0.86

> <Gold.Chemscore.Hbond.Weighted>
-12.7250

> <Gold.Chemscore.Metal.Weighted>
-0.0000

> <Gold.Chemscore.Lipo.Weighted>
-11.8159

> <Gold.Chemscore.Internal_Hbond.Weighted>
0.0000

> <Gold.Chemscore.DEClash.Weighted>
0.0693

> <Gold.Chemscore.DEInternal.Weighted>
2.7153

> <Gold.Chemscore.Rot.Weighted>
13.4839

> <Gold.Chemscore.Internal.Correction.Weighted>
   9.000000E+99

> <Gold.Protein.RotatedTorsions>
[ 6907 6896 6895 6894 ] final  174.40 input  -60.11 | X-H torsion
[ 7974 7965 7964 7962 ] final  -26.93 input  175.53 | X-H torsion
[ 8008 7997 7996 7995 ] final  -81.34 input   59.86 | X-H torsion
[ 10167 10162 10161 10158 ] final  122.45 input  -65.29 | X-H torsion
[ 10718 10713 10712 10709 ] final -173.02 input   66.30 | X-H torsion
[ 10763 10752 10751 10750 ] final  -75.38 input  -60.55 | X-H torsion
[ 11005 11000 10999 10996 ] final   58.49 input  -57.11 | X-H torsion

> <Gold.Protein.ActiveResidues>
 VAL166  LYS551  ARG553  GLY616  TRP617  ASP618  TYR619  PRO620  LYS621  CYS622 
 ASP623  PHE694  ASN695  SER759  ASP760  ASP761  ALA762  ILE779  LEU786  VAL792 
 PHE793  MET794  SER795  GLU796  ALA797  LYS798  CYS799  TRP800  GLU811  SER814 

> <Gold.Protein.RotatedAtoms>
  151.7529  133.3328  159.3396 H   0  0  0  0  0  0  0  0  0  0  0  0  # atno 6907 bound_to 6896
  150.7528  134.6176  159.6128 H   0  0  0  0  0  0  0  0  0  0  0  0  # atno 6908 bound_to 6896
  152.3456  134.7077  160.0303 H   0  0  0  0  0  0  0  0  0  0  0  0  # atno 6909 bound_to 6896
  146.1392  140.5085  142.8659 H   0  0  0  0  0  0  0  0  0  0  0  0  # atno 7974 bound_to 7965
  154.5973  140.0649  156.9321 H   0  0  0  0  0  0  0  0  0  0  0  0  # atno 8008 bound_to 7997
  155.2192  140.3329  155.4299 H   0  0  0  0  0  0  0  0  0  0  0  0  # atno 8009 bound_to 7997
  156.2295  140.1834  156.7262 H   0  0  0  0  0  0  0  0  0  0  0  0  # atno 8010 bound_to 7997
  139.5858  144.7005  151.3413 H   0  0  0  0  0  0  0  0  0  0  0  0  # atno 10167 bound_to 10162
  156.7641  130.9424  151.3118 H   0  0  0  0  0  0  0  0  0  0  0  0  # atno 10718 bound_to 10713
  154.4858  135.5833  153.6422 H   0  0  0  0  0  0  0  0  0  0  0  0  # atno 10763 bound_to 10752
  152.9854  135.6100  154.3189 H   0  0  0  0  0  0  0  0  0  0  0  0  # atno 10764 bound_to 10752
  154.3084  135.2845  155.2557 H   0  0  0  0  0  0  0  0  0  0  0  0  # atno 10765 bound_to 10752
  140.0373  134.5924  155.9427 H   0  0  0  0  0  0  0  0  0  0  0  0  # atno 11005 bound_to 11000
  144.7774  140.5768  143.6629 LP  0  0  0  0  0  0  0  0  0  0  0  0  # atno 17320 bound_to 7965
  145.5085  139.1480  143.3618 LP  0  0  0  0  0  0  0  0  0  0  0  0  # atno 17321 bound_to 7965
  140.7130  143.7341  150.7601 LP  0  0  0  0  0  0  0  0  0  0  0  0  # atno 17342 bound_to 10162
  140.0885  143.4900  152.2491 LP  0  0  0  0  0  0  0  0  0  0  0  0  # atno 17343 bound_to 10162
  157.6721  130.9060  150.0064 LP  0  0  0  0  0  0  0  0  0  0  0  0  # atno 17370 bound_to 10713
  156.1320  130.3643  149.9717 LP  0  0  0  0  0  0  0  0  0  0  0  0  # atno 17371 bound_to 10713
  141.1864  133.6557  156.5240 LP  0  0  0  0  0  0  0  0  0  0  0  0  # atno 17394 bound_to 11000
  140.4126  134.7259  157.4844 LP  0  0  0  0  0  0  0  0  0  0  0  0  # atno 17395 bound_to 11000

$$$$
