AV-unprocessed.smi:2143|AV-procd|sdf|8723|dock2
  -GOLD-   2272011493D 1   1.00000     0.00000
 Structure written by MMmdl.
 44 45  0  0  0  0  0  0  0  0  1 V2000
  144.3763  141.4803  158.9451 C   0  0  0  0  0  0  0  0  0  0  0  0
  145.0946  141.3933  157.5882 C   0  0  1  0  0  0  0  0  0  0  0  0
  144.4244  142.2912  156.5287 C   0  0  0  0  0  0  0  0  0  0  0  0
  145.0823  142.1214  155.1503 C   0  0  0  0  0  0  0  0  0  0  0  0
  146.5974  142.3645  155.2150 C   0  0  0  0  0  0  0  0  0  0  0  0
  147.2630  141.4628  156.2723 C   0  0  1  0  0  0  0  0  0  0  0  0
  148.7050  141.6978  156.2843 N   0  0  0  0  0  0  0  0  0  0  0  0
  149.6485  140.7461  156.2253 C   0  0  0  0  0  0  0  0  0  0  0  0
  149.3937  139.5461  156.1159 O   0  0  0  0  0  0  0  0  0  0  0  0
  151.1016  141.2344  156.2858 C   0  0  0  0  0  0  0  0  0  0  0  0
  151.4307  141.8835  157.5615 N   0  0  0  0  0  0  0  0  0  0  0  0
  150.8444  143.0933  157.8867 C   0  0  0  0  0  0  0  0  0  0  0  0
  151.0932  143.7563  159.0371 C   0  0  0  0  0  0  0  0  0  0  0  0
  152.0232  143.2194  160.0227 C   0  0  0  0  0  0  0  0  0  0  0  0
  152.2661  143.7757  161.0946 O   0  0  0  0  0  0  0  0  0  0  0  0
  152.6231  141.9912  159.6585 N   0  0  0  0  0  0  0  0  0  0  0  0
  153.5468  141.3982  160.6035 C   0  0  0  0  0  0  0  0  0  0  0  0
  152.3441  141.2919  158.4616 C   0  0  0  0  0  0  0  0  0  0  0  0
  152.8632  140.2041  158.1985 O   0  0  0  0  0  0  0  0  0  0  0  0
  146.6222  141.6543  157.6756 C   0  0  1  0  0  0  0  0  0  0  0  0
  146.9814  143.0088  158.3308 C   0  0  0  0  0  0  0  0  0  0  0  0
  144.3445  142.5024  159.3227 H   0  0  0  0  0  0  0  0  0  0  0  0
  144.8700  140.8592  159.6931 H   0  0  0  0  0  0  0  0  0  0  0  0
  143.3458  141.1349  158.8606 H   0  0  0  0  0  0  0  0  0  0  0  0
  144.9736  140.3625  157.2511 H   0  0  0  0  0  0  0  0  0  0  0  0
  143.3640  142.0477  156.4535 H   0  0  0  0  0  0  0  0  0  0  0  0
  144.4740  143.3367  156.8346 H   0  0  0  0  0  0  0  0  0  0  0  0
  144.8926  141.1134  154.7795 H   0  0  0  0  0  0  0  0  0  0  0  0
  144.6257  142.8043  154.4333 H   0  0  0  0  0  0  0  0  0  0  0  0
  147.0358  142.1740  154.2345 H   0  0  0  0  0  0  0  0  0  0  0  0
  146.7910  143.4146  155.4366 H   0  0  0  0  0  0  0  0  0  0  0  0
  147.0976  140.4294  155.9611 H   0  0  0  0  0  0  0  0  0  0  0  0
  149.0074  142.6577  156.3667 H   0  0  0  0  0  0  0  0  0  0  0  0
  151.7553  140.3769  156.1215 H   0  0  0  0  0  0  0  0  0  0  0  0
  151.2997  141.9188  155.4588 H   0  0  0  0  0  0  0  0  0  0  0  0
  150.1499  143.5344  157.1865 H   0  0  0  0  0  0  0  0  0  0  0  0
  150.5974  144.6960  159.2314 H   0  0  0  0  0  0  0  0  0  0  0  0
  154.2265  140.7167  160.0915 H   0  0  0  0  0  0  0  0  0  0  0  0
  152.9454  140.8741  161.3474 H   0  0  0  0  0  0  0  0  0  0  0  0
  154.1434  142.1912  161.0576 H   0  0  0  0  0  0  0  0  0  0  0  0
  147.0375  140.8837  158.3269 H   0  0  0  0  0  0  0  0  0  0  0  0
  146.5872  143.8543  157.7683 H   0  0  0  0  0  0  0  0  0  0  0  0
  148.0602  143.1425  158.4109 H   0  0  0  0  0  0  0  0  0  0  0  0
  146.5909  143.0775  159.3455 H   0  0  0  0  0  0  0  0  0  0  0  0
  1  2  1  0  0  0  0
  1 22  1  0  0  0  0
  1 23  1  0  0  0  0
  1 24  1  0  0  0  0
  2 20  1  0  0  0  0
  2  3  1  0  0  0  0
  2 25  1  0  0  0  0
  3  4  1  0  0  0  0
  3 26  1  0  0  0  0
  3 27  1  0  0  0  0
  4  5  1  0  0  0  0
  4 28  1  0  0  0  0
  4 29  1  0  0  0  0
  5  6  1  0  0  0  0
  5 30  1  0  0  0  0
  5 31  1  0  0  0  0
  6  7  1  0  0  0  0
  6 20  1  0  0  0  0
  6 32  1  0  0  0  0
  7  8  1  0  0  0  0
  7 33  1  0  0  0  0
  8  9  2  0  0  0  0
  8 10  1  0  0  0  0
 10 11  1  0  0  0  0
 10 34  1  0  0  0  0
 10 35  1  0  0  0  0
 11 18  1  0  0  0  0
 11 12  1  0  0  0  0
 12 13  2  0  0  0  0
 12 36  1  0  0  0  0
 13 14  1  0  0  0  0
 13 37  1  0  0  0  0
 14 15  2  0  0  0  0
 14 16  1  0  0  0  0
 16 17  1  0  0  0  0
 16 18  1  0  0  0  0
 17 38  1  0  0  0  0
 17 39  1  0  0  0  0
 17 40  1  0  0  0  0
 18 19  2  0  0  0  0
 20 21  1  0  0  0  0
 20 41  1  0  0  0  0
 21 42  1  0  0  0  0
 21 43  1  0  0  0  0
 21 44  1  0  0  0  0
M  END
> <s_m_source_file>
AV-unprocessed.smi

> <i_m_source_file_index>
2143

> <i_lp_mmshare_version>
43012

> <i_f3d_flags>
0

> <s_epik_input>
W0NIM11bQ0BASF0xW0NIMl1bQ0gyXVtDSDJdW0NASF0oW0NASF0xW0NIM10pW05IXUMoPU8pW0NIMl1uMltjSF1bY0hdYyg9TyluKFtDSDNdKWMyPU8=

> <s_epik_cmdline>
J2VwaWtfcHl0aG9uJywgJy1waCcsICc3LjAnLCAnLXRuJywgJzgnLCAnLW1hJywgJzIwMCcsICctbWV0YWxfYmluZGluZycsICctaW1hZScsICc8aW5maWxlLm1hZT4nLCAnLW9tYWUnLCAnPG91dGZpbGUubWFlPic=

> <r_lp_tautomer_probability>
1

> <r_epik_Ionization_Penalty>
3.18445e-08

> <r_epik_Ionization_Penalty_Charging>
1.27977e-08

> <r_epik_Ionization_Penalty_Neutral>
1.90469e-08

> <r_epik_State_Penalty>
-0

> <r_epik_Charging_Adjusted_Penalty>
1.27977e-08

> <i_epik_Tot_Q>
0

> <i_epik_Tot_abs_Q>
0

> <r_epik_Metal_State_Penalty>
-0

> <b_epik_Metal_Only>
0

> <s_lp_Force_Field>
OPLS_2005

> <r_lp_Energy>
21.6223

> <b_lp_Chiralities_Consistent>
1

> <s_lp_Variant>
AV-unprocessed.smi:2143-2

> <Gold.Version>
5.8.1

> <Gold.Id.Protein>
6NUR|6NUR_protein|mol2

> <Gold.PLP.Fitness>
40.6524

> <Gold.PLP.PLP>
-32.1655

> <Gold.PLP.part.hbond>
-2.0000

> <Gold.PLP.part.metal>
0.0000

> <Gold.PLP.part.buried>
-3.8473

> <Gold.PLP.part.nonpolar>
-26.0696

> <Gold.PLP.part.repulsive>
0.1503

> <Gold.PLP.ligand.clash>
0.0000

> <Gold.PLP.ligand.torsion>
0.2068

> <Gold.PLP.Chemscore.Hbond>
1.9600

> <Gold.PLP.Chemscore.CHOScore>
1.0000

> <Gold.PLP.Chemscore.Metal>
0.0000

> <Gold.Chemscore.Hbonds>
donor molecule, donor type, donor heavy atom, donor atom, acceptor molecule, acceptor atom, score
      L1  H     7    33       P1  8028  0.60
      P1  H  7997  8008       L1    19  0.83
      L1  C    12    36       P1  8028  1.00

> <Gold.PLP.Chemscore.Internal.Correction>
0.0206

> <Gold.Rescore>
     Score         DG    S(hbond)    S(metal)    S(lipo)     H(rot)  DE(clash)    DE(int)     intcor
     13.46     -13.81       1.90        0.00      49.96       1.51       0.05       0.30       ----

> <Gold.Chemscore.Fitness>
13.4583

> <Gold.Chemscore.DG>
-13.8077

> <Gold.Chemscore.ZeroCoef>
-5.4800

> <Gold.Chemscore.Hbond>
1.9029

> <Gold.Chemscore.Metal>
0.0000

> <Gold.Chemscore.Lipo>
49.9617

> <Gold.Chemscore.Internal_Hbond>
0.0000

> <Gold.Chemscore.DEClash>
0.0475

> <Gold.Chemscore.DEInternal>
0.3019

> <Gold.Chemscore.Rot>
1.5131

> <Gold.Chemscore.Internal.Correction>
   9.000000E+99

> <Gold.Chemscore.Hbonds>
donor molecule, donor type, donor heavy atom, donor atom, acceptor molecule, acceptor atom, score
      L1  H     7    33       P1  8028  0.58
      P1  H  7997  8008       L1    19  0.76

> <Gold.Chemscore.Hbond.Weighted>
-6.3556

> <Gold.Chemscore.Metal.Weighted>
-0.0000

> <Gold.Chemscore.Lipo.Weighted>
-5.8455

> <Gold.Chemscore.Internal_Hbond.Weighted>
0.0000

> <Gold.Chemscore.DEClash.Weighted>
0.0475

> <Gold.Chemscore.DEInternal.Weighted>
0.3019

> <Gold.Chemscore.Rot.Weighted>
3.8734

> <Gold.Chemscore.Internal.Correction.Weighted>
   9.000000E+99

> <Gold.Protein.RotatedTorsions>
[ 6907 6896 6895 6894 ] final -117.24 input  -60.11 | X-H torsion
[ 7974 7965 7964 7962 ] final  -26.47 input  175.53 | X-H torsion
[ 8008 7997 7996 7995 ] final  -74.37 input   59.86 | X-H torsion
[ 10167 10162 10161 10158 ] final  -91.05 input  -65.29 | X-H torsion
[ 10718 10713 10712 10709 ] final  -92.81 input   66.30 | X-H torsion
[ 10763 10752 10751 10750 ] final -136.87 input  -60.55 | X-H torsion
[ 11005 11000 10999 10996 ] final  -11.14 input  -57.11 | X-H torsion

> <Gold.Protein.ActiveResidues>
 VAL166  LYS551  ARG553  GLY616  TRP617  ASP618  TYR619  PRO620  LYS621  CYS622 
 ASP623  PHE694  ASN695  SER759  ASP760  ASP761  ALA762  ILE779  LEU786  VAL792 
 PHE793  MET794  SER795  GLU796  ALA797  LYS798  CYS799  TRP800  GLU811  SER814 

> <Gold.Protein.RotatedAtoms>
  150.8121  133.8404  159.3177 H   0  0  0  0  0  0  0  0  0  0  0  0  # atno 6907 bound_to 6896
  151.6186  135.1032  160.0106 H   0  0  0  0  0  0  0  0  0  0  0  0  # atno 6908 bound_to 6896
  152.4212  133.7080  159.6519 H   0  0  0  0  0  0  0  0  0  0  0  0  # atno 6909 bound_to 6896
  146.1423  140.5023  142.8646 H   0  0  0  0  0  0  0  0  0  0  0  0  # atno 7974 bound_to 7965
  154.5325  140.0762  156.8369 H   0  0  0  0  0  0  0  0  0  0  0  0  # atno 8008 bound_to 7997
  155.3346  140.3404  155.4221 H   0  0  0  0  0  0  0  0  0  0  0  0  # atno 8009 bound_to 7997
  156.1795  140.1647  156.8287 H   0  0  0  0  0  0  0  0  0  0  0  0  # atno 8010 bound_to 7997
  140.3488  143.2902  151.9750 H   0  0  0  0  0  0  0  0  0  0  0  0  # atno 10167 bound_to 10162
  156.0006  130.5002  150.5681 H   0  0  0  0  0  0  0  0  0  0  0  0  # atno 10718 bound_to 10713
  154.8674  135.3659  154.5130 H   0  0  0  0  0  0  0  0  0  0  0  0  # atno 10763 bound_to 10752
  153.5765  135.7019  153.5487 H   0  0  0  0  0  0  0  0  0  0  0  0  # atno 10764 bound_to 10752
  153.3495  135.4076  155.1598 H   0  0  0  0  0  0  0  0  0  0  0  0  # atno 10765 bound_to 10752
  140.7521  133.8583  155.9054 H   0  0  0  0  0  0  0  0  0  0  0  0  # atno 11005 bound_to 11000
  144.7807  140.5834  143.6607 LP  0  0  0  0  0  0  0  0  0  0  0  0  # atno 17320 bound_to 7965
  145.5017  139.1483  143.3653 LP  0  0  0  0  0  0  0  0  0  0  0  0  # atno 17321 bound_to 7965
  139.4829  144.6094  151.7462 LP  0  0  0  0  0  0  0  0  0  0  0  0  # atno 17342 bound_to 10162
  140.5239  144.0836  150.6031 LP  0  0  0  0  0  0  0  0  0  0  0  0  # atno 17343 bound_to 10162
  157.3580  131.0745  151.1659 LP  0  0  0  0  0  0  0  0  0  0  0  0  # atno 17370 bound_to 10713
  157.2454  130.6589  149.5908 LP  0  0  0  0  0  0  0  0  0  0  0  0  # atno 17371 bound_to 10713
  140.9741  134.1493  157.4551 LP  0  0  0  0  0  0  0  0  0  0  0  0  # atno 17394 bound_to 11000
  139.8785  134.9988  156.5922 LP  0  0  0  0  0  0  0  0  0  0  0  0  # atno 17395 bound_to 11000

$$$$
