AV-unprocessed.smi:189|AV-procd|sdf|1476|dock8
  -GOLD-   2262019293D 1   1.00000     0.00000
 Structure written by MMmdl.
 53 57  0  0  0  0  0  0  0  0  1 V2000
  147.2890  137.2584  162.8684 C   0  0  0  0  0  0  0  0  0  0  0  0
  147.3690  135.7321  162.6722 C   0  0  1  0  0  0  0  0  0  0  0  0
  146.0642  134.9626  162.9063 C   0  0  0  0  0  0  0  0  0  0  0  0
  146.3457  133.6013  162.2524 C   0  0  1  0  0  0  0  0  0  0  0  0
  145.1777  133.0228  161.4347 C   0  0  0  0  0  0  0  0  0  0  0  0
  145.5652  131.7080  160.7236 C   0  0  0  0  0  0  0  0  0  0  0  0
  147.0228  131.6815  160.2089 C   0  0  0  0  0  0  0  0  0  0  0  0
  147.6014  133.0921  160.0314 C   0  0  0  0  0  0  0  0  0  0  0  0
  147.6126  133.8324  161.3953 C   0  0  1  0  0  0  0  0  0  0  0  0
  147.8703  135.2767  161.3745 N   0  0  0  0  0  0  0  0  0  0  0  0
  147.4918  135.9384  160.2506 C   0  0  0  0  0  0  0  0  0  0  0  0
  146.1862  136.0046  159.8763 N   0  0  0  0  0  0  0  0  0  0  0  0
  145.8440  136.6249  158.7433 C   0  0  0  0  0  0  0  0  0  0  0  0
  146.6333  137.2213  157.8475 N   0  0  0  0  0  0  0  0  0  0  0  0
  147.9454  137.1407  158.2117 C   0  0  0  0  0  0  0  0  0  0  0  0
  148.4543  136.5287  159.3906 C   0  0  0  0  0  0  0  0  0  0  0  0
  149.8379  136.6420  159.4300 N   0  0  0  0  0  0  0  0  0  0  0  0
  150.1321  137.2850  158.3332 C   0  0  0  0  0  0  0  0  0  0  0  0
  149.0579  137.6094  157.5345 N   0  0  0  0  0  0  0  0  0  0  0  0
  149.1020  138.3087  156.2600 C   0  0  0  0  0  0  0  0  0  0  0  0
  149.6266  139.7647  156.3602 C   0  0  1  0  0  0  0  0  0  0  0  0
  148.7241  140.5469  157.1191 O   0  0  0  0  0  0  0  0  0  0  0  0
  151.0076  139.8334  156.9915 C   0  0  0  0  0  0  0  0  0  0  0  0
  151.9364  139.5992  155.8022 C   0  0  0  0  0  0  0  0  0  0  0  0
  151.2374  140.0792  154.6575 O   0  0  0  0  0  0  0  0  0  0  0  0
  149.9034  140.4348  155.0073 C   0  0  0  0  0  0  0  0  0  0  0  0
  147.0235  137.4965  163.8984 H   0  0  0  0  0  0  0  0  0  0  0  0
  146.5401  137.7246  162.2293 H   0  0  0  0  0  0  0  0  0  0  0  0
  148.2498  137.7297  162.6602 H   0  0  0  0  0  0  0  0  0  0  0  0
  148.0951  135.3701  163.4021 H   0  0  0  0  0  0  0  0  0  0  0  0
  145.8199  134.8741  163.9652 H   0  0  0  0  0  0  0  0  0  0  0  0
  145.2278  135.4637  162.4178 H   0  0  0  0  0  0  0  0  0  0  0  0
  146.5980  132.8842  163.0352 H   0  0  0  0  0  0  0  0  0  0  0  0
  144.3075  132.8611  162.0715 H   0  0  0  0  0  0  0  0  0  0  0  0
  144.8717  133.7536  160.6849 H   0  0  0  0  0  0  0  0  0  0  0  0
  145.4169  130.8655  161.4000 H   0  0  0  0  0  0  0  0  0  0  0  0
  144.8780  131.5471  159.8921 H   0  0  0  0  0  0  0  0  0  0  0  0
  147.6459  131.1358  160.9187 H   0  0  0  0  0  0  0  0  0  0  0  0
  147.0765  131.1274  159.2713 H   0  0  0  0  0  0  0  0  0  0  0  0
  148.6110  133.0459  159.6221 H   0  0  0  0  0  0  0  0  0  0  0  0
  146.9896  133.6068  159.2899 H   0  0  0  0  0  0  0  0  0  0  0  0
  148.4478  133.4113  161.9573 H   0  0  0  0  0  0  0  0  0  0  0  0
  144.7875  136.6397  158.5200 H   0  0  0  0  0  0  0  0  0  0  0  0
  151.1501  137.5321  158.0686 H   0  0  0  0  0  0  0  0  0  0  0  0
  149.7258  137.7311  155.5767 H   0  0  0  0  0  0  0  0  0  0  0  0
  148.0970  138.2947  155.8368 H   0  0  0  0  0  0  0  0  0  0  0  0
  147.8838  140.5413  156.6871 H   0  0  0  0  0  0  0  0  0  0  0  0
  151.1932  140.8301  157.3956 H   0  0  0  0  0  0  0  0  0  0  0  0
  151.1563  139.1150  157.7986 H   0  0  0  0  0  0  0  0  0  0  0  0
  152.8952  140.1041  155.9215 H   0  0  0  0  0  0  0  0  0  0  0  0
  152.1312  138.5346  155.6696 H   0  0  0  0  0  0  0  0  0  0  0  0
  149.1962  140.1699  154.2230 H   0  0  0  0  0  0  0  0  0  0  0  0
  149.8765  141.5211  155.1087 H   0  0  0  0  0  0  0  0  0  0  0  0
  1  2  1  0  0  0  0
  1 27  1  0  0  0  0
  1 28  1  0  0  0  0
  1 29  1  0  0  0  0
  2 10  1  0  0  0  0
  2  3  1  0  0  0  0
  2 30  1  0  0  0  0
  3  4  1  0  0  0  0
  3 31  1  0  0  0  0
  3 32  1  0  0  0  0
  4  9  1  0  0  0  0
  4  5  1  0  0  0  0
  4 33  1  0  0  0  0
  5  6  1  0  0  0  0
  5 34  1  0  0  0  0
  5 35  1  0  0  0  0
  6  7  1  0  0  0  0
  6 36  1  0  0  0  0
  6 37  1  0  0  0  0
  7  8  1  0  0  0  0
  7 38  1  0  0  0  0
  7 39  1  0  0  0  0
  8  9  1  0  0  0  0
  8 40  1  0  0  0  0
  8 41  1  0  0  0  0
  9 10  1  0  0  0  0
  9 42  1  0  0  0  0
 10 11  1  0  0  0  0
 11 16  1  0  0  0  0
 11 12  2  0  0  0  0
 12 13  1  0  0  0  0
 13 14  2  0  0  0  0
 13 43  1  0  0  0  0
 14 15  1  0  0  0  0
 15 19  1  0  0  0  0
 15 16  2  0  0  0  0
 16 17  1  0  0  0  0
 17 18  2  0  0  0  0
 18 19  1  0  0  0  0
 18 44  1  0  0  0  0
 19 20  1  0  0  0  0
 20 21  1  0  0  0  0
 20 45  1  0  0  0  0
 20 46  1  0  0  0  0
 21 26  1  0  0  0  0
 21 22  1  0  0  0  0
 21 23  1  0  0  0  0
 22 47  1  0  0  0  0
 23 24  1  0  0  0  0
 23 48  1  0  0  0  0
 23 49  1  0  0  0  0
 24 25  1  0  0  0  0
 24 50  1  0  0  0  0
 24 51  1  0  0  0  0
 25 26  1  0  0  0  0
 26 52  1  0  0  0  0
 26 53  1  0  0  0  0
M  END
> <s_m_source_file>
AV-unprocessed.smi

> <i_m_source_file_index>
189

> <i_lp_mmshare_version>
43012

> <i_f3d_flags>
0

> <s_epik_input>
W0NIMl0xW0NIMl1bQ0gyXVtDSDJdW0NASF0oW0NASF0xMilOKFtDQEhdKFtDSDNdKVtDSDJdMiljKG5bY0hdbjMpYyhjMzQpbltjSF1uNFtDSDJdW0NAQF01KFtPSF0pW0NIMl1bQ0gyXU9bQ0gyXTU=

> <s_epik_cmdline>
J2VwaWtfcHl0aG9uJywgJy1waCcsICc3LjAnLCAnLXRuJywgJzgnLCAnLW1hJywgJzIwMCcsICctbWV0YWxfYmluZGluZycsICctaW1hZScsICc8aW5maWxlLm1hZT4nLCAnLW9tYWUnLCAnPG91dGZpbGUubWFlPic=

> <r_lp_tautomer_probability>
1

> <r_epik_Ionization_Penalty>
0.00594261

> <r_epik_Ionization_Penalty_Charging>
0

> <r_epik_Ionization_Penalty_Neutral>
0.00594261

> <r_epik_State_Penalty>
0.00429776

> <r_epik_Charging_Adjusted_Penalty>
0.00429776

> <i_epik_Tot_Q>
0

> <i_epik_Tot_abs_Q>
0

> <r_epik_Metal_State_Penalty>
-0

> <b_epik_Metal_Only>
0

> <s_lp_Force_Field>
OPLS_2005

> <r_lp_Energy>
67.8884

> <b_lp_Chiralities_Consistent>
1

> <s_lp_Variant>
AV-unprocessed.smi:189-2

> <Gold.Version>
5.8.1

> <Gold.Id.Protein>
6NUR|6NUR_protein|mol2

> <Gold.PLP.Fitness>
42.9212

> <Gold.PLP.PLP>
-37.0330

> <Gold.PLP.part.hbond>
-1.9412

> <Gold.PLP.part.metal>
0.0000

> <Gold.PLP.part.buried>
-3.5743

> <Gold.PLP.part.nonpolar>
-30.6434

> <Gold.PLP.part.repulsive>
0.0702

> <Gold.PLP.ligand.clash>
0.0000

> <Gold.PLP.ligand.torsion>
0.0808

> <Gold.PLP.Chemscore.Hbond>
2.0000

> <Gold.PLP.Chemscore.CHOScore>
0.0000

> <Gold.PLP.Chemscore.Metal>
0.0000

> <Gold.Chemscore.Hbonds>
donor molecule, donor type, donor heavy atom, donor atom, acceptor molecule, acceptor atom, score
      P1  H  6896  6908       L1    17  0.83
      P1  H  7989  7998       L1    25  0.81

> <Gold.PLP.Chemscore.Internal.Correction>
0.0500

> <Gold.Rescore>
     Score         DG    S(hbond)    S(metal)    S(lipo)     H(rot)  DE(clash)    DE(int)     intcor
     16.10     -16.21       1.84        0.00      83.62       2.03       0.00       0.11       ----

> <Gold.Chemscore.Fitness>
16.0982

> <Gold.Chemscore.DG>
-16.2148

> <Gold.Chemscore.ZeroCoef>
-5.4800

> <Gold.Chemscore.Hbond>
1.8406

> <Gold.Chemscore.Metal>
0.0000

> <Gold.Chemscore.Lipo>
83.6172

> <Gold.Chemscore.Internal_Hbond>
0.0000

> <Gold.Chemscore.DEClash>
0.0038

> <Gold.Chemscore.DEInternal>
0.1127

> <Gold.Chemscore.Rot>
2.0297

> <Gold.Chemscore.Internal.Correction>
   9.000000E+99

> <Gold.Chemscore.Hbonds>
donor molecule, donor type, donor heavy atom, donor atom, acceptor molecule, acceptor atom, score
      P1  H  6896  6908       L1    17  0.58
      P1  H  7989  7998       L1    25  0.56

> <Gold.Chemscore.Hbond.Weighted>
-6.1475

> <Gold.Chemscore.Metal.Weighted>
-0.0000

> <Gold.Chemscore.Lipo.Weighted>
-9.7832

> <Gold.Chemscore.Internal_Hbond.Weighted>
0.0000

> <Gold.Chemscore.DEClash.Weighted>
0.0038

> <Gold.Chemscore.DEInternal.Weighted>
0.1127

> <Gold.Chemscore.Rot.Weighted>
5.1960

> <Gold.Chemscore.Internal.Correction.Weighted>
   9.000000E+99

> <Gold.Protein.RotatedTorsions>
[ 6907 6896 6895 6894 ] final -178.61 input  -60.11 | X-H torsion
[ 7974 7965 7964 7962 ] final -106.40 input  175.53 | X-H torsion
[ 8008 7997 7996 7995 ] final -118.41 input   59.86 | X-H torsion
[ 10167 10162 10161 10158 ] final  -96.74 input  -65.29 | X-H torsion
[ 10718 10713 10712 10709 ] final  -53.28 input   66.30 | X-H torsion
[ 10763 10752 10751 10750 ] final   85.26 input  -60.55 | X-H torsion
[ 11005 11000 10999 10996 ] final   85.34 input  -57.11 | X-H torsion

> <Gold.Protein.ActiveResidues>
 VAL166  LYS551  ARG553  GLY616  TRP617  ASP618  TYR619  PRO620  LYS621  CYS622 
 ASP623  PHE694  ASN695  SER759  ASP760  ASP761  ALA762  ILE779  LEU786  VAL792 
 PHE793  MET794  SER795  GLU796  ALA797  LYS798  CYS799  TRP800  GLU811  SER814 

> <Gold.Protein.RotatedAtoms>
  151.6399  133.3326  159.3127 H   0  0  0  0  0  0  0  0  0  0  0  0  # atno 6907 bound_to 6896
  150.8013  134.7112  159.6614 H   0  0  0  0  0  0  0  0  0  0  0  0  # atno 6908 bound_to 6896
  152.4105  134.6136  160.0083 H   0  0  0  0  0  0  0  0  0  0  0  0  # atno 6909 bound_to 6896
  145.2183  140.9124  143.3274 H   0  0  0  0  0  0  0  0  0  0  0  0  # atno 7974 bound_to 7965
  155.0993  140.0396  157.2692 H   0  0  0  0  0  0  0  0  0  0  0  0  # atno 8008 bound_to 7997
  154.6771  140.2625  155.6922 H   0  0  0  0  0  0  0  0  0  0  0  0  # atno 8009 bound_to 7997
  156.2680  140.2786  156.1301 H   0  0  0  0  0  0  0  0  0  0  0  0  # atno 8010 bound_to 7997
  140.2907  143.3223  152.0348 H   0  0  0  0  0  0  0  0  0  0  0  0  # atno 10167 bound_to 10162
  156.1548  130.4150  149.9886 H   0  0  0  0  0  0  0  0  0  0  0  0  # atno 10718 bound_to 10713
  153.1459  135.4623  154.9565 H   0  0  0  0  0  0  0  0  0  0  0  0  # atno 10763 bound_to 10752
  154.7785  135.3181  154.8042 H   0  0  0  0  0  0  0  0  0  0  0  0  # atno 10764 bound_to 10752
  153.8557  135.6917  153.4842 H   0  0  0  0  0  0  0  0  0  0  0  0  # atno 10765 bound_to 10752
  139.8974  134.8280  156.2569 H   0  0  0  0  0  0  0  0  0  0  0  0  # atno 11005 bound_to 11000
  144.9790  139.3803  143.6271 LP  0  0  0  0  0  0  0  0  0  0  0  0  # atno 17320 bound_to 7965
  146.3382  139.8922  142.8807 LP  0  0  0  0  0  0  0  0  0  0  0  0  # atno 17321 bound_to 7965
  139.4939  144.6527  151.6641 LP  0  0  0  0  0  0  0  0  0  0  0  0  # atno 17342 bound_to 10162
  140.5734  144.0069  150.6229 LP  0  0  0  0  0  0  0  0  0  0  0  0  # atno 17343 bound_to 10162
  156.7733  130.9194  151.3645 LP  0  0  0  0  0  0  0  0  0  0  0  0  # atno 17370 bound_to 10713
  157.6686  130.9030  149.9989 LP  0  0  0  0  0  0  0  0  0  0  0  0  # atno 17371 bound_to 10713
  141.0188  133.7053  156.1233 LP  0  0  0  0  0  0  0  0  0  0  0  0  # atno 17394 bound_to 11000
  140.7263  134.4303  157.5570 LP  0  0  0  0  0  0  0  0  0  0  0  0  # atno 17395 bound_to 11000

$$$$
