AV-unprocessed.smi:2226|AV-procd|sdf|9014|dock1
  -GOLD-   2272012213D 1   1.00000     0.00000
 Structure written by MMmdl.
 40 42  0  0  0  0  0  0  0  0  2 V2000
  145.6502  142.1060  155.1624 C   0  0  0  0  0  0  0  0  0  0  0  0
  145.9619  140.9739  154.2576 N   0  3  2  0  0  0  0  0  0  0  0  0
  146.1350  139.6648  154.9333 C   0  0  1  0  0  0  0  0  0  0  0  0
  146.0175  138.5381  153.8801 C   0  0  0  0  0  0  0  0  0  0  0  0
  146.9601  138.7130  152.6719 C   0  0  0  0  0  0  0  0  0  0  0  0
  147.0194  140.1734  152.1792 C   0  0  0  0  0  0  0  0  0  0  0  0
  147.0855  141.2160  153.3199 C   0  0  2  0  0  0  0  0  0  0  0  0
  148.4406  141.2750  154.0685 C   0  0  0  0  0  0  0  0  0  0  0  0
  148.7054  140.0846  155.0192 C   0  0  1  0  0  0  0  0  0  0  0  0
  149.7291  140.4676  155.9905 N   0  0  0  0  0  0  0  0  0  0  0  0
  149.5953  141.3537  156.9896 C   0  0  0  0  0  0  0  0  0  0  0  0
  148.5365  141.9577  157.1878 O   0  0  0  0  0  0  0  0  0  0  0  0
  150.7863  141.4465  157.6954 N   0  0  0  0  0  0  0  0  0  0  0  0
  151.2747  142.6092  158.0031 C   0  0  0  0  0  0  0  0  0  0  0  0
  150.8450  143.9132  157.7702 N   0  0  0  0  0  0  0  0  0  0  0  0
  151.7570  144.7677  158.3236 C   0  0  0  0  0  0  0  0  0  0  0  0
  152.7190  144.0387  158.8808 C   0  0  0  0  0  0  0  0  0  0  0  0
  152.4514  142.7149  158.7009 O   0  0  0  0  0  0  0  0  0  0  0  0
  147.4346  139.6337  155.7758 C   0  0  0  0  0  0  0  0  0  0  0  0
  146.4664  142.3228  155.8510 H   0  0  0  0  0  0  0  0  0  0  0  0
  144.7603  141.8867  155.7529 H   0  0  0  0  0  0  0  0  0  0  0  0
  145.4474  143.0087  154.5856 H   0  0  0  0  0  0  0  0  0  0  0  0
  145.2988  139.5324  155.6214 H   0  0  0  0  0  0  0  0  0  0  0  0
  146.1798  137.5642  154.3434 H   0  0  0  0  0  0  0  0  0  0  0  0
  144.9913  138.5239  153.5106 H   0  0  0  0  0  0  0  0  0  0  0  0
  147.9567  138.3524  152.9120 H   0  0  0  0  0  0  0  0  0  0  0  0
  146.6283  138.0689  151.8571 H   0  0  0  0  0  0  0  0  0  0  0  0
  147.8578  140.3036  151.4941 H   0  0  0  0  0  0  0  0  0  0  0  0
  146.1219  140.3697  151.5909 H   0  0  0  0  0  0  0  0  0  0  0  0
  146.9279  142.1910  152.8564 H   0  0  0  0  0  0  0  0  0  0  0  0
  149.2595  141.3639  153.3536 H   0  0  0  0  0  0  0  0  0  0  0  0
  148.4650  142.2003  154.6456 H   0  0  0  0  0  0  0  0  0  0  0  0
  149.0691  139.2478  154.4292 H   0  0  0  0  0  0  0  0  0  0  0  0
  150.6278  140.0167  155.8966 H   0  0  0  0  0  0  0  0  0  0  0  0
  150.0148  144.2215  157.2842 H   0  0  0  0  0  0  0  0  0  0  0  0
  151.6159  145.8365  158.2576 H   0  0  0  0  0  0  0  0  0  0  0  0
  153.6192  144.2994  159.4175 H   0  0  0  0  0  0  0  0  0  0  0  0
  147.2895  140.2827  156.6406 H   0  0  0  0  0  0  0  0  0  0  0  0
  147.5879  138.6369  156.1909 H   0  0  0  0  0  0  0  0  0  0  0  0
  145.1402  140.8750  153.6784 H   0  0  0  0  0  0  0  0  0  0  0  0
  1  2  1  0  0  0  0
  1 20  1  0  0  0  0
  1 21  1  0  0  0  0
  1 22  1  0  0  0  0
  2  7  1  0  0  0  0
  2  3  1  0  0  0  0
  2 40  1  0  0  0  0
  3 19  1  0  0  0  0
  3  4  1  0  0  0  0
  3 23  1  0  0  0  0
  4  5  1  0  0  0  0
  4 24  1  0  0  0  0
  4 25  1  0  0  0  0
  5  6  1  0  0  0  0
  5 26  1  0  0  0  0
  5 27  1  0  0  0  0
  6  7  1  0  0  0  0
  6 28  1  0  0  0  0
  6 29  1  0  0  0  0
  7  8  1  0  0  0  0
  7 30  1  0  0  0  0
  8  9  1  0  0  0  0
  8 31  1  0  0  0  0
  8 32  1  0  0  0  0
  9 10  1  0  0  0  0
  9 19  1  0  0  0  0
  9 33  1  0  0  0  0
 10 34  1  0  0  0  0
 10 11  1  0  0  0  0
 11 13  1  0  0  0  0
 11 12  2  0  0  0  0
 13 14  2  0  0  0  0
 14 18  1  0  0  0  0
 14 15  1  0  0  0  0
 15 35  1  0  0  0  0
 15 16  1  0  0  0  0
 16 36  1  0  0  0  0
 16 17  2  0  0  0  0
 17 37  1  0  0  0  0
 17 18  1  0  0  0  0
 19 38  1  0  0  0  0
 19 39  1  0  0  0  0
M  CHG  1   2   1
M  END
> <s_m_source_file>
AV-unprocessed.smi

> <i_m_source_file_index>
2226

> <i_lp_mmshare_version>
43012

> <i_f3d_flags>
0

> <s_epik_input>
W0NIMl0xW0NIMl1bQ0gyXVtDQEhdKE4oW0NIM10pW0NIXTEyKVtDSDJdW0NASF0oW0NIMl0yKVtOSF1DKD1PKVtOSF1jM25bY0hdW2NIXW8z

> <s_epik_cmdline>
J2VwaWtfcHl0aG9uJywgJy1waCcsICc3LjAnLCAnLXRuJywgJzgnLCAnLW1hJywgJzIwMCcsICctbWV0YWxfYmluZGluZycsICctaW1hZScsICc8aW5maWxlLm1hZT4nLCAnLW9tYWUnLCAnPG91dGZpbGUubWFlPic=

> <r_lp_tautomer_probability>
0.107061

> <r_epik_Ionization_Penalty>
1.08307

> <r_epik_Ionization_Penalty_Charging>
1.08272

> <r_epik_Ionization_Penalty_Neutral>
0.000345913

> <r_epik_State_Penalty>
2.5744

> <r_epik_Charging_Adjusted_Penalty>
3.65713

> <i_epik_Tot_Q>
1

> <i_epik_Tot_abs_Q>
1

> <r_epik_Metal_State_Penalty>
3.72133

> <b_epik_Metal_Only>
0

> <s_lp_Force_Field>
OPLS_2005

> <r_lp_Energy>
58.9785

> <b_lp_Chiralities_Consistent>
1

> <s_lp_Variant>
AV-unprocessed.smi:2226-14

> <Gold.Version>
5.8.1

> <Gold.Id.Protein>
6NUR|6NUR_protein|mol2

> <Gold.PLP.Fitness>
37.5809

> <Gold.PLP.PLP>
-29.4893

> <Gold.PLP.part.hbond>
-2.0000

> <Gold.PLP.part.metal>
0.0000

> <Gold.PLP.part.buried>
-2.2067

> <Gold.PLP.part.nonpolar>
-25.8244

> <Gold.PLP.part.repulsive>
0.2761

> <Gold.PLP.ligand.clash>
0.0000

> <Gold.PLP.ligand.torsion>
0.4575

> <Gold.PLP.Chemscore.Hbond>
3.0000

> <Gold.PLP.Chemscore.CHOScore>
0.0000

> <Gold.PLP.Chemscore.Metal>
0.0000

> <Gold.Chemscore.Hbonds>
donor molecule, donor type, donor heavy atom, donor atom, acceptor molecule, acceptor atom, score
      L1  H     2    40       P1 10175  2.00
      L1  H    15    35       P1  8028  1.00

> <Gold.PLP.Chemscore.Internal.Correction>
0.0067

> <Gold.Rescore>
     Score         DG    S(hbond)    S(metal)    S(lipo)     H(rot)  DE(clash)    DE(int)     intcor
     15.45     -17.58       1.84        0.00      72.78       1.00       0.47       1.65       ----

> <Gold.Chemscore.Fitness>
15.4496

> <Gold.Chemscore.DG>
-17.5760

> <Gold.Chemscore.ZeroCoef>
-5.4800

> <Gold.Chemscore.Hbond>
1.8385

> <Gold.Chemscore.Metal>
0.0000

> <Gold.Chemscore.Lipo>
72.7801

> <Gold.Chemscore.Internal_Hbond>
0.0000

> <Gold.Chemscore.DEClash>
0.4728

> <Gold.Chemscore.DEInternal>
1.6536

> <Gold.Chemscore.Rot>
1.0000

> <Gold.Chemscore.Internal.Correction>
   9.000000E+99

> <Gold.Chemscore.Hbonds>
donor molecule, donor type, donor heavy atom, donor atom, acceptor molecule, acceptor atom, score
      L1  H     2    40       P1 10175  0.85
      L1  H    15    35       P1  8028  0.57

> <Gold.Chemscore.Hbond.Weighted>
-6.1407

> <Gold.Chemscore.Metal.Weighted>
-0.0000

> <Gold.Chemscore.Lipo.Weighted>
-8.5153

> <Gold.Chemscore.Internal_Hbond.Weighted>
0.0000

> <Gold.Chemscore.DEClash.Weighted>
0.4728

> <Gold.Chemscore.DEInternal.Weighted>
1.6536

> <Gold.Chemscore.Rot.Weighted>
2.5600

> <Gold.Chemscore.Internal.Correction.Weighted>
   9.000000E+99

> <Gold.Protein.RotatedTorsions>
[ 6907 6896 6895 6894 ] final  138.14 input  -60.11 | X-H torsion
[ 7974 7965 7964 7962 ] final -131.96 input  175.53 | X-H torsion
[ 8008 7997 7996 7995 ] final -129.49 input   59.86 | X-H torsion
[ 10167 10162 10161 10158 ] final   11.53 input  -65.29 | X-H torsion
[ 10718 10713 10712 10709 ] final   46.76 input   66.30 | X-H torsion
[ 10763 10752 10751 10750 ] final  146.38 input  -60.55 | X-H torsion
[ 11005 11000 10999 10996 ] final  -54.28 input  -57.11 | X-H torsion

> <Gold.Protein.ActiveResidues>
 VAL166  LYS551  ARG553  GLY616  TRP617  ASP618  TYR619  PRO620  LYS621  CYS622 
 ASP623  PHE694  ASN695  SER759  ASP760  ASP761  ALA762  ILE779  LEU786  VAL792 
 PHE793  MET794  SER795  GLU796  ALA797  LYS798  CYS799  TRP800  GLU811  SER814 

> <Gold.Protein.RotatedAtoms>
  152.2700  133.5374  159.5433 H   0  0  0  0  0  0  0  0  0  0  0  0  # atno 6907 bound_to 6896
  150.7156  134.0711  159.3873 H   0  0  0  0  0  0  0  0  0  0  0  0  # atno 6908 bound_to 6896
  151.8625  135.0519  160.0521 H   0  0  0  0  0  0  0  0  0  0  0  0  # atno 6909 bound_to 6896
  144.9330  140.7151  143.4894 H   0  0  0  0  0  0  0  0  0  0  0  0  # atno 7974 bound_to 7965
  155.2801  140.0443  157.3015 H   0  0  0  0  0  0  0  0  0  0  0  0  # atno 8008 bound_to 7997
  154.5602  140.2343  155.8316 H   0  0  0  0  0  0  0  0  0  0  0  0  # atno 8009 bound_to 7997
  156.2040  140.3017  155.9595 H   0  0  0  0  0  0  0  0  0  0  0  0  # atno 8010 bound_to 7997
  140.6126  143.8376  150.7082 H   0  0  0  0  0  0  0  0  0  0  0  0  # atno 10167 bound_to 10162
  157.4515  130.8141  149.7793 H   0  0  0  0  0  0  0  0  0  0  0  0  # atno 10718 bound_to 10713
  154.0210  135.2906  155.3381 H   0  0  0  0  0  0  0  0  0  0  0  0  # atno 10763 bound_to 10752
  154.7046  135.5174  153.8580 H   0  0  0  0  0  0  0  0  0  0  0  0  # atno 10764 bound_to 10752
  153.0681  135.6638  154.0432 H   0  0  0  0  0  0  0  0  0  0  0  0  # atno 10765 bound_to 10752
  141.1018  133.6617  156.4296 H   0  0  0  0  0  0  0  0  0  0  0  0  # atno 11005 bound_to 11000
  145.3112  139.1818  143.4638 LP  0  0  0  0  0  0  0  0  0  0  0  0  # atno 17320 bound_to 7965
  146.3255  140.3116  142.8627 LP  0  0  0  0  0  0  0  0  0  0  0  0  # atno 17321 bound_to 7965
  140.1948  143.4007  152.1836 LP  0  0  0  0  0  0  0  0  0  0  0  0  # atno 17342 bound_to 10162
  139.5373  144.7222  151.4851 LP  0  0  0  0  0  0  0  0  0  0  0  0  # atno 17343 bound_to 10162
  155.9989  130.3892  150.2685 LP  0  0  0  0  0  0  0  0  0  0  0  0  # atno 17370 bound_to 10713
  157.0857  131.0155  151.3140 LP  0  0  0  0  0  0  0  0  0  0  0  0  # atno 17371 bound_to 10713
  140.5003  134.6491  157.5246 LP  0  0  0  0  0  0  0  0  0  0  0  0  # atno 17394 bound_to 11000
  139.9872  134.7043  155.9753 LP  0  0  0  0  0  0  0  0  0  0  0  0  # atno 17395 bound_to 11000

$$$$
