AV-unprocessed.smi:1825|AV-procd|sdf|7413|dock10
  -GOLD-   22720 9 93D 1   1.00000     0.00000
 Structure written by MMmdl.
 34 35  0  0  0  0  0  0  0  0  1 V2000
  144.3433  136.4152  152.4377 O   0  0  0  0  0  0  0  0  0  0  0  0
  145.5619  136.3272  152.2840 C   0  0  0  0  0  0  0  0  0  0  0  0
  146.4410  137.1871  152.8175 N   0  0  0  0  0  0  0  0  0  0  0  0
  146.0931  138.3661  153.6069 C   0  0  0  0  0  0  0  0  0  0  0  0
  147.1661  139.4833  153.5462 C   0  0  0  0  0  0  0  0  0  0  0  0
  147.3886  139.7711  152.1777 O   0  0  0  0  0  0  0  0  0  0  0  0
  146.6080  140.7727  154.1960 C   0  0  0  0  0  0  0  0  0  0  0  0
  147.6368  141.9161  154.2546 C   0  0  0  0  0  0  0  0  0  0  0  0
  148.9251  141.4701  154.9595 C   0  0  0  0  0  0  0  0  0  0  0  0
  149.5222  140.2322  154.2764 C   0  0  0  0  0  0  0  0  0  0  0  0
  148.5067  139.0770  154.2115 C   0  0  0  0  0  0  0  0  0  0  0  0
  146.1878  135.3781  151.5666 N   0  0  0  0  0  0  0  0  0  0  0  0
  145.6125  134.2955  150.8515 C   0  0  0  0  0  0  0  0  0  0  0  0
  144.3365  134.2478  150.4508 N   0  0  0  0  0  0  0  0  0  0  0  0
  144.0443  133.0629  149.7709 C   0  0  0  0  0  0  0  0  0  0  0  0
  145.1169  132.2132  149.6628 C   0  0  0  0  0  0  0  0  0  0  0  0
  146.5450  132.8708  150.4161 S   0  0  0  0  0  0  0  0  0  0  0  0
  147.4228  137.0350  152.6402 H   0  0  0  0  0  0  0  0  0  0  0  0
  145.1091  138.7517  153.3333 H   0  0  0  0  0  0  0  0  0  0  0  0
  145.9960  138.0179  154.6356 H   0  0  0  0  0  0  0  0  0  0  0  0
  148.3204  139.8246  152.0308 H   0  0  0  0  0  0  0  0  0  0  0  0
  145.7162  141.1084  153.6647 H   0  0  0  0  0  0  0  0  0  0  0  0
  146.2840  140.5509  155.2139 H   0  0  0  0  0  0  0  0  0  0  0  0
  147.8696  142.2588  153.2457 H   0  0  0  0  0  0  0  0  0  0  0  0
  147.2074  142.7718  154.7759 H   0  0  0  0  0  0  0  0  0  0  0  0
  149.6515  142.2833  154.9572 H   0  0  0  0  0  0  0  0  0  0  0  0
  148.7130  141.2459  156.0057 H   0  0  0  0  0  0  0  0  0  0  0  0
  149.8493  140.4923  153.2689 H   0  0  0  0  0  0  0  0  0  0  0  0
  150.4145  139.9085  154.8129 H   0  0  0  0  0  0  0  0  0  0  0  0
  148.3098  138.7267  155.2257 H   0  0  0  0  0  0  0  0  0  0  0  0
  148.9613  138.2378  153.6836 H   0  0  0  0  0  0  0  0  0  0  0  0
  147.1940  135.4416  151.5203 H   0  0  0  0  0  0  0  0  0  0  0  0
  143.0436  132.9058  149.3962 H   0  0  0  0  0  0  0  0  0  0  0  0
  145.1530  131.2441  149.1880 H   0  0  0  0  0  0  0  0  0  0  0  0
  1  2  2  0  0  0  0
  2  3  1  0  0  0  0
  2 12  1  0  0  0  0
  3  4  1  0  0  0  0
  3 18  1  0  0  0  0
  4  5  1  0  0  0  0
  4 19  1  0  0  0  0
  4 20  1  0  0  0  0
  5 11  1  0  0  0  0
  5  6  1  0  0  0  0
  5  7  1  0  0  0  0
  6 21  1  0  0  0  0
  7  8  1  0  0  0  0
  7 22  1  0  0  0  0
  7 23  1  0  0  0  0
  8  9  1  0  0  0  0
  8 24  1  0  0  0  0
  8 25  1  0  0  0  0
  9 10  1  0  0  0  0
  9 26  1  0  0  0  0
  9 27  1  0  0  0  0
 10 11  1  0  0  0  0
 10 28  1  0  0  0  0
 10 29  1  0  0  0  0
 11 30  1  0  0  0  0
 11 31  1  0  0  0  0
 12 13  1  0  0  0  0
 12 32  1  0  0  0  0
 13 17  1  0  0  0  0
 13 14  2  0  0  0  0
 14 15  1  0  0  0  0
 15 16  2  0  0  0  0
 15 33  1  0  0  0  0
 16 17  1  0  0  0  0
 16 34  1  0  0  0  0
M  END
> <s_m_source_file>
AV-unprocessed.smi

> <i_m_source_file_index>
1825

> <i_lp_mmshare_version>
43012

> <i_f3d_flags>
0

> <s_epik_input>
czFbY0hdW2NIXW5jMVtOSF1DKD1PKVtOSF1bQ0gyXUMyKFtPSF0pW0NIMl1bQ0gyXVtDSDJdW0NIMl1bQ0gyXTI=

> <s_epik_cmdline>
J2VwaWtfcHl0aG9uJywgJy1waCcsICc3LjAnLCAnLXRuJywgJzgnLCAnLW1hJywgJzIwMCcsICctbWV0YWxfYmluZGluZycsICctaW1hZScsICc8aW5maWxlLm1hZT4nLCAnLW9tYWUnLCAnPG91dGZpbGUubWFlPic=

> <r_lp_tautomer_probability>
0.999

> <r_epik_Ionization_Penalty>
0.000358719

> <r_epik_Ionization_Penalty_Charging>
0

> <r_epik_Ionization_Penalty_Neutral>
0.000358719

> <r_epik_State_Penalty>
0.000177984

> <r_epik_Charging_Adjusted_Penalty>
0.000177984

> <i_epik_Tot_Q>
0

> <i_epik_Tot_abs_Q>
0

> <r_epik_Metal_State_Penalty>
0.00708714

> <b_epik_Metal_Only>
0

> <s_lp_Force_Field>
OPLS_2005

> <r_lp_Energy>
11.7205

> <b_lp_Chiralities_Consistent>
1

> <s_lp_Variant>
AV-unprocessed.smi:1825-1

> <Gold.Version>
5.8.1

> <Gold.Id.Protein>
6NUR|6NUR_protein|mol2

> <Gold.PLP.Fitness>
42.2867

> <Gold.PLP.PLP>
-30.9561

> <Gold.PLP.part.hbond>
-2.5246

> <Gold.PLP.part.metal>
0.0000

> <Gold.PLP.part.buried>
-4.4146

> <Gold.PLP.part.nonpolar>
-25.7363

> <Gold.PLP.part.repulsive>
0.4652

> <Gold.PLP.ligand.clash>
0.0000

> <Gold.PLP.ligand.torsion>
0.3140

> <Gold.PLP.Chemscore.Hbond>
2.9913

> <Gold.PLP.Chemscore.CHOScore>
0.9926

> <Gold.PLP.Chemscore.Metal>
0.0000

> <Gold.Chemscore.Hbonds>
donor molecule, donor type, donor heavy atom, donor atom, acceptor molecule, acceptor atom, score
      L1  H     3    18       P1  7948  1.00
      L1  H     6    21       P1  7957  1.00
      L1  H    12    32       P1  7948  1.00
      L1  C    15    33       P1 10186  0.97

> <Gold.PLP.Chemscore.Internal.Correction>
0.0069

> <Gold.Rescore>
     Score         DG    S(hbond)    S(metal)    S(lipo)     H(rot)  DE(clash)    DE(int)     intcor
     17.39     -18.93       2.92        0.00      72.08       1.86       0.02       1.51       ----

> <Gold.Chemscore.Fitness>
17.3894

> <Gold.Chemscore.DG>
-18.9257

> <Gold.Chemscore.ZeroCoef>
-5.4800

> <Gold.Chemscore.Hbond>
2.9241

> <Gold.Chemscore.Metal>
0.0000

> <Gold.Chemscore.Lipo>
72.0832

> <Gold.Chemscore.Internal_Hbond>
0.0000

> <Gold.Chemscore.DEClash>
0.0222

> <Gold.Chemscore.DEInternal>
1.5141

> <Gold.Chemscore.Rot>
1.8572

> <Gold.Chemscore.Internal.Correction>
   9.000000E+99

> <Gold.Chemscore.Hbonds>
donor molecule, donor type, donor heavy atom, donor atom, acceptor molecule, acceptor atom, score
      L1  H     3    18       P1  7948  0.99
      L1  H     6    21       P1  7957  0.92
      L1  H    12    32       P1  7948  0.96

> <Gold.Chemscore.Hbond.Weighted>
-9.7665

> <Gold.Chemscore.Metal.Weighted>
-0.0000

> <Gold.Chemscore.Lipo.Weighted>
-8.4337

> <Gold.Chemscore.Internal_Hbond.Weighted>
0.0000

> <Gold.Chemscore.DEClash.Weighted>
0.0222

> <Gold.Chemscore.DEInternal.Weighted>
1.5141

> <Gold.Chemscore.Rot.Weighted>
4.7545

> <Gold.Chemscore.Internal.Correction.Weighted>
   9.000000E+99

> <Gold.Protein.RotatedTorsions>
[ 6907 6896 6895 6894 ] final    9.67 input  -60.11 | X-H torsion
[ 7974 7965 7964 7962 ] final -118.19 input  175.53 | X-H torsion
[ 8008 7997 7996 7995 ] final   78.64 input   59.86 | X-H torsion
[ 10167 10162 10161 10158 ] final  151.26 input  -65.29 | X-H torsion
[ 10718 10713 10712 10709 ] final -129.34 input   66.30 | X-H torsion
[ 10763 10752 10751 10750 ] final   76.85 input  -60.55 | X-H torsion
[ 11005 11000 10999 10996 ] final  -50.40 input  -57.11 | X-H torsion

> <Gold.Protein.ActiveResidues>
 VAL166  LYS551  ARG553  GLY616  TRP617  ASP618  TYR619  PRO620  LYS621  CYS622 
 ASP623  PHE694  ASN695  SER759  ASP760  ASP761  ALA762  ILE779  LEU786  VAL792 
 PHE793  MET794  SER795  GLU796  ALA797  LYS798  CYS799  TRP800  GLU811  SER814 

> <Gold.Protein.RotatedAtoms>
  151.7259  135.0885  160.0291 H   0  0  0  0  0  0  0  0  0  0  0  0  # atno 6907 bound_to 6896
  152.3572  133.6247  159.5996 H   0  0  0  0  0  0  0  0  0  0  0  0  # atno 6908 bound_to 6896
  150.7579  133.9397  159.3494 H   0  0  0  0  0  0  0  0  0  0  0  0  # atno 6909 bound_to 6896
  145.0766  140.8396  143.4064 H   0  0  0  0  0  0  0  0  0  0  0  0  # atno 7974 bound_to 7965
  155.8585  140.3455  155.5741 H   0  0  0  0  0  0  0  0  0  0  0  0  # atno 8008 bound_to 7997
  155.7959  140.0878  157.2003 H   0  0  0  0  0  0  0  0  0  0  0  0  # atno 8009 bound_to 7997
  154.4010  140.1474  156.3205 H   0  0  0  0  0  0  0  0  0  0  0  0  # atno 8010 bound_to 7997
  139.4842  144.5455  151.7491 H   0  0  0  0  0  0  0  0  0  0  0  0  # atno 10167 bound_to 10162
  156.2037  130.6874  151.0569 H   0  0  0  0  0  0  0  0  0  0  0  0  # atno 10718 bound_to 10713
  153.0756  135.4936  154.8396 H   0  0  0  0  0  0  0  0  0  0  0  0  # atno 10763 bound_to 10752
  154.7082  135.3015  154.9240 H   0  0  0  0  0  0  0  0  0  0  0  0  # atno 10764 bound_to 10752
  153.9942  135.6774  153.4808 H   0  0  0  0  0  0  0  0  0  0  0  0  # atno 10765 bound_to 10752
  141.0814  133.6652  156.3726 H   0  0  0  0  0  0  0  0  0  0  0  0  # atno 11005 bound_to 11000
  145.1228  139.2682  143.5579 LP  0  0  0  0  0  0  0  0  0  0  0  0  # atno 17320 bound_to 7965
  146.3530  140.0857  142.8615 LP  0  0  0  0  0  0  0  0  0  0  0  0  # atno 17321 bound_to 7965
  140.5001  144.1182  150.5969 LP  0  0  0  0  0  0  0  0  0  0  0  0  # atno 17342 bound_to 10162
  140.4072  143.2674  151.9876 LP  0  0  0  0  0  0  0  0  0  0  0  0  # atno 17343 bound_to 10162
  157.7000  131.0779  150.6850 LP  0  0  0  0  0  0  0  0  0  0  0  0  # atno 17370 bound_to 10713
  156.6907  130.4594  149.5600 LP  0  0  0  0  0  0  0  0  0  0  0  0  # atno 17371 bound_to 10713
  140.5460  134.6074  157.5394 LP  0  0  0  0  0  0  0  0  0  0  0  0  # atno 17394 bound_to 11000
  139.9628  134.7423  156.0201 LP  0  0  0  0  0  0  0  0  0  0  0  0  # atno 17395 bound_to 11000

$$$$
