AV-unprocessed.smi:261|AV-procd|sdf|1994|dock8
  -GOLD-   2262021183D 1   1.00000     0.00000
 Structure written by MMmdl.
 51 54  0  0  0  0  0  0  0  0  1 V2000
  148.3971  131.8584  153.7318 C   0  0  0  0  0  0  0  0  0  0  0  0
  148.7082  133.1670  154.1819 O   0  0  0  0  0  0  0  0  0  0  0  0
  150.1019  133.4091  154.3314 C   0  0  2  0  0  0  0  0  0  0  0  0
  150.6517  132.8169  155.6362 C   0  0  0  0  0  0  0  0  0  0  0  0
  150.3464  133.8715  156.7124 C   0  0  2  0  0  0  0  0  0  0  0  0
  148.9863  133.6110  157.3951 C   0  0  0  0  0  0  0  0  0  0  0  0
  147.8937  133.4879  156.6337 N   0  0  0  0  0  0  0  0  0  0  0  0
  148.9264  133.5321  158.6200 O   0  0  0  0  0  0  0  0  0  0  0  0
  150.4158  135.1273  155.9635 N   0  0  0  0  0  0  0  0  0  0  0  0
  150.6101  136.3619  156.5061 C   0  0  0  0  0  0  0  0  0  0  0  0
  150.7495  136.4446  157.8562 N   0  0  0  0  0  0  0  0  0  0  0  0
  150.9490  137.6216  158.4540 C   0  0  0  0  0  0  0  0  0  0  0  0
  151.0423  138.8303  157.9009 N   0  0  0  0  0  0  0  0  0  0  0  0
  150.9025  138.7646  156.5469 C   0  0  0  0  0  0  0  0  0  0  0  0
  150.6856  137.5863  155.7730 C   0  0  0  0  0  0  0  0  0  0  0  0
  150.5983  137.9321  154.4282 N   0  0  0  0  0  0  0  0  0  0  0  0
  150.7562  139.2260  154.4086 C   0  0  0  0  0  0  0  0  0  0  0  0
  150.9376  139.8095  155.6405 N   0  0  0  0  0  0  0  0  0  0  0  0
  151.1325  141.2258  155.9095 C   0  0  0  0  0  0  0  0  0  0  0  0
  150.5748  141.6839  157.2757 C   0  0  2  0  0  0  0  0  0  0  0  0
  149.3331  142.3292  157.0739 O   0  0  0  0  0  0  0  0  0  0  0  0
  151.5058  142.6430  158.0460 C   0  0  1  0  0  0  0  0  0  0  0  0
  151.5212  144.0768  157.5145 C   0  0  0  0  0  0  0  0  0  0  0  0
  151.9246  144.9041  158.7255 C   0  0  0  0  0  0  0  0  0  0  0  0
  151.7364  143.9507  159.9089 C   0  0  0  0  0  0  0  0  0  0  0  0
  151.0442  142.8317  159.3745 O   0  0  0  0  0  0  0  0  0  0  0  0
  150.3068  134.9153  154.5230 C   0  0  0  0  0  0  0  0  0  0  0  0
  150.6438  133.0537  153.4533 H   0  0  0  0  0  0  0  0  0  0  0  0
  151.1305  133.8260  157.4677 H   0  0  0  0  0  0  0  0  0  0  0  0
  147.3159  131.7532  153.6426 H   0  0  0  0  0  0  0  0  0  0  0  0
  148.7486  131.0943  154.4251 H   0  0  0  0  0  0  0  0  0  0  0  0
  148.8332  131.6664  152.7508 H   0  0  0  0  0  0  0  0  0  0  0  0
  150.2575  131.8272  155.8679 H   0  0  0  0  0  0  0  0  0  0  0  0
  151.7334  132.7080  155.5467 H   0  0  0  0  0  0  0  0  0  0  0  0
  146.9965  133.3255  157.0672 H   0  0  0  0  0  0  0  0  0  0  0  0
  147.9696  133.5660  155.6301 H   0  0  0  0  0  0  0  0  0  0  0  0
  151.0488  137.5898  159.5290 H   0  0  0  0  0  0  0  0  0  0  0  0
  150.7364  139.7948  153.4901 H   0  0  0  0  0  0  0  0  0  0  0  0
  152.1969  141.4529  155.8359 H   0  0  0  0  0  0  0  0  0  0  0  0
  150.6479  141.7885  155.1110 H   0  0  0  0  0  0  0  0  0  0  0  0
  150.3879  140.7977  157.8830 H   0  0  0  0  0  0  0  0  0  0  0  0
  149.4396  142.9787  156.3955 H   0  0  0  0  0  0  0  0  0  0  0  0
  152.5258  142.2551  158.0792 H   0  0  0  0  0  0  0  0  0  0  0  0
  152.1984  144.2039  156.6695 H   0  0  0  0  0  0  0  0  0  0  0  0
  150.5219  144.3707  157.1904 H   0  0  0  0  0  0  0  0  0  0  0  0
  152.9620  145.2337  158.6586 H   0  0  0  0  0  0  0  0  0  0  0  0
  151.2957  145.7903  158.8170 H   0  0  0  0  0  0  0  0  0  0  0  0
  152.7025  143.6225  160.2951 H   0  0  0  0  0  0  0  0  0  0  0  0
  151.1779  144.4035  160.7283 H   0  0  0  0  0  0  0  0  0  0  0  0
  151.2387  135.2293  154.0505 H   0  0  0  0  0  0  0  0  0  0  0  0
  149.4930  135.4945  154.0839 H   0  0  0  0  0  0  0  0  0  0  0  0
  1  2  1  0  0  0  0
  1 30  1  0  0  0  0
  1 31  1  0  0  0  0
  1 32  1  0  0  0  0
  2  3  1  0  0  0  0
  3 28  1  0  0  0  0
  3 27  1  0  0  0  0
  3  4  1  0  0  0  0
  4  5  1  0  0  0  0
  4 33  1  0  0  0  0
  4 34  1  0  0  0  0
  5 29  1  0  0  0  0
  5  6  1  0  0  0  0
  5  9  1  0  0  0  0
  6  7  1  0  0  0  0
  6  8  2  0  0  0  0
  7 35  1  0  0  0  0
  7 36  1  0  0  0  0
  9 10  1  0  0  0  0
  9 27  1  0  0  0  0
 10 15  1  0  0  0  0
 10 11  2  0  0  0  0
 11 12  1  0  0  0  0
 12 13  2  0  0  0  0
 12 37  1  0  0  0  0
 13 14  1  0  0  0  0
 14 18  1  0  0  0  0
 14 15  2  0  0  0  0
 15 16  1  0  0  0  0
 16 17  2  0  0  0  0
 17 18  1  0  0  0  0
 17 38  1  0  0  0  0
 18 19  1  0  0  0  0
 19 20  1  0  0  0  0
 19 39  1  0  0  0  0
 19 40  1  0  0  0  0
 20 21  1  0  0  0  0
 20 22  1  0  0  0  0
 20 41  1  0  0  0  0
 21 42  1  0  0  0  0
 22 26  1  0  0  0  0
 22 23  1  0  0  0  0
 22 43  1  0  0  0  0
 23 24  1  0  0  0  0
 23 44  1  0  0  0  0
 23 45  1  0  0  0  0
 24 25  1  0  0  0  0
 24 46  1  0  0  0  0
 24 47  1  0  0  0  0
 25 26  1  0  0  0  0
 25 48  1  0  0  0  0
 25 49  1  0  0  0  0
 27 50  1  0  0  0  0
 27 51  1  0  0  0  0
M  END
> <s_m_source_file>
AV-unprocessed.smi

> <i_m_source_file_index>
261

> <i_lp_mmshare_version>
43012

> <i_f3d_flags>
0

> <s_epik_input>
W0NIM11PW0NASF0xW0NIMl1bQ0BASF0oQyg9TylbTkgyXSlOKFtDSDJdMSljKG5bY0hdbjIpYyhjMjMpbltjSF1uM1tDSDJdW0NASF0oW09IXSlbQ0BASF00W0NIMl1bQ0gyXVtDSDJdTzQ=

> <s_epik_cmdline>
J2VwaWtfcHl0aG9uJywgJy1waCcsICc3LjAnLCAnLXRuJywgJzgnLCAnLW1hJywgJzIwMCcsICctbWV0YWxfYmluZGluZycsICctaW1hZScsICc8aW5maWxlLm1hZT4nLCAnLW9tYWUnLCAnPG91dGZpbGUubWFlPic=

> <r_lp_tautomer_probability>
1

> <r_epik_Ionization_Penalty>
0.000713824

> <r_epik_Ionization_Penalty_Charging>
0

> <r_epik_Ionization_Penalty_Neutral>
0.000713824

> <r_epik_State_Penalty>
0.000402132

> <r_epik_Charging_Adjusted_Penalty>
0.000402132

> <i_epik_Tot_Q>
0

> <i_epik_Tot_abs_Q>
0

> <r_epik_Metal_State_Penalty>
-0

> <b_epik_Metal_Only>
0

> <s_lp_Force_Field>
OPLS_2005

> <r_lp_Energy>
42.3495

> <b_lp_Chiralities_Consistent>
1

> <s_lp_Variant>
AV-unprocessed.smi:261-12

> <Gold.Version>
5.8.1

> <Gold.Id.Protein>
6NUR|6NUR_protein|mol2

> <Gold.PLP.Fitness>
49.4579

> <Gold.PLP.PLP>
-42.9382

> <Gold.PLP.part.hbond>
-2.3204

> <Gold.PLP.part.metal>
0.0000

> <Gold.PLP.part.buried>
-3.7741

> <Gold.PLP.part.nonpolar>
-35.9722

> <Gold.PLP.part.repulsive>
0.3131

> <Gold.PLP.ligand.clash>
0.0000

> <Gold.PLP.ligand.torsion>
1.2884

> <Gold.PLP.Chemscore.Hbond>
2.0000

> <Gold.PLP.Chemscore.CHOScore>
1.0000

> <Gold.PLP.Chemscore.Metal>
0.0000

> <Gold.Chemscore.Hbonds>
donor molecule, donor type, donor heavy atom, donor atom, acceptor molecule, acceptor atom, score
      L1  H    21    42       P1  8028  0.94
      P1  H  6896  6908       L1     8  1.00
      L1  C    17    38       P1  7957  0.86

> <Gold.PLP.Chemscore.Internal.Correction>
0.0963

> <Gold.Rescore>
     Score         DG    S(hbond)    S(metal)    S(lipo)     H(rot)  DE(clash)    DE(int)     intcor
     10.81     -14.78       1.94        0.00      93.62       3.18       0.93       3.04       ----

> <Gold.Chemscore.Fitness>
10.8144

> <Gold.Chemscore.DG>
-14.7806

> <Gold.Chemscore.ZeroCoef>
-5.4800

> <Gold.Chemscore.Hbond>
1.9447

> <Gold.Chemscore.Metal>
0.0000

> <Gold.Chemscore.Lipo>
93.6240

> <Gold.Chemscore.Internal_Hbond>
0.0000

> <Gold.Chemscore.DEClash>
0.9285

> <Gold.Chemscore.DEInternal>
3.0377

> <Gold.Chemscore.Rot>
3.1831

> <Gold.Chemscore.Internal.Correction>
   9.000000E+99

> <Gold.Chemscore.Hbonds>
donor molecule, donor type, donor heavy atom, donor atom, acceptor molecule, acceptor atom, score
      L1  H    21    42       P1  8028  0.89
      P1  H  6896  6908       L1     8  0.69

> <Gold.Chemscore.Hbond.Weighted>
-6.4952

> <Gold.Chemscore.Metal.Weighted>
-0.0000

> <Gold.Chemscore.Lipo.Weighted>
-10.9540

> <Gold.Chemscore.Internal_Hbond.Weighted>
0.0000

> <Gold.Chemscore.DEClash.Weighted>
0.9285

> <Gold.Chemscore.DEInternal.Weighted>
3.0377

> <Gold.Chemscore.Rot.Weighted>
8.1486

> <Gold.Chemscore.Internal.Correction.Weighted>
   9.000000E+99

> <Gold.Protein.RotatedTorsions>
[ 6907 6896 6895 6894 ] final  141.75 input  -60.11 | X-H torsion
[ 7974 7965 7964 7962 ] final   -5.72 input  175.53 | X-H torsion
[ 8008 7997 7996 7995 ] final   78.02 input   59.86 | X-H torsion
[ 10167 10162 10161 10158 ] final  -89.28 input  -65.29 | X-H torsion
[ 10718 10713 10712 10709 ] final   29.11 input   66.30 | X-H torsion
[ 10763 10752 10751 10750 ] final  141.68 input  -60.55 | X-H torsion
[ 11005 11000 10999 10996 ] final -111.32 input  -57.11 | X-H torsion

> <Gold.Protein.ActiveResidues>
 VAL166  LYS551  ARG553  GLY616  TRP617  ASP618  TYR619  PRO620  LYS621  CYS622 
 ASP623  PHE694  ASN695  SER759  ASP760  ASP761  ALA762  ILE779  LEU786  VAL792 
 PHE793  MET794  SER795  GLU796  ALA797  LYS798  CYS799  TRP800  GLU811  SER814 

> <Gold.Protein.RotatedAtoms>
  152.2272  133.5029  159.5194 H   0  0  0  0  0  0  0  0  0  0  0  0  # atno 6907 bound_to 6896
  150.7028  134.1265  159.4063 H   0  0  0  0  0  0  0  0  0  0  0  0  # atno 6908 bound_to 6896
  151.9186  135.0308  160.0571 H   0  0  0  0  0  0  0  0  0  0  0  0  # atno 6909 bound_to 6896
  146.2347  140.2063  142.8334 H   0  0  0  0  0  0  0  0  0  0  0  0  # atno 7974 bound_to 7965
  155.8499  140.3458  155.5686 H   0  0  0  0  0  0  0  0  0  0  0  0  # atno 8008 bound_to 7997
  155.8049  140.0890  157.1956 H   0  0  0  0  0  0  0  0  0  0  0  0  # atno 8009 bound_to 7997
  154.4007  140.1458  156.3306 H   0  0  0  0  0  0  0  0  0  0  0  0  # atno 8010 bound_to 7997
  140.3664  143.2816  151.9553 H   0  0  0  0  0  0  0  0  0  0  0  0  # atno 10167 bound_to 10162
  157.2423  130.7075  149.6364 H   0  0  0  0  0  0  0  0  0  0  0  0  # atno 10718 bound_to 10713
  153.9433  135.2977  155.3442 H   0  0  0  0  0  0  0  0  0  0  0  0  # atno 10763 bound_to 10752
  154.7466  135.5000  153.9217 H   0  0  0  0  0  0  0  0  0  0  0  0  # atno 10764 bound_to 10752
  153.1031  135.6739  153.9742 H   0  0  0  0  0  0  0  0  0  0  0  0  # atno 10765 bound_to 10752
  141.0741  133.9330  157.2425 H   0  0  0  0  0  0  0  0  0  0  0  0  # atno 11005 bound_to 11000
  144.9742  140.8398  143.5437 LP  0  0  0  0  0  0  0  0  0  0  0  0  # atno 17320 bound_to 7965
  145.2048  139.2234  143.5174 LP  0  0  0  0  0  0  0  0  0  0  0  0  # atno 17321 bound_to 7965
  139.4808  144.5947  151.7711 LP  0  0  0  0  0  0  0  0  0  0  0  0  # atno 17342 bound_to 10162
  140.5077  144.1073  150.5987 LP  0  0  0  0  0  0  0  0  0  0  0  0  # atno 17343 bound_to 10162
  155.9669  130.4454  150.5500 LP  0  0  0  0  0  0  0  0  0  0  0  0  # atno 17370 bound_to 10713
  157.3366  131.0709  151.1820 LP  0  0  0  0  0  0  0  0  0  0  0  0  # atno 17371 bound_to 10713
  139.9554  135.0167  156.9112 LP  0  0  0  0  0  0  0  0  0  0  0  0  # atno 17394 bound_to 11000
  140.5611  134.0534  155.7399 LP  0  0  0  0  0  0  0  0  0  0  0  0  # atno 17395 bound_to 11000

$$$$
