AV-unprocessed.smi:1075|AV-procd|sdf|4696|dock5
  -GOLD-   22720 3213D 1   1.00000     0.00000
 Structure written by MMmdl.
 50 51  0  0  0  0  0  0  0  0  1 V2000
  154.5224  140.6438  160.6266 C   0  0  0  0  0  0  0  0  0  0  0  0
  153.5399  141.3933  159.7725 C   0  0  0  0  0  0  0  0  0  0  0  0
  153.4089  142.6987  159.9345 N   0  0  0  0  0  0  0  0  0  0  0  0
  152.4772  143.0652  159.0333 N   0  0  0  0  0  0  0  0  0  0  0  0
  152.0919  144.4604  158.9424 C   0  0  0  0  0  0  0  0  0  0  0  0
  152.0200  141.9894  158.2960 C   0  0  0  0  0  0  0  0  0  0  0  0
  150.9873  142.1468  157.2241 C   0  0  0  0  0  0  0  0  0  0  0  0
  152.6841  140.8784  158.7537 C   0  0  0  0  0  0  0  0  0  0  0  0
  152.5837  139.4338  158.3056 C   0  0  1  0  0  0  0  0  0  0  0  0
  151.7306  138.5864  159.2686 C   0  0  0  0  0  0  0  0  0  0  0  0
  152.0907  139.3840  156.8507 C   0  0  0  0  0  0  0  0  0  0  0  0
  152.7761  139.8465  155.9382 O   0  0  0  0  0  0  0  0  0  0  0  0
  150.8916  138.8023  156.6632 N   0  0  0  0  0  0  0  0  0  0  0  0
  150.1864  138.5304  155.4052 C   0  0  1  0  0  0  0  0  0  0  0  0
  151.0201  137.5594  154.5361 C   0  0  0  0  0  0  0  0  0  0  0  0
  148.7733  137.9627  155.7123 C   0  0  0  0  0  0  0  0  0  0  0  0
  147.8346  137.9543  154.4930 C   0  0  0  0  0  0  0  0  0  0  0  0
  147.7080  139.3495  153.8597 C   0  0  2  0  0  0  0  0  0  0  0  0
  146.7648  139.3360  152.6484 C   0  0  0  0  0  0  0  0  0  0  0  0
  149.0997  139.8841  153.4849 C   0  0  0  0  0  0  0  0  0  0  0  0
  150.0448  139.9025  154.6988 C   0  0  0  0  0  0  0  0  0  0  0  0
  155.1782  140.0247  160.0141 H   0  0  0  0  0  0  0  0  0  0  0  0
  154.0062  139.9893  161.3291 H   0  0  0  0  0  0  0  0  0  0  0  0
  155.1544  141.3189  161.2049 H   0  0  0  0  0  0  0  0  0  0  0  0
  152.4564  144.8795  158.0043 H   0  0  0  0  0  0  0  0  0  0  0  0
  152.5116  145.0320  159.7716 H   0  0  0  0  0  0  0  0  0  0  0  0
  151.0056  144.5453  158.9728 H   0  0  0  0  0  0  0  0  0  0  0  0
  151.0772  141.3666  156.4695 H   0  0  0  0  0  0  0  0  0  0  0  0
  151.0872  143.1036  156.7116 H   0  0  0  0  0  0  0  0  0  0  0  0
  149.9839  142.0923  157.6467 H   0  0  0  0  0  0  0  0  0  0  0  0
  153.5755  138.9804  158.2983 H   0  0  0  0  0  0  0  0  0  0  0  0
  150.7042  138.9466  159.3359 H   0  0  0  0  0  0  0  0  0  0  0  0
  152.1515  138.6041  160.2743 H   0  0  0  0  0  0  0  0  0  0  0  0
  151.6940  137.5439  158.9508 H   0  0  0  0  0  0  0  0  0  0  0  0
  150.4274  138.4679  157.4953 H   0  0  0  0  0  0  0  0  0  0  0  0
  150.5709  137.4006  153.5567 H   0  0  0  0  0  0  0  0  0  0  0  0
  151.1150  136.5770  154.9982 H   0  0  0  0  0  0  0  0  0  0  0  0
  152.0275  137.9430  154.3715 H   0  0  0  0  0  0  0  0  0  0  0  0
  148.8428  136.9505  156.1113 H   0  0  0  0  0  0  0  0  0  0  0  0
  148.3072  138.5617  156.4967 H   0  0  0  0  0  0  0  0  0  0  0  0
  148.1974  137.2408  153.7523 H   0  0  0  0  0  0  0  0  0  0  0  0
  146.8508  137.5975  154.7994 H   0  0  0  0  0  0  0  0  0  0  0  0
  147.2776  140.0208  154.6046 H   0  0  0  0  0  0  0  0  0  0  0  0
  147.1389  138.6808  151.8610 H   0  0  0  0  0  0  0  0  0  0  0  0
  146.6545  140.3350  152.2260 H   0  0  0  0  0  0  0  0  0  0  0  0
  145.7713  138.9858  152.9289 H   0  0  0  0  0  0  0  0  0  0  0  0
  149.5288  139.2788  152.6860 H   0  0  0  0  0  0  0  0  0  0  0  0
  149.0113  140.8942  153.0832 H   0  0  0  0  0  0  0  0  0  0  0  0
  149.6601  140.6359  155.4100 H   0  0  0  0  0  0  0  0  0  0  0  0
  151.0247  140.2720  154.3932 H   0  0  0  0  0  0  0  0  0  0  0  0
  1  2  1  0  0  0  0
  1 22  1  0  0  0  0
  1 23  1  0  0  0  0
  1 24  1  0  0  0  0
  2  8  1  0  0  0  0
  2  3  2  0  0  0  0
  3  4  1  0  0  0  0
  4  5  1  0  0  0  0
  4  6  1  0  0  0  0
  5 25  1  0  0  0  0
  5 26  1  0  0  0  0
  5 27  1  0  0  0  0
  6  7  1  0  0  0  0
  6  8  2  0  0  0  0
  7 28  1  0  0  0  0
  7 29  1  0  0  0  0
  7 30  1  0  0  0  0
  8  9  1  0  0  0  0
  9 10  1  0  0  0  0
  9 11  1  0  0  0  0
  9 31  1  0  0  0  0
 10 32  1  0  0  0  0
 10 33  1  0  0  0  0
 10 34  1  0  0  0  0
 11 12  2  0  0  0  0
 11 13  1  0  0  0  0
 13 14  1  0  0  0  0
 13 35  1  0  0  0  0
 14 21  1  0  0  0  0
 14 15  1  0  0  0  0
 14 16  1  0  0  0  0
 15 36  1  0  0  0  0
 15 37  1  0  0  0  0
 15 38  1  0  0  0  0
 16 17  1  0  0  0  0
 16 39  1  0  0  0  0
 16 40  1  0  0  0  0
 17 18  1  0  0  0  0
 17 41  1  0  0  0  0
 17 42  1  0  0  0  0
 18 19  1  0  0  0  0
 18 20  1  0  0  0  0
 18 43  1  0  0  0  0
 19 44  1  0  0  0  0
 19 45  1  0  0  0  0
 19 46  1  0  0  0  0
 20 21  1  0  0  0  0
 20 47  1  0  0  0  0
 20 48  1  0  0  0  0
 21 49  1  0  0  0  0
 21 50  1  0  0  0  0
M  END
> <s_m_source_file>
AV-unprocessed.smi

> <i_m_source_file_index>
1075

> <i_lp_mmshare_version>
43012

> <i_f3d_flags>
0

> <s_epik_input>
W0NIM11jMW5uKFtDSDNdKWMoW0NIM10pYzFbQ0BIXShbQ0gzXSlDKD1PKVtOSF1bQ0BAXTIoW0NIM10pW0NIMl1bQ0gyXVtDQEBIXShbQ0gzXSlbQ0gyXVtDSDJdMg==

> <s_epik_cmdline>
J2VwaWtfcHl0aG9uJywgJy1waCcsICc3LjAnLCAnLXRuJywgJzgnLCAnLW1hJywgJzIwMCcsICctbWV0YWxfYmluZGluZycsICctaW1hZScsICc8aW5maWxlLm1hZT4nLCAnLW9tYWUnLCAnPG91dGZpbGUubWFlPic=

> <r_lp_tautomer_probability>
1

> <r_epik_Ionization_Penalty>
0.00502928

> <r_epik_Ionization_Penalty_Charging>
0

> <r_epik_Ionization_Penalty_Neutral>
0.00502928

> <r_epik_State_Penalty>
0.0036576

> <r_epik_Charging_Adjusted_Penalty>
0.0036576

> <i_epik_Tot_Q>
0

> <i_epik_Tot_abs_Q>
0

> <r_epik_Metal_State_Penalty>
-0

> <b_epik_Metal_Only>
0

> <s_lp_Force_Field>
OPLS_2005

> <r_lp_Energy>
7.42101

> <b_lp_Chiralities_Consistent>
1

> <s_lp_Variant>
AV-unprocessed.smi:1075-4

> <Gold.Version>
5.8.1

> <Gold.Id.Protein>
6NUR|6NUR_protein|mol2

> <Gold.PLP.Fitness>
37.7690

> <Gold.PLP.PLP>
-36.4052

> <Gold.PLP.part.hbond>
-1.0000

> <Gold.PLP.part.metal>
0.0000

> <Gold.PLP.part.buried>
3.2265

> <Gold.PLP.part.nonpolar>
-37.6869

> <Gold.PLP.part.repulsive>
0.0197

> <Gold.PLP.ligand.clash>
0.2142

> <Gold.PLP.ligand.torsion>
0.7562

> <Gold.PLP.Chemscore.Hbond>
1.0000

> <Gold.PLP.Chemscore.CHOScore>
0.0000

> <Gold.PLP.Chemscore.Metal>
0.0000

> <Gold.Chemscore.Hbonds>
donor molecule, donor type, donor heavy atom, donor atom, acceptor molecule, acceptor atom, score
      P1  H  7997  8010       L1    12  1.00

> <Gold.PLP.Chemscore.Internal.Correction>
0.0905

> <Gold.Rescore>
     Score         DG    S(hbond)    S(metal)    S(lipo)     H(rot)  DE(clash)    DE(int)     intcor
     13.92     -18.02       0.98        0.00     106.23       1.23       1.42       2.68       ----

> <Gold.Chemscore.Fitness>
13.9170

> <Gold.Chemscore.DG>
-18.0177

> <Gold.Chemscore.ZeroCoef>
-5.4800

> <Gold.Chemscore.Hbond>
0.9768

> <Gold.Chemscore.Metal>
0.0000

> <Gold.Chemscore.Lipo>
106.2335

> <Gold.Chemscore.Internal_Hbond>
0.0000

> <Gold.Chemscore.DEClash>
1.4173

> <Gold.Chemscore.DEInternal>
2.6835

> <Gold.Chemscore.Rot>
1.2321

> <Gold.Chemscore.Internal.Correction>
   9.000000E+99

> <Gold.Chemscore.Hbonds>
donor molecule, donor type, donor heavy atom, donor atom, acceptor molecule, acceptor atom, score
      P1  H  7997  8010       L1    12  0.99

> <Gold.Chemscore.Hbond.Weighted>
-3.2624

> <Gold.Chemscore.Metal.Weighted>
-0.0000

> <Gold.Chemscore.Lipo.Weighted>
-12.4293

> <Gold.Chemscore.Internal_Hbond.Weighted>
0.0000

> <Gold.Chemscore.DEClash.Weighted>
1.4173

> <Gold.Chemscore.DEInternal.Weighted>
2.6835

> <Gold.Chemscore.Rot.Weighted>
3.1541

> <Gold.Chemscore.Internal.Correction.Weighted>
   9.000000E+99

> <Gold.Protein.RotatedTorsions>
[ 6907 6896 6895 6894 ] final  -52.58 input  -60.11 | X-H torsion
[ 7974 7965 7964 7962 ] final  -73.09 input  175.53 | X-H torsion
[ 8008 7997 7996 7995 ] final   94.95 input   59.86 | X-H torsion
[ 10167 10162 10161 10158 ] final   92.35 input  -65.29 | X-H torsion
[ 10718 10713 10712 10709 ] final -157.79 input   66.30 | X-H torsion
[ 10763 10752 10751 10750 ] final  -36.39 input  -60.55 | X-H torsion
[ 11005 11000 10999 10996 ] final   96.36 input  -57.11 | X-H torsion

> <Gold.Protein.ActiveResidues>
 VAL166  LYS551  ARG553  GLY616  TRP617  ASP618  TYR619  PRO620  LYS621  CYS622 
 ASP623  PHE694  ASN695  SER759  ASP760  ASP761  ALA762  ILE779  LEU786  VAL792 
 PHE793  MET794  SER795  GLU796  ALA797  LYS798  CYS799  TRP800  GLU811  SER814 

> <Gold.Protein.RotatedAtoms>
  150.8505  134.7828  159.7004 H   0  0  0  0  0  0  0  0  0  0  0  0  # atno 6907 bound_to 6896
  152.4571  134.5264  159.9808 H   0  0  0  0  0  0  0  0  0  0  0  0  # atno 6908 bound_to 6896
  151.5386  133.3398  159.2967 H   0  0  0  0  0  0  0  0  0  0  0  0  # atno 6909 bound_to 6896
  145.6566  140.9266  143.0956 H   0  0  0  0  0  0  0  0  0  0  0  0  # atno 7974 bound_to 7965
  156.0636  140.3293  155.7490 H   0  0  0  0  0  0  0  0  0  0  0  0  # atno 8008 bound_to 7997
  155.5417  140.0602  157.2886 H   0  0  0  0  0  0  0  0  0  0  0  0  # atno 8009 bound_to 7997
  154.4493  140.1909  156.0585 H   0  0  0  0  0  0  0  0  0  0  0  0  # atno 8010 bound_to 7997
  139.8285  144.6698  150.9429 H   0  0  0  0  0  0  0  0  0  0  0  0  # atno 10167 bound_to 10162
  156.5452  130.8581  151.2762 H   0  0  0  0  0  0  0  0  0  0  0  0  # atno 10718 bound_to 10713
  153.8790  135.6823  153.4768 H   0  0  0  0  0  0  0  0  0  0  0  0  # atno 10763 bound_to 10752
  153.1244  135.4725  154.9246 H   0  0  0  0  0  0  0  0  0  0  0  0  # atno 10764 bound_to 10752
  154.7678  135.3229  154.8203 H   0  0  0  0  0  0  0  0  0  0  0  0  # atno 10765 bound_to 10752
  139.8782  134.8947  156.4148 H   0  0  0  0  0  0  0  0  0  0  0  0  # atno 11005 bound_to 11000
  144.7103  139.8395  143.7416 LP  0  0  0  0  0  0  0  0  0  0  0  0  # atno 17320 bound_to 7965
  146.1160  139.4170  143.0258 LP  0  0  0  0  0  0  0  0  0  0  0  0  # atno 17321 bound_to 7965
  140.7808  143.4023  151.1128 LP  0  0  0  0  0  0  0  0  0  0  0  0  # atno 17342 bound_to 10162
  139.7678  143.8539  152.3114 LP  0  0  0  0  0  0  0  0  0  0  0  0  # atno 17343 bound_to 10162
  157.7398  130.9838  150.2336 LP  0  0  0  0  0  0  0  0  0  0  0  0  # atno 17370 bound_to 10713
  156.2935  130.3749  149.7818 LP  0  0  0  0  0  0  0  0  0  0  0  0  # atno 17371 bound_to 10713
  140.9175  133.7668  155.9866 LP  0  0  0  0  0  0  0  0  0  0  0  0  # atno 17394 bound_to 11000
  140.8477  134.2991  157.5288 LP  0  0  0  0  0  0  0  0  0  0  0  0  # atno 17395 bound_to 11000

$$$$
