AV-unprocessed.smi:1813|AV-procd|sdf|7343|dock6
  -GOLD-   22720 9 03D 1   1.00000     0.00000
 Structure written by MMmdl.
 38 39  0  0  0  0  0  0  0  0  2 V2000
  148.7451  126.8117  150.6677 C   0  0  0  0  0  0  0  0  0  0  0  0
  149.2903  127.5185  151.8161 N   0  0  0  0  0  0  0  0  0  0  0  0
  148.5858  128.3521  152.5951 C   0  0  0  0  0  0  0  0  0  0  0  0
  147.3970  128.6105  152.4091 O   0  0  0  0  0  0  0  0  0  0  0  0
  149.3398  129.0018  153.7613 C   0  0  0  0  0  0  0  0  0  0  0  0
  149.4755  130.4739  153.6682 N   0  0  0  0  0  0  0  0  0  0  0  0
  150.0616  131.0631  154.8816 C   0  0  0  0  0  0  0  0  0  0  0  0
  150.2485  132.5810  154.7104 C   0  0  0  0  0  0  0  0  0  0  0  0
  148.9171  133.2735  154.3890 C   0  0  0  0  0  0  0  0  0  0  0  0
  149.1461  134.6909  154.1219 N   0  0  0  0  0  0  0  0  0  0  0  0
  149.7048  135.5723  154.9638 C   0  0  0  0  0  0  0  0  0  0  0  0
  150.0757  135.2069  156.0819 O   0  0  0  0  0  0  0  0  0  0  0  0
  149.7989  136.8229  154.4573 N   0  5  0  0  0  0  0  0  0  0  0  0
  150.8752  137.5789  154.7285 C   0  0  0  0  0  0  0  0  0  0  0  0
  152.0236  137.0730  155.1924 N   0  0  0  0  0  0  0  0  0  0  0  0
  153.0078  138.0386  155.4112 C   0  0  0  0  0  0  0  0  0  0  0  0
  152.5958  139.3113  155.1167 C   0  0  0  0  0  0  0  0  0  0  0  0
  150.9498  139.3344  154.5510 S   0  0  0  0  0  0  0  0  0  0  0  0
  148.2768  132.5802  153.1756 C   0  0  0  0  0  0  0  0  0  0  0  0
  148.1586  131.0636  153.4044 C   0  0  0  0  0  0  0  0  0  0  0  0
  149.5200  126.2005  150.2055 H   0  0  0  0  0  0  0  0  0  0  0  0
  148.3726  127.5135  149.9204 H   0  0  0  0  0  0  0  0  0  0  0  0
  147.9273  126.1555  150.9685 H   0  0  0  0  0  0  0  0  0  0  0  0
  150.2611  127.3574  152.0434 H   0  0  0  0  0  0  0  0  0  0  0  0
  148.8031  128.7430  154.6752 H   0  0  0  0  0  0  0  0  0  0  0  0
  150.3283  128.5459  153.8432 H   0  0  0  0  0  0  0  0  0  0  0  0
  149.4273  130.8549  155.7453 H   0  0  0  0  0  0  0  0  0  0  0  0
  151.0372  130.6269  155.0954 H   0  0  0  0  0  0  0  0  0  0  0  0
  150.6780  133.0039  155.6193 H   0  0  0  0  0  0  0  0  0  0  0  0
  150.9689  132.7684  153.9123 H   0  0  0  0  0  0  0  0  0  0  0  0
  148.2581  133.1695  155.2531 H   0  0  0  0  0  0  0  0  0  0  0  0
  148.8560  135.0365  153.2190 H   0  0  0  0  0  0  0  0  0  0  0  0
  153.9744  137.7301  155.7805 H   0  0  0  0  0  0  0  0  0  0  0  0
  153.1550  140.2308  155.1978 H   0  0  0  0  0  0  0  0  0  0  0  0
  147.2886  132.9988  152.9811 H   0  0  0  0  0  0  0  0  0  0  0  0
  148.8726  132.7678  152.2810 H   0  0  0  0  0  0  0  0  0  0  0  0
  147.7210  130.6084  152.5149 H   0  0  0  0  0  0  0  0  0  0  0  0
  147.4774  130.8595  154.2326 H   0  0  0  0  0  0  0  0  0  0  0  0
  1  2  1  0  0  0  0
  1 21  1  0  0  0  0
  1 22  1  0  0  0  0
  1 23  1  0  0  0  0
  2  3  1  0  0  0  0
  2 24  1  0  0  0  0
  3  4  2  0  0  0  0
  3  5  1  0  0  0  0
  5  6  1  0  0  0  0
  5 25  1  0  0  0  0
  5 26  1  0  0  0  0
  6 20  1  0  0  0  0
  6  7  1  0  0  0  0
  7  8  1  0  0  0  0
  7 27  1  0  0  0  0
  7 28  1  0  0  0  0
  8  9  1  0  0  0  0
  8 29  1  0  0  0  0
  8 30  1  0  0  0  0
  9 10  1  0  0  0  0
  9 19  1  0  0  0  0
  9 31  1  0  0  0  0
 10 11  1  0  0  0  0
 10 32  1  0  0  0  0
 11 12  2  0  0  0  0
 11 13  1  0  0  0  0
 13 14  1  0  0  0  0
 14 18  1  0  0  0  0
 14 15  2  0  0  0  0
 15 16  1  0  0  0  0
 16 17  2  0  0  0  0
 16 33  1  0  0  0  0
 17 18  1  0  0  0  0
 17 34  1  0  0  0  0
 19 20  1  0  0  0  0
 19 35  1  0  0  0  0
 19 36  1  0  0  0  0
 20 37  1  0  0  0  0
 20 38  1  0  0  0  0
M  CHG  1  13  -1
M  END
> <s_m_source_file>
AV-unprocessed.smi

> <i_m_source_file_index>
1813

> <i_lp_mmshare_version>
43012

> <i_f3d_flags>
0

> <s_epik_input>
W0NIM11bTkhdQyg9TylbQ0gyXU4xW0NIMl1bQ0gyXVtDSF0oW0NIMl1bQ0gyXTEpW05IXUMoPU8pW05IXWMybltjSF1bY0hdczI=

> <s_epik_cmdline>
J2VwaWtfcHl0aG9uJywgJy1waCcsICc3LjAnLCAnLXRuJywgJzgnLCAnLW1hJywgJzIwMCcsICctbWV0YWxfYmluZGluZycsICctaW1hZScsICc8aW5maWxlLm1hZT4nLCAnLW9tYWUnLCAnPG91dGZpbGUubWFlPic=

> <r_lp_tautomer_probability>
0.999

> <r_epik_Ionization_Penalty>
7.12803

> <r_epik_Ionization_Penalty_Charging>
5.8513

> <r_epik_Ionization_Penalty_Neutral>
1.27674

> <r_epik_State_Penalty>
5.99796

> <r_epik_Charging_Adjusted_Penalty>
11.8493

> <i_epik_Tot_Q>
-1

> <i_epik_Tot_abs_Q>
1

> <r_epik_Metal_State_Penalty>
1.97283

> <b_epik_Metal_Only>
1

> <s_lp_Force_Field>
OPLS_2005

> <r_lp_Energy>
7.89498

> <b_lp_Chiralities_Consistent>
1

> <s_lp_Variant>
AV-unprocessed.smi:1813-4

> <Gold.Version>
5.8.1

> <Gold.Id.Protein>
6NUR|6NUR_protein|mol2

> <Gold.PLP.Fitness>
42.1581

> <Gold.PLP.PLP>
-34.0240

> <Gold.PLP.part.hbond>
-3.0000

> <Gold.PLP.part.metal>
0.0000

> <Gold.PLP.part.buried>
-3.9225

> <Gold.PLP.part.nonpolar>
-28.8752

> <Gold.PLP.part.repulsive>
1.6790

> <Gold.PLP.ligand.clash>
0.0000

> <Gold.PLP.ligand.torsion>
0.4028

> <Gold.PLP.Chemscore.Hbond>
2.9680

> <Gold.PLP.Chemscore.CHOScore>
0.0000

> <Gold.PLP.Chemscore.Metal>
0.0000

> <Gold.Chemscore.Hbonds>
donor molecule, donor type, donor heavy atom, donor atom, acceptor molecule, acceptor atom, score
      L1  H     2    24       P1 10737  0.96
      L1  H    10    32       P1  7948  1.00
      P1  H 10752 10763       L1    15  0.94

> <Gold.PLP.Chemscore.Internal.Correction>
0.0357

> <Gold.Rescore>
     Score         DG    S(hbond)    S(metal)    S(lipo)     H(rot)  DE(clash)    DE(int)     intcor
     12.23     -14.95       1.90        0.00      64.58       1.73       0.53       2.19       ----

> <Gold.Chemscore.Fitness>
12.2303

> <Gold.Chemscore.DG>
-14.9473

> <Gold.Chemscore.ZeroCoef>
-5.4800

> <Gold.Chemscore.Hbond>
1.9016

> <Gold.Chemscore.Metal>
0.0000

> <Gold.Chemscore.Lipo>
64.5754

> <Gold.Chemscore.Internal_Hbond>
0.0000

> <Gold.Chemscore.DEClash>
0.5303

> <Gold.Chemscore.DEInternal>
2.1867

> <Gold.Chemscore.Rot>
1.7341

> <Gold.Chemscore.Internal.Correction>
   9.000000E+99

> <Gold.Chemscore.Hbonds>
donor molecule, donor type, donor heavy atom, donor atom, acceptor molecule, acceptor atom, score
      L1  H     2    24       P1 10737  0.92
      L1  H    10    32       P1  7948  0.38
      P1  H 10752 10763       L1    15  0.41

> <Gold.Chemscore.Hbond.Weighted>
-6.3512

> <Gold.Chemscore.Metal.Weighted>
-0.0000

> <Gold.Chemscore.Lipo.Weighted>
-7.5553

> <Gold.Chemscore.Internal_Hbond.Weighted>
0.0000

> <Gold.Chemscore.DEClash.Weighted>
0.5303

> <Gold.Chemscore.DEInternal.Weighted>
2.1867

> <Gold.Chemscore.Rot.Weighted>
4.4392

> <Gold.Chemscore.Internal.Correction.Weighted>
   9.000000E+99

> <Gold.Protein.RotatedTorsions>
[ 6907 6896 6895 6894 ] final  -60.35 input  -60.11 | X-H torsion
[ 7974 7965 7964 7962 ] final -101.28 input  175.53 | X-H torsion
[ 8008 7997 7996 7995 ] final -103.41 input   59.86 | X-H torsion
[ 10167 10162 10161 10158 ] final   71.26 input  -65.29 | X-H torsion
[ 10718 10713 10712 10709 ] final  146.60 input   66.30 | X-H torsion
[ 10763 10752 10751 10750 ] final   59.67 input  -60.55 | X-H torsion
[ 11005 11000 10999 10996 ] final   94.26 input  -57.11 | X-H torsion

> <Gold.Protein.ActiveResidues>
 VAL166  LYS551  ARG553  GLY616  TRP617  ASP618  TYR619  PRO620  LYS621  CYS622 
 ASP623  PHE694  ASN695  SER759  ASP760  ASP761  ALA762  ILE779  LEU786  VAL792 
 PHE793  MET794  SER795  GLU796  ALA797  LYS798  CYS799  TRP800  GLU811  SER814 

> <Gold.Protein.RotatedAtoms>
  150.7862  134.6848  159.6463 H   0  0  0  0  0  0  0  0  0  0  0  0  # atno 6907 bound_to 6896
  152.3959  134.6363  160.0098 H   0  0  0  0  0  0  0  0  0  0  0  0  # atno 6908 bound_to 6896
  151.6649  133.3279  159.3219 H   0  0  0  0  0  0  0  0  0  0  0  0  # atno 6909 bound_to 6896
  145.2836  140.9333  143.2918 H   0  0  0  0  0  0  0  0  0  0  0  0  # atno 7974 bound_to 7965
  154.8706  140.0423  157.1722 H   0  0  0  0  0  0  0  0  0  0  0  0  # atno 8008 bound_to 7997
  154.8743  140.2963  155.5442 H   0  0  0  0  0  0  0  0  0  0  0  0  # atno 8009 bound_to 7997
  156.2999  140.2423  156.3737 H   0  0  0  0  0  0  0  0  0  0  0  0  # atno 8010 bound_to 7997
  140.0480  144.5335  150.7384 H   0  0  0  0  0  0  0  0  0  0  0  0  # atno 10167 bound_to 10162
  157.3312  131.0920  151.1161 H   0  0  0  0  0  0  0  0  0  0  0  0  # atno 10718 bound_to 10713
  152.9900  135.5563  154.5751 H   0  0  0  0  0  0  0  0  0  0  0  0  # atno 10763 bound_to 10752
  154.5144  135.2804  155.1318 H   0  0  0  0  0  0  0  0  0  0  0  0  # atno 10764 bound_to 10752
  154.2697  135.6365  153.5358 H   0  0  0  0  0  0  0  0  0  0  0  0  # atno 10765 bound_to 10752
  139.8800  134.8836  156.3839 H   0  0  0  0  0  0  0  0  0  0  0  0  # atno 11005 bound_to 11000
  144.9232  139.4386  143.6531 LP  0  0  0  0  0  0  0  0  0  0  0  0  # atno 17320 bound_to 7965
  146.3208  139.8104  142.8947 LP  0  0  0  0  0  0  0  0  0  0  0  0  # atno 17321 bound_to 7965
  140.7230  143.2607  151.4216 LP  0  0  0  0  0  0  0  0  0  0  0  0  # atno 17342 bound_to 10162
  139.5971  144.1374  152.2156 LP  0  0  0  0  0  0  0  0  0  0  0  0  # atno 17343 bound_to 10162
  157.2409  130.6569  149.5889 LP  0  0  0  0  0  0  0  0  0  0  0  0  # atno 17370 bound_to 10713
  155.9696  130.4569  150.5941 LP  0  0  0  0  0  0  0  0  0  0  0  0  # atno 17371 bound_to 10713
  140.9380  133.7534  156.0109 LP  0  0  0  0  0  0  0  0  0  0  0  0  # atno 17394 bound_to 11000
  140.8253  134.3242  157.5368 LP  0  0  0  0  0  0  0  0  0  0  0  0  # atno 17395 bound_to 11000

$$$$
