#       Name:                AV-unprocessed.smi:1280
#       Creating user name   scv26
#       Creation time:       Fri Mar 27 04:49:26 2020


#       File generated by GOLD software.
#

@<TRIPOS>MOLECULE
AV-unprocessed.smi:1280
    52    53     1
SMALL
NO_CHARGES


@<TRIPOS>ATOM
      1 ****        -5.9705   3.9304  -2.0419 C.3            1 S1                 0.0000
      2 ****        -5.7252   2.2383  -1.3685 S.o2           1 S1                 0.0000
      3 ****        -6.1849   2.2214   0.0286 O.2            1 S1                 0.0000
      4 ****        -6.2489   1.2583  -2.3320 O.2            1 S1                 0.0000
      5 ****        -4.0083   2.0870  -1.3581 N.3            1 S1                 0.0000
      6 ****        -3.4201   1.0502  -0.5131 C.3            1 S1                 0.0000
      7 ****        -1.9061   0.9705  -0.7439 C.3            1 S1                 0.0000
      8 ****        -1.2408  -0.1074   0.1260 C.3            1 S1                 0.0000
      9 ****         0.1991  -0.1570  -0.0912 N.am           1 S1                 0.0000
     10 ****         0.8084  -0.8099  -1.0943 C.2            1 S1                 0.0000
     11 ****         0.2006  -1.4076  -1.9825 O.2            1 S1                 0.0000
     12 ****         2.3117  -0.7165  -1.1254 C.ar           1 S1                 0.0000
     13 ****         2.9442  -0.4704  -2.3648 C.ar           1 S1                 0.0000
     14 ****         4.3451  -0.3694  -2.4240 C.ar           1 S1                 0.0000
     15 ****         5.0729  -0.5257  -1.2325 C.ar           1 S1                 0.0000
     16 ****         4.4919  -0.7803  -0.0431 N.ar           1 S1                 0.0000
     17 ****         3.1416  -0.8881   0.0250 C.ar           1 S1                 0.0000
     18 ****         2.6057  -1.2214   1.2855 N.3            1 S1                 0.0000
     19 ****         2.2311  -2.6237   1.4209 C.3            1 S1                 0.0000
     20 ****         1.3889  -2.8169   2.6935 C.3            1 S1                 0.0000
     21 ****         2.1070  -2.3278   3.8234 O.3            1 S1                 0.0000
     22 ****         2.4050  -0.9385   3.7119 C.3            1 S1                 0.0000
     23 ****         3.2783  -0.6961   2.4689 C.3            1 S1                 0.0000
     24 ****        -7.0373   4.1460  -2.0974 H              1 S1                 0.0000
     25 ****        -5.5364   3.9945  -3.0392 H              1 S1                 0.0000
     26 ****        -5.4889   4.6564  -1.3872 H              1 S1                 0.0000
     27 ****        -3.6471   2.0232  -2.3097 H              1 S1                 0.0000
     28 ****        -3.6376   1.2735   0.5320 H              1 S1                 0.0000
     29 ****        -3.8884   0.0933  -0.7464 H              1 S1                 0.0000
     30 ****        -1.7125   0.7623  -1.7972 H              1 S1                 0.0000
     31 ****        -1.4528   1.9397  -0.5312 H              1 S1                 0.0000
     32 ****        -1.4143   0.1064   1.1810 H              1 S1                 0.0000
     33 ****        -1.6835  -1.0858  -0.0687 H              1 S1                 0.0000
     34 ****         0.7794   0.3253   0.5799 H              1 S1                 0.0000
     35 ****         2.3630  -0.3468  -3.2674 H              1 S1                 0.0000
     36 ****         4.8483  -0.1732  -3.3591 H              1 S1                 0.0000
     37 ****         6.1504  -0.4516  -1.2349 H              1 S1                 0.0000
     38 ****         1.6709  -2.9627   0.5493 H              1 S1                 0.0000
     39 ****         3.1357  -3.2312   1.4743 H              1 S1                 0.0000
     40 ****         0.4316  -2.3001   2.6065 H              1 S1                 0.0000
     41 ****         1.1684  -3.8741   2.8418 H              1 S1                 0.0000
     42 ****         1.4804  -0.3616   3.6560 H              1 S1                 0.0000
     43 ****         2.9305  -0.6139   4.6100 H              1 S1                 0.0000
     44 ****         4.2435  -1.1891   2.5943 H              1 S1                 0.0000
     45 ****         3.4692   0.3707   2.3461 H              1 S1                 0.0000
     46 ****        -3.7127   2.9320  -0.9126 LP             1 S1                 0.0000
     47 ****        -0.7993  -1.4235  -1.9807 LP             1 S1                 0.0000
     48 ****         0.7068  -1.8773  -2.7059 LP             1 S1                 0.0000
     49 ****         5.0500  -0.8885   0.7795 LP             1 S1                 0.0000
     50 ****         1.7580  -0.6911   1.2713 LP             1 S1                 0.0000
     51 ****         2.9647  -2.8356   3.9044 LP             1 S1                 0.0000
     52 ****         1.5545  -2.4738   4.6440 LP             1 S1                 0.0000
@<TRIPOS>BOND
    1    1    2 1     
    2    1   24 1     
    3    1   25 1     
    4    1   26 1     
    5    2    3 2     
    6    2    4 2     
    7    2    5 1     
    8    5    6 1     
    9    5   27 1     
   10    6    7 1     
   11    6   28 1     
   12    6   29 1     
   13    7    8 1     
   14    7   30 1     
   15    7   31 1     
   16    8    9 1     
   17    8   32 1     
   18    8   33 1     
   19    9   10 am    
   20    9   34 1     
   21   10   11 2     
   22   10   12 1     
   23   12   17 ar    
   24   12   13 ar    
   25   13   14 ar    
   26   13   35 1     
   27   14   15 ar    
   28   14   36 1     
   29   15   16 ar    
   30   15   37 1     
   31   16   17 ar    
   32   17   18 1     
   33   18   23 1     
   34   18   19 1     
   35   19   20 1     
   36   19   38 1     
   37   19   39 1     
   38   20   21 1     
   39   20   40 1     
   40   20   41 1     
   41   21   22 1     
   42   22   23 1     
   43   22   42 1     
   44   22   43 1     
   45   23   44 1     
   46   23   45 1     
   47    5   46 1     
   48   11   47 1     
   49   11   48 1     
   50   16   49 1     
   51   18   50 1     
   52   21   51 1     
   53   21   52 1     
@<TRIPOS>SUBSTRUCTURE
      1 S1             1
@<TRIPOS>SET
LONE_PAIRS      STATIC     ATOMS    <user>   **** ""
9 3 4 46 47 48 49 50 51 52
DONOR_HYDROGENS      STATIC     ATOMS    <user>   **** ""
2 27 34
ATOM$BLUE        STATIC     ATOMS    COLORGROUP SYSTEM
9 3 4 46 47 48 49 50 51 52
ATOM$RED        STATIC     ATOMS    COLORGROUP SYSTEM
2 27 34
