AV-unprocessed.smi:1677|AV-procd|sdf|6724|dock6
  -GOLD-   22720 7463D 1   1.00000     0.00000
 Structure written by MMmdl.
 36 37  0  0  0  0  0  0  0  0  1 V2000
  148.1012  141.7278  154.6169 C   0  0  0  0  0  0  0  0  0  0  0  0
  149.5089  141.1260  154.7249 C   0  0  2  0  0  0  0  0  0  0  0  0
  149.4532  139.5983  154.9346 C   0  0  0  0  0  0  0  0  0  0  0  0
  150.7488  138.9640  154.7702 N   0  0  0  0  0  0  0  0  0  0  0  0
  151.9622  139.3892  155.2942 C   0  0  0  0  0  0  0  0  0  0  0  0
  152.9069  138.4730  154.8907 C   0  0  0  0  0  0  0  0  0  0  0  0
  152.3021  137.4847  154.1176 N   0  0  0  0  0  0  0  0  0  0  0  0
  151.0256  137.8442  154.0877 C   0  0  0  0  0  0  0  0  0  0  0  0
  150.2211  141.7741  155.8256 N   0  0  0  0  0  0  0  0  0  0  0  0
  149.9631  141.6060  157.1328 C   0  0  0  0  0  0  0  0  0  0  0  0
  149.0997  140.8387  157.5596 O   0  0  0  0  0  0  0  0  0  0  0  0
  150.7910  142.4531  158.1071 C   0  0  2  0  0  0  0  0  0  0  0  0
  151.3786  143.7010  157.4088 C   0  0  0  0  0  0  0  0  0  0  0  0
  152.4063  144.4097  158.2733 C   0  0  0  0  0  0  0  0  0  0  0  0
  152.9852  143.8448  159.3468 C   0  0  0  0  0  0  0  0  0  0  0  0
  152.6802  142.4328  159.8150 C   0  0  0  0  0  0  0  0  0  0  0  0
  151.9149  141.6189  158.7544 C   0  0  0  0  0  0  0  0  0  0  0  0
  147.5509  141.2904  153.7834 H   0  0  0  0  0  0  0  0  0  0  0  0
  148.1467  142.8047  154.4505 H   0  0  0  0  0  0  0  0  0  0  0  0
  147.5227  141.5539  155.5249 H   0  0  0  0  0  0  0  0  0  0  0  0
  150.0176  141.3298  153.7808 H   0  0  0  0  0  0  0  0  0  0  0  0
  149.0671  139.3600  155.9269 H   0  0  0  0  0  0  0  0  0  0  0  0
  148.7680  139.1463  154.2163 H   0  0  0  0  0  0  0  0  0  0  0  0
  152.0486  140.2790  155.9000 H   0  0  0  0  0  0  0  0  0  0  0  0
  153.9668  138.4493  155.0962 H   0  0  0  0  0  0  0  0  0  0  0  0
  150.2716  137.2731  153.5658 H   0  0  0  0  0  0  0  0  0  0  0  0
  150.9501  142.4249  155.5719 H   0  0  0  0  0  0  0  0  0  0  0  0
  150.1315  142.7940  158.9077 H   0  0  0  0  0  0  0  0  0  0  0  0
  151.8596  143.4391  156.4655 H   0  0  0  0  0  0  0  0  0  0  0  0
  150.5783  144.4033  157.1732 H   0  0  0  0  0  0  0  0  0  0  0  0
  152.6793  145.4132  157.9817 H   0  0  0  0  0  0  0  0  0  0  0  0
  153.7010  144.4068  159.9286 H   0  0  0  0  0  0  0  0  0  0  0  0
  153.6125  141.9278  160.0687 H   0  0  0  0  0  0  0  0  0  0  0  0
  152.0950  142.5003  160.7327 H   0  0  0  0  0  0  0  0  0  0  0  0
  151.5140  140.7104  159.2070 H   0  0  0  0  0  0  0  0  0  0  0  0
  152.6149  141.2928  157.9832 H   0  0  0  0  0  0  0  0  0  0  0  0
  1  2  1  0  0  0  0
  1 18  1  0  0  0  0
  1 19  1  0  0  0  0
  1 20  1  0  0  0  0
  2  3  1  0  0  0  0
  2  9  1  0  0  0  0
  2 21  1  0  0  0  0
  3  4  1  0  0  0  0
  3 22  1  0  0  0  0
  3 23  1  0  0  0  0
  4  8  1  0  0  0  0
  4  5  1  0  0  0  0
  5  6  2  0  0  0  0
  5 24  1  0  0  0  0
  6  7  1  0  0  0  0
  6 25  1  0  0  0  0
  7  8  2  0  0  0  0
  8 26  1  0  0  0  0
  9 10  1  0  0  0  0
  9 27  1  0  0  0  0
 10 11  2  0  0  0  0
 10 12  1  0  0  0  0
 12 17  1  0  0  0  0
 12 13  1  0  0  0  0
 12 28  1  0  0  0  0
 13 14  1  0  0  0  0
 13 29  1  0  0  0  0
 13 30  1  0  0  0  0
 14 15  2  0  0  0  0
 14 31  1  0  0  0  0
 15 16  1  0  0  0  0
 15 32  1  0  0  0  0
 16 17  1  0  0  0  0
 16 33  1  0  0  0  0
 16 34  1  0  0  0  0
 17 35  1  0  0  0  0
 17 36  1  0  0  0  0
M  END
> <s_m_source_file>
AV-unprocessed.smi

> <i_m_source_file_index>
1677

> <i_lp_mmshare_version>
43012

> <i_f3d_flags>
0

> <s_epik_input>
W2NIXTFuW2NIXVtjSF1uMVtDSDJdW0NAQEhdKFtDSDNdKVtOSF1DKD1PKVtDQEBIXTJbQ0gyXVtDSF09W0NIXVtDSDJdW0NIMl0y

> <s_epik_cmdline>
J2VwaWtfcHl0aG9uJywgJy1waCcsICc3LjAnLCAnLXRuJywgJzgnLCAnLW1hJywgJzIwMCcsICctbWV0YWxfYmluZGluZycsICctaW1hZScsICc8aW5maWxlLm1hZT4nLCAnLW9tYWUnLCAnPG91dGZpbGUubWFlPic=

> <r_lp_tautomer_probability>
1

> <r_epik_Ionization_Penalty>
0.640435

> <r_epik_Ionization_Penalty_Charging>
0.640435

> <r_epik_Ionization_Penalty_Neutral>
2.11108e-08

> <r_epik_State_Penalty>
0.658069

> <r_epik_Charging_Adjusted_Penalty>
1.2985

> <i_epik_Tot_Q>
0

> <i_epik_Tot_abs_Q>
0

> <r_epik_Metal_State_Penalty>
0.311689

> <b_epik_Metal_Only>
0

> <s_lp_Force_Field>
OPLS_2005

> <r_lp_Energy>
9.8402

> <b_lp_Chiralities_Consistent>
1

> <s_lp_Variant>
AV-unprocessed.smi:1677-5

> <Gold.Version>
5.8.1

> <Gold.Id.Protein>
6NUR|6NUR_protein|mol2

> <Gold.PLP.Fitness>
46.6254

> <Gold.PLP.PLP>
-42.9162

> <Gold.PLP.part.hbond>
-1.2633

> <Gold.PLP.part.metal>
0.0000

> <Gold.PLP.part.buried>
-3.0340

> <Gold.PLP.part.nonpolar>
-39.8166

> <Gold.PLP.part.repulsive>
0.3129

> <Gold.PLP.ligand.clash>
0.0215

> <Gold.PLP.ligand.torsion>
0.8966

> <Gold.PLP.Chemscore.Hbond>
0.8000

> <Gold.PLP.Chemscore.CHOScore>
1.0331

> <Gold.PLP.Chemscore.Metal>
0.0000

> <Gold.Chemscore.Hbonds>
donor molecule, donor type, donor heavy atom, donor atom, acceptor molecule, acceptor atom, score
      P1  H 10752 10763       L1     7  0.78
      L1  C     8    26       P1  7948  0.87
      L1  C     8    26       P1  7949  0.16

> <Gold.PLP.Chemscore.Internal.Correction>
0.0248

> <Gold.Rescore>
     Score         DG    S(hbond)    S(metal)    S(lipo)     H(rot)  DE(clash)    DE(int)     intcor
     13.08     -16.00       0.80        0.00     105.40       1.75       0.07       2.85       ----

> <Gold.Chemscore.Fitness>
13.0775

> <Gold.Chemscore.DG>
-15.9975

> <Gold.Chemscore.ZeroCoef>
-5.4800

> <Gold.Chemscore.Hbond>
0.7962

> <Gold.Chemscore.Metal>
0.0000

> <Gold.Chemscore.Lipo>
105.3981

> <Gold.Chemscore.Internal_Hbond>
0.0000

> <Gold.Chemscore.DEClash>
0.0732

> <Gold.Chemscore.DEInternal>
2.8467

> <Gold.Chemscore.Rot>
1.7475

> <Gold.Chemscore.Internal.Correction>
   9.000000E+99

> <Gold.Chemscore.Hbonds>
donor molecule, donor type, donor heavy atom, donor atom, acceptor molecule, acceptor atom, score
      P1  H 10752 10763       L1     7  0.76

> <Gold.Chemscore.Hbond.Weighted>
-2.6594

> <Gold.Chemscore.Metal.Weighted>
-0.0000

> <Gold.Chemscore.Lipo.Weighted>
-12.3316

> <Gold.Chemscore.Internal_Hbond.Weighted>
0.0000

> <Gold.Chemscore.DEClash.Weighted>
0.0732

> <Gold.Chemscore.DEInternal.Weighted>
2.8467

> <Gold.Chemscore.Rot.Weighted>
4.4735

> <Gold.Chemscore.Internal.Correction.Weighted>
   9.000000E+99

> <Gold.Protein.RotatedTorsions>
[ 6907 6896 6895 6894 ] final  120.12 input  -60.11 | X-H torsion
[ 7974 7965 7964 7962 ] final  154.20 input  175.53 | X-H torsion
[ 8008 7997 7996 7995 ] final   49.27 input   59.86 | X-H torsion
[ 10167 10162 10161 10158 ] final  -58.48 input  -65.29 | X-H torsion
[ 10718 10713 10712 10709 ] final  135.06 input   66.30 | X-H torsion
[ 10763 10752 10751 10750 ] final   32.45 input  -60.55 | X-H torsion
[ 11005 11000 10999 10996 ] final -127.10 input  -57.11 | X-H torsion

> <Gold.Protein.ActiveResidues>
 VAL166  LYS551  ARG553  GLY616  TRP617  ASP618  TYR619  PRO620  LYS621  CYS622 
 ASP623  PHE694  ASN695  SER759  ASP760  ASP761  ALA762  ILE779  LEU786  VAL792 
 PHE793  MET794  SER795  GLU796  ALA797  LYS798  CYS799  TRP800  GLU811  SER814 

> <Gold.Protein.RotatedAtoms>
  152.4422  133.7469  159.6671 H   0  0  0  0  0  0  0  0  0  0  0  0  # atno 6907 bound_to 6896
  150.8314  133.8074  159.3103 H   0  0  0  0  0  0  0  0  0  0  0  0  # atno 6908 bound_to 6896
  151.5726  135.1064  160.0050 H   0  0  0  0  0  0  0  0  0  0  0  0  # atno 6909 bound_to 6896
  144.8104  139.6901  143.6144 H   0  0  0  0  0  0  0  0  0  0  0  0  # atno 7974 bound_to 7965
  155.3994  140.3437  155.4256 H   0  0  0  0  0  0  0  0  0  0  0  0  # atno 8008 bound_to 7997
  156.1512  140.1571  156.8798 H   0  0  0  0  0  0  0  0  0  0  0  0  # atno 8009 bound_to 7997
  154.5054  140.0803  156.7865 H   0  0  0  0  0  0  0  0  0  0  0  0  # atno 8010 bound_to 7997
  140.6195  143.2414  151.5516 H   0  0  0  0  0  0  0  0  0  0  0  0  # atno 10167 bound_to 10162
  157.4609  131.1073  150.9920 H   0  0  0  0  0  0  0  0  0  0  0  0  # atno 10718 bound_to 10713
  153.0262  135.6413  154.1357 H   0  0  0  0  0  0  0  0  0  0  0  0  # atno 10763 bound_to 10752
  154.1085  135.2854  155.3237 H   0  0  0  0  0  0  0  0  0  0  0  0  # atno 10764 bound_to 10752
  154.6348  135.5480  153.7784 H   0  0  0  0  0  0  0  0  0  0  0  0  # atno 10765 bound_to 10752
  140.9627  134.0913  157.3951 H   0  0  0  0  0  0  0  0  0  0  0  0  # atno 11005 bound_to 11000
  146.2402  139.5986  142.9496 LP  0  0  0  0  0  0  0  0  0  0  0  0  # atno 17320 bound_to 7965
  145.5337  141.0425  143.2369 LP  0  0  0  0  0  0  0  0  0  0  0  0  # atno 17321 bound_to 7965
  139.5426  144.2606  152.1381 LP  0  0  0  0  0  0  0  0  0  0  0  0  # atno 17342 bound_to 10162
  140.1823  144.4833  150.6522 LP  0  0  0  0  0  0  0  0  0  0  0  0  # atno 17343 bound_to 10162
  157.0718  130.5867  149.5404 LP  0  0  0  0  0  0  0  0  0  0  0  0  # atno 17370 bound_to 10713
  156.0028  130.5110  150.7725 LP  0  0  0  0  0  0  0  0  0  0  0  0  # atno 17371 bound_to 10713
  139.8884  135.0097  156.6617 LP  0  0  0  0  0  0  0  0  0  0  0  0  # atno 17394 bound_to 11000
  140.7443  133.8951  155.8301 LP  0  0  0  0  0  0  0  0  0  0  0  0  # atno 17395 bound_to 11000

$$$$
