#       Name:                AV-unprocessed.smi:1205
#       Creating user name   scv26
#       Creation time:       Fri Mar 27 04:07:05 2020


#       File generated by GOLD software.
#

@<TRIPOS>MOLECULE
AV-unprocessed.smi:1205
    52    53     1
SMALL
NO_CHARGES


@<TRIPOS>ATOM
      1 ****        -6.1892   3.6718  -0.1245 C.3            1 S1                 0.0000
      2 ****        -5.5221   2.3762   0.2328 C.2            1 S1                 0.0000
      3 ****        -4.1264   2.0921   0.2840 C.2            1 S1                 0.0000
      4 ****        -4.1005   0.7778   0.6631 C.2            1 S1                 0.0000
      5 ****        -3.0273  -0.0283   0.8800 N.am           1 S1                 0.0000
      6 ****        -1.7232   0.2422   0.6970 C.2            1 S1                 0.0000
      7 ****        -1.2629   1.3074   0.2853 O.2            1 S1                 0.0000
      8 ****        -0.9599  -0.8131   1.0147 N.am           1 S1                 0.0000
      9 ****         0.4962  -0.8473   0.9203 C.3            1 S1                 0.0000
     10 ****         0.9929  -1.0180  -0.5386 C.3            1 S1                 0.0000
     11 ****         0.4504  -2.2976  -1.2037 C.3            1 S1                 0.0000
     12 ****         2.4781  -0.9471  -0.6660 N.4            1 S1                 1.0000
     13 ****         3.2390  -1.8847   0.2042 C.3            1 S1                 0.0000
     14 ****         4.7259  -1.8981  -0.1830 C.3            1 S1                 0.0000
     15 ****         5.3209  -0.4853  -0.1158 C.3            1 S1                 0.0000
     16 ****         4.5028   0.4826  -0.9883 C.3            1 S1                 0.0000
     17 ****         5.0627   1.9101  -0.9188 C.3            1 S1                 0.0000
     18 ****         3.0148   0.4381  -0.5850 C.3            1 S1                 0.0000
     19 ****        -5.3949   0.3346   0.8219 N.pl3          1 S1                 0.0000
     20 ****        -5.8804  -0.9730   1.2182 C.3            1 S1                 0.0000
     21 ****        -6.2708   1.3270   0.5542 N.2            1 S1                 0.0000
     22 ****        -5.4548   4.4357  -0.3806 H              1 S1                 0.0000
     23 ****        -6.7839   4.0493   0.7076 H              1 S1                 0.0000
     24 ****        -6.8522   3.5493  -0.9811 H              1 S1                 0.0000
     25 ****        -3.3014   2.7568   0.0770 H              1 S1                 0.0000
     26 ****        -3.2482  -0.9560   1.2107 H              1 S1                 0.0000
     27 ****        -1.4168  -1.6499   1.3474 H              1 S1                 0.0000
     28 ****         0.9046   0.0582   1.3711 H              1 S1                 0.0000
     29 ****         0.8337  -1.6789   1.5384 H              1 S1                 0.0000
     30 ****         0.5941  -0.1914  -1.1284 H              1 S1                 0.0000
     31 ****        -0.6371  -2.2746  -1.2770 H              1 S1                 0.0000
     32 ****         0.7179  -3.1941  -0.6449 H              1 S1                 0.0000
     33 ****         0.8373  -2.4069  -2.2173 H              1 S1                 0.0000
     34 ****         3.1397  -1.5908   1.2499 H              1 S1                 0.0000
     35 ****         2.8410  -2.8951   0.1175 H              1 S1                 0.0000
     36 ****         5.2774  -2.5658   0.4794 H              1 S1                 0.0000
     37 ****         4.8399  -2.2979  -1.1915 H              1 S1                 0.0000
     38 ****         5.3263  -0.1397   0.9190 H              1 S1                 0.0000
     39 ****         6.3610  -0.5048  -0.4433 H              1 S1                 0.0000
     40 ****         4.5807   0.1506  -2.0248 H              1 S1                 0.0000
     41 ****         5.0207   2.3041   0.0972 H              1 S1                 0.0000
     42 ****         4.4977   2.5859  -1.5615 H              1 S1                 0.0000
     43 ****         6.1029   1.9396  -1.2446 H              1 S1                 0.0000
     44 ****         2.4457   1.0919  -1.2473 H              1 S1                 0.0000
     45 ****         2.8890   0.8258   0.4268 H              1 S1                 0.0000
     46 ****        -5.3605  -1.7468   0.6529 H              1 S1                 0.0000
     47 ****        -6.9509  -1.0582   1.0263 H              1 S1                 0.0000
     48 ****        -5.6975  -1.1233   2.2824 H              1 S1                 0.0000
     49 ****         2.6679  -1.2411  -1.6135 H              1 S1                 0.0000
     50 ****        -1.8774   2.0622   0.0557 LP             1 S1                 0.0000
     51 ****        -0.2746   1.4178   0.1805 LP             1 S1                 0.0000
     52 ****        -7.2691   1.2818   0.5902 LP             1 S1                 0.0000
@<TRIPOS>BOND
    1    1    2 1     
    2    1   22 1     
    3    1   23 1     
    4    1   24 1     
    5    2   21 2     
    6    2    3 1     
    7    3    4 2     
    8    3   25 1     
    9    4    5 1     
   10    4   19 1     
   11    5    6 am    
   12    5   26 1     
   13    6    7 2     
   14    6    8 am    
   15    8    9 1     
   16    8   27 1     
   17    9   10 1     
   18    9   28 1     
   19    9   29 1     
   20   10   11 1     
   21   10   12 1     
   22   10   30 1     
   23   11   31 1     
   24   11   32 1     
   25   11   33 1     
   26   12   18 1     
   27   12   13 1     
   28   12   49 1     
   29   13   14 1     
   30   13   34 1     
   31   13   35 1     
   32   14   15 1     
   33   14   36 1     
   34   14   37 1     
   35   15   16 1     
   36   15   38 1     
   37   15   39 1     
   38   16   17 1     
   39   16   18 1     
   40   16   40 1     
   41   17   41 1     
   42   17   42 1     
   43   17   43 1     
   44   18   44 1     
   45   18   45 1     
   46   19   20 1     
   47   19   21 1     
   48   20   46 1     
   49   20   47 1     
   50   20   48 1     
   51    7   50 1     
   52    7   51 1     
   53   21   52 1     
@<TRIPOS>SUBSTRUCTURE
      1 S1             1
@<TRIPOS>SET
LONE_PAIRS      STATIC     ATOMS    <user>   **** ""
3 50 51 52
DONOR_HYDROGENS      STATIC     ATOMS    <user>   **** ""
3 26 27 49
ATOM$BLUE        STATIC     ATOMS    COLORGROUP SYSTEM
3 50 51 52
ATOM$RED        STATIC     ATOMS    COLORGROUP SYSTEM
3 26 27 49
