#       Name:                AV-unprocessed.smi:3
#       Creating user name   scv26
#       Creation time:       Thu Mar 26 15:14:18 2020


#       File generated by GOLD software.
#

@<TRIPOS>MOLECULE
AV-unprocessed.smi:3
    37    39     1
SMALL
NO_CHARGES


@<TRIPOS>ATOM
      1 ****        -0.6145   2.3102   0.2835 C.3            1 S1                 0.0000
      2 ****        -0.2236   1.1796  -0.5468 N.pl3          1 S1                 0.0000
      3 ****         1.1539   1.1454  -1.0439 C.3            1 S1                 0.0000
      4 ****         2.1540   0.7423   0.0394 C.3            1 S1                 0.0000
      5 ****         2.3121  -0.7326   0.4404 C.3            1 S1                 0.0000
      6 ****         3.8228  -0.5148   0.5668 C.3            1 S1                 0.0000
      7 ****         4.3396  -0.3387   1.8681 O.3            1 S1                 0.0000
      8 ****         3.6534   0.7437  -0.2900 C.3            1 S1                 0.0000
      9 ****        -1.0532   0.0324  -0.6152 C.ar           1 S1                 0.0000
     10 ****        -0.5719  -1.0507  -1.2875 N.ar           1 S1                 0.0000
     11 ****        -1.2555  -2.1942  -1.4227 C.ar           1 S1                 0.0000
     12 ****        -2.4754  -2.3675  -0.9102 N.pl3          1 S1                 1.0000
     13 ****        -3.0069  -1.3180  -0.2360 C.ar           1 S1                 0.0000
     14 ****        -4.2385  -1.2395   0.3786 N.pl3          1 S1                 0.0000
     15 ****        -4.4006   0.0072   0.9529 C.2            1 S1                 0.0000
     16 ****        -3.2749   0.7555   0.7186 C.2            1 S1                 0.0000
     17 ****        -2.3598  -0.0674  -0.0396 C.ar           1 S1                 0.0000
     18 ****         2.0138   1.3372   0.9442 H              1 S1                 0.0000
     19 ****         4.3988  -1.2860   0.0541 H              1 S1                 0.0000
     20 ****        -4.9409  -1.9646   0.4206 H              1 S1                 0.0000
     21 ****        -1.5000   2.7966  -0.1254 H              1 S1                 0.0000
     22 ****         0.1787   3.0576   0.3243 H              1 S1                 0.0000
     23 ****        -0.8157   1.9899   1.3061 H              1 S1                 0.0000
     24 ****         1.2503   0.5043  -1.9201 H              1 S1                 0.0000
     25 ****         1.3979   2.1443  -1.4070 H              1 S1                 0.0000
     26 ****         1.8046  -0.9988   1.3682 H              1 S1                 0.0000
     27 ****         2.0633  -1.4269  -0.3633 H              1 S1                 0.0000
     28 ****         4.3812  -1.1940   2.2680 H              1 S1                 0.0000
     29 ****         3.8587   0.5606  -1.3460 H              1 S1                 0.0000
     30 ****         4.1898   1.6214   0.0727 H              1 S1                 0.0000
     31 ****        -0.8289  -3.0266  -1.9632 H              1 S1                 0.0000
     32 ****        -5.3069   0.2630   1.4832 H              1 S1                 0.0000
     33 ****        -3.1152   1.7708   1.0471 H              1 S1                 0.0000
     34 ****        -2.9896  -3.2416  -1.0184 H              1 S1                 0.0000
     35 ****         3.7382   0.2591   2.3981 LP             1 S1                 0.0000
     36 ****         5.2539   0.0637   1.8226 LP             1 S1                 0.0000
     37 ****         0.3367  -0.9886  -1.7004 LP             1 S1                 0.0000
@<TRIPOS>BOND
    1    1    2 1     
    2    1   21 1     
    3    1   22 1     
    4    1   23 1     
    5    2    3 1     
    6    2    9 1     
    7    3    4 1     
    8    3   24 1     
    9    3   25 1     
   10    4   18 1     
   11    4    8 1     
   12    4    5 1     
   13    5    6 1     
   14    5   26 1     
   15    5   27 1     
   16    6   19 1     
   17    6    7 1     
   18    6    8 1     
   19    7   28 1     
   20    8   29 1     
   21    8   30 1     
   22    9   17 ar    
   23    9   10 ar    
   24   10   11 ar    
   25   11   12 ar    
   26   11   31 1     
   27   12   13 ar    
   28   12   34 1     
   29   13   17 ar    
   30   13   14 1     
   31   14   20 1     
   32   14   15 1     
   33   15   16 2     
   34   15   32 1     
   35   16   17 1     
   36   16   33 1     
   37    7   35 1     
   38    7   36 1     
   39   10   37 1     
@<TRIPOS>SUBSTRUCTURE
      1 S1             1
@<TRIPOS>SET
LONE_PAIRS      STATIC     ATOMS    <user>   **** ""
3 35 36 37
DONOR_HYDROGENS      STATIC     ATOMS    <user>   **** ""
3 28 34 20
ATOM$BLUE        STATIC     ATOMS    COLORGROUP SYSTEM
3 35 36 37
ATOM$RED        STATIC     ATOMS    COLORGROUP SYSTEM
3 28 34 20
