AV-unprocessed.smi:2583|AV-procd|sdf|10137|dock7
  -GOLD-   2272014153D 1   1.00000     0.00000
 Structure written by MMmdl.
 55 57  0  0  0  0  0  0  0  0  3 V2000
  153.1329  142.3883  161.1000 C   0  0  0  0  0  0  0  0  0  0  0  0
  152.4599  142.6565  159.7701 C   0  0  0  0  0  0  0  0  0  0  0  0
  152.2579  143.9738  159.3093 C   0  0  0  0  0  0  0  0  0  0  0  0
  151.6782  144.2631  158.1253 N   0  0  0  0  0  0  0  0  0  0  0  0
  151.2686  143.2338  157.3538 C   0  0  0  0  0  0  0  0  0  0  0  0
  151.4034  141.8785  157.7217 C   0  0  0  0  0  0  0  0  0  0  0  0
  150.9467  140.8875  156.8120 N   0  0  0  0  0  0  0  0  0  0  0  0
  150.3141  139.7354  157.0928 C   0  0  0  0  0  0  0  0  0  0  0  0
  149.9829  139.3631  158.2184 O   0  0  0  0  0  0  0  0  0  0  0  0
  150.0558  139.0350  155.9786 N   0  0  0  0  0  0  0  0  0  0  0  0
  149.3581  137.7527  155.9412 C   0  0  2  0  0  0  0  0  0  0  0  0
  150.2042  136.7080  155.2038 C   0  0  0  0  0  0  0  0  0  0  0  0
  149.4604  135.3656  155.0857 C   0  0  0  0  0  0  0  0  0  0  0  0
  148.1393  135.5185  154.4069 N   0  3  1  0  0  0  0  0  0  0  0  0
  147.3916  134.2386  154.1599 C   0  0  2  0  0  0  0  0  0  0  0  0
  147.0993  133.3796  155.4165 C   0  0  0  0  0  0  0  0  0  0  0  0
  148.3702  132.7303  155.9970 C   0  0  0  0  0  0  0  0  0  0  0  0
  149.0591  131.9041  154.9760 N   0  3  2  0  0  0  0  0  0  0  0  0
  150.2334  131.1923  155.5253 C   0  0  0  0  0  0  0  0  0  0  0  0
  149.3880  132.6840  153.7575 C   0  0  0  0  0  0  0  0  0  0  0  0
  148.1250  133.3228  153.1501 C   0  0  0  0  0  0  0  0  0  0  0  0
  147.3021  136.5246  155.1242 C   0  0  0  0  0  0  0  0  0  0  0  0
  148.0038  137.8874  155.2300 C   0  0  0  0  0  0  0  0  0  0  0  0
  152.0273  141.5885  158.9587 C   0  0  0  0  0  0  0  0  0  0  0  0
  153.2395  143.3044  161.6818 H   0  0  0  0  0  0  0  0  0  0  0  0
  154.1252  141.9657  160.9409 H   0  0  0  0  0  0  0  0  0  0  0  0
  152.5472  141.6795  161.6860 H   0  0  0  0  0  0  0  0  0  0  0  0
  152.5755  144.8199  159.9006 H   0  0  0  0  0  0  0  0  0  0  0  0
  150.8121  143.5032  156.4125 H   0  0  0  0  0  0  0  0  0  0  0  0
  151.0623  141.1098  155.8340 H   0  0  0  0  0  0  0  0  0  0  0  0
  150.3621  139.4173  155.0956 H   0  0  0  0  0  0  0  0  0  0  0  0
  149.1950  137.4015  156.9623 H   0  0  0  0  0  0  0  0  0  0  0  0
  150.4573  137.0708  154.2063 H   0  0  0  0  0  0  0  0  0  0  0  0
  151.1499  136.5583  155.7263 H   0  0  0  0  0  0  0  0  0  0  0  0
  150.1142  134.6987  154.5271 H   0  0  0  0  0  0  0  0  0  0  0  0
  149.3155  134.9242  156.0730 H   0  0  0  0  0  0  0  0  0  0  0  0
  146.4245  134.5160  153.7371 H   0  0  0  0  0  0  0  0  0  0  0  0
  146.5577  133.9364  156.1805 H   0  0  0  0  0  0  0  0  0  0  0  0
  146.4133  132.5802  155.1317 H   0  0  0  0  0  0  0  0  0  0  0  0
  149.0554  133.4911  156.3729 H   0  0  0  0  0  0  0  0  0  0  0  0
  148.0995  132.1021  156.8467 H   0  0  0  0  0  0  0  0  0  0  0  0
  150.9986  131.8954  155.8572 H   0  0  0  0  0  0  0  0  0  0  0  0
  150.6736  130.5373  154.7727 H   0  0  0  0  0  0  0  0  0  0  0  0
  149.9456  130.5734  156.3757 H   0  0  0  0  0  0  0  0  0  0  0  0
  150.1234  133.4529  153.9992 H   0  0  0  0  0  0  0  0  0  0  0  0
  149.8503  132.0251  153.0215 H   0  0  0  0  0  0  0  0  0  0  0  0
  147.4472  132.5249  152.8427 H   0  0  0  0  0  0  0  0  0  0  0  0
  148.3816  133.8433  152.2296 H   0  0  0  0  0  0  0  0  0  0  0  0
  146.3502  136.6771  154.6202 H   0  0  0  0  0  0  0  0  0  0  0  0
  147.0662  136.1537  156.1232 H   0  0  0  0  0  0  0  0  0  0  0  0
  147.3636  138.5858  155.7707 H   0  0  0  0  0  0  0  0  0  0  0  0
  148.1437  138.3053  154.2317 H   0  0  0  0  0  0  0  0  0  0  0  0
  152.1940  140.5743  159.2882 H   0  0  0  0  0  0  0  0  0  0  0  0
  148.3442  135.9068  153.4974 H   0  0  0  0  0  0  0  0  0  0  0  0
  148.4029  131.1900  154.6925 H   0  0  0  0  0  0  0  0  0  0  0  0
  1  2  1  0  0  0  0
  1 25  1  0  0  0  0
  1 26  1  0  0  0  0
  1 27  1  0  0  0  0
  2 24  1  0  0  0  0
  2  3  2  0  0  0  0
  3  4  1  0  0  0  0
  3 28  1  0  0  0  0
  4  5  2  0  0  0  0
  5  6  1  0  0  0  0
  5 29  1  0  0  0  0
  6  7  1  0  0  0  0
  6 24  2  0  0  0  0
  7  8  1  0  0  0  0
  7 30  1  0  0  0  0
  8  9  2  0  0  0  0
  8 10  1  0  0  0  0
 10 11  1  0  0  0  0
 10 31  1  0  0  0  0
 11 23  1  0  0  0  0
 11 12  1  0  0  0  0
 11 32  1  0  0  0  0
 12 13  1  0  0  0  0
 12 33  1  0  0  0  0
 12 34  1  0  0  0  0
 13 14  1  0  0  0  0
 13 35  1  0  0  0  0
 13 36  1  0  0  0  0
 14 15  1  0  0  0  0
 14 22  1  0  0  0  0
 14 54  1  0  0  0  0
 15 21  1  0  0  0  0
 15 16  1  0  0  0  0
 15 37  1  0  0  0  0
 16 17  1  0  0  0  0
 16 38  1  0  0  0  0
 16 39  1  0  0  0  0
 17 18  1  0  0  0  0
 17 40  1  0  0  0  0
 17 41  1  0  0  0  0
 18 19  1  0  0  0  0
 18 20  1  0  0  0  0
 18 55  1  0  0  0  0
 19 42  1  0  0  0  0
 19 43  1  0  0  0  0
 19 44  1  0  0  0  0
 20 21  1  0  0  0  0
 20 45  1  0  0  0  0
 20 46  1  0  0  0  0
 21 47  1  0  0  0  0
 21 48  1  0  0  0  0
 22 23  1  0  0  0  0
 22 49  1  0  0  0  0
 22 50  1  0  0  0  0
 23 51  1  0  0  0  0
 23 52  1  0  0  0  0
 24 53  1  0  0  0  0
M  CHG  1  14   1
M  CHG  1  18   1
M  END
> <s_m_source_file>
AV-unprocessed.smi

> <i_m_source_file_index>
2583

> <i_lp_mmshare_version>
43012

> <i_f3d_flags>
0

> <s_epik_input>
W0NIM11jMVtjSF1uW2NIXWMoW2NIXTEpW05IXUMoPU8pW05IXVtDSF0yW0NIMl1bQ0gyXU4oW0NIMl1bQ0gyXTIpW0NIXTNbQ0gyXVtDSDJdTihbQ0gzXSlbQ0gyXVtDSDJdMw==

> <s_epik_cmdline>
J2VwaWtfcHl0aG9uJywgJy1waCcsICc3LjAnLCAnLXRuJywgJzgnLCAnLW1hJywgJzIwMCcsICctbWV0YWxfYmluZGluZycsICctaW1hZScsICc8aW5maWxlLm1hZT4nLCAnLW9tYWUnLCAnPG91dGZpbGUubWFlPic=

> <r_epik_Ionization_Penalty>
0.188357

> <r_epik_Ionization_Penalty_Charging>
0.180787

> <r_epik_Ionization_Penalty_Neutral>
0.00756971

> <r_epik_State_Penalty>
0.157948

> <r_epik_Charging_Adjusted_Penalty>
0.338735

> <i_epik_Tot_Q>
2

> <i_epik_Tot_abs_Q>
2

> <r_epik_Metal_State_Penalty>
0.153874

> <b_epik_Metal_Only>
0

> <s_lp_Force_Field>
OPLS_2005

> <r_lp_Energy>
48.801

> <b_lp_Chiralities_Consistent>
1

> <s_lp_Variant>
AV-unprocessed.smi:2583-3

> <Gold.Version>
5.8.1

> <Gold.Id.Protein>
6NUR|6NUR_protein|mol2

> <Gold.PLP.Fitness>
42.5657

> <Gold.PLP.PLP>
-34.8015

> <Gold.PLP.part.hbond>
-1.0000

> <Gold.PLP.part.metal>
0.0000

> <Gold.PLP.part.buried>
-5.7252

> <Gold.PLP.part.nonpolar>
-27.6529

> <Gold.PLP.part.repulsive>
0.2067

> <Gold.PLP.ligand.clash>
0.4197

> <Gold.PLP.ligand.torsion>
0.4247

> <Gold.PLP.Chemscore.Hbond>
2.0000

> <Gold.PLP.Chemscore.CHOScore>
1.0000

> <Gold.PLP.Chemscore.Metal>
0.0000

> <Gold.Chemscore.Hbonds>
donor molecule, donor type, donor heavy atom, donor atom, acceptor molecule, acceptor atom, score
      L1  H    14    54       P1  7948  2.00
      L1  C     5    29       P1  8028  1.00

> <Gold.PLP.Chemscore.Internal.Correction>
0.0332

> <Gold.Rescore>
     Score         DG    S(hbond)    S(metal)    S(lipo)     H(rot)  DE(clash)    DE(int)     intcor
     15.28     -17.98       1.00        0.00     104.85       1.21       0.11       2.59       ----

> <Gold.Chemscore.Fitness>
15.2763

> <Gold.Chemscore.DG>
-17.9817

> <Gold.Chemscore.ZeroCoef>
-5.4800

> <Gold.Chemscore.Hbond>
0.9970

> <Gold.Chemscore.Metal>
0.0000

> <Gold.Chemscore.Lipo>
104.8465

> <Gold.Chemscore.Internal_Hbond>
0.0000

> <Gold.Chemscore.DEClash>
0.1133

> <Gold.Chemscore.DEInternal>
2.5920

> <Gold.Chemscore.Rot>
1.2092

> <Gold.Chemscore.Internal.Correction>
   9.000000E+99

> <Gold.Chemscore.Hbonds>
donor molecule, donor type, donor heavy atom, donor atom, acceptor molecule, acceptor atom, score
      L1  H    14    54       P1  7948  1.00

> <Gold.Chemscore.Hbond.Weighted>
-3.3301

> <Gold.Chemscore.Metal.Weighted>
-0.0000

> <Gold.Chemscore.Lipo.Weighted>
-12.2670

> <Gold.Chemscore.Internal_Hbond.Weighted>
0.0000

> <Gold.Chemscore.DEClash.Weighted>
0.1133

> <Gold.Chemscore.DEInternal.Weighted>
2.5920

> <Gold.Chemscore.Rot.Weighted>
3.0955

> <Gold.Chemscore.Internal.Correction.Weighted>
   9.000000E+99

> <Gold.Protein.RotatedTorsions>
[ 6907 6896 6895 6894 ] final  114.04 input  -60.11 | X-H torsion
[ 7974 7965 7964 7962 ] final   61.18 input  175.53 | X-H torsion
[ 8008 7997 7996 7995 ] final  145.02 input   59.86 | X-H torsion
[ 10167 10162 10161 10158 ] final  141.36 input  -65.29 | X-H torsion
[ 10718 10713 10712 10709 ] final   12.63 input   66.30 | X-H torsion
[ 10763 10752 10751 10750 ] final   84.62 input  -60.55 | X-H torsion
[ 11005 11000 10999 10996 ] final  -26.09 input  -57.11 | X-H torsion

> <Gold.Protein.ActiveResidues>
 VAL166  LYS551  ARG553  GLY616  TRP617  ASP618  TYR619  PRO620  LYS621  CYS622 
 ASP623  PHE694  ASN695  SER759  ASP760  ASP761  ALA762  ILE779  LEU786  VAL792 
 PHE793  MET794  SER795  GLU796  ALA797  LYS798  CYS799  TRP800  GLU811  SER814 

> <Gold.Protein.RotatedAtoms>
  152.4826  133.8291  159.7093 H   0  0  0  0  0  0  0  0  0  0  0  0  # atno 6907 bound_to 6896
  150.8887  133.7263  159.2917 H   0  0  0  0  0  0  0  0  0  0  0  0  # atno 6908 bound_to 6896
  151.4744  135.1051  159.9812 H   0  0  0  0  0  0  0  0  0  0  0  0  # atno 6909 bound_to 6896
  145.8876  139.3488  143.0668 H   0  0  0  0  0  0  0  0  0  0  0  0  # atno 7974 bound_to 7965
  156.2893  140.2220  156.5148 H   0  0  0  0  0  0  0  0  0  0  0  0  # atno 8008 bound_to 7997
  154.7578  140.0475  157.0970 H   0  0  0  0  0  0  0  0  0  0  0  0  # atno 8009 bound_to 7997
  155.0029  140.3104  155.4863 H   0  0  0  0  0  0  0  0  0  0  0  0  # atno 8010 bound_to 7997
  139.5023  144.6176  151.6126 H   0  0  0  0  0  0  0  0  0  0  0  0  # atno 10167 bound_to 10162
  157.0129  130.6124  149.5710 H   0  0  0  0  0  0  0  0  0  0  0  0  # atno 10718 bound_to 10713
  153.1398  135.4647  154.9479 H   0  0  0  0  0  0  0  0  0  0  0  0  # atno 10763 bound_to 10752
  154.7737  135.3167  154.8138 H   0  0  0  0  0  0  0  0  0  0  0  0  # atno 10764 bound_to 10752
  153.8663  135.6908  153.4832 H   0  0  0  0  0  0  0  0  0  0  0  0  # atno 10765 bound_to 10752
  140.8997  133.7532  156.0528 H   0  0  0  0  0  0  0  0  0  0  0  0  # atno 11005 bound_to 11000
  145.8947  140.9281  143.0534 LP  0  0  0  0  0  0  0  0  0  0  0  0  # atno 17320 bound_to 7965
  144.6729  140.0953  143.7463 LP  0  0  0  0  0  0  0  0  0  0  0  0  # atno 17321 bound_to 7965
  140.5869  143.9848  150.6301 LP  0  0  0  0  0  0  0  0  0  0  0  0  # atno 17342 bound_to 10162
  140.3016  143.3257  152.0966 LP  0  0  0  0  0  0  0  0  0  0  0  0  # atno 17343 bound_to 10162
  156.0130  130.5222  150.8047 LP  0  0  0  0  0  0  0  0  0  0  0  0  # atno 17370 bound_to 10713
  157.5307  131.0936  150.9958 LP  0  0  0  0  0  0  0  0  0  0  0  0  # atno 17371 bound_to 10713
  140.8245  134.3250  157.5370 LP  0  0  0  0  0  0  0  0  0  0  0  0  # atno 17394 bound_to 11000
  139.8740  134.9328  156.3564 LP  0  0  0  0  0  0  0  0  0  0  0  0  # atno 17395 bound_to 11000

$$$$
