AV-unprocessed.smi:227|AV-procd|sdf|1731|dock1
  -GOLD-   2262020223D 1   1.00000     0.00000
 Structure written by MMmdl.
 54 58  0  0  0  0  0  0  0  0  1 V2000
  149.4497  133.3577  158.0945 O   0  0  0  0  0  0  0  0  0  0  0  0
  149.4688  132.0135  157.6570 C   0  0  0  0  0  0  0  0  0  0  0  0
  150.6210  131.7463  156.6527 C   0  0  2  0  0  0  0  0  0  0  0  0
  150.6466  132.7754  155.4908 C   0  0  0  0  0  0  0  0  0  0  0  0
  149.4004  132.8536  154.7507 N   0  0  0  0  0  0  0  0  0  0  0  0
  148.8110  131.8429  154.0286 C   0  0  0  0  0  0  0  0  0  0  0  0
  147.6999  132.1678  153.4273 N   0  0  0  0  0  0  0  0  0  0  0  0
  147.5086  133.5058  153.7543 C   0  0  0  0  0  0  0  0  0  0  0  0
  146.5303  134.4868  153.4180 C   0  0  0  0  0  0  0  0  0  0  0  0
  145.4806  134.2566  152.5832 N   0  0  0  0  0  0  0  0  0  0  0  0
  144.1167  134.5592  152.9903 C   0  0  2  0  0  0  0  0  0  0  0  0
  143.2914  133.9338  151.8528 C   0  0  0  0  0  0  0  0  0  0  0  0
  144.2099  134.1811  150.6445 C   0  0  0  0  0  0  0  0  0  0  0  0
  145.3775  134.9399  151.3012 C   0  0  1  0  0  0  0  0  0  0  0  0
  144.8984  136.3742  151.6425 C   0  0  2  0  0  0  0  0  0  0  0  0
  146.0385  137.3852  151.8759 C   0  0  0  0  0  0  0  0  0  0  0  0
  146.6584  137.7116  150.6504 O   0  0  0  0  0  0  0  0  0  0  0  0
  144.0346  136.0969  152.8899 C   0  0  0  0  0  0  0  0  0  0  0  0
  146.6678  135.7184  153.9776 N   0  0  0  0  0  0  0  0  0  0  0  0
  147.7031  135.9901  154.7764 C   0  0  0  0  0  0  0  0  0  0  0  0
  148.7023  135.1886  155.1468 N   0  0  0  0  0  0  0  0  0  0  0  0
  148.5601  133.9436  154.6095 C   0  0  0  0  0  0  0  0  0  0  0  0
  150.5502  130.3033  156.0867 C   0  0  2  0  0  0  0  0  0  0  0  0
  150.5178  129.1994  157.1320 C   0  0  0  0  0  0  0  0  0  0  0  0
  150.9282  127.9708  156.3275 C   0  0  0  0  0  0  0  0  0  0  0  0
  151.8030  128.4473  155.3121 O   0  0  0  0  0  0  0  0  0  0  0  0
  151.7800  129.8700  155.2791 C   0  0  0  0  0  0  0  0  0  0  0  0
  148.8237  133.8356  157.5717 H   0  0  0  0  0  0  0  0  0  0  0  0
  149.5727  131.4070  158.5547 H   0  0  0  0  0  0  0  0  0  0  0  0
  148.5044  131.7559  157.2179 H   0  0  0  0  0  0  0  0  0  0  0  0
  151.5631  131.8310  157.1970 H   0  0  0  0  0  0  0  0  0  0  0  0
  150.8615  133.7757  155.8665 H   0  0  0  0  0  0  0  0  0  0  0  0
  151.4487  132.5319  154.7934 H   0  0  0  0  0  0  0  0  0  0  0  0
  149.2408  130.8547  153.9524 H   0  0  0  0  0  0  0  0  0  0  0  0
  143.8329  134.1739  153.9703 H   0  0  0  0  0  0  0  0  0  0  0  0
  143.1491  132.8646  152.0142 H   0  0  0  0  0  0  0  0  0  0  0  0
  142.3097  134.3959  151.7424 H   0  0  0  0  0  0  0  0  0  0  0  0
  144.5517  133.2338  150.2252 H   0  0  0  0  0  0  0  0  0  0  0  0
  143.7244  134.7457  149.8479 H   0  0  0  0  0  0  0  0  0  0  0  0
  146.2686  134.9182  150.6766 H   0  0  0  0  0  0  0  0  0  0  0  0
  144.2781  136.7518  150.8277 H   0  0  0  0  0  0  0  0  0  0  0  0
  145.6798  138.3037  152.3391 H   0  0  0  0  0  0  0  0  0  0  0  0
  146.7903  136.9616  152.5422 H   0  0  0  0  0  0  0  0  0  0  0  0
  146.0200  138.1286  150.0921 H   0  0  0  0  0  0  0  0  0  0  0  0
  143.0110  136.4577  152.7825 H   0  0  0  0  0  0  0  0  0  0  0  0
  144.4585  136.5652  153.7794 H   0  0  0  0  0  0  0  0  0  0  0  0
  147.7387  136.9951  155.1698 H   0  0  0  0  0  0  0  0  0  0  0  0
  149.6675  130.2056  155.4523 H   0  0  0  0  0  0  0  0  0  0  0  0
  151.2516  129.3943  157.9155 H   0  0  0  0  0  0  0  0  0  0  0  0
  149.5428  129.0698  157.6016 H   0  0  0  0  0  0  0  0  0  0  0  0
  151.4083  127.2113  156.9446 H   0  0  0  0  0  0  0  0  0  0  0  0
  150.0572  127.5202  155.8504 H   0  0  0  0  0  0  0  0  0  0  0  0
  151.7558  130.2327  154.2512 H   0  0  0  0  0  0  0  0  0  0  0  0
  152.6967  130.2359  155.7441 H   0  0  0  0  0  0  0  0  0  0  0  0
  1  2  1  0  0  0  0
  1 28  1  0  0  0  0
  2  3  1  0  0  0  0
  2 29  1  0  0  0  0
  2 30  1  0  0  0  0
  3  4  1  0  0  0  0
  3 23  1  0  0  0  0
  3 31  1  0  0  0  0
  4  5  1  0  0  0  0
  4 32  1  0  0  0  0
  4 33  1  0  0  0  0
  5 22  1  0  0  0  0
  5  6  1  0  0  0  0
  6  7  2  0  0  0  0
  6 34  1  0  0  0  0
  7  8  1  0  0  0  0
  8 22  2  0  0  0  0
  8  9  1  0  0  0  0
  9 10  1  0  0  0  0
  9 19  2  0  0  0  0
 10 14  1  0  0  0  0
 10 11  1  0  0  0  0
 11 18  1  0  0  0  0
 11 12  1  0  0  0  0
 11 35  1  0  0  0  0
 12 13  1  0  0  0  0
 12 36  1  0  0  0  0
 12 37  1  0  0  0  0
 13 14  1  0  0  0  0
 13 38  1  0  0  0  0
 13 39  1  0  0  0  0
 14 15  1  0  0  0  0
 14 40  1  0  0  0  0
 15 16  1  0  0  0  0
 15 18  1  0  0  0  0
 15 41  1  0  0  0  0
 16 17  1  0  0  0  0
 16 42  1  0  0  0  0
 16 43  1  0  0  0  0
 17 44  1  0  0  0  0
 18 45  1  0  0  0  0
 18 46  1  0  0  0  0
 19 20  1  0  0  0  0
 20 21  2  0  0  0  0
 20 47  1  0  0  0  0
 21 22  1  0  0  0  0
 23 27  1  0  0  0  0
 23 24  1  0  0  0  0
 23 48  1  0  0  0  0
 24 25  1  0  0  0  0
 24 49  1  0  0  0  0
 24 50  1  0  0  0  0
 25 26  1  0  0  0  0
 25 51  1  0  0  0  0
 25 52  1  0  0  0  0
 26 27  1  0  0  0  0
 27 53  1  0  0  0  0
 27 54  1  0  0  0  0
M  END
> <s_m_source_file>
AV-unprocessed.smi

> <i_m_source_file_index>
227

> <i_lp_mmshare_version>
43012

> <i_f3d_flags>
0

> <s_epik_input>
W0NIMl0xT1tDSDJdW0NIMl1bQ0BIXTFbQ0BIXShbQ0gyXVtPSF0pW0NIMl1uKFtjSF1uMiljKGMyMyluW2NIXW5jM04oW0NASF00NSlbQ0BASF0oW0NIMl1bQ0gyXTQpW0NASF0oW0NIMl01KVtDSDJdW09IXQ==

> <s_epik_cmdline>
J2VwaWtfcHl0aG9uJywgJy1waCcsICc3LjAnLCAnLXRuJywgJzgnLCAnLW1hJywgJzIwMCcsICctbWV0YWxfYmluZGluZycsICctaW1hZScsICc8aW5maWxlLm1hZT4nLCAnLW9tYWUnLCAnPG91dGZpbGUubWFlPic=

> <r_lp_tautomer_probability>
1

> <r_epik_Ionization_Penalty>
0.0055791

> <r_epik_Ionization_Penalty_Charging>
0

> <r_epik_Ionization_Penalty_Neutral>
0.0055791

> <r_epik_State_Penalty>
0.00401299

> <r_epik_Charging_Adjusted_Penalty>
0.00401299

> <i_epik_Tot_Q>
0

> <i_epik_Tot_abs_Q>
0

> <r_epik_Metal_State_Penalty>
-0

> <b_epik_Metal_Only>
0

> <s_lp_Force_Field>
OPLS_2005

> <r_lp_Energy>
88.0051

> <b_lp_Chiralities_Consistent>
1

> <s_lp_Variant>
AV-unprocessed.smi:227-5

> <Gold.Version>
5.8.1

> <Gold.Id.Protein>
6NUR|6NUR_protein|mol2

> <Gold.PLP.Fitness>
43.9440

> <Gold.PLP.PLP>
-35.0951

> <Gold.PLP.part.hbond>
-3.8627

> <Gold.PLP.part.metal>
0.0000

> <Gold.PLP.part.buried>
-4.3350

> <Gold.PLP.part.nonpolar>
-27.5647

> <Gold.PLP.part.repulsive>
0.4842

> <Gold.PLP.ligand.clash>
0.0000

> <Gold.PLP.ligand.torsion>
0.2373

> <Gold.PLP.Chemscore.Hbond>
3.0000

> <Gold.PLP.Chemscore.CHOScore>
0.0000

> <Gold.PLP.Chemscore.Metal>
0.0000

> <Gold.Chemscore.Hbonds>
donor molecule, donor type, donor heavy atom, donor atom, acceptor molecule, acceptor atom, score
      L1  H    17    44       P1 10171  0.56
      P1  H  6896  6909       L1     1  1.00
      P1  H  7954  7966       L1    17  1.00

> <Gold.PLP.Chemscore.Internal.Correction>
0.3234

> <Gold.Rescore>
     Score         DG    S(hbond)    S(metal)    S(lipo)     H(rot)  DE(clash)    DE(int)     intcor
      9.83     -14.09       2.90        0.00      69.77       3.61       0.11       4.15       ----

> <Gold.Chemscore.Fitness>
9.8318

> <Gold.Chemscore.DG>
-14.0937

> <Gold.Chemscore.ZeroCoef>
-5.4800

> <Gold.Chemscore.Hbond>
2.8997

> <Gold.Chemscore.Metal>
0.0000

> <Gold.Chemscore.Lipo>
69.7671

> <Gold.Chemscore.Internal_Hbond>
0.0000

> <Gold.Chemscore.DEClash>
0.1143

> <Gold.Chemscore.DEInternal>
4.1476

> <Gold.Chemscore.Rot>
3.6071

> <Gold.Chemscore.Internal.Correction>
   9.000000E+99

> <Gold.Chemscore.Hbonds>
donor molecule, donor type, donor heavy atom, donor atom, acceptor molecule, acceptor atom, score
      L1  H    17    44       P1 10171  0.55
      P1  H  6896  6909       L1     1  0.93
      P1  H  7954  7966       L1    17  0.59

> <Gold.Chemscore.Hbond.Weighted>
-9.6851

> <Gold.Chemscore.Metal.Weighted>
-0.0000

> <Gold.Chemscore.Lipo.Weighted>
-8.1628

> <Gold.Chemscore.Internal_Hbond.Weighted>
0.0000

> <Gold.Chemscore.DEClash.Weighted>
0.1143

> <Gold.Chemscore.DEInternal.Weighted>
4.1476

> <Gold.Chemscore.Rot.Weighted>
9.2342

> <Gold.Chemscore.Internal.Correction.Weighted>
   9.000000E+99

> <Gold.Protein.RotatedTorsions>
[ 6907 6896 6895 6894 ] final    2.76 input  -60.11 | X-H torsion
[ 7974 7965 7964 7962 ] final   56.97 input  175.53 | X-H torsion
[ 8008 7997 7996 7995 ] final -146.34 input   59.86 | X-H torsion
[ 10167 10162 10161 10158 ] final  127.21 input  -65.29 | X-H torsion
[ 10718 10713 10712 10709 ] final  157.75 input   66.30 | X-H torsion
[ 10763 10752 10751 10750 ] final   57.76 input  -60.55 | X-H torsion
[ 11005 11000 10999 10996 ] final   40.42 input  -57.11 | X-H torsion

> <Gold.Protein.ActiveResidues>
 VAL166  LYS551  ARG553  GLY616  TRP617  ASP618  TYR619  PRO620  LYS621  CYS622 
 ASP623  PHE694  ASN695  SER759  ASP760  ASP761  ALA762  ILE779  LEU786  VAL792 
 PHE793  MET794  SER795  GLU796  ALA797  LYS798  CYS799  TRP800  GLU811  SER814 

> <Gold.Protein.RotatedAtoms>
  151.6141  135.1038  160.0087 H   0  0  0  0  0  0  0  0  0  0  0  0  # atno 6907 bound_to 6896
  152.4193  133.7085  159.6476 H   0  0  0  0  0  0  0  0  0  0  0  0  # atno 6908 bound_to 6896
  150.8080  133.8400  159.3217 H   0  0  0  0  0  0  0  0  0  0  0  0  # atno 6909 bound_to 6896
  145.9340  139.3832  143.0403 H   0  0  0  0  0  0  0  0  0  0  0  0  # atno 7974 bound_to 7965
  155.5579  140.0622  157.2835 H   0  0  0  0  0  0  0  0  0  0  0  0  # atno 8008 bound_to 7997
  154.4400  140.1891  156.0797 H   0  0  0  0  0  0  0  0  0  0  0  0  # atno 8009 bound_to 7997
  156.0468  140.3289  155.7310 H   0  0  0  0  0  0  0  0  0  0  0  0  # atno 8010 bound_to 7997
  139.5590  144.6869  151.4098 H   0  0  0  0  0  0  0  0  0  0  0  0  # atno 10167 bound_to 10162
  157.1872  131.0646  151.2099 H   0  0  0  0  0  0  0  0  0  0  0  0  # atno 10718 bound_to 10713
  152.9856  135.5630  154.5442 H   0  0  0  0  0  0  0  0  0  0  0  0  # atno 10763 bound_to 10752
  154.4891  135.2792  155.1513 H   0  0  0  0  0  0  0  0  0  0  0  0  # atno 10764 bound_to 10752
  154.2989  135.6311  153.5469 H   0  0  0  0  0  0  0  0  0  0  0  0  # atno 10765 bound_to 10752
  140.1932  134.3961  155.8135 H   0  0  0  0  0  0  0  0  0  0  0  0  # atno 11005 bound_to 11000
  145.8388  140.9592  143.0810 LP  0  0  0  0  0  0  0  0  0  0  0  0  # atno 17320 bound_to 7965
  144.6769  140.0257  143.7483 LP  0  0  0  0  0  0  0  0  0  0  0  0  # atno 17321 bound_to 7965
  140.6867  143.7957  150.7196 LP  0  0  0  0  0  0  0  0  0  0  0  0  # atno 17342 bound_to 10162
  140.1426  143.4427  152.2183 LP  0  0  0  0  0  0  0  0  0  0  0  0  # atno 17343 bound_to 10162
  157.3895  130.7274  149.6687 LP  0  0  0  0  0  0  0  0  0  0  0  0  # atno 17370 bound_to 10713
  155.9716  130.4150  150.4161 LP  0  0  0  0  0  0  0  0  0  0  0  0  # atno 17371 bound_to 10713
  141.2226  133.7057  156.8131 LP  0  0  0  0  0  0  0  0  0  0  0  0  # atno 17394 bound_to 11000
  140.2136  134.8809  157.3301 LP  0  0  0  0  0  0  0  0  0  0  0  0  # atno 17395 bound_to 11000

$$$$
