AV-unprocessed.smi:686|AV-procd|sdf|3341|dock1
  -GOLD-   22720 0313D 1   1.00000     0.00000
 Structure written by MMmdl.
 41 42  0  0  0  0  0  0  0  0  2 V2000
  150.3041  132.6965  155.0316 C   0  0  0  0  0  0  0  0  0  0  0  0
  148.9189  133.3042  154.7582 C   0  0  2  0  0  0  0  0  0  0  0  0
  148.4263  133.1699  153.3151 C   0  0  0  0  0  0  0  0  0  0  0  0
  147.4202  134.2436  153.1170 N   0  3  1  0  0  0  0  0  0  0  0  0
  146.0496  133.8148  152.7199 C   0  0  0  0  0  0  0  0  0  0  0  0
  146.0259  132.8121  151.5464 C   0  0  0  0  0  0  0  0  0  0  0  0
  145.1583  135.0347  152.4376 C   0  0  0  0  0  0  0  0  0  0  0  0
  147.4817  135.1650  154.2800 C   0  0  0  0  0  0  0  0  0  0  0  0
  148.7499  134.7985  155.0588 C   0  0  2  0  0  0  0  0  0  0  0  0
  149.8877  135.5919  154.5769 N   0  0  0  0  0  0  0  0  0  0  0  0
  150.6946  136.7169  155.6080 S   0  0  0  0  0  0  0  0  0  0  0  0
  149.6760  137.3060  156.4903 O   0  0  0  0  0  0  0  0  0  0  0  0
  151.8567  136.0164  156.1761 O   0  0  0  0  0  0  0  0  0  0  0  0
  151.2722  138.0157  154.4224 C   0  0  0  0  0  0  0  0  0  0  0  0
  150.4192  139.2474  154.5304 C   0  0  0  0  0  0  0  0  0  0  0  0
  149.0235  139.3794  154.2893 C   0  0  0  0  0  0  0  0  0  0  0  0
  148.7816  140.6995  154.5399 C   0  0  0  0  0  0  0  0  0  0  0  0
  149.9250  141.3311  154.9068 O   0  0  0  0  0  0  0  0  0  0  0  0
  150.9651  140.3949  154.9000 N   0  0  0  0  0  0  0  0  0  0  0  0
  151.0788  133.1536  154.4153 H   0  0  0  0  0  0  0  0  0  0  0  0
  150.3063  131.6270  154.8207 H   0  0  0  0  0  0  0  0  0  0  0  0
  150.5876  132.8260  156.0761 H   0  0  0  0  0  0  0  0  0  0  0  0
  148.2039  132.7740  155.3896 H   0  0  0  0  0  0  0  0  0  0  0  0
  149.2467  133.3620  152.6224 H   0  0  0  0  0  0  0  0  0  0  0  0
  148.0604  132.1667  153.0986 H   0  0  0  0  0  0  0  0  0  0  0  0
  145.6211  133.3123  153.5888 H   0  0  0  0  0  0  0  0  0  0  0  0
  145.0091  132.4620  151.3660 H   0  0  0  0  0  0  0  0  0  0  0  0
  146.6340  131.9299  151.7431 H   0  0  0  0  0  0  0  0  0  0  0  0
  146.3775  133.2550  150.6150 H   0  0  0  0  0  0  0  0  0  0  0  0
  144.1311  134.7290  152.2363 H   0  0  0  0  0  0  0  0  0  0  0  0
  145.5066  135.5997  151.5726 H   0  0  0  0  0  0  0  0  0  0  0  0
  145.1359  135.7123  153.2917 H   0  0  0  0  0  0  0  0  0  0  0  0
  147.4659  136.2067  153.9570 H   0  0  0  0  0  0  0  0  0  0  0  0
  146.6174  135.0227  154.9285 H   0  0  0  0  0  0  0  0  0  0  0  0
  148.6187  134.9743  156.1273 H   0  0  0  0  0  0  0  0  0  0  0  0
  149.8686  135.8552  153.5918 H   0  0  0  0  0  0  0  0  0  0  0  0
  152.3148  138.2504  154.6325 H   0  0  0  0  0  0  0  0  0  0  0  0
  151.2335  137.5974  153.4159 H   0  0  0  0  0  0  0  0  0  0  0  0
  148.3131  138.6277  153.9797 H   0  0  0  0  0  0  0  0  0  0  0  0
  147.8921  141.3110  154.5048 H   0  0  0  0  0  0  0  0  0  0  0  0
  147.7666  134.7822  152.3359 H   0  0  0  0  0  0  0  0  0  0  0  0
  1  2  1  0  0  0  0
  1 20  1  0  0  0  0
  1 21  1  0  0  0  0
  1 22  1  0  0  0  0
  2  9  1  0  0  0  0
  2  3  1  0  0  0  0
  2 23  1  0  0  0  0
  3  4  1  0  0  0  0
  3 24  1  0  0  0  0
  3 25  1  0  0  0  0
  4  5  1  0  0  0  0
  4  8  1  0  0  0  0
  4 41  1  0  0  0  0
  5  6  1  0  0  0  0
  5  7  1  0  0  0  0
  5 26  1  0  0  0  0
  6 27  1  0  0  0  0
  6 28  1  0  0  0  0
  6 29  1  0  0  0  0
  7 30  1  0  0  0  0
  7 31  1  0  0  0  0
  7 32  1  0  0  0  0
  8  9  1  0  0  0  0
  8 33  1  0  0  0  0
  8 34  1  0  0  0  0
  9 10  1  0  0  0  0
  9 35  1  0  0  0  0
 10 11  1  0  0  0  0
 10 36  1  0  0  0  0
 11 12  2  0  0  0  0
 11 13  2  0  0  0  0
 11 14  1  0  0  0  0
 14 15  1  0  0  0  0
 14 37  1  0  0  0  0
 14 38  1  0  0  0  0
 15 19  2  0  0  0  0
 15 16  1  0  0  0  0
 16 17  2  0  0  0  0
 16 39  1  0  0  0  0
 17 18  1  0  0  0  0
 17 40  1  0  0  0  0
 18 19  1  0  0  0  0
M  CHG  1   4   1
M  END
> <s_m_source_file>
AV-unprocessed.smi

> <i_m_source_file_index>
686

> <i_lp_mmshare_version>
43012

> <i_f3d_flags>
0

> <s_epik_input>
W0NIM11bQ0BASF0xW0NIMl1OKFtDSF0oW0NIM10pW0NIM10pW0NIMl1bQ0BIXTFbTkhdUyg9TykoPU8pW0NIMl1jMltjSF1bY0hdb24y

> <s_epik_cmdline>
J2VwaWtfcHl0aG9uJywgJy1waCcsICc3LjAnLCAnLXRuJywgJzgnLCAnLW1hJywgJzIwMCcsICctbWV0YWxfYmluZGluZycsICctaW1hZScsICc8aW5maWxlLm1hZT4nLCAnLW9tYWUnLCAnPG91dGZpbGUubWFlPic=

> <r_epik_Ionization_Penalty>
0.00200818

> <r_epik_Ionization_Penalty_Charging>
0.000701289

> <r_epik_Ionization_Penalty_Neutral>
0.00130689

> <r_epik_State_Penalty>
0.00131314

> <r_epik_Charging_Adjusted_Penalty>
0.00201443

> <i_epik_Tot_Q>
1

> <i_epik_Tot_abs_Q>
1

> <r_epik_Metal_State_Penalty>
0.310831

> <b_epik_Metal_Only>
0

> <s_lp_Force_Field>
OPLS_2005

> <r_lp_Energy>
24.0056

> <b_lp_Chiralities_Consistent>
1

> <s_lp_Variant>
AV-unprocessed.smi:686-5

> <Gold.Version>
5.8.1

> <Gold.Id.Protein>
6NUR|6NUR_protein|mol2

> <Gold.PLP.Fitness>
43.0087

> <Gold.PLP.PLP>
-30.3814

> <Gold.PLP.part.hbond>
-5.0000

> <Gold.PLP.part.metal>
0.0000

> <Gold.PLP.part.buried>
-2.4343

> <Gold.PLP.part.nonpolar>
-22.8537

> <Gold.PLP.part.repulsive>
0.2840

> <Gold.PLP.ligand.clash>
0.0000

> <Gold.PLP.ligand.torsion>
0.9757

> <Gold.PLP.Chemscore.Hbond>
4.4600

> <Gold.PLP.Chemscore.CHOScore>
0.0000

> <Gold.PLP.Chemscore.Metal>
0.0000

> <Gold.Chemscore.Hbonds>
donor molecule, donor type, donor heavy atom, donor atom, acceptor molecule, acceptor atom, score
      L1  H     4    41       P1  7948  1.76
      L1  H    10    36       P1  7948  0.65
      P1  H  7989  7998       L1    19  0.80
      P1  H 10752 10763       L1    13  1.00

> <Gold.PLP.Chemscore.Internal.Correction>
1.1986

> <Gold.Rescore>
     Score         DG    S(hbond)    S(metal)    S(lipo)     H(rot)  DE(clash)    DE(int)     intcor
     15.19     -16.12       2.42        0.00      58.22       1.66       0.02       0.92       ----

> <Gold.Chemscore.Fitness>
15.1858

> <Gold.Chemscore.DG>
-16.1181

> <Gold.Chemscore.ZeroCoef>
-5.4800

> <Gold.Chemscore.Hbond>
2.4154

> <Gold.Chemscore.Metal>
0.0000

> <Gold.Chemscore.Lipo>
58.2226

> <Gold.Chemscore.Internal_Hbond>
0.0000

> <Gold.Chemscore.DEClash>
0.0166

> <Gold.Chemscore.DEInternal>
0.9157

> <Gold.Chemscore.Rot>
1.6567

> <Gold.Chemscore.Internal.Correction>
   9.000000E+99

> <Gold.Chemscore.Hbonds>
donor molecule, donor type, donor heavy atom, donor atom, acceptor molecule, acceptor atom, score
      L1  H     4    41       P1  7948  0.68
      L1  H    10    36       P1  7948  0.05
      P1  H  7989  7998       L1    19  0.03
      P1  H 10752 10763       L1    13  0.69

> <Gold.Chemscore.Hbond.Weighted>
-8.0673

> <Gold.Chemscore.Metal.Weighted>
-0.0000

> <Gold.Chemscore.Lipo.Weighted>
-6.8120

> <Gold.Chemscore.Internal_Hbond.Weighted>
0.0000

> <Gold.Chemscore.DEClash.Weighted>
0.0166

> <Gold.Chemscore.DEInternal.Weighted>
0.9157

> <Gold.Chemscore.Rot.Weighted>
4.2413

> <Gold.Chemscore.Internal.Correction.Weighted>
   9.000000E+99

> <Gold.Protein.RotatedTorsions>
[ 6907 6896 6895 6894 ] final   96.79 input  -60.11 | X-H torsion
[ 7974 7965 7964 7962 ] final   24.17 input  175.53 | X-H torsion
[ 8008 7997 7996 7995 ] final   40.53 input   59.86 | X-H torsion
[ 10167 10162 10161 10158 ] final   -7.75 input  -65.29 | X-H torsion
[ 10718 10713 10712 10709 ] final   61.90 input   66.30 | X-H torsion
[ 10763 10752 10751 10750 ] final   70.25 input  -60.55 | X-H torsion
[ 11005 11000 10999 10996 ] final  -76.45 input  -57.11 | X-H torsion

> <Gold.Protein.ActiveResidues>
 VAL166  LYS551  ARG553  GLY616  TRP617  ASP618  TYR619  PRO620  LYS621  CYS622 
 ASP623  PHE694  ASN695  SER759  ASP760  ASP761  ALA762  ILE779  LEU786  VAL792 
 PHE793  MET794  SER795  GLU796  ALA797  LYS798  CYS799  TRP800  GLU811  SER814 

> <Gold.Protein.RotatedAtoms>
  152.5431  134.0833  159.8244 H   0  0  0  0  0  0  0  0  0  0  0  0  # atno 6907 bound_to 6896
  151.0931  133.5293  159.2621 H   0  0  0  0  0  0  0  0  0  0  0  0  # atno 6908 bound_to 6896
  151.2076  135.0477  159.8952 H   0  0  0  0  0  0  0  0  0  0  0  0  # atno 6909 bound_to 6896
  146.1950  139.7643  142.8804 H   0  0  0  0  0  0  0  0  0  0  0  0  # atno 7974 bound_to 7965
  155.2546  140.3355  155.4279 H   0  0  0  0  0  0  0  0  0  0  0  0  # atno 8008 bound_to 7997
  156.2201  140.1805  156.7541 H   0  0  0  0  0  0  0  0  0  0  0  0  # atno 8009 bound_to 7997
  154.5812  140.0653  156.9091 H   0  0  0  0  0  0  0  0  0  0  0  0  # atno 8010 bound_to 7997
  140.7038  143.6046  150.8764 H   0  0  0  0  0  0  0  0  0  0  0  0  # atno 10167 bound_to 10162
  157.5862  130.9020  149.9520 H   0  0  0  0  0  0  0  0  0  0  0  0  # atno 10718 bound_to 10713
  153.0331  135.5181  154.7412 H   0  0  0  0  0  0  0  0  0  0  0  0  # atno 10763 bound_to 10752
  154.6411  135.2912  155.0105 H   0  0  0  0  0  0  0  0  0  0  0  0  # atno 10764 bound_to 10752
  154.1022  135.6634  153.4923 H   0  0  0  0  0  0  0  0  0  0  0  0  # atno 10765 bound_to 10752
  141.1654  133.6984  156.7670 H   0  0  0  0  0  0  0  0  0  0  0  0  # atno 11005 bound_to 11000
  145.3671  141.0336  143.3252 LP  0  0  0  0  0  0  0  0  0  0  0  0  # atno 17320 bound_to 7965
  144.8563  139.5245  143.6833 LP  0  0  0  0  0  0  0  0  0  0  0  0  # atno 17321 bound_to 7965
  139.9770  143.5994  152.2955 LP  0  0  0  0  0  0  0  0  0  0  0  0  # atno 17342 bound_to 10162
  139.6601  144.7662  151.1980 LP  0  0  0  0  0  0  0  0  0  0  0  0  # atno 17343 bound_to 10162
  156.0911  130.3663  150.0392 LP  0  0  0  0  0  0  0  0  0  0  0  0  # atno 17370 bound_to 10713
  156.8523  130.9463  151.3624 LP  0  0  0  0  0  0  0  0  0  0  0  0  # atno 17371 bound_to 10713
  140.2492  134.8554  157.3650 LP  0  0  0  0  0  0  0  0  0  0  0  0  # atno 17394 bound_to 11000
  140.1719  134.4597  155.7826 LP  0  0  0  0  0  0  0  0  0  0  0  0  # atno 17395 bound_to 11000

$$$$
