AV-unprocessed.smi:3330|AV-procd|sdf|12812|dock2
  -GOLD-   2272019183D 1   1.00000     0.00000
 Structure written by MMmdl.
 38 39  0  0  0  0  0  0  0  0  3 V2000
  149.7720  143.8202  159.0857 C   0  0  0  0  0  0  0  0  0  0  0  0
  150.8321  142.8923  158.4651 C   0  0  1  0  0  0  0  0  0  0  0  0
  150.6114  142.7887  157.0052 N   0  3  0  0  0  0  0  0  0  0  0  0
  150.6288  141.4198  156.4495 C   0  0  0  0  0  0  0  0  0  0  0  0
  152.0582  140.9766  156.0847 C   0  0  0  0  0  0  0  0  0  0  0  0
  152.1041  139.6093  155.5472 N   0  0  0  0  0  0  0  0  0  0  0  0
  151.3504  139.1648  154.5357 C   0  0  0  0  0  0  0  0  0  0  0  0
  150.5201  139.7937  153.8800 O   0  0  0  0  0  0  0  0  0  0  0  0
  151.7185  137.7206  154.2920 C   0  0  0  0  0  0  0  0  0  0  0  0
  152.7590  137.5001  155.2700 N   0  5  0  0  0  0  0  0  0  0  0  0
  152.9349  138.6403  155.9764 C   0  0  0  0  0  0  0  0  0  0  0  0
  153.7393  138.8248  156.8886 O   0  0  0  0  0  0  0  0  0  0  0  0
  152.2848  143.3683  158.7352 C   0  0  1  0  0  0  0  0  0  0  0  0
  152.4648  144.8905  158.5865 C   0  0  0  0  0  0  0  0  0  0  0  0
  152.7462  142.9468  160.0544 N   0  0  0  0  0  0  0  0  0  0  0  0
  152.2992  143.3678  161.2899 C   0  0  0  0  0  0  0  0  0  0  0  0
  153.0240  142.7013  162.2355 C   0  0  0  0  0  0  0  0  0  0  0  0
  153.9028  141.8823  161.4743 C   0  0  0  0  0  0  0  0  0  0  0  0
  153.7291  142.0250  160.1707 N   0  0  0  0  0  0  0  0  0  0  0  0
  149.8513  143.8525  160.1719 H   0  0  0  0  0  0  0  0  0  0  0  0
  148.7623  143.4796  158.8561 H   0  0  0  0  0  0  0  0  0  0  0  0
  149.8699  144.8401  158.7129 H   0  0  0  0  0  0  0  0  0  0  0  0
  150.7161  141.8995  158.9028 H   0  0  0  0  0  0  0  0  0  0  0  0
  149.7485  143.2505  156.7568 H   0  0  0  0  0  0  0  0  0  0  0  0
  150.2182  140.7312  157.1890 H   0  0  0  0  0  0  0  0  0  0  0  0
  149.9841  141.3652  155.5725 H   0  0  0  0  0  0  0  0  0  0  0  0
  152.4848  141.6687  155.3571 H   0  0  0  0  0  0  0  0  0  0  0  0
  152.6960  141.0537  156.9668 H   0  0  0  0  0  0  0  0  0  0  0  0
  150.8455  137.0849  154.4419 H   0  0  0  0  0  0  0  0  0  0  0  0
  152.0566  137.5911  153.2636 H   0  0  0  0  0  0  0  0  0  0  0  0
  152.9384  142.8876  158.0053 H   0  0  0  0  0  0  0  0  0  0  0  0
  152.2848  145.2209  157.5641 H   0  0  0  0  0  0  0  0  0  0  0  0
  153.4821  145.1884  158.8422 H   0  0  0  0  0  0  0  0  0  0  0  0
  151.7856  145.4389  159.2402 H   0  0  0  0  0  0  0  0  0  0  0  0
  151.5143  144.1022  161.3941 H   0  0  0  0  0  0  0  0  0  0  0  0
  152.9453  142.7905  163.3089 H   0  0  0  0  0  0  0  0  0  0  0  0
  154.6561  141.1934  161.8276 H   0  0  0  0  0  0  0  0  0  0  0  0
  151.3742  143.2805  156.5607 H   0  0  0  0  0  0  0  0  0  0  0  0
  1  2  1  0  0  0  0
  1 20  1  0  0  0  0
  1 21  1  0  0  0  0
  1 22  1  0  0  0  0
  2  3  1  0  0  0  0
  2 13  1  0  0  0  0
  2 23  1  0  0  0  0
  3  4  1  0  0  0  0
  3 24  1  0  0  0  0
  3 38  1  0  0  0  0
  4  5  1  0  0  0  0
  4 25  1  0  0  0  0
  4 26  1  0  0  0  0
  5  6  1  0  0  0  0
  5 27  1  0  0  0  0
  5 28  1  0  0  0  0
  6 11  1  0  0  0  0
  6  7  1  0  0  0  0
  7  8  2  0  0  0  0
  7  9  1  0  0  0  0
  9 10  1  0  0  0  0
  9 29  1  0  0  0  0
  9 30  1  0  0  0  0
 10 11  1  0  0  0  0
 11 12  2  0  0  0  0
 13 14  1  0  0  0  0
 13 15  1  0  0  0  0
 13 31  1  0  0  0  0
 14 32  1  0  0  0  0
 14 33  1  0  0  0  0
 14 34  1  0  0  0  0
 15 19  1  0  0  0  0
 15 16  1  0  0  0  0
 16 17  2  0  0  0  0
 16 35  1  0  0  0  0
 17 18  1  0  0  0  0
 17 36  1  0  0  0  0
 18 19  2  0  0  0  0
 18 37  1  0  0  0  0
M  CHG  1   3   1
M  CHG  1  10  -1
M  END
> <s_m_source_file>
AV-unprocessed.smi

> <i_m_source_file_index>
3330

> <i_lp_mmshare_version>
43012

> <i_f3d_flags>
0

> <s_epik_input>
bjFbY0hdW2NIXVtjSF1uMVtDQEBIXShbQ0gzXSlbQ0BIXShbQ0gzXSlbTkhdW0NIMl1bQ0gyXU4yQyg9TylbQ0gyXVtOSF1DMj1P

> <s_epik_cmdline>
J2VwaWtfcHl0aG9uJywgJy1waCcsICc3LjAnLCAnLXRuJywgJzgnLCAnLW1hJywgJzIwMCcsICctbWV0YWxfYmluZGluZycsICctaW1hZScsICc8aW5maWxlLm1hZT4nLCAnLW9tYWUnLCAnPG91dGZpbGUubWFlPic=

> <r_lp_tautomer_probability>
1

> <r_epik_Ionization_Penalty>
5.18149

> <r_epik_Ionization_Penalty_Charging>
5.18148

> <r_epik_Ionization_Penalty_Neutral>
9.83265e-06

> <r_epik_State_Penalty>
5.18201

> <r_epik_Charging_Adjusted_Penalty>
10.3635

> <i_epik_Tot_Q>
0

> <i_epik_Tot_abs_Q>
2

> <r_epik_Metal_State_Penalty>
1.25422

> <b_epik_Metal_Only>
1

> <s_lp_Force_Field>
OPLS_2005

> <r_lp_Energy>
19.5827

> <b_lp_Chiralities_Consistent>
1

> <s_lp_Variant>
AV-unprocessed.smi:3330-12

> <Gold.Version>
5.8.1

> <Gold.Id.Protein>
6NUR|6NUR_protein|mol2

> <Gold.PLP.Fitness>
60.9687

> <Gold.PLP.PLP>
-46.8633

> <Gold.PLP.part.hbond>
-4.0000

> <Gold.PLP.part.metal>
0.0000

> <Gold.PLP.part.buried>
-7.2005

> <Gold.PLP.part.nonpolar>
-37.8660

> <Gold.PLP.part.repulsive>
1.1638

> <Gold.PLP.ligand.clash>
0.0000

> <Gold.PLP.ligand.torsion>
1.3679

> <Gold.PLP.Chemscore.Hbond>
5.5780

> <Gold.PLP.Chemscore.CHOScore>
0.0000

> <Gold.PLP.Chemscore.Metal>
0.0000

> <Gold.Chemscore.Hbonds>
donor molecule, donor type, donor heavy atom, donor atom, acceptor molecule, acceptor atom, score
      L1  H     3    24       P1  8028  1.82
      P1  H  7989  7998       L1     8  0.55
      P1  H  7997  8008       L1    12  0.63
      P1  H 10752 10764       L1    10  0.74

> <Gold.PLP.Chemscore.Internal.Correction>
0.1073

> <Gold.Rescore>
     Score         DG    S(hbond)    S(metal)    S(lipo)     H(rot)  DE(clash)    DE(int)     intcor
     14.90     -18.75       2.54        0.00      97.65       2.59       1.35       2.50       ----

> <Gold.Chemscore.Fitness>
14.8995

> <Gold.Chemscore.DG>
-18.7470

> <Gold.Chemscore.ZeroCoef>
-5.4800

> <Gold.Chemscore.Hbond>
2.5369

> <Gold.Chemscore.Metal>
0.0000

> <Gold.Chemscore.Lipo>
97.6487

> <Gold.Chemscore.Internal_Hbond>
0.0000

> <Gold.Chemscore.DEClash>
1.3493

> <Gold.Chemscore.DEInternal>
2.4982

> <Gold.Chemscore.Rot>
2.5903

> <Gold.Chemscore.Internal.Correction>
   9.000000E+99

> <Gold.Chemscore.Hbonds>
donor molecule, donor type, donor heavy atom, donor atom, acceptor molecule, acceptor atom, score
      L1  H     3    24       P1  8028  0.85
      P1  H  7989  7998       L1     8  0.03
      P1  H  7997  8008       L1    12  0.59
      P1  H 10752 10764       L1    10  0.05

> <Gold.Chemscore.Hbond.Weighted>
-8.4731

> <Gold.Chemscore.Metal.Weighted>
-0.0000

> <Gold.Chemscore.Lipo.Weighted>
-11.4249

> <Gold.Chemscore.Internal_Hbond.Weighted>
0.0000

> <Gold.Chemscore.DEClash.Weighted>
1.3493

> <Gold.Chemscore.DEInternal.Weighted>
2.4982

> <Gold.Chemscore.Rot.Weighted>
6.6311

> <Gold.Chemscore.Internal.Correction.Weighted>
   9.000000E+99

> <Gold.Protein.RotatedTorsions>
[ 6907 6896 6895 6894 ] final  -95.57 input  -60.11 | X-H torsion
[ 7974 7965 7964 7962 ] final -166.11 input  175.53 | X-H torsion
[ 8008 7997 7996 7995 ] final  -75.75 input   59.86 | X-H torsion
[ 10167 10162 10161 10158 ] final   11.90 input  -65.29 | X-H torsion
[ 10718 10713 10712 10709 ] final -130.24 input   66.30 | X-H torsion
[ 10763 10752 10751 10750 ] final  -43.81 input  -60.55 | X-H torsion
[ 11005 11000 10999 10996 ] final   43.87 input  -57.11 | X-H torsion

> <Gold.Protein.ActiveResidues>
 VAL166  LYS551  ARG553  GLY616  TRP617  ASP618  TYR619  PRO620  LYS621  CYS622 
 ASP623  PHE694  ASN695  SER759  ASP760  ASP761  ALA762  ILE779  LEU786  VAL792 
 PHE793  MET794  SER795  GLU796  ALA797  LYS798  CYS799  TRP800  GLU811  SER814 

> <Gold.Protein.RotatedAtoms>
  150.6967  134.1637  159.4185 H   0  0  0  0  0  0  0  0  0  0  0  0  # atno 6907 bound_to 6896
  151.9616  135.0118  160.0557 H   0  0  0  0  0  0  0  0  0  0  0  0  # atno 6908 bound_to 6896
  152.1921  133.4745  159.5050 H   0  0  0  0  0  0  0  0  0  0  0  0  # atno 6909 bound_to 6896
  144.7253  140.2715  143.6250 H   0  0  0  0  0  0  0  0  0  0  0  0  # atno 7974 bound_to 7965
  154.5444  140.0739  156.8564 H   0  0  0  0  0  0  0  0  0  0  0  0  # atno 8008 bound_to 7997
  155.3117  140.3390  155.4225 H   0  0  0  0  0  0  0  0  0  0  0  0  # atno 8009 bound_to 7997
  156.1904  140.1684  156.8089 H   0  0  0  0  0  0  0  0  0  0  0  0  # atno 8010 bound_to 7997
  140.6102  143.8423  150.7057 H   0  0  0  0  0  0  0  0  0  0  0  0  # atno 10167 bound_to 10162
  156.2125  130.6927  151.0665 H   0  0  0  0  0  0  0  0  0  0  0  0  # atno 10718 bound_to 10713
  154.0017  135.6692  153.4759 H   0  0  0  0  0  0  0  0  0  0  0  0  # atno 10763 bound_to 10752
  153.0659  135.5001  154.8196 H   0  0  0  0  0  0  0  0  0  0  0  0  # atno 10764 bound_to 10752
  154.7049  135.3086  154.9249 H   0  0  0  0  0  0  0  0  0  0  0  0  # atno 10765 bound_to 10752
  140.1604  134.4348  155.8321 H   0  0  0  0  0  0  0  0  0  0  0  0  # atno 11005 bound_to 11000
  145.8038  139.1975  143.2033 LP  0  0  0  0  0  0  0  0  0  0  0  0  # atno 17320 bound_to 7965
  146.0654  140.7926  142.9714 LP  0  0  0  0  0  0  0  0  0  0  0  0  # atno 17321 bound_to 7965
  140.1989  143.3975  152.1806 LP  0  0  0  0  0  0  0  0  0  0  0  0  # atno 17342 bound_to 10162
  139.5356  144.7205  151.4906 LP  0  0  0  0  0  0  0  0  0  0  0  0  # atno 17343 bound_to 10162
  157.7046  131.0762  150.6710 LP  0  0  0  0  0  0  0  0  0  0  0  0  # atno 17370 bound_to 10713
  156.6770  130.4556  149.5639 LP  0  0  0  0  0  0  0  0  0  0  0  0  # atno 17371 bound_to 10713
  141.2209  133.6911  156.7584 LP  0  0  0  0  0  0  0  0  0  0  0  0  # atno 17394 bound_to 11000
  140.2496  134.8550  157.3654 LP  0  0  0  0  0  0  0  0  0  0  0  0  # atno 17395 bound_to 11000

$$$$
