AV-unprocessed.smi:1756|AV-procd|sdf|7073|dock2
  -GOLD-   22720 8293D 1   1.00000     0.00000
 Structure written by MMmdl.
 37 38  0  0  0  0  0  0  0  0  2 V2000
  153.2834  138.2338  159.7413 O   0  0  0  0  0  0  0  0  0  0  0  0
  154.1938  138.9714  160.1178 C   0  0  0  0  0  0  0  0  0  0  0  0
  155.3329  138.5143  160.6573 N   0  0  0  0  0  0  0  0  0  0  0  0
  155.6589  137.1108  160.8915 C   0  0  0  0  0  0  0  0  0  0  0  0
  154.7322  136.4651  161.9375 C   0  0  2  0  0  0  0  0  0  0  0  0
  154.5490  137.3186  163.2112 C   0  0  0  0  0  0  0  0  0  0  0  0
  153.7045  136.5704  164.2488 C   0  0  0  0  0  0  0  0  0  0  0  0
  154.3023  135.1828  164.5010 C   0  0  0  0  0  0  0  0  0  0  0  0
  154.4917  134.4370  163.1714 C   0  0  0  0  0  0  0  0  0  0  0  0
  155.3066  135.2095  162.2952 O   0  0  0  0  0  0  0  0  0  0  0  0
  154.2106  140.3145  160.0412 N   0  0  0  0  0  0  0  0  0  0  0  0
  153.2299  141.2034  159.5665 C   0  0  0  0  0  0  0  0  0  0  0  0
  152.8838  142.3793  160.1610 C   0  0  0  0  0  0  0  0  0  0  0  0
  151.8638  143.2624  159.6094 C   0  0  0  0  0  0  0  0  0  0  0  0
  151.5125  144.6162  160.2010 C   0  0  0  0  0  0  0  0  0  0  0  0
  150.1989  144.7274  160.4003 F   0  0  0  0  0  0  0  0  0  0  0  0
  152.1251  144.7714  161.3737 F   0  0  0  0  0  0  0  0  0  0  0  0
  151.9006  145.6050  159.3954 F   0  0  0  0  0  0  0  0  0  0  0  0
  151.3335  142.7785  158.4294 C   0  0  0  0  0  0  0  0  0  0  0  0
  151.6105  141.6252  157.7825 N   0  5  0  0  0  0  0  0  0  0  0  0
  152.5604  140.8034  158.3111 C   0  0  0  0  0  0  0  0  0  0  0  0
  152.8679  139.7423  157.7664 O   0  0  0  0  0  0  0  0  0  0  0  0
  156.0296  139.1918  160.9309 H   0  0  0  0  0  0  0  0  0  0  0  0
  155.5454  136.5903  159.9402 H   0  0  0  0  0  0  0  0  0  0  0  0
  156.7045  136.9884  161.1791 H   0  0  0  0  0  0  0  0  0  0  0  0
  153.7595  136.2834  161.4769 H   0  0  0  0  0  0  0  0  0  0  0  0
  155.5246  137.5569  163.6369 H   0  0  0  0  0  0  0  0  0  0  0  0
  154.0715  138.2690  162.9731 H   0  0  0  0  0  0  0  0  0  0  0  0
  153.6523  137.1381  165.1781 H   0  0  0  0  0  0  0  0  0  0  0  0
  152.6817  136.4691  163.8842 H   0  0  0  0  0  0  0  0  0  0  0  0
  155.2657  135.2836  165.0028 H   0  0  0  0  0  0  0  0  0  0  0  0
  153.6587  134.6096  165.1686 H   0  0  0  0  0  0  0  0  0  0  0  0
  154.9758  133.4762  163.3467 H   0  0  0  0  0  0  0  0  0  0  0  0
  153.5297  134.2269  162.7012 H   0  0  0  0  0  0  0  0  0  0  0  0
  155.0581  140.7675  160.3507 H   0  0  0  0  0  0  0  0  0  0  0  0
  153.3656  142.7095  161.0658 H   0  0  0  0  0  0  0  0  0  0  0  0
  150.5761  143.4167  157.9263 H   0  0  0  0  0  0  0  0  0  0  0  0
  1  2  2  0  0  0  0
  2  3  1  0  0  0  0
  2 11  1  0  0  0  0
  3  4  1  0  0  0  0
  3 23  1  0  0  0  0
  4  5  1  0  0  0  0
  4 24  1  0  0  0  0
  4 25  1  0  0  0  0
  5 10  1  0  0  0  0
  5  6  1  0  0  0  0
  5 26  1  0  0  0  0
  6  7  1  0  0  0  0
  6 27  1  0  0  0  0
  6 28  1  0  0  0  0
  7  8  1  0  0  0  0
  7 29  1  0  0  0  0
  7 30  1  0  0  0  0
  8  9  1  0  0  0  0
  8 31  1  0  0  0  0
  8 32  1  0  0  0  0
  9 10  1  0  0  0  0
  9 33  1  0  0  0  0
  9 34  1  0  0  0  0
 11 12  1  0  0  0  0
 11 35  1  0  0  0  0
 12 21  1  0  0  0  0
 12 13  2  0  0  0  0
 13 14  1  0  0  0  0
 13 36  1  0  0  0  0
 14 15  1  0  0  0  0
 14 19  2  0  0  0  0
 15 16  1  0  0  0  0
 15 17  1  0  0  0  0
 15 18  1  0  0  0  0
 19 20  1  0  0  0  0
 19 37  1  0  0  0  0
 20 21  1  0  0  0  0
 21 22  2  0  0  0  0
M  CHG  1  20  -1
M  END
> <s_m_source_file>
AV-unprocessed.smi

> <i_m_source_file_index>
1756

> <i_lp_mmshare_version>
43012

> <i_f3d_flags>
0

> <s_epik_input>
Tz1jMVtuSF1bY0hdYyhDKEYpKEYpRilbY0hdYzFbTkhdQyg9TylbTkhdW0NIMl1bQ0BASF0yW0NIMl1bQ0gyXVtDSDJdW0NIMl1PMg==

> <s_epik_cmdline>
J2VwaWtfcHl0aG9uJywgJy1waCcsICc3LjAnLCAnLXRuJywgJzgnLCAnLW1hJywgJzIwMCcsICctbWV0YWxfYmluZGluZycsICctaW1hZScsICc8aW5maWxlLm1hZT4nLCAnLW9tYWUnLCAnPG91dGZpbGUubWFlPic=

> <r_lp_tautomer_probability>
1

> <r_epik_Ionization_Penalty>
3.16985

> <r_epik_Ionization_Penalty_Charging>
0.174782

> <r_epik_Ionization_Penalty_Neutral>
2.99507

> <r_epik_State_Penalty>
2.99125

> <r_epik_Charging_Adjusted_Penalty>
3.16603

> <i_epik_Tot_Q>
-1

> <i_epik_Tot_abs_Q>
1

> <r_epik_Metal_State_Penalty>
0.453096

> <b_epik_Metal_Only>
1

> <s_lp_Force_Field>
OPLS_2005

> <r_lp_Energy>
21.0117

> <b_lp_Chiralities_Consistent>
1

> <s_lp_Variant>
AV-unprocessed.smi:1756-3

> <Gold.Version>
5.8.1

> <Gold.Id.Protein>
6NUR|6NUR_protein|mol2

> <Gold.PLP.Fitness>
44.1848

> <Gold.PLP.PLP>
-42.2686

> <Gold.PLP.part.hbond>
-1.0000

> <Gold.PLP.part.metal>
0.0000

> <Gold.PLP.part.buried>
-2.7255

> <Gold.PLP.part.nonpolar>
-38.1649

> <Gold.PLP.part.repulsive>
0.0960

> <Gold.PLP.ligand.clash>
0.0000

> <Gold.PLP.ligand.torsion>
0.5674

> <Gold.PLP.Chemscore.Hbond>
1.0000

> <Gold.PLP.Chemscore.CHOScore>
0.0000

> <Gold.PLP.Chemscore.Metal>
0.0000

> <Gold.Chemscore.Hbonds>
donor molecule, donor type, donor heavy atom, donor atom, acceptor molecule, acceptor atom, score
      P1  H  7997  8008       L1    22  1.00

> <Gold.PLP.Chemscore.Internal.Correction>
0.0510

> <Gold.Rescore>
     Score         DG    S(hbond)    S(metal)    S(lipo)     H(rot)  DE(clash)    DE(int)     intcor
     11.30     -15.87       0.92        0.00      91.45       1.32       0.43       4.14       ----

> <Gold.Chemscore.Fitness>
11.3040

> <Gold.Chemscore.DG>
-15.8736

> <Gold.Chemscore.ZeroCoef>
-5.4800

> <Gold.Chemscore.Hbond>
0.9238

> <Gold.Chemscore.Metal>
0.0000

> <Gold.Chemscore.Lipo>
91.4494

> <Gold.Chemscore.Internal_Hbond>
0.0000

> <Gold.Chemscore.DEClash>
0.4327

> <Gold.Chemscore.DEInternal>
4.1368

> <Gold.Chemscore.Rot>
1.3248

> <Gold.Chemscore.Internal.Correction>
   9.000000E+99

> <Gold.Chemscore.Hbonds>
donor molecule, donor type, donor heavy atom, donor atom, acceptor molecule, acceptor atom, score
      P1  H  7997  8008       L1    22  0.48

> <Gold.Chemscore.Hbond.Weighted>
-3.0855

> <Gold.Chemscore.Metal.Weighted>
-0.0000

> <Gold.Chemscore.Lipo.Weighted>
-10.6996

> <Gold.Chemscore.Internal_Hbond.Weighted>
0.0000

> <Gold.Chemscore.DEClash.Weighted>
0.4327

> <Gold.Chemscore.DEInternal.Weighted>
4.1368

> <Gold.Chemscore.Rot.Weighted>
3.3915

> <Gold.Chemscore.Internal.Correction.Weighted>
   9.000000E+99

> <Gold.Protein.RotatedTorsions>
[ 6907 6896 6895 6894 ] final  151.78 input  -60.11 | X-H torsion
[ 7974 7965 7964 7962 ] final -134.32 input  175.53 | X-H torsion
[ 8008 7997 7996 7995 ] final  -89.32 input   59.86 | X-H torsion
[ 10167 10162 10161 10158 ] final  -40.63 input  -65.29 | X-H torsion
[ 10718 10713 10712 10709 ] final  110.08 input   66.30 | X-H torsion
[ 10763 10752 10751 10750 ] final  -10.51 input  -60.55 | X-H torsion
[ 11005 11000 10999 10996 ] final  133.63 input  -57.11 | X-H torsion

> <Gold.Protein.ActiveResidues>
 VAL166  LYS551  ARG553  GLY616  TRP617  ASP618  TYR619  PRO620  LYS621  CYS622 
 ASP623  PHE694  ASN695  SER759  ASP760  ASP761  ALA762  ILE779  LEU786  VAL792 
 PHE793  MET794  SER795  GLU796  ALA797  LYS798  CYS799  TRP800  GLU811  SER814 

> <Gold.Protein.RotatedAtoms>
  152.0959  133.4224  159.4564 H   0  0  0  0  0  0  0  0  0  0  0  0  # atno 6907 bound_to 6896
  150.6863  134.2817  159.4639 H   0  0  0  0  0  0  0  0  0  0  0  0  # atno 6908 bound_to 6896
  152.0673  134.9555  160.0625 H   0  0  0  0  0  0  0  0  0  0  0  0  # atno 6909 bound_to 6896
  144.9114  140.6899  143.5023 H   0  0  0  0  0  0  0  0  0  0  0  0  # atno 7974 bound_to 7965
  154.6852  140.0543  157.0307 H   0  0  0  0  0  0  0  0  0  0  0  0  # atno 8008 bound_to 7997
  155.0895  140.3218  155.4559 H   0  0  0  0  0  0  0  0  0  0  0  0  # atno 8009 bound_to 7997
  156.2708  140.2050  156.6022 H   0  0  0  0  0  0  0  0  0  0  0  0  # atno 8010 bound_to 7997
  140.7028  143.3142  151.2952 H   0  0  0  0  0  0  0  0  0  0  0  0  # atno 10167 bound_to 10162
  157.6511  131.0926  150.6549 H   0  0  0  0  0  0  0  0  0  0  0  0  # atno 10718 bound_to 10713
  153.4702  135.7016  153.5998 H   0  0  0  0  0  0  0  0  0  0  0  0  # atno 10763 bound_to 10752
  153.4255  135.3815  155.2138 H   0  0  0  0  0  0  0  0  0  0  0  0  # atno 10764 bound_to 10752
  154.8725  135.3938  154.4139 H   0  0  0  0  0  0  0  0  0  0  0  0  # atno 10765 bound_to 10752
  139.9864  134.9530  156.9753 H   0  0  0  0  0  0  0  0  0  0  0  0  # atno 11005 bound_to 11000
  145.3449  139.1722  143.4466 LP  0  0  0  0  0  0  0  0  0  0  0  0  # atno 17320 bound_to 7965
  146.3160  140.3494  142.8655 LP  0  0  0  0  0  0  0  0  0  0  0  0  # atno 17321 bound_to 7965
  139.6575  144.0250  152.2669 LP  0  0  0  0  0  0  0  0  0  0  0  0  # atno 17342 bound_to 10162
  139.9806  144.6431  150.7904 LP  0  0  0  0  0  0  0  0  0  0  0  0  # atno 17343 bound_to 10162
  156.6861  130.4581  149.5613 LP  0  0  0  0  0  0  0  0  0  0  0  0  # atno 17370 bound_to 10713
  156.1895  130.6550  151.1045 LP  0  0  0  0  0  0  0  0  0  0  0  0  # atno 17371 bound_to 10713
  140.4994  134.1112  155.7247 LP  0  0  0  0  0  0  0  0  0  0  0  0  # atno 17394 bound_to 11000
  141.1528  133.8937  157.2054 LP  0  0  0  0  0  0  0  0  0  0  0  0  # atno 17395 bound_to 11000

$$$$
