AV-unprocessed.smi:3332|AV-procd|sdf|12830|dock4
  -GOLD-   2272019213D 1   1.00000     0.00000
 Structure written by MMmdl.
 41 42  0  0  0  0  0  0  0  0  1 V2000
  153.0511  144.3373  162.9425 C   0  0  0  0  0  0  0  0  0  0  0  0
  152.9611  142.8092  162.8753 C   0  0  0  0  0  0  0  0  0  0  0  0
  152.8812  142.3044  161.4648 C   0  0  0  0  0  0  0  0  0  0  0  0
  151.9234  142.8408  160.6002 N   0  0  0  0  0  0  0  0  0  0  0  0
  151.9668  142.3005  159.3802 C   0  0  0  0  0  0  0  0  0  0  0  0
  151.0068  142.6530  158.2885 C   0  0  0  0  0  0  0  0  0  0  0  0
  150.9406  141.6142  157.1522 C   0  0  0  0  0  0  0  0  0  0  0  0
  150.0366  142.0311  156.0819 N   0  0  0  0  0  0  0  0  0  0  0  0
  149.7400  141.3115  154.9881 C   0  0  0  0  0  0  0  0  0  0  0  0
  150.2940  140.2485  154.7059 O   0  0  0  0  0  0  0  0  0  0  0  0
  148.6298  141.8753  154.0926 C   0  0  0  0  0  0  0  0  0  0  0  0
  147.1970  141.6420  154.6253 C   0  0  1  0  0  0  0  0  0  0  0  0
  147.0217  141.9790  156.0872 C   0  0  0  0  0  0  0  0  0  0  0  0
  146.0225  142.8302  156.3047 C   0  0  0  0  0  0  0  0  0  0  0  0
  145.3291  143.2393  155.0355 C   0  0  0  0  0  0  0  0  0  0  0  0
  146.1376  142.5314  153.9245 C   0  0  0  0  0  0  0  0  0  0  0  0
  153.2027  141.0618  159.2187 S   0  0  0  0  0  0  0  0  0  0  0  0
  153.6595  141.3315  160.8816 C   0  0  0  0  0  0  0  0  0  0  0  0
  154.7639  140.5473  161.5080 C   0  0  0  0  0  0  0  0  0  0  0  0
  153.1107  144.6776  163.9764 H   0  0  0  0  0  0  0  0  0  0  0  0
  152.1765  144.8043  162.4883 H   0  0  0  0  0  0  0  0  0  0  0  0
  153.9361  144.7014  162.4197 H   0  0  0  0  0  0  0  0  0  0  0  0
  153.8226  142.3772  163.3848 H   0  0  0  0  0  0  0  0  0  0  0  0
  152.0888  142.4755  163.4389 H   0  0  0  0  0  0  0  0  0  0  0  0
  150.0163  142.7716  158.7296 H   0  0  0  0  0  0  0  0  0  0  0  0
  151.2794  143.6281  157.8845 H   0  0  0  0  0  0  0  0  0  0  0  0
  151.9350  141.4602  156.7329 H   0  0  0  0  0  0  0  0  0  0  0  0
  150.6344  140.6509  157.5631 H   0  0  0  0  0  0  0  0  0  0  0  0
  149.5378  142.8974  156.2232 H   0  0  0  0  0  0  0  0  0  0  0  0
  148.7958  142.9467  153.9652 H   0  0  0  0  0  0  0  0  0  0  0  0
  148.7309  141.4270  153.1037 H   0  0  0  0  0  0  0  0  0  0  0  0
  146.9249  140.5930  154.4975 H   0  0  0  0  0  0  0  0  0  0  0  0
  147.6406  141.5449  156.8585 H   0  0  0  0  0  0  0  0  0  0  0  0
  145.7141  143.1930  157.2742 H   0  0  0  0  0  0  0  0  0  0  0  0
  144.2912  142.9055  155.0550 H   0  0  0  0  0  0  0  0  0  0  0  0
  145.3458  144.3238  154.9221 H   0  0  0  0  0  0  0  0  0  0  0  0
  146.6136  143.2778  153.2871 H   0  0  0  0  0  0  0  0  0  0  0  0
  145.4877  141.9356  153.2827 H   0  0  0  0  0  0  0  0  0  0  0  0
  155.5227  141.2117  161.9220 H   0  0  0  0  0  0  0  0  0  0  0  0
  155.2487  139.8957  160.7805 H   0  0  0  0  0  0  0  0  0  0  0  0
  154.3823  139.9231  162.3165 H   0  0  0  0  0  0  0  0  0  0  0  0
  1  2  1  0  0  0  0
  1 20  1  0  0  0  0
  1 21  1  0  0  0  0
  1 22  1  0  0  0  0
  2  3  1  0  0  0  0
  2 23  1  0  0  0  0
  2 24  1  0  0  0  0
  3 18  2  0  0  0  0
  3  4  1  0  0  0  0
  4  5  2  0  0  0  0
  5  6  1  0  0  0  0
  5 17  1  0  0  0  0
  6  7  1  0  0  0  0
  6 25  1  0  0  0  0
  6 26  1  0  0  0  0
  7  8  1  0  0  0  0
  7 27  1  0  0  0  0
  7 28  1  0  0  0  0
  8  9  1  0  0  0  0
  8 29  1  0  0  0  0
  9 10  2  0  0  0  0
  9 11  1  0  0  0  0
 11 12  1  0  0  0  0
 11 30  1  0  0  0  0
 11 31  1  0  0  0  0
 12 16  1  0  0  0  0
 12 13  1  0  0  0  0
 12 32  1  0  0  0  0
 13 14  2  0  0  0  0
 13 33  1  0  0  0  0
 14 15  1  0  0  0  0
 14 34  1  0  0  0  0
 15 16  1  0  0  0  0
 15 35  1  0  0  0  0
 15 36  1  0  0  0  0
 16 37  1  0  0  0  0
 16 38  1  0  0  0  0
 17 18  1  0  0  0  0
 18 19  1  0  0  0  0
 19 39  1  0  0  0  0
 19 40  1  0  0  0  0
 19 41  1  0  0  0  0
M  END
> <s_m_source_file>
AV-unprocessed.smi

> <i_m_source_file_index>
3332

> <i_lp_mmshare_version>
43012

> <i_f3d_flags>
0

> <s_epik_input>
W0NIM11bQ0gyXWMxbmMoc2MxW0NIM10pW0NIMl1bQ0gyXVtOSF1DKD1PKVtDSDJdW0NAQEhdMltDSF09W0NIXVtDSDJdW0NIMl0y

> <s_epik_cmdline>
J2VwaWtfcHl0aG9uJywgJy1waCcsICc3LjAnLCAnLXRuJywgJzgnLCAnLW1hJywgJzIwMCcsICctbWV0YWxfYmluZGluZycsICctaW1hZScsICc8aW5maWxlLm1hZT4nLCAnLW9tYWUnLCAnPG91dGZpbGUubWFlPic=

> <r_epik_Ionization_Penalty>
0.00221844

> <r_epik_Ionization_Penalty_Charging>
0

> <r_epik_Ionization_Penalty_Neutral>
0.00221844

> <r_epik_State_Penalty>
0.00152607

> <r_epik_Charging_Adjusted_Penalty>
0.00152607

> <i_epik_Tot_Q>
0

> <i_epik_Tot_abs_Q>
0

> <r_epik_Metal_State_Penalty>
-0

> <b_epik_Metal_Only>
0

> <s_lp_Force_Field>
OPLS_2005

> <r_lp_Energy>
6.79719

> <b_lp_Chiralities_Consistent>
1

> <s_lp_Variant>
AV-unprocessed.smi:3332-2

> <Gold.Version>
5.8.1

> <Gold.Id.Protein>
6NUR|6NUR_protein|mol2

> <Gold.PLP.Fitness>
47.5280

> <Gold.PLP.PLP>
-42.7826

> <Gold.PLP.part.hbond>
-2.2115

> <Gold.PLP.part.metal>
0.0000

> <Gold.PLP.part.buried>
-3.2507

> <Gold.PLP.part.nonpolar>
-37.1332

> <Gold.PLP.part.repulsive>
0.2338

> <Gold.PLP.ligand.clash>
0.0000

> <Gold.PLP.ligand.torsion>
0.6512

> <Gold.PLP.Chemscore.Hbond>
2.0000

> <Gold.PLP.Chemscore.CHOScore>
0.0000

> <Gold.PLP.Chemscore.Metal>
0.0000

> <Gold.Chemscore.Hbonds>
donor molecule, donor type, donor heavy atom, donor atom, acceptor molecule, acceptor atom, score
      L1  H     8    29       P1  8028  1.00
      P1  H  7989  7998       L1    10  1.00

> <Gold.PLP.Chemscore.Internal.Correction>
0.0478

> <Gold.Rescore>
     Score         DG    S(hbond)    S(metal)    S(lipo)     H(rot)  DE(clash)    DE(int)     intcor
     17.62     -21.13       1.63        0.00     120.38       1.51       2.96       0.55       ----

> <Gold.Chemscore.Fitness>
17.6180

> <Gold.Chemscore.DG>
-21.1319

> <Gold.Chemscore.ZeroCoef>
-5.4800

> <Gold.Chemscore.Hbond>
1.6268

> <Gold.Chemscore.Metal>
0.0000

> <Gold.Chemscore.Lipo>
120.3820

> <Gold.Chemscore.Internal_Hbond>
0.0000

> <Gold.Chemscore.DEClash>
2.9591

> <Gold.Chemscore.DEInternal>
0.5548

> <Gold.Chemscore.Rot>
1.5103

> <Gold.Chemscore.Internal.Correction>
   9.000000E+99

> <Gold.Chemscore.Hbonds>
donor molecule, donor type, donor heavy atom, donor atom, acceptor molecule, acceptor atom, score
      L1  H     8    29       P1  8028  0.92
      P1  H  7989  7998       L1    10  0.25

> <Gold.Chemscore.Hbond.Weighted>
-5.4336

> <Gold.Chemscore.Metal.Weighted>
-0.0000

> <Gold.Chemscore.Lipo.Weighted>
-14.0847

> <Gold.Chemscore.Internal_Hbond.Weighted>
0.0000

> <Gold.Chemscore.DEClash.Weighted>
2.9591

> <Gold.Chemscore.DEInternal.Weighted>
0.5548

> <Gold.Chemscore.Rot.Weighted>
3.8664

> <Gold.Chemscore.Internal.Correction.Weighted>
   9.000000E+99

> <Gold.Protein.RotatedTorsions>
[ 6907 6896 6895 6894 ] final  -49.51 input  -60.11 | X-H torsion
[ 7974 7965 7964 7962 ] final   84.85 input  175.53 | X-H torsion
[ 8008 7997 7996 7995 ] final  144.54 input   59.86 | X-H torsion
[ 10167 10162 10161 10158 ] final -177.10 input  -65.29 | X-H torsion
[ 10718 10713 10712 10709 ] final   75.31 input   66.30 | X-H torsion
[ 10763 10752 10751 10750 ] final  -81.42 input  -60.55 | X-H torsion
[ 11005 11000 10999 10996 ] final  -96.94 input  -57.11 | X-H torsion

> <Gold.Protein.ActiveResidues>
 VAL166  LYS551  ARG553  GLY616  TRP617  ASP618  TYR619  PRO620  LYS621  CYS622 
 ASP623  PHE694  ASN695  SER759  ASP760  ASP761  ALA762  ILE779  LEU786  VAL792 
 PHE793  MET794  SER795  GLU796  ALA797  LYS798  CYS799  TRP800  GLU811  SER814 

> <Gold.Protein.RotatedAtoms>
  150.8797  134.8186  159.7215 H   0  0  0  0  0  0  0  0  0  0  0  0  # atno 6907 bound_to 6896
  152.4770  134.4815  159.9677 H   0  0  0  0  0  0  0  0  0  0  0  0  # atno 6908 bound_to 6896
  151.4891  133.3490  159.2886 H   0  0  0  0  0  0  0  0  0  0  0  0  # atno 6909 bound_to 6896
  145.5933  139.2341  143.2287 H   0  0  0  0  0  0  0  0  0  0  0  0  # atno 7974 bound_to 7965
  156.2905  140.2233  156.5069 H   0  0  0  0  0  0  0  0  0  0  0  0  # atno 8008 bound_to 7997
  154.7642  140.0471  157.1020 H   0  0  0  0  0  0  0  0  0  0  0  0  # atno 8009 bound_to 7997
  154.9954  140.3095  155.4892 H   0  0  0  0  0  0  0  0  0  0  0  0  # atno 8010 bound_to 7997
  139.5496  144.2143  152.1053 H   0  0  0  0  0  0  0  0  0  0  0  0  # atno 10167 bound_to 10162
  157.6629  130.9720  150.1335 H   0  0  0  0  0  0  0  0  0  0  0  0  # atno 10718 bound_to 10713
  154.5634  135.5627  153.7028 H   0  0  0  0  0  0  0  0  0  0  0  0  # atno 10763 bound_to 10752
  153.0025  135.6279  154.2214 H   0  0  0  0  0  0  0  0  0  0  0  0  # atno 10764 bound_to 10752
  154.2152  135.2872  155.2924 H   0  0  0  0  0  0  0  0  0  0  0  0  # atno 10765 bound_to 10752
  141.1395  133.8134  157.0639 H   0  0  0  0  0  0  0  0  0  0  0  0  # atno 11005 bound_to 11000
  146.1631  140.6759  142.9268 LP  0  0  0  0  0  0  0  0  0  0  0  0  # atno 17320 bound_to 7965
  144.7342  140.4760  143.6916 LP  0  0  0  0  0  0  0  0  0  0  0  0  # atno 17321 bound_to 7965
  140.1636  144.5002  150.6618 LP  0  0  0  0  0  0  0  0  0  0  0  0  # atno 17342 bound_to 10162
  140.6755  143.2303  151.5517 LP  0  0  0  0  0  0  0  0  0  0  0  0  # atno 17343 bound_to 10162
  156.2176  130.3671  149.8595 LP  0  0  0  0  0  0  0  0  0  0  0  0  # atno 17370 bound_to 10713
  156.6456  130.8723  151.3522 LP  0  0  0  0  0  0  0  0  0  0  0  0  # atno 17371 bound_to 10713
  140.0554  134.9783  157.1210 LP  0  0  0  0  0  0  0  0  0  0  0  0  # atno 17394 bound_to 11000
  140.3928  134.2166  155.7165 LP  0  0  0  0  0  0  0  0  0  0  0  0  # atno 17395 bound_to 11000

$$$$
