AV-unprocessed.smi:528|AV-procd|sdf|2832|dock3
  -GOLD-   2262023323D 1   1.00000     0.00000
 Structure written by MMmdl.
 45 47  0  0  0  0  0  0  0  0  1 V2000
  147.5171  136.9433  155.6144 C   0  0  0  0  0  0  0  0  0  0  0  0
  149.0196  136.8034  155.3146 C   0  0  1  0  0  0  0  0  0  0  0  0
  149.2368  135.6872  154.3966 N   0  0  0  0  0  0  0  0  0  0  0  0
  149.1115  134.3867  154.7030 C   0  0  0  0  0  0  0  0  0  0  0  0
  148.7643  133.9843  155.8142 O   0  0  0  0  0  0  0  0  0  0  0  0
  149.4077  133.4003  153.5643 C   0  0  0  0  0  0  0  0  0  0  0  0
  148.2086  132.7069  153.0643 N   0  0  0  0  0  0  0  0  0  0  0  0
  147.1995  133.5036  152.4881 C   0  0  0  0  0  0  0  0  0  0  0  0
  146.0499  132.9944  152.0050 C   0  0  0  0  0  0  0  0  0  0  0  0
  145.0012  133.8735  151.3416 C   0  0  0  0  0  0  0  0  0  0  0  0
  144.3951  134.6548  152.2358 F   0  0  0  0  0  0  0  0  0  0  0  0
  145.5765  134.6556  150.4297 F   0  0  0  0  0  0  0  0  0  0  0  0
  144.0719  133.1377  150.7305 F   0  0  0  0  0  0  0  0  0  0  0  0
  145.9034  131.5537  152.0738 C   0  0  0  0  0  0  0  0  0  0  0  0
  146.8604  130.7769  152.6181 C   0  0  0  0  0  0  0  0  0  0  0  0
  148.0948  131.3482  153.1612 C   0  0  0  0  0  0  0  0  0  0  0  0
  148.9725  130.6497  153.6692 O   0  0  0  0  0  0  0  0  0  0  0  0
  149.6211  138.0904  154.7020 C   0  0  2  0  0  0  0  0  0  0  0  0
  151.1420  138.0295  154.4291 C   0  0  0  0  0  0  0  0  0  0  0  0
  151.6605  139.3344  155.0611 C   0  0  2  0  0  0  0  0  0  0  0  0
  151.6458  139.1905  156.5937 C   0  0  0  0  0  0  0  0  0  0  0  0
  150.1436  139.2585  156.9242 C   0  0  0  0  0  0  0  0  0  0  0  0
  149.4916  139.3921  155.5321 C   0  0  1  0  0  0  0  0  0  0  0  0
  150.4988  140.2924  154.8232 C   0  0  0  0  0  0  0  0  0  0  0  0
  147.3301  137.7338  156.3412 H   0  0  0  0  0  0  0  0  0  0  0  0
  147.1094  136.0217  156.0308 H   0  0  0  0  0  0  0  0  0  0  0  0
  146.9522  137.1794  154.7122 H   0  0  0  0  0  0  0  0  0  0  0  0
  149.5404  136.5800  156.2462 H   0  0  0  0  0  0  0  0  0  0  0  0
  149.5188  135.9242  153.4565 H   0  0  0  0  0  0  0  0  0  0  0  0
  149.8973  133.9498  152.7592 H   0  0  0  0  0  0  0  0  0  0  0  0
  150.1470  132.6713  153.9016 H   0  0  0  0  0  0  0  0  0  0  0  0
  147.4185  134.5614  152.4678 H   0  0  0  0  0  0  0  0  0  0  0  0
  145.0081  131.0890  151.6877 H   0  0  0  0  0  0  0  0  0  0  0  0
  146.7153  129.7072  152.6564 H   0  0  0  0  0  0  0  0  0  0  0  0
  149.1184  138.2658  153.7486 H   0  0  0  0  0  0  0  0  0  0  0  0
  151.6214  137.1533  154.8678 H   0  0  0  0  0  0  0  0  0  0  0  0
  151.3367  138.0089  153.3561 H   0  0  0  0  0  0  0  0  0  0  0  0
  152.6208  139.6625  154.6625 H   0  0  0  0  0  0  0  0  0  0  0  0
  152.1042  138.2587  156.9268 H   0  0  0  0  0  0  0  0  0  0  0  0
  152.1803  140.0146  157.0680 H   0  0  0  0  0  0  0  0  0  0  0  0
  149.7934  138.3960  157.4894 H   0  0  0  0  0  0  0  0  0  0  0  0
  149.9324  140.1430  157.5265 H   0  0  0  0  0  0  0  0  0  0  0  0
  148.4776  139.7916  155.5627 H   0  0  0  0  0  0  0  0  0  0  0  0
  150.6314  141.2619  155.3071 H   0  0  0  0  0  0  0  0  0  0  0  0
  150.2759  140.4489  153.7663 H   0  0  0  0  0  0  0  0  0  0  0  0
  1  2  1  0  0  0  0
  1 25  1  0  0  0  0
  1 26  1  0  0  0  0
  1 27  1  0  0  0  0
  2  3  1  0  0  0  0
  2 18  1  0  0  0  0
  2 28  1  0  0  0  0
  3  4  1  0  0  0  0
  3 29  1  0  0  0  0
  4  5  2  0  0  0  0
  4  6  1  0  0  0  0
  6  7  1  0  0  0  0
  6 30  1  0  0  0  0
  6 31  1  0  0  0  0
  7 16  1  0  0  0  0
  7  8  1  0  0  0  0
  8  9  2  0  0  0  0
  8 32  1  0  0  0  0
  9 10  1  0  0  0  0
  9 14  1  0  0  0  0
 10 11  1  0  0  0  0
 10 12  1  0  0  0  0
 10 13  1  0  0  0  0
 14 15  2  0  0  0  0
 14 33  1  0  0  0  0
 15 16  1  0  0  0  0
 15 34  1  0  0  0  0
 16 17  2  0  0  0  0
 18 23  1  0  0  0  0
 18 19  1  0  0  0  0
 18 35  1  0  0  0  0
 19 20  1  0  0  0  0
 19 36  1  0  0  0  0
 19 37  1  0  0  0  0
 20 24  1  0  0  0  0
 20 21  1  0  0  0  0
 20 38  1  0  0  0  0
 21 22  1  0  0  0  0
 21 39  1  0  0  0  0
 21 40  1  0  0  0  0
 22 23  1  0  0  0  0
 22 41  1  0  0  0  0
 22 42  1  0  0  0  0
 23 24  1  0  0  0  0
 23 43  1  0  0  0  0
 24 44  1  0  0  0  0
 24 45  1  0  0  0  0
M  END
> <s_m_source_file>
AV-unprocessed.smi

> <i_m_source_file_index>
528

> <i_lp_mmshare_version>
43012

> <i_f3d_flags>
0

> <s_epik_input>
W0NIMl0xW0NIMl1bQ0BASF0oW0NIMl0yKVtDQEBIXShbQ0gyXVtDQEhdMTIpW0NASF0oW0NIM10pW05IXUMoPU8pW0NIMl1uM1tjSF1jKEMoRikoRilGKVtjSF1bY0hdYzM9Tw==

> <s_epik_cmdline>
J2VwaWtfcHl0aG9uJywgJy1waCcsICc3LjAnLCAnLXRuJywgJzgnLCAnLW1hJywgJzIwMCcsICctbWV0YWxfYmluZGluZycsICctaW1hZScsICc8aW5maWxlLm1hZT4nLCAnLW9tYWUnLCAnPG91dGZpbGUubWFlPic=

> <r_lp_tautomer_probability>
1

> <r_epik_Ionization_Penalty>
4.09479e-08

> <r_epik_Ionization_Penalty_Charging>
1.9321e-08

> <r_epik_Ionization_Penalty_Neutral>
2.16269e-08

> <r_epik_State_Penalty>
-0

> <r_epik_Charging_Adjusted_Penalty>
1.9321e-08

> <i_epik_Tot_Q>
0

> <i_epik_Tot_abs_Q>
0

> <r_epik_Metal_State_Penalty>
-0

> <b_epik_Metal_Only>
0

> <s_lp_Force_Field>
OPLS_2005

> <r_lp_Energy>
63.1325

> <b_lp_Chiralities_Consistent>
1

> <s_lp_Variant>
AV-unprocessed.smi:528-2

> <Gold.Version>
5.8.1

> <Gold.Id.Protein>
6NUR|6NUR_protein|mol2

> <Gold.PLP.Fitness>
43.6434

> <Gold.PLP.PLP>
-38.5069

> <Gold.PLP.part.hbond>
-1.0000

> <Gold.PLP.part.metal>
0.0000

> <Gold.PLP.part.buried>
-2.5007

> <Gold.PLP.part.nonpolar>
-34.9523

> <Gold.PLP.part.repulsive>
0.1196

> <Gold.PLP.ligand.clash>
0.0000

> <Gold.PLP.ligand.torsion>
0.4837

> <Gold.PLP.Chemscore.Hbond>
0.9920

> <Gold.PLP.Chemscore.CHOScore>
1.0000

> <Gold.PLP.Chemscore.Metal>
0.0000

> <Gold.Chemscore.Hbonds>
donor molecule, donor type, donor heavy atom, donor atom, acceptor molecule, acceptor atom, score
      L1  H     3    29       P1  7948  0.93
      L1  C     8    32       P1  7948  1.00

> <Gold.PLP.Chemscore.Internal.Correction>
0.1279

> <Gold.Rescore>
     Score         DG    S(hbond)    S(metal)    S(lipo)     H(rot)  DE(clash)    DE(int)     intcor
     12.13     -12.68       0.95        0.00      71.96       1.71       0.07       0.48       ----

> <Gold.Chemscore.Fitness>
12.1303

> <Gold.Chemscore.DG>
-12.6784

> <Gold.Chemscore.ZeroCoef>
-5.4800

> <Gold.Chemscore.Hbond>
0.9471

> <Gold.Chemscore.Metal>
0.0000

> <Gold.Chemscore.Lipo>
71.9574

> <Gold.Chemscore.Internal_Hbond>
0.0000

> <Gold.Chemscore.DEClash>
0.0670

> <Gold.Chemscore.DEInternal>
0.4811

> <Gold.Chemscore.Rot>
1.7125

> <Gold.Chemscore.Internal.Correction>
   9.000000E+99

> <Gold.Chemscore.Hbonds>
donor molecule, donor type, donor heavy atom, donor atom, acceptor molecule, acceptor atom, score
      L1  H     3    29       P1  7948  0.27

> <Gold.Chemscore.Hbond.Weighted>
-3.1634

> <Gold.Chemscore.Metal.Weighted>
-0.0000

> <Gold.Chemscore.Lipo.Weighted>
-8.4190

> <Gold.Chemscore.Internal_Hbond.Weighted>
0.0000

> <Gold.Chemscore.DEClash.Weighted>
0.0670

> <Gold.Chemscore.DEInternal.Weighted>
0.4811

> <Gold.Chemscore.Rot.Weighted>
4.3840

> <Gold.Chemscore.Internal.Correction.Weighted>
   9.000000E+99

> <Gold.Protein.RotatedTorsions>
[ 6907 6896 6895 6894 ] final   -5.85 input  -60.11 | X-H torsion
[ 7974 7965 7964 7962 ] final   25.98 input  175.53 | X-H torsion
[ 8008 7997 7996 7995 ] final -134.61 input   59.86 | X-H torsion
[ 10167 10162 10161 10158 ] final  -45.24 input  -65.29 | X-H torsion
[ 10718 10713 10712 10709 ] final  146.49 input   66.30 | X-H torsion
[ 10763 10752 10751 10750 ] final  105.12 input  -60.55 | X-H torsion
[ 11005 11000 10999 10996 ] final  166.13 input  -57.11 | X-H torsion

> <Gold.Protein.ActiveResidues>
 VAL166  LYS551  ARG553  GLY616  TRP617  ASP618  TYR619  PRO620  LYS621  CYS622 
 ASP623  PHE694  ASN695  SER759  ASP760  ASP761  ALA762  ILE779  LEU786  VAL792 
 PHE793  MET794  SER795  GLU796  ALA797  LYS798  CYS799  TRP800  GLU811  SER814 

> <Gold.Protein.RotatedAtoms>
  151.4750  135.1048  159.9761 H   0  0  0  0  0  0  0  0  0  0  0  0  # atno 6907 bound_to 6896
  152.4801  133.8230  159.7074 H   0  0  0  0  0  0  0  0  0  0  0  0  # atno 6908 bound_to 6896
  150.8867  133.7237  159.2943 H   0  0  0  0  0  0  0  0  0  0  0  0  # atno 6909 bound_to 6896
  146.1861  139.7392  142.8865 H   0  0  0  0  0  0  0  0  0  0  0  0  # atno 7974 bound_to 7965
  155.3650  140.0485  157.3046 H   0  0  0  0  0  0  0  0  0  0  0  0  # atno 8008 bound_to 7997
  154.5159  140.2208  155.9031 H   0  0  0  0  0  0  0  0  0  0  0  0  # atno 8009 bound_to 7997
  156.1635  140.3111  155.8854 H   0  0  0  0  0  0  0  0  0  0  0  0  # atno 8010 bound_to 7997
  140.6866  143.2889  151.3611 H   0  0  0  0  0  0  0  0  0  0  0  0  # atno 10167 bound_to 10162
  157.3325  131.0922  151.1150 H   0  0  0  0  0  0  0  0  0  0  0  0  # atno 10718 bound_to 10713
  153.3751  135.3920  155.1816 H   0  0  0  0  0  0  0  0  0  0  0  0  # atno 10763 bound_to 10752
  154.8700  135.3712  154.4929 H   0  0  0  0  0  0  0  0  0  0  0  0  # atno 10764 bound_to 10752
  153.5400  135.7084  153.5702 H   0  0  0  0  0  0  0  0  0  0  0  0  # atno 10765 bound_to 10752
  140.2633  134.7885  157.3610 H   0  0  0  0  0  0  0  0  0  0  0  0  # atno 11005 bound_to 11000
  145.3934  141.0375  143.3111 LP  0  0  0  0  0  0  0  0  0  0  0  0  # atno 17320 bound_to 7965
  144.8400  139.5487  143.6904 LP  0  0  0  0  0  0  0  0  0  0  0  0  # atno 17321 bound_to 7965
  139.6229  144.0871  152.2408 LP  0  0  0  0  0  0  0  0  0  0  0  0  # atno 17342 bound_to 10162
  140.0321  144.6073  150.7479 LP  0  0  0  0  0  0  0  0  0  0  0  0  # atno 17343 bound_to 10162
  157.2393  130.6562  149.5883 LP  0  0  0  0  0  0  0  0  0  0  0  0  # atno 17370 bound_to 10713
  155.9697  130.4573  150.5959 LP  0  0  0  0  0  0  0  0  0  0  0  0  # atno 17371 bound_to 10713
  140.1443  134.4931  155.8008 LP  0  0  0  0  0  0  0  0  0  0  0  0  # atno 17394 bound_to 11000
  141.2187  133.6837  156.7266 LP  0  0  0  0  0  0  0  0  0  0  0  0  # atno 17395 bound_to 11000

$$$$
