AV-unprocessed.smi:2357|AV-procd|sdf|9401|dock5
  -GOLD-   2272013 33D 1   1.00000     0.00000
 Structure written by MMmdl.
 37 38  0  0  0  0  0  0  0  0  1 V2000
  144.4584  143.6706  157.1514 C   0  0  0  0  0  0  0  0  0  0  0  0
  145.5712  142.8284  156.5553 C   0  0  0  0  0  0  0  0  0  0  0  0
  145.9138  142.9643  155.1546 C   0  0  0  0  0  0  0  0  0  0  0  0
  146.9059  142.2185  154.6456 C   0  0  0  0  0  0  0  0  0  0  0  0
  147.6251  141.3016  155.4321 N   0  0  0  0  0  0  0  0  0  0  0  0
  148.7073  140.5511  154.7746 C   0  0  0  0  0  0  0  0  0  0  0  0
  150.0917  141.0241  155.2344 C   0  0  0  0  0  0  0  0  0  0  0  0
  151.1060  140.4529  154.8337 O   0  0  0  0  0  0  0  0  0  0  0  0
  150.1137  142.0674  156.0765 N   0  0  0  0  0  0  0  0  0  0  0  0
  151.3178  142.7410  156.5521 C   0  0  0  0  0  0  0  0  0  0  0  0
  151.2255  143.1556  158.0362 C   0  0  2  0  0  0  0  0  0  0  0  0
  152.0820  144.3572  158.4539 C   0  0  0  0  0  0  0  0  0  0  0  0
  152.2949  144.0849  159.9256 C   0  0  0  0  0  0  0  0  0  0  0  0
  152.4574  142.5689  159.9357 C   0  0  0  0  0  0  0  0  0  0  0  0
  151.6039  142.0870  158.9025 O   0  0  0  0  0  0  0  0  0  0  0  0
  147.3520  141.1153  156.7591 C   0  0  0  0  0  0  0  0  0  0  0  0
  147.9818  140.3051  157.4424 O   0  0  0  0  0  0  0  0  0  0  0  0
  146.2668  141.9432  157.3085 C   0  0  0  0  0  0  0  0  0  0  0  0
  145.9923  141.7577  158.6972 C   0  0  0  0  0  0  0  0  0  0  0  0
  145.7825  141.5915  159.8234 N   0  0  0  0  0  0  0  0  0  0  0  0
  144.0258  144.3379  156.4055 H   0  0  0  0  0  0  0  0  0  0  0  0
  144.8391  144.2813  157.9703 H   0  0  0  0  0  0  0  0  0  0  0  0
  143.6627  143.0326  157.5369 H   0  0  0  0  0  0  0  0  0  0  0  0
  145.3831  143.6620  154.5233 H   0  0  0  0  0  0  0  0  0  0  0  0
  147.2142  142.2820  153.6122 H   0  0  0  0  0  0  0  0  0  0  0  0
  148.5894  139.4820  154.9620 H   0  0  0  0  0  0  0  0  0  0  0  0
  148.6542  140.6597  153.6907 H   0  0  0  0  0  0  0  0  0  0  0  0
  149.2298  142.4637  156.3620 H   0  0  0  0  0  0  0  0  0  0  0  0
  152.1510  142.0496  156.4237 H   0  0  0  0  0  0  0  0  0  0  0  0
  151.5421  143.6079  155.9284 H   0  0  0  0  0  0  0  0  0  0  0  0
  150.1839  143.3796  158.2710 H   0  0  0  0  0  0  0  0  0  0  0  0
  153.0479  144.3638  157.9483 H   0  0  0  0  0  0  0  0  0  0  0  0
  151.5933  145.3130  158.2627 H   0  0  0  0  0  0  0  0  0  0  0  0
  153.1569  144.6089  160.3397 H   0  0  0  0  0  0  0  0  0  0  0  0
  151.4097  144.3737  160.4942 H   0  0  0  0  0  0  0  0  0  0  0  0
  153.4845  142.2944  159.6932 H   0  0  0  0  0  0  0  0  0  0  0  0
  152.2077  142.1265  160.9002 H   0  0  0  0  0  0  0  0  0  0  0  0
  1  2  1  0  0  0  0
  1 21  1  0  0  0  0
  1 22  1  0  0  0  0
  1 23  1  0  0  0  0
  2 18  2  0  0  0  0
  2  3  1  0  0  0  0
  3  4  2  0  0  0  0
  3 24  1  0  0  0  0
  4  5  1  0  0  0  0
  4 25  1  0  0  0  0
  5  6  1  0  0  0  0
  5 16  1  0  0  0  0
  6  7  1  0  0  0  0
  6 26  1  0  0  0  0
  6 27  1  0  0  0  0
  7  8  2  0  0  0  0
  7  9  1  0  0  0  0
  9 10  1  0  0  0  0
  9 28  1  0  0  0  0
 10 11  1  0  0  0  0
 10 29  1  0  0  0  0
 10 30  1  0  0  0  0
 11 15  1  0  0  0  0
 11 12  1  0  0  0  0
 11 31  1  0  0  0  0
 12 13  1  0  0  0  0
 12 32  1  0  0  0  0
 12 33  1  0  0  0  0
 13 14  1  0  0  0  0
 13 34  1  0  0  0  0
 13 35  1  0  0  0  0
 14 15  1  0  0  0  0
 14 36  1  0  0  0  0
 14 37  1  0  0  0  0
 16 17  2  0  0  0  0
 16 18  1  0  0  0  0
 18 19  1  0  0  0  0
 19 20  3  0  0  0  0
M  END
> <s_m_source_file>
AV-unprocessed.smi

> <i_m_source_file_index>
2357

> <i_lp_mmshare_version>
43012

> <i_f3d_flags>
0

> <s_epik_input>
W0NIM11jMVtjSF1bY0hdbihjKD1PKWMxQyNOKVtDSDJdQyg9TylbTkhdW0NIMl1bQ0BASF0yW0NIMl1bQ0gyXVtDSDJdTzI=

> <s_epik_cmdline>
J2VwaWtfcHl0aG9uJywgJy1waCcsICc3LjAnLCAnLXRuJywgJzgnLCAnLW1hJywgJzIwMCcsICctbWV0YWxfYmluZGluZycsICctaW1hZScsICc8aW5maWxlLm1hZT4nLCAnLW9tYWUnLCAnPG91dGZpbGUubWFlPic=

> <r_lp_tautomer_probability>
1

> <r_epik_Ionization_Penalty>
2.71597e-08

> <r_epik_Ionization_Penalty_Charging>
3.00645e-10

> <r_epik_Ionization_Penalty_Neutral>
2.6859e-08

> <r_epik_State_Penalty>
-0

> <r_epik_Charging_Adjusted_Penalty>
3.00645e-10

> <i_epik_Tot_Q>
0

> <i_epik_Tot_abs_Q>
0

> <r_epik_Metal_State_Penalty>
-0

> <b_epik_Metal_Only>
0

> <s_lp_Force_Field>
OPLS_2005

> <r_lp_Energy>
27.3681

> <b_lp_Chiralities_Consistent>
1

> <s_lp_Variant>
AV-unprocessed.smi:2357-1

> <Gold.Version>
5.8.1

> <Gold.Id.Protein>
6NUR|6NUR_protein|mol2

> <Gold.PLP.Fitness>
41.9398

> <Gold.PLP.PLP>
-36.6111

> <Gold.PLP.part.hbond>
-3.0000

> <Gold.PLP.part.metal>
0.0000

> <Gold.PLP.part.buried>
-4.5285

> <Gold.PLP.part.nonpolar>
-29.2437

> <Gold.PLP.part.repulsive>
0.1896

> <Gold.PLP.ligand.clash>
0.0035

> <Gold.PLP.ligand.torsion>
0.5793

> <Gold.PLP.Chemscore.Hbond>
2.1622

> <Gold.PLP.Chemscore.CHOScore>
0.0000

> <Gold.PLP.Chemscore.Metal>
0.0000

> <Gold.Chemscore.Hbonds>
donor molecule, donor type, donor heavy atom, donor atom, acceptor molecule, acceptor atom, score
      L1  H     9    28       P1  8028  0.03
      P1  H  6934  6946       L1    20  1.00
      P1  H  7989  7998       L1     8  0.91

> <Gold.PLP.Chemscore.Internal.Correction>
0.0041

> <Gold.Rescore>
     Score         DG    S(hbond)    S(metal)    S(lipo)     H(rot)  DE(clash)    DE(int)     intcor
     15.21     -15.91       1.85        0.00      74.77       1.76       0.14       0.55       ----

> <Gold.Chemscore.Fitness>
15.2122

> <Gold.Chemscore.DG>
-15.9087

> <Gold.Chemscore.ZeroCoef>
-5.4800

> <Gold.Chemscore.Hbond>
1.8504

> <Gold.Chemscore.Metal>
0.0000

> <Gold.Chemscore.Lipo>
74.7699

> <Gold.Chemscore.Internal_Hbond>
0.0000

> <Gold.Chemscore.DEClash>
0.1417

> <Gold.Chemscore.DEInternal>
0.5548

> <Gold.Chemscore.Rot>
1.7577

> <Gold.Chemscore.Internal.Correction>
   9.000000E+99

> <Gold.Chemscore.Hbonds>
donor molecule, donor type, donor heavy atom, donor atom, acceptor molecule, acceptor atom, score
      L1  H     9    28       P1  8028  0.04
      P1  H  6934  6946       L1    20  0.95
      P1  H  7989  7998       L1     8  0.80

> <Gold.Chemscore.Hbond.Weighted>
-6.1804

> <Gold.Chemscore.Metal.Weighted>
-0.0000

> <Gold.Chemscore.Lipo.Weighted>
-8.7481

> <Gold.Chemscore.Internal_Hbond.Weighted>
0.0000

> <Gold.Chemscore.DEClash.Weighted>
0.1417

> <Gold.Chemscore.DEInternal.Weighted>
0.5548

> <Gold.Chemscore.Rot.Weighted>
4.4998

> <Gold.Chemscore.Internal.Correction.Weighted>
   9.000000E+99

> <Gold.Protein.RotatedTorsions>
[ 6907 6896 6895 6894 ] final  -81.90 input  -60.11 | X-H torsion
[ 7974 7965 7964 7962 ] final  -61.10 input  175.53 | X-H torsion
[ 8008 7997 7996 7995 ] final   83.79 input   59.86 | X-H torsion
[ 10167 10162 10161 10158 ] final  152.49 input  -65.29 | X-H torsion
[ 10718 10713 10712 10709 ] final  -85.71 input   66.30 | X-H torsion
[ 10763 10752 10751 10750 ] final  115.94 input  -60.55 | X-H torsion
[ 11005 11000 10999 10996 ] final -145.55 input  -57.11 | X-H torsion

> <Gold.Protein.ActiveResidues>
 VAL166  LYS551  ARG553  GLY616  TRP617  ASP618  TYR619  PRO620  LYS621  CYS622 
 ASP623  PHE694  ASN695  SER759  ASP760  ASP761  ALA762  ILE779  LEU786  VAL792 
 PHE793  MET794  SER795  GLU796  ALA797  LYS798  CYS799  TRP800  GLU811  SER814 

> <Gold.Protein.RotatedAtoms>
  150.6905  134.3747  159.5007 H   0  0  0  0  0  0  0  0  0  0  0  0  # atno 6907 bound_to 6896
  152.1558  134.8949  160.0554 H   0  0  0  0  0  0  0  0  0  0  0  0  # atno 6908 bound_to 6896
  152.0030  133.3798  159.4226 H   0  0  0  0  0  0  0  0  0  0  0  0  # atno 6909 bound_to 6896
  145.8076  140.8618  143.0199 H   0  0  0  0  0  0  0  0  0  0  0  0  # atno 7974 bound_to 7965
  155.9285  140.3416  155.6230 H   0  0  0  0  0  0  0  0  0  0  0  0  # atno 8008 bound_to 7997
  155.7186  140.0780  157.2359 H   0  0  0  0  0  0  0  0  0  0  0  0  # atno 8009 bound_to 7997
  154.4081  140.1609  156.2364 H   0  0  0  0  0  0  0  0  0  0  0  0  # atno 8010 bound_to 7997
  139.4832  144.5353  151.7654 H   0  0  0  0  0  0  0  0  0  0  0  0  # atno 10167 bound_to 10162
  155.9994  130.4740  150.4604 H   0  0  0  0  0  0  0  0  0  0  0  0  # atno 10718 bound_to 10713
  153.5297  135.3581  155.2670 H   0  0  0  0  0  0  0  0  0  0  0  0  # atno 10763 bound_to 10752
  154.8728  135.4065  154.3165 H   0  0  0  0  0  0  0  0  0  0  0  0  # atno 10764 bound_to 10752
  153.3852  135.7069  153.6603 H   0  0  0  0  0  0  0  0  0  0  0  0  # atno 10765 bound_to 10752
  140.7911  134.2967  157.5013 H   0  0  0  0  0  0  0  0  0  0  0  0  # atno 11005 bound_to 11000
  144.6761  140.0348  143.7482 LP  0  0  0  0  0  0  0  0  0  0  0  0  # atno 17320 bound_to 7965
  145.9812  139.2942  143.1041 LP  0  0  0  0  0  0  0  0  0  0  0  0  # atno 17321 bound_to 7965
  140.4885  144.1345  150.5945 LP  0  0  0  0  0  0  0  0  0  0  0  0  # atno 17342 bound_to 10162
  140.4198  143.2617  151.9730 LP  0  0  0  0  0  0  0  0  0  0  0  0  # atno 17343 bound_to 10162
  157.2628  131.0570  151.2309 LP  0  0  0  0  0  0  0  0  0  0  0  0  # atno 17370 bound_to 10713
  157.3418  130.7037  149.6386 LP  0  0  0  0  0  0  0  0  0  0  0  0  # atno 17371 bound_to 10713
  139.8731  134.9375  156.3689 LP  0  0  0  0  0  0  0  0  0  0  0  0  # atno 17394 bound_to 11000
  140.9388  133.7528  156.0120 LP  0  0  0  0  0  0  0  0  0  0  0  0  # atno 17395 bound_to 11000

$$$$
