#       Name:                AV-unprocessed.smi:1272
#       Creating user name   scv26
#       Creation time:       Fri Mar 27 04:46:30 2020


#       File generated by GOLD software.
#

@<TRIPOS>MOLECULE
AV-unprocessed.smi:1272
    52    54     1
SMALL
NO_CHARGES


@<TRIPOS>ATOM
      1 ****        -1.8969   4.3379   1.2920 C.3            1 S1                 0.0000
      2 ****        -3.0349   3.3279   1.0979 C.3            1 S1                 0.0000
      3 ****        -2.6021   2.1927   0.2868 N.am           1 S1                 0.0000
      4 ****        -2.0651   1.0353   0.7393 C.2            1 S1                 0.0000
      5 ****        -1.8542   0.7472   1.9175 O.2            1 S1                 0.0000
      6 ****        -1.7861   0.2544  -0.3310 N.am           1 S1                 0.0000
      7 ****        -1.1901  -1.0804  -0.3013 C.3            1 S1                 0.0000
      8 ****         0.3468  -1.0183  -0.1953 C.3            1 S1                 0.0000
      9 ****         0.8681  -0.8298  -1.4957 O.3            1 S1                 0.0000
     10 ****         0.9264  -2.3433   0.3411 C.3            1 S1                 0.0000
     11 ****         2.3730  -2.3559   0.5685 N.3            1 S1                 0.0000
     12 ****         2.7830  -1.4858   1.6697 C.3            1 S1                 0.0000
     13 ****         4.3020  -1.5412   1.9099 C.3            1 S1                 0.0000
     14 ****         4.7019  -2.8863   2.1492 O.3            1 S1                 0.0000
     15 ****         4.3623  -3.7577   1.0760 C.3            1 S1                 0.0000
     16 ****         2.8432  -3.7108   0.8382 C.3            1 S1                 0.0000
     17 ****        -2.1312   0.9421  -1.5034 C.ar           1 S1                 0.0000
     18 ****        -2.0168   0.5806  -2.8572 C.ar           1 S1                 0.0000
     19 ****        -2.4545   1.5224  -3.8176 C.ar           1 S1                 0.0000
     20 ****        -2.9839   2.7767  -3.4171 C.ar           1 S1                 0.0000
     21 ****        -3.0857   3.1161  -2.0476 C.ar           1 S1                 0.0000
     22 ****        -2.6446   2.1617  -1.1144 C.ar           1 S1                 0.0000
     23 ****        -2.2327   5.1908   1.8819 H              1 S1                 0.0000
     24 ****        -1.5379   4.7164   0.3344 H              1 S1                 0.0000
     25 ****        -1.0524   3.8851   1.8124 H              1 S1                 0.0000
     26 ****        -3.3893   2.9782   2.0687 H              1 S1                 0.0000
     27 ****        -3.8876   3.8124   0.6221 H              1 S1                 0.0000
     28 ****        -1.5948  -1.6011   0.5681 H              1 S1                 0.0000
     29 ****        -1.5053  -1.6694  -1.1635 H              1 S1                 0.0000
     30 ****         0.6383  -0.1842   0.4419 H              1 S1                 0.0000
     31 ****         1.8117  -0.8286  -1.4387 H              1 S1                 0.0000
     32 ****         0.4213  -2.6032   1.2727 H              1 S1                 0.0000
     33 ****         0.6666  -3.1344  -0.3641 H              1 S1                 0.0000
     34 ****         2.5067  -0.4527   1.4648 H              1 S1                 0.0000
     35 ****         2.2622  -1.7745   2.5840 H              1 S1                 0.0000
     36 ****         4.8430  -1.1415   1.0508 H              1 S1                 0.0000
     37 ****         4.5723  -0.9302   2.7711 H              1 S1                 0.0000
     38 ****         4.9042  -3.4664   0.1750 H              1 S1                 0.0000
     39 ****         4.6763  -4.7711   1.3261 H              1 S1                 0.0000
     40 ****         2.3299  -4.1134   1.7130 H              1 S1                 0.0000
     41 ****         2.5910  -4.3636   0.0019 H              1 S1                 0.0000
     42 ****        -1.6077  -0.3728  -3.1570 H              1 S1                 0.0000
     43 ****        -2.3823   1.2846  -4.8686 H              1 S1                 0.0000
     44 ****        -3.3108   3.4819  -4.1669 H              1 S1                 0.0000
     45 ****        -3.4828   4.0712  -1.7373 H              1 S1                 0.0000
     46 ****        -2.0854   1.3982   2.6406 LP             1 S1                 0.0000
     47 ****        -1.4517  -0.1378   2.1515 LP             1 S1                 0.0000
     48 ****         0.5502   0.0437  -1.8644 LP             1 S1                 0.0000
     49 ****         0.5660  -1.5732  -2.0924 LP             1 S1                 0.0000
     50 ****         2.7868  -2.0070  -0.2723 LP             1 S1                 0.0000
     51 ****         4.2511  -3.2113   2.9806 LP             1 S1                 0.0000
     52 ****         5.6934  -2.9076   2.2776 LP             1 S1                 0.0000
@<TRIPOS>BOND
    1    1    2 1     
    2    1   23 1     
    3    1   24 1     
    4    1   25 1     
    5    2    3 1     
    6    2   26 1     
    7    2   27 1     
    8    3   22 1     
    9    3    4 am    
   10    4    5 2     
   11    4    6 am    
   12    6    7 1     
   13    6   17 1     
   14    7    8 1     
   15    7   28 1     
   16    7   29 1     
   17    8    9 1     
   18    8   10 1     
   19    8   30 1     
   20    9   31 1     
   21   10   11 1     
   22   10   32 1     
   23   10   33 1     
   24   11   16 1     
   25   11   12 1     
   26   12   13 1     
   27   12   34 1     
   28   12   35 1     
   29   13   14 1     
   30   13   36 1     
   31   13   37 1     
   32   14   15 1     
   33   15   16 1     
   34   15   38 1     
   35   15   39 1     
   36   16   40 1     
   37   16   41 1     
   38   17   22 ar    
   39   17   18 ar    
   40   18   19 ar    
   41   18   42 1     
   42   19   20 ar    
   43   19   43 1     
   44   20   21 ar    
   45   20   44 1     
   46   21   22 ar    
   47   21   45 1     
   48    5   46 1     
   49    5   47 1     
   50    9   48 1     
   51    9   49 1     
   52   11   50 1     
   53   14   51 1     
   54   14   52 1     
@<TRIPOS>SUBSTRUCTURE
      1 S1             1
@<TRIPOS>SET
LONE_PAIRS      STATIC     ATOMS    <user>   **** ""
7 46 47 48 49 50 51 52
DONOR_HYDROGENS      STATIC     ATOMS    <user>   **** ""
1 31
ATOM$BLUE        STATIC     ATOMS    COLORGROUP SYSTEM
7 46 47 48 49 50 51 52
ATOM$RED        STATIC     ATOMS    COLORGROUP SYSTEM
1 31
