AV-unprocessed.smi:2298|AV-procd|sdf|9225|dock5
  -GOLD-   2272012443D 1   1.00000     0.00000
 Structure written by MMmdl.
 37 38  0  0  0  0  0  0  0  0  1 V2000
  145.9694  130.3697  151.8359 C   0  0  0  0  0  0  0  0  0  0  0  0
  145.3701  131.7549  151.6805 C   0  0  0  0  0  0  0  0  0  0  0  0
  144.1004  131.7939  151.2214 N   0  0  0  0  0  0  0  0  0  0  0  0
  143.5222  133.0011  151.0576 C   0  0  0  0  0  0  0  0  0  0  0  0
  144.1714  134.2170  151.3449 C   0  0  0  0  0  0  0  0  0  0  0  0
  145.4975  134.1807  151.8403 C   0  0  0  0  0  0  0  0  0  0  0  0
  146.2579  135.3437  152.1517 N   0  0  0  0  0  0  0  0  0  0  0  0
  145.8627  136.4891  152.7339 C   0  0  0  0  0  0  0  0  0  0  0  0
  144.7182  136.7462  153.1059 O   0  0  0  0  0  0  0  0  0  0  0  0
  146.8931  137.3352  152.8772 N   0  0  0  0  0  0  0  0  0  0  0  0
  146.8193  138.6631  153.4793 C   0  0  1  0  0  0  0  0  0  0  0  0
  147.9521  138.8256  154.5090 C   0  0  0  0  0  0  0  0  0  0  0  0
  147.9503  140.2314  155.1349 C   0  0  0  0  0  0  0  0  0  0  0  0
  148.0039  141.3439  154.0710 C   0  0  1  0  0  0  0  0  0  0  0  0
  149.2765  141.3633  153.4546 O   0  0  0  0  0  0  0  0  0  0  0  0
  146.9028  141.1649  153.0086 C   0  0  0  0  0  0  0  0  0  0  0  0
  146.9075  139.7543  152.3938 C   0  0  0  0  0  0  0  0  0  0  0  0
  146.1126  132.9160  151.9999 C   0  0  0  0  0  0  0  0  0  0  0  0
  147.7405  132.7892  152.5789 Cl  0  0  0  0  0  0  0  0  0  0  0  0
  145.8683  138.7656  154.0060 H   0  0  0  0  0  0  0  0  0  0  0  0
  147.8740  142.3101  154.5598 H   0  0  0  0  0  0  0  0  0  0  0  0
  146.2894  130.2081  152.8658 H   0  0  0  0  0  0  0  0  0  0  0  0
  146.8355  130.2564  151.1833 H   0  0  0  0  0  0  0  0  0  0  0  0
  145.2500  129.5899  151.5814 H   0  0  0  0  0  0  0  0  0  0  0  0
  142.5108  132.9993  150.6793 H   0  0  0  0  0  0  0  0  0  0  0  0
  143.6439  135.1408  151.1682 H   0  0  0  0  0  0  0  0  0  0  0  0
  147.2467  135.2670  151.9636 H   0  0  0  0  0  0  0  0  0  0  0  0
  147.7997  137.0394  152.5461 H   0  0  0  0  0  0  0  0  0  0  0  0
  147.8513  138.0768  155.2956 H   0  0  0  0  0  0  0  0  0  0  0  0
  148.9159  138.6414  154.0320 H   0  0  0  0  0  0  0  0  0  0  0  0
  147.0429  140.3514  155.7282 H   0  0  0  0  0  0  0  0  0  0  0  0
  148.7833  140.3330  155.8315 H   0  0  0  0  0  0  0  0  0  0  0  0
  149.3756  140.5739  152.9445 H   0  0  0  0  0  0  0  0  0  0  0  0
  145.9315  141.3426  153.4720 H   0  0  0  0  0  0  0  0  0  0  0  0
  147.0060  141.9163  152.2249 H   0  0  0  0  0  0  0  0  0  0  0  0
  147.8153  139.6173  151.8044 H   0  0  0  0  0  0  0  0  0  0  0  0
  146.0735  139.6597  151.6975 H   0  0  0  0  0  0  0  0  0  0  0  0
  1  2  1  0  0  0  0
  1 22  1  0  0  0  0
  1 23  1  0  0  0  0
  1 24  1  0  0  0  0
  2 18  1  0  0  0  0
  2  3  2  0  0  0  0
  3  4  1  0  0  0  0
  4  5  2  0  0  0  0
  4 25  1  0  0  0  0
  5  6  1  0  0  0  0
  5 26  1  0  0  0  0
  6  7  1  0  0  0  0
  6 18  2  0  0  0  0
  7  8  1  0  0  0  0
  7 27  1  0  0  0  0
  8  9  2  0  0  0  0
  8 10  1  0  0  0  0
 10 11  1  0  0  0  0
 10 28  1  0  0  0  0
 11 20  1  0  0  0  0
 11 17  1  0  0  0  0
 11 12  1  0  0  0  0
 12 13  1  0  0  0  0
 12 29  1  0  0  0  0
 12 30  1  0  0  0  0
 13 14  1  0  0  0  0
 13 31  1  0  0  0  0
 13 32  1  0  0  0  0
 14 21  1  0  0  0  0
 14 15  1  0  0  0  0
 14 16  1  0  0  0  0
 15 33  1  0  0  0  0
 16 17  1  0  0  0  0
 16 34  1  0  0  0  0
 16 35  1  0  0  0  0
 17 36  1  0  0  0  0
 17 37  1  0  0  0  0
 18 19  1  0  0  0  0
M  END
> <s_m_source_file>
AV-unprocessed.smi

> <i_m_source_file_index>
2298

> <i_lp_mmshare_version>
43012

> <i_f3d_flags>
0

> <s_epik_input>
W0NIM11jMW5bY0hdW2NIXWMoYzFDbClbTkhdQyg9TylbTkhdW0NASF0yW0NIMl1bQ0gyXVtDQEhdKFtPSF0pW0NIMl1bQ0gyXTI=

> <s_epik_cmdline>
J2VwaWtfcHl0aG9uJywgJy1waCcsICc3LjAnLCAnLXRuJywgJzgnLCAnLW1hJywgJzIwMCcsICctbWV0YWxfYmluZGluZycsICctaW1hZScsICc8aW5maWxlLm1hZT4nLCAnLW9tYWUnLCAnPG91dGZpbGUubWFlPic=

> <r_epik_Ionization_Penalty>
0.00999805

> <r_epik_Ionization_Penalty_Charging>
0

> <r_epik_Ionization_Penalty_Neutral>
0.00999805

> <r_epik_State_Penalty>
0.00759022

> <r_epik_Charging_Adjusted_Penalty>
0.00759022

> <i_epik_Tot_Q>
0

> <i_epik_Tot_abs_Q>
0

> <r_epik_Metal_State_Penalty>
0.00746447

> <b_epik_Metal_Only>
0

> <s_lp_Force_Field>
OPLS_2005

> <r_lp_Energy>
16.8241

> <b_lp_Chiralities_Consistent>
1

> <s_lp_Variant>
AV-unprocessed.smi:2298-2

> <Gold.Version>
5.8.1

> <Gold.Id.Protein>
6NUR|6NUR_protein|mol2

> <Gold.PLP.Fitness>
44.0374

> <Gold.PLP.PLP>
-31.0752

> <Gold.PLP.part.hbond>
-4.9534

> <Gold.PLP.part.metal>
0.0000

> <Gold.PLP.part.buried>
-2.4124

> <Gold.PLP.part.nonpolar>
-24.4389

> <Gold.PLP.part.repulsive>
0.3920

> <Gold.PLP.ligand.clash>
0.0000

> <Gold.PLP.ligand.torsion>
0.4325

> <Gold.PLP.Chemscore.Hbond>
3.6080

> <Gold.PLP.Chemscore.CHOScore>
1.0000

> <Gold.PLP.Chemscore.Metal>
0.0000

> <Gold.Chemscore.Hbonds>
donor molecule, donor type, donor heavy atom, donor atom, acceptor molecule, acceptor atom, score
      L1  H     7    27       P1  7948  0.93
      L1  H    10    28       P1  7948  1.00
      L1  H    15    33       P1  7957  0.78
      P1  H  8011  8017       L1    15  0.85
      L1  C     4    25       P1 10186  1.00

> <Gold.PLP.Chemscore.Internal.Correction>
0.0031

> <Gold.Rescore>
     Score         DG    S(hbond)    S(metal)    S(lipo)     H(rot)  DE(clash)    DE(int)     intcor
     20.36     -20.94       2.88        0.00      80.90       1.42       0.13       0.45       ----

> <Gold.Chemscore.Fitness>
20.3609

> <Gold.Chemscore.DG>
-20.9438

> <Gold.Chemscore.ZeroCoef>
-5.4800

> <Gold.Chemscore.Hbond>
2.8843

> <Gold.Chemscore.Metal>
0.0000

> <Gold.Chemscore.Lipo>
80.8981

> <Gold.Chemscore.Internal_Hbond>
0.0000

> <Gold.Chemscore.DEClash>
0.1337

> <Gold.Chemscore.DEInternal>
0.4493

> <Gold.Chemscore.Rot>
1.4199

> <Gold.Chemscore.Internal.Correction>
   9.000000E+99

> <Gold.Chemscore.Hbonds>
donor molecule, donor type, donor heavy atom, donor atom, acceptor molecule, acceptor atom, score
      L1  H     7    27       P1  7948  0.90
      L1  H    10    28       P1  7948  0.96
      L1  H    15    33       P1  7957  0.78
      P1  H  8011  8017       L1    15  0.16

> <Gold.Chemscore.Hbond.Weighted>
-9.6336

> <Gold.Chemscore.Metal.Weighted>
-0.0000

> <Gold.Chemscore.Lipo.Weighted>
-9.4651

> <Gold.Chemscore.Internal_Hbond.Weighted>
0.0000

> <Gold.Chemscore.DEClash.Weighted>
0.1337

> <Gold.Chemscore.DEInternal.Weighted>
0.4493

> <Gold.Chemscore.Rot.Weighted>
3.6349

> <Gold.Chemscore.Internal.Correction.Weighted>
   9.000000E+99

> <Gold.Protein.RotatedTorsions>
[ 6907 6896 6895 6894 ] final   43.82 input  -60.11 | X-H torsion
[ 7974 7965 7964 7962 ] final  -47.87 input  175.53 | X-H torsion
[ 8008 7997 7996 7995 ] final   65.15 input   59.86 | X-H torsion
[ 10167 10162 10161 10158 ] final  -73.12 input  -65.29 | X-H torsion
[ 10718 10713 10712 10709 ] final -167.87 input   66.30 | X-H torsion
[ 10763 10752 10751 10750 ] final  -46.57 input  -60.55 | X-H torsion
[ 11005 11000 10999 10996 ] final -138.39 input  -57.11 | X-H torsion

> <Gold.Protein.ActiveResidues>
 VAL166  LYS551  ARG553  GLY616  TRP617  ASP618  TYR619  PRO620  LYS621  CYS622 
 ASP623  PHE694  ASN695  SER759  ASP760  ASP761  ALA762  ILE779  LEU786  VAL792 
 PHE793  MET794  SER795  GLU796  ALA797  LYS798  CYS799  TRP800  GLU811  SER814 

> <Gold.Protein.RotatedAtoms>
  152.2250  134.8377  160.0480 H   0  0  0  0  0  0  0  0  0  0  0  0  # atno 6907 bound_to 6896
  151.9146  133.3565  159.3884 H   0  0  0  0  0  0  0  0  0  0  0  0  # atno 6908 bound_to 6896
  150.7010  134.4622  159.5430 H   0  0  0  0  0  0  0  0  0  0  0  0  # atno 6909 bound_to 6896
  145.9571  140.7516  142.9476 H   0  0  0  0  0  0  0  0  0  0  0  0  # atno 7974 bound_to 7965
  155.6572  140.3497  155.4769 H   0  0  0  0  0  0  0  0  0  0  0  0  # atno 8008 bound_to 7997
  155.9798  140.1172  157.0760 H   0  0  0  0  0  0  0  0  0  0  0  0  # atno 8009 bound_to 7997
  154.4188  140.1140  156.5406 H   0  0  0  0  0  0  0  0  0  0  0  0  # atno 8010 bound_to 7997
  140.5136  143.2341  151.7550 H   0  0  0  0  0  0  0  0  0  0  0  0  # atno 10167 bound_to 10162
  156.6887  130.9151  151.3066 H   0  0  0  0  0  0  0  0  0  0  0  0  # atno 10718 bound_to 10713
  154.0471  135.6636  153.4796 H   0  0  0  0  0  0  0  0  0  0  0  0  # atno 10763 bound_to 10752
  153.0478  135.5103  154.7786 H   0  0  0  0  0  0  0  0  0  0  0  0  # atno 10764 bound_to 10752
  154.6781  135.3040  154.9617 H   0  0  0  0  0  0  0  0  0  0  0  0  # atno 10765 bound_to 10752
  140.8621  134.2156  157.4701 H   0  0  0  0  0  0  0  0  0  0  0  0  # atno 11005 bound_to 11000
  144.6807  140.2529  143.7329 LP  0  0  0  0  0  0  0  0  0  0  0  0  # atno 17320 bound_to 7965
  145.8092  139.1996  143.2003 LP  0  0  0  0  0  0  0  0  0  0  0  0  # atno 17321 bound_to 7965
  139.4903  144.4355  151.9824 LP  0  0  0  0  0  0  0  0  0  0  0  0  # atno 17342 bound_to 10162
  140.3448  144.3160  150.5960 LP  0  0  0  0  0  0  0  0  0  0  0  0  # atno 17343 bound_to 10162
  157.7017  130.9340  150.0805 LP  0  0  0  0  0  0  0  0  0  0  0  0  # atno 17370 bound_to 10713
  156.1813  130.3650  149.9031 LP  0  0  0  0  0  0  0  0  0  0  0  0  # atno 17371 bound_to 10713
  139.8707  134.9734  156.4809 LP  0  0  0  0  0  0  0  0  0  0  0  0  # atno 17394 bound_to 11000
  140.8671  133.8016  155.9325 LP  0  0  0  0  0  0  0  0  0  0  0  0  # atno 17395 bound_to 11000

$$$$
