AV-unprocessed.smi:1645|AV-procd|sdf|6616|dock1
  -GOLD-   22720 7313D 1   1.00000     0.00000
 Structure written by MMmdl.
 55 58  0  0  0  0  0  0  0  0  4 V2000
  147.2920  140.5827  152.8601 O   0  0  0  0  0  0  0  0  0  0  0  0
  147.7324  139.4298  152.9287 C   0  0  0  0  0  0  0  0  0  0  0  0
  148.7824  139.1463  153.7195 N   0  0  0  0  0  0  0  0  0  0  0  0
  149.4807  139.9884  154.6257 C   0  0  0  0  0  0  0  0  0  0  0  0
  150.3127  139.3748  155.5834 C   0  0  0  0  0  0  0  0  0  0  0  0
  151.0038  140.1665  156.5231 C   0  0  0  0  0  0  0  0  0  0  0  0
  150.8478  141.5757  156.5105 C   0  0  0  0  0  0  0  0  0  0  0  0
  151.4983  142.4491  157.4117 N   0  0  0  0  0  0  0  0  0  0  0  0
  151.7011  143.8243  156.9438 C   0  0  0  0  0  0  0  0  0  0  0  0
  152.7465  144.5627  157.7972 C   0  0  0  0  0  0  0  0  0  0  0  0
  152.3978  144.4861  159.2897 C   0  0  0  0  0  0  0  0  0  0  0  0
  152.2423  143.0189  159.7114 C   0  0  0  0  0  0  0  0  0  0  0  0
  151.2020  142.2974  158.8377 C   0  0  0  0  0  0  0  0  0  0  0  0
  150.0261  142.1163  155.5782 N   0  3  0  0  0  0  0  0  0  0  0  0
  149.3488  141.3961  154.6581 C   0  0  0  0  0  0  0  0  0  0  0  0
  147.2893  138.3321  152.2594 N   0  5  0  0  0  0  0  0  0  0  0  0
  145.8898  138.0674  151.9200 C   0  0  2  0  0  0  0  0  0  0  0  0
  144.9340  138.4793  153.0574 C   0  0  0  0  0  0  0  0  0  0  0  0
  143.8178  137.4177  153.0669 C   0  0  0  0  0  0  0  0  0  0  0  0
  144.1651  136.4681  151.9922 N   0  3  2  0  0  0  0  0  0  0  0  0
  143.6944  135.0734  152.1432 C   0  0  0  0  0  0  0  0  0  0  0  0
  144.0575  134.2738  150.8754 C   0  0  0  0  0  0  0  0  0  0  0  0
  145.5578  134.3878  150.5329 C   0  0  0  0  0  0  0  0  0  0  0  0
  146.0076  135.8615  150.4745 C   0  0  0  0  0  0  0  0  0  0  0  0
  145.6201  136.5631  151.7928 C   0  0  1  0  0  0  0  0  0  0  0  0
  149.1428  138.2074  153.6332 H   0  0  0  0  0  0  0  0  0  0  0  0
  150.4242  138.3003  155.6000 H   0  0  0  0  0  0  0  0  0  0  0  0
  151.6316  139.6700  157.2471 H   0  0  0  0  0  0  0  0  0  0  0  0
  152.0247  143.8516  155.9035 H   0  0  0  0  0  0  0  0  0  0  0  0
  150.7468  144.3504  156.9888 H   0  0  0  0  0  0  0  0  0  0  0  0
  153.7310  144.1239  157.6297 H   0  0  0  0  0  0  0  0  0  0  0  0
  152.8149  145.6043  157.4824 H   0  0  0  0  0  0  0  0  0  0  0  0
  153.1734  144.9697  159.8842 H   0  0  0  0  0  0  0  0  0  0  0  0
  151.4704  145.0271  159.4822 H   0  0  0  0  0  0  0  0  0  0  0  0
  153.2046  142.5121  159.6262 H   0  0  0  0  0  0  0  0  0  0  0  0
  151.9534  142.9592  160.7610 H   0  0  0  0  0  0  0  0  0  0  0  0
  150.2050  142.6921  159.0390 H   0  0  0  0  0  0  0  0  0  0  0  0
  151.1972  141.2418  159.1113 H   0  0  0  0  0  0  0  0  0  0  0  0
  148.7194  141.9760  154.0000 H   0  0  0  0  0  0  0  0  0  0  0  0
  145.5769  138.5568  150.9960 H   0  0  0  0  0  0  0  0  0  0  0  0
  145.4393  138.4781  154.0247 H   0  0  0  0  0  0  0  0  0  0  0  0
  144.5409  139.4839  152.8977 H   0  0  0  0  0  0  0  0  0  0  0  0
  143.7919  136.9089  154.0320 H   0  0  0  0  0  0  0  0  0  0  0  0
  142.8322  137.8491  152.8879 H   0  0  0  0  0  0  0  0  0  0  0  0
  144.1514  134.6216  153.0249 H   0  0  0  0  0  0  0  0  0  0  0  0
  142.6151  135.0657  152.2978 H   0  0  0  0  0  0  0  0  0  0  0  0
  143.7817  133.2265  151.0029 H   0  0  0  0  0  0  0  0  0  0  0  0
  143.4695  134.6459  150.0353 H   0  0  0  0  0  0  0  0  0  0  0  0
  146.1425  133.8613  151.2881 H   0  0  0  0  0  0  0  0  0  0  0  0
  145.7645  133.8944  149.5828 H   0  0  0  0  0  0  0  0  0  0  0  0
  147.0854  135.9097  150.3101 H   0  0  0  0  0  0  0  0  0  0  0  0
  145.5374  136.3494  149.6181 H   0  0  0  0  0  0  0  0  0  0  0  0
  146.1071  136.0475  152.6243 H   0  0  0  0  0  0  0  0  0  0  0  0
  143.7488  136.8366  151.1494 H   0  0  0  0  0  0  0  0  0  0  0  0
  149.9091  143.1294  155.5699 H   0  0  0  0  0  0  0  0  0  0  0  0
  1  2  2  0  0  0  0
  2  3  1  0  0  0  0
  2 16  1  0  0  0  0
  3  4  1  0  0  0  0
  3 26  1  0  0  0  0
  4 15  1  0  0  0  0
  4  5  2  0  0  0  0
  5  6  1  0  0  0  0
  5 27  1  0  0  0  0
  6  7  2  0  0  0  0
  6 28  1  0  0  0  0
  7  8  1  0  0  0  0
  7 14  1  0  0  0  0
  8 13  1  0  0  0  0
  8  9  1  0  0  0  0
  9 10  1  0  0  0  0
  9 29  1  0  0  0  0
  9 30  1  0  0  0  0
 10 11  1  0  0  0  0
 10 31  1  0  0  0  0
 10 32  1  0  0  0  0
 11 12  1  0  0  0  0
 11 33  1  0  0  0  0
 11 34  1  0  0  0  0
 12 13  1  0  0  0  0
 12 35  1  0  0  0  0
 12 36  1  0  0  0  0
 13 37  1  0  0  0  0
 13 38  1  0  0  0  0
 14 15  2  0  0  0  0
 14 55  1  0  0  0  0
 15 39  1  0  0  0  0
 16 17  1  0  0  0  0
 17 25  1  0  0  0  0
 17 18  1  0  0  0  0
 17 40  1  0  0  0  0
 18 19  1  0  0  0  0
 18 41  1  0  0  0  0
 18 42  1  0  0  0  0
 19 20  1  0  0  0  0
 19 43  1  0  0  0  0
 19 44  1  0  0  0  0
 20 25  1  0  0  0  0
 20 21  1  0  0  0  0
 20 54  1  0  0  0  0
 21 22  1  0  0  0  0
 21 45  1  0  0  0  0
 21 46  1  0  0  0  0
 22 23  1  0  0  0  0
 22 47  1  0  0  0  0
 22 48  1  0  0  0  0
 23 24  1  0  0  0  0
 23 49  1  0  0  0  0
 23 50  1  0  0  0  0
 24 25  1  0  0  0  0
 24 51  1  0  0  0  0
 24 52  1  0  0  0  0
 25 53  1  0  0  0  0
M  CHG  1  14   1
M  CHG  1  16  -1
M  CHG  1  20   1
M  END
> <s_m_source_file>
AV-unprocessed.smi

> <i_m_source_file_index>
1645

> <i_lp_mmshare_version>
43012

> <i_f3d_flags>
0

> <s_epik_input>
W0NIMl0xW0NIMl1bQ0gyXVtDSDJdW0NASF0oTjEyKVtDQEBIXShbQ0gyXVtDSDJdMilbTkhdQyg9TylbTkhdYzNbY0hdW2NIXWMobltjSF0zKU40W0NIMl1bQ0gyXVtDSDJdW0NIMl1bQ0gyXTQ=

> <s_epik_cmdline>
J2VwaWtfcHl0aG9uJywgJy1waCcsICc3LjAnLCAnLXRuJywgJzgnLCAnLW1hJywgJzIwMCcsICctbWV0YWxfYmluZGluZycsICctaW1hZScsICc8aW5maWxlLm1hZT4nLCAnLW9tYWUnLCAnPG91dGZpbGUubWFlPic=

> <r_lp_tautomer_probability>
0.999994

> <r_epik_Ionization_Penalty>
8.55589

> <r_epik_Ionization_Penalty_Charging>
8.55589

> <r_epik_Ionization_Penalty_Neutral>
3.8092e-06

> <r_epik_State_Penalty>
8.15703

> <r_epik_Charging_Adjusted_Penalty>
16.7129

> <i_epik_Tot_Q>
1

> <i_epik_Tot_abs_Q>
3

> <r_epik_Metal_State_Penalty>
4.13781

> <b_epik_Metal_Only>
1

> <s_lp_Force_Field>
OPLS_2005

> <r_lp_Energy>
51.6627

> <b_lp_Chiralities_Consistent>
1

> <s_lp_Variant>
AV-unprocessed.smi:1645-17

> <Gold.Version>
5.8.1

> <Gold.Id.Protein>
6NUR|6NUR_protein|mol2

> <Gold.PLP.Fitness>
49.1506

> <Gold.PLP.PLP>
-44.5922

> <Gold.PLP.part.hbond>
-1.9008

> <Gold.PLP.part.metal>
0.0000

> <Gold.PLP.part.buried>
-3.8351

> <Gold.PLP.part.nonpolar>
-41.1832

> <Gold.PLP.part.repulsive>
1.1767

> <Gold.PLP.ligand.clash>
0.0000

> <Gold.PLP.ligand.torsion>
0.9771

> <Gold.PLP.Chemscore.Hbond>
1.9840

> <Gold.PLP.Chemscore.CHOScore>
0.0000

> <Gold.PLP.Chemscore.Metal>
0.0000

> <Gold.Chemscore.Hbonds>
donor molecule, donor type, donor heavy atom, donor atom, acceptor molecule, acceptor atom, score
      L1  H    14    55       P1  8028  2.00
      L1  H    20    54       P1 10171  0.49

> <Gold.PLP.Chemscore.Internal.Correction>
0.5606

> <Gold.Rescore>
     Score         DG    S(hbond)    S(metal)    S(lipo)     H(rot)  DE(clash)    DE(int)     intcor
     17.65     -19.74       0.98        0.00     119.70       1.17       0.06       2.03       ----

> <Gold.Chemscore.Fitness>
17.6512

> <Gold.Chemscore.DG>
-19.7388

> <Gold.Chemscore.ZeroCoef>
-5.4800

> <Gold.Chemscore.Hbond>
0.9753

> <Gold.Chemscore.Metal>
0.0000

> <Gold.Chemscore.Lipo>
119.6958

> <Gold.Chemscore.Internal_Hbond>
0.0000

> <Gold.Chemscore.DEClash>
0.0607

> <Gold.Chemscore.DEInternal>
2.0269

> <Gold.Chemscore.Rot>
1.1731

> <Gold.Chemscore.Internal.Correction>
   9.000000E+99

> <Gold.Chemscore.Hbonds>
donor molecule, donor type, donor heavy atom, donor atom, acceptor molecule, acceptor atom, score
      L1  H    14    55       P1  8028  0.97
      L1  H    20    54       P1 10171  0.49

> <Gold.Chemscore.Hbond.Weighted>
-3.2576

> <Gold.Chemscore.Metal.Weighted>
-0.0000

> <Gold.Chemscore.Lipo.Weighted>
-14.0044

> <Gold.Chemscore.Internal_Hbond.Weighted>
0.0000

> <Gold.Chemscore.DEClash.Weighted>
0.0607

> <Gold.Chemscore.DEInternal.Weighted>
2.0269

> <Gold.Chemscore.Rot.Weighted>
3.0032

> <Gold.Chemscore.Internal.Correction.Weighted>
   9.000000E+99

> <Gold.Protein.RotatedTorsions>
[ 6907 6896 6895 6894 ] final  -41.01 input  -60.11 | X-H torsion
[ 7974 7965 7964 7962 ] final  150.94 input  175.53 | X-H torsion
[ 8008 7997 7996 7995 ] final   67.91 input   59.86 | X-H torsion
[ 10167 10162 10161 10158 ] final -161.19 input  -65.29 | X-H torsion
[ 10718 10713 10712 10709 ] final -154.25 input   66.30 | X-H torsion
[ 10763 10752 10751 10750 ] final   32.53 input  -60.55 | X-H torsion
[ 11005 11000 10999 10996 ] final  168.29 input  -57.11 | X-H torsion

> <Gold.Protein.ActiveResidues>
 VAL166  LYS551  ARG553  GLY616  TRP617  ASP618  TYR619  PRO620  LYS621  CYS622 
 ASP623  PHE694  ASN695  SER759  ASP760  ASP761  ALA762  ILE779  LEU786  VAL792 
 PHE793  MET794  SER795  GLU796  ALA797  LYS798  CYS799  TRP800  GLU811  SER814 

> <Gold.Protein.RotatedAtoms>
  150.9717  134.9089  159.7791 H   0  0  0  0  0  0  0  0  0  0  0  0  # atno 6907 bound_to 6896
  152.5192  134.3531  159.9268 H   0  0  0  0  0  0  0  0  0  0  0  0  # atno 6908 bound_to 6896
  151.3540  133.3874  159.2717 H   0  0  0  0  0  0  0  0  0  0  0  0  # atno 6909 bound_to 6896
  144.8328  139.6473  143.6051 H   0  0  0  0  0  0  0  0  0  0  0  0  # atno 7974 bound_to 7965
  155.7001  140.3495  155.4929 H   0  0  0  0  0  0  0  0  0  0  0  0  # atno 8008 bound_to 7997
  155.9448  140.1108  157.1048 H   0  0  0  0  0  0  0  0  0  0  0  0  # atno 8009 bound_to 7997
  154.4110  140.1206  156.4960 H   0  0  0  0  0  0  0  0  0  0  0  0  # atno 8010 bound_to 7997
  139.6483  144.0131  152.2143 H   0  0  0  0  0  0  0  0  0  0  0  0  # atno 10167 bound_to 10162
  156.4967  130.8372  151.2592 H   0  0  0  0  0  0  0  0  0  0  0  0  # atno 10718 bound_to 10713
  153.0258  135.6411  154.1369 H   0  0  0  0  0  0  0  0  0  0  0  0  # atno 10763 bound_to 10752
  154.1098  135.2854  155.3234 H   0  0  0  0  0  0  0  0  0  0  0  0  # atno 10764 bound_to 10752
  154.6339  135.5483  153.7775 H   0  0  0  0  0  0  0  0  0  0  0  0  # atno 10765 bound_to 10752
  140.2857  134.7714  157.3796 H   0  0  0  0  0  0  0  0  0  0  0  0  # atno 11005 bound_to 11000
  146.2630  139.6453  142.9349 LP  0  0  0  0  0  0  0  0  0  0  0  0  # atno 17320 bound_to 7965
  145.4859  141.0438  143.2620 LP  0  0  0  0  0  0  0  0  0  0  0  0  # atno 17321 bound_to 7965
  139.9838  144.6409  150.7876 LP  0  0  0  0  0  0  0  0  0  0  0  0  # atno 17342 bound_to 10162
  140.7525  143.2992  151.3124 LP  0  0  0  0  0  0  0  0  0  0  0  0  # atno 17343 bound_to 10162
  157.7467  130.9995  150.2893 LP  0  0  0  0  0  0  0  0  0  0  0  0  # atno 17370 bound_to 10713
  156.3373  130.3810  149.7439 LP  0  0  0  0  0  0  0  0  0  0  0  0  # atno 17371 bound_to 10713
  140.1242  134.5180  155.8158 LP  0  0  0  0  0  0  0  0  0  0  0  0  # atno 17394 bound_to 11000
  141.2155  133.6767  156.6921 LP  0  0  0  0  0  0  0  0  0  0  0  0  # atno 17395 bound_to 11000

$$$$
