#       Name:                AV-unprocessed.smi:1400
#       Creating user name   scv26
#       Creation time:       Fri Mar 27 05:31:19 2020


#       File generated by GOLD software.
#

@<TRIPOS>MOLECULE
AV-unprocessed.smi:1400
    39    40     1
SMALL
NO_CHARGES


@<TRIPOS>ATOM
      1 ****        -3.6250  -3.3674  -1.2410 C.3            1 S1                 0.0000
      2 ****        -3.3543  -2.7113   0.1150 C.2            1 S1                 0.0000
      3 ****        -3.5041  -3.3944   1.1282 O.2            1 S1                 0.0000
      4 ****        -2.9557  -1.4170   0.1569 N.am           1 S1                 0.0000
      5 ****        -2.5823  -0.7409   1.4048 C.3            1 S1                 0.0000
      6 ****        -1.0602  -0.5079   1.4081 C.3            1 S1                 0.0000
      7 ****        -0.6088   0.2784   0.1580 C.3            1 S1                 0.0000
      8 ****         0.8499   0.3005   0.0850 N.am           1 S1                 0.0000
      9 ****         1.6267   1.3877   0.2018 C.2            1 S1                 0.0000
     10 ****         1.1894   2.5232   0.3910 O.2            1 S1                 0.0000
     11 ****         2.9273   1.0672   0.0837 N.am           1 S1                 0.0000
     12 ****         4.0538   1.9297   0.1399 C.2            1 S1                 0.0000
     13 ****         3.9837   3.2517   0.3356 N.2            1 S1                 0.0000
     14 ****         5.2471   3.8483   0.3436 C.2            1 S1                 0.0000
     15 ****         6.2753   2.9595   0.1510 C.2            1 S1                 0.0000
     16 ****         5.6943   1.3278  -0.0487 S.3            1 S1                 0.0000
     17 ****        -1.1859  -0.3340  -1.1363 C.3            1 S1                 0.0000
     18 ****        -2.7021  -0.5679  -1.0137 C.3            1 S1                 0.0000
     19 ****        -2.7390  -3.3260  -1.8753 H              1 S1                 0.0000
     20 ****        -4.4516  -2.8730  -1.7518 H              1 S1                 0.0000
     21 ****        -3.8921  -4.4169  -1.1128 H              1 S1                 0.0000
     22 ****        -3.1082   0.2125   1.4713 H              1 S1                 0.0000
     23 ****        -2.8733  -1.3023   2.2935 H              1 S1                 0.0000
     24 ****        -0.7670   0.0262   2.3126 H              1 S1                 0.0000
     25 ****        -0.5531  -1.4736   1.4409 H              1 S1                 0.0000
     26 ****        -1.0035   1.2924   0.2444 H              1 S1                 0.0000
     27 ****         1.3045  -0.5881  -0.0665 H              1 S1                 0.0000
     28 ****         3.1367   0.0915  -0.0679 H              1 S1                 0.0000
     29 ****         5.3225   4.9152   0.4931 H              1 S1                 0.0000
     30 ****         7.3347   3.1654   0.1146 H              1 S1                 0.0000
     31 ****        -0.9769   0.3191  -1.9844 H              1 S1                 0.0000
     32 ****        -0.6946  -1.2848  -1.3494 H              1 S1                 0.0000
     33 ****        -3.0918  -0.9780  -1.9442 H              1 S1                 0.0000
     34 ****        -3.2149   0.3859  -0.8812 H              1 S1                 0.0000
     35 ****        -3.7946  -4.3480   1.0498 LP             1 S1                 0.0000
     36 ****        -3.3354  -2.9955   2.0296 LP             1 S1                 0.0000
     37 ****         0.2035   2.6733   0.4660 LP             1 S1                 0.0000
     38 ****         1.8201   3.2953   0.4697 LP             1 S1                 0.0000
     39 ****         3.1278   3.7535   0.4613 LP             1 S1                 0.0000
@<TRIPOS>BOND
    1    1    2 1     
    2    1   19 1     
    3    1   20 1     
    4    1   21 1     
    5    2    3 2     
    6    2    4 am    
    7    4   18 1     
    8    4    5 1     
    9    5    6 1     
   10    5   22 1     
   11    5   23 1     
   12    6    7 1     
   13    6   24 1     
   14    6   25 1     
   15    7    8 1     
   16    7   17 1     
   17    7   26 1     
   18    8    9 am    
   19    8   27 1     
   20    9   10 2     
   21    9   11 am    
   22   11   12 1     
   23   11   28 1     
   24   12   16 1     
   25   12   13 2     
   26   13   14 1     
   27   14   15 2     
   28   14   29 1     
   29   15   16 1     
   30   15   30 1     
   31   17   18 1     
   32   17   31 1     
   33   17   32 1     
   34   18   33 1     
   35   18   34 1     
   36    3   35 1     
   37    3   36 1     
   38   10   37 1     
   39   10   38 1     
   40   13   39 1     
@<TRIPOS>SUBSTRUCTURE
      1 S1             1
@<TRIPOS>SET
LONE_PAIRS      STATIC     ATOMS    <user>   **** ""
5 35 36 37 38 39
DONOR_HYDROGENS      STATIC     ATOMS    <user>   **** ""
2 27 28
ATOM$BLUE        STATIC     ATOMS    COLORGROUP SYSTEM
5 35 36 37 38 39
ATOM$RED        STATIC     ATOMS    COLORGROUP SYSTEM
2 27 28
