AV-unprocessed.smi:2123|AV-procd|sdf|8647|dock4
  -GOLD-   2272011393D 1   1.00000     0.00000
 Structure written by MMmdl.
 47 48  0  0  0  0  0  0  0  0  1 V2000
  156.0152  145.2378  170.3059 C   0  0  0  0  0  0  0  0  0  0  0  0
  156.1061  143.5946  169.5493 S   0  0  0  0  0  0  0  0  0  0  0  0
  154.3563  143.3643  169.1199 C   0  0  0  0  0  0  0  0  0  0  0  0
  153.9808  144.0349  167.7847 C   0  0  0  0  0  0  0  0  0  0  0  0
  154.6704  143.4163  166.5625 C   0  0  0  0  0  0  0  0  0  0  0  0
  155.2822  144.1222  165.7605 O   0  0  0  0  0  0  0  0  0  0  0  0
  154.5571  142.0853  166.4313 N   0  0  0  0  0  0  0  0  0  0  0  0
  155.1201  141.2843  165.3476 C   0  0  0  0  0  0  0  0  0  0  0  0
  154.4408  141.5031  164.0036 C   0  0  0  0  0  0  0  0  0  0  0  0
  154.8328  140.8014  162.8444 C   0  0  0  0  0  0  0  0  0  0  0  0
  154.1562  141.0455  161.6343 C   0  0  0  0  0  0  0  0  0  0  0  0
  153.1002  141.9874  161.6098 C   0  0  0  0  0  0  0  0  0  0  0  0
  152.4114  142.2536  160.4058 N   0  0  0  0  0  0  0  0  0  0  0  0
  152.2852  143.6465  159.9816 C   0  0  0  0  0  0  0  0  0  0  0  0
  151.2660  143.7723  158.8339 C   0  0  1  0  0  0  0  0  0  0  0  0
  151.1993  145.1989  158.2786 C   0  0  0  0  0  0  0  0  0  0  0  0
  151.6427  142.8970  157.7744 O   0  0  0  0  0  0  0  0  0  0  0  0
  151.6510  141.5296  158.1753 C   0  0  1  0  0  0  0  0  0  0  0  0
  151.9713  140.6705  156.9478 C   0  0  0  0  0  0  0  0  0  0  0  0
  152.6849  141.3380  159.3010 C   0  0  0  0  0  0  0  0  0  0  0  0
  152.7170  142.6488  162.7301 N   0  0  0  0  0  0  0  0  0  0  0  0
  153.3678  142.4094  163.8877 C   0  0  0  0  0  0  0  0  0  0  0  0
  157.0038  145.5546  170.6378 H   0  0  0  0  0  0  0  0  0  0  0  0
  155.3481  145.2237  171.1678 H   0  0  0  0  0  0  0  0  0  0  0  0
  155.6410  145.9673  169.5874 H   0  0  0  0  0  0  0  0  0  0  0  0
  154.1688  142.2927  169.0504 H   0  0  0  0  0  0  0  0  0  0  0  0
  153.7316  143.7362  169.9335 H   0  0  0  0  0  0  0  0  0  0  0  0
  152.9004  144.0185  167.6375 H   0  0  0  0  0  0  0  0  0  0  0  0
  154.2642  145.0872  167.8381 H   0  0  0  0  0  0  0  0  0  0  0  0
  154.0372  141.5858  167.1387 H   0  0  0  0  0  0  0  0  0  0  0  0
  156.1893  141.4709  165.2356 H   0  0  0  0  0  0  0  0  0  0  0  0
  155.0250  140.2358  165.6319 H   0  0  0  0  0  0  0  0  0  0  0  0
  155.6345  140.0792  162.8731 H   0  0  0  0  0  0  0  0  0  0  0  0
  154.4443  140.4983  160.7495 H   0  0  0  0  0  0  0  0  0  0  0  0
  151.9626  144.2666  160.8190 H   0  0  0  0  0  0  0  0  0  0  0  0
  153.2613  144.0132  159.6608 H   0  0  0  0  0  0  0  0  0  0  0  0
  150.2735  143.4933  159.1922 H   0  0  0  0  0  0  0  0  0  0  0  0
  150.9016  145.9073  159.0520 H   0  0  0  0  0  0  0  0  0  0  0  0
  150.4739  145.2679  157.4675 H   0  0  0  0  0  0  0  0  0  0  0  0
  152.1667  145.5162  157.8884 H   0  0  0  0  0  0  0  0  0  0  0  0
  150.6584  141.2568  158.5382 H   0  0  0  0  0  0  0  0  0  0  0  0
  151.9799  139.6104  157.2019 H   0  0  0  0  0  0  0  0  0  0  0  0
  152.9472  140.9238  156.5326 H   0  0  0  0  0  0  0  0  0  0  0  0
  151.2275  140.8183  156.1644 H   0  0  0  0  0  0  0  0  0  0  0  0
  153.6903  141.5346  158.9258 H   0  0  0  0  0  0  0  0  0  0  0  0
  152.6667  140.2983  159.6242 H   0  0  0  0  0  0  0  0  0  0  0  0
  153.0205  142.9637  164.7473 H   0  0  0  0  0  0  0  0  0  0  0  0
  1  2  1  0  0  0  0
  1 23  1  0  0  0  0
  1 24  1  0  0  0  0
  1 25  1  0  0  0  0
  2  3  1  0  0  0  0
  3  4  1  0  0  0  0
  3 26  1  0  0  0  0
  3 27  1  0  0  0  0
  4  5  1  0  0  0  0
  4 28  1  0  0  0  0
  4 29  1  0  0  0  0
  5  6  2  0  0  0  0
  5  7  1  0  0  0  0
  7  8  1  0  0  0  0
  7 30  1  0  0  0  0
  8  9  1  0  0  0  0
  8 31  1  0  0  0  0
  8 32  1  0  0  0  0
  9 22  1  0  0  0  0
  9 10  2  0  0  0  0
 10 11  1  0  0  0  0
 10 33  1  0  0  0  0
 11 12  2  0  0  0  0
 11 34  1  0  0  0  0
 12 13  1  0  0  0  0
 12 21  1  0  0  0  0
 13 20  1  0  0  0  0
 13 14  1  0  0  0  0
 14 15  1  0  0  0  0
 14 35  1  0  0  0  0
 14 36  1  0  0  0  0
 15 16  1  0  0  0  0
 15 17  1  0  0  0  0
 15 37  1  0  0  0  0
 16 38  1  0  0  0  0
 16 39  1  0  0  0  0
 16 40  1  0  0  0  0
 17 18  1  0  0  0  0
 18 19  1  0  0  0  0
 18 20  1  0  0  0  0
 18 41  1  0  0  0  0
 19 42  1  0  0  0  0
 19 43  1  0  0  0  0
 19 44  1  0  0  0  0
 20 45  1  0  0  0  0
 20 46  1  0  0  0  0
 21 22  2  0  0  0  0
 22 47  1  0  0  0  0
M  END
> <s_m_source_file>
AV-unprocessed.smi

> <i_m_source_file_index>
2123

> <i_lp_mmshare_version>
43012

> <i_f3d_flags>
0

> <s_epik_input>
W0NIM11TW0NIMl1bQ0gyXUMoPU8pW05IXVtDSDJdYzFbY0hdW2NIXWMobltjSF0xKU4yW0NIMl1bQ0BASF0oW0NIM10pT1tDQEBIXShbQ0gzXSlbQ0gyXTI=

> <s_epik_cmdline>
J2VwaWtfcHl0aG9uJywgJy1waCcsICc3LjAnLCAnLXRuJywgJzgnLCAnLW1hJywgJzIwMCcsICctbWV0YWxfYmluZGluZycsICctaW1hZScsICc8aW5maWxlLm1hZT4nLCAnLW9tYWUnLCAnPG91dGZpbGUubWFlPic=

> <r_lp_tautomer_probability>
1

> <r_epik_Ionization_Penalty>
0.00642497

> <r_epik_Ionization_Penalty_Charging>
0

> <r_epik_Ionization_Penalty_Neutral>
0.00642497

> <r_epik_State_Penalty>
0.0047515

> <r_epik_Charging_Adjusted_Penalty>
0.0047515

> <i_epik_Tot_Q>
0

> <i_epik_Tot_abs_Q>
0

> <r_epik_Metal_State_Penalty>
-0

> <b_epik_Metal_Only>
0

> <s_lp_Force_Field>
OPLS_2005

> <r_lp_Energy>
15.9329

> <b_lp_Chiralities_Consistent>
1

> <s_lp_Variant>
AV-unprocessed.smi:2123-1

> <Gold.Version>
5.8.1

> <Gold.Id.Protein>
6NUR|6NUR_protein|mol2

> <Gold.PLP.Fitness>
47.4981

> <Gold.PLP.PLP>
-47.9530

> <Gold.PLP.part.hbond>
-1.2734

> <Gold.PLP.part.metal>
0.0000

> <Gold.PLP.part.buried>
-3.7236

> <Gold.PLP.part.nonpolar>
-41.7763

> <Gold.PLP.part.repulsive>
0.2910

> <Gold.PLP.ligand.clash>
0.0000

> <Gold.PLP.ligand.torsion>
0.4095

> <Gold.PLP.Chemscore.Hbond>
0.0000

> <Gold.PLP.Chemscore.CHOScore>
0.0000

> <Gold.PLP.Chemscore.Metal>
0.0000

> <Gold.PLP.Chemscore.Internal.Correction>
0.3641

> <Gold.Rescore>
     Score         DG    S(hbond)    S(metal)    S(lipo)     H(rot)  DE(clash)    DE(int)     intcor
     14.05     -15.83       0.00        0.00     125.80       1.70       1.28       0.51       ----

> <Gold.Chemscore.Fitness>
14.0511

> <Gold.Chemscore.DG>
-15.8340

> <Gold.Chemscore.ZeroCoef>
-5.4800

> <Gold.Chemscore.Hbond>
0.0000

> <Gold.Chemscore.Metal>
0.0000

> <Gold.Chemscore.Lipo>
125.8003

> <Gold.Chemscore.Internal_Hbond>
0.0000

> <Gold.Chemscore.DEClash>
1.2753

> <Gold.Chemscore.DEInternal>
0.5076

> <Gold.Chemscore.Rot>
1.7049

> <Gold.Chemscore.Internal.Correction>
   9.000000E+99

> <Gold.Chemscore.Hbond.Weighted>
-0.0000

> <Gold.Chemscore.Metal.Weighted>
-0.0000

> <Gold.Chemscore.Lipo.Weighted>
-14.7186

> <Gold.Chemscore.Internal_Hbond.Weighted>
0.0000

> <Gold.Chemscore.DEClash.Weighted>
1.2753

> <Gold.Chemscore.DEInternal.Weighted>
0.5076

> <Gold.Chemscore.Rot.Weighted>
4.3647

> <Gold.Chemscore.Internal.Correction.Weighted>
   9.000000E+99

> <Gold.Protein.RotatedTorsions>
[ 6907 6896 6895 6894 ] final -163.26 input  -60.11 | X-H torsion
[ 7974 7965 7964 7962 ] final  -37.55 input  175.53 | X-H torsion
[ 8008 7997 7996 7995 ] final    4.15 input   59.86 | X-H torsion
[ 10167 10162 10161 10158 ] final   74.57 input  -65.29 | X-H torsion
[ 10718 10713 10712 10709 ] final  137.69 input   66.30 | X-H torsion
[ 10763 10752 10751 10750 ] final    3.75 input  -60.55 | X-H torsion
[ 11005 11000 10999 10996 ] final   94.06 input  -57.11 | X-H torsion

> <Gold.Protein.ActiveResidues>
 VAL166  LYS551  ARG553  GLY616  TRP617  ASP618  TYR619  PRO620  LYS621  CYS622 
 ASP623  PHE694  ASN695  SER759  ASP760  ASP761  ALA762  ILE779  LEU786  VAL792 
 PHE793  MET794  SER795  GLU796  ALA797  LYS798  CYS799  TRP800  GLU811  SER814 

> <Gold.Protein.RotatedAtoms>
  151.3932  133.3782  159.2723 H   0  0  0  0  0  0  0  0  0  0  0  0  # atno 6907 bound_to 6896
  150.9489  134.8892  159.7670 H   0  0  0  0  0  0  0  0  0  0  0  0  # atno 6908 bound_to 6896
  152.5103  134.3887  159.9428 H   0  0  0  0  0  0  0  0  0  0  0  0  # atno 6909 bound_to 6896
  146.0564  140.6409  142.9017 H   0  0  0  0  0  0  0  0  0  0  0  0  # atno 7974 bound_to 7965
  154.7124  140.2695  155.6617 H   0  0  0  0  0  0  0  0  0  0  0  0  # atno 8008 bound_to 7997
  156.2799  140.2750  156.1694 H   0  0  0  0  0  0  0  0  0  0  0  0  # atno 8009 bound_to 7997
  155.0617  140.0371  157.2569 H   0  0  0  0  0  0  0  0  0  0  0  0  # atno 8010 bound_to 7997
  140.0123  144.5604  150.7648 H   0  0  0  0  0  0  0  0  0  0  0  0  # atno 10167 bound_to 10162
  157.4333  131.1050  151.0225 H   0  0  0  0  0  0  0  0  0  0  0  0  # atno 10718 bound_to 10713
  153.2796  135.6939  153.7399 H   0  0  0  0  0  0  0  0  0  0  0  0  # atno 10763 bound_to 10752
  153.6391  135.3396  155.3067 H   0  0  0  0  0  0  0  0  0  0  0  0  # atno 10764 bound_to 10752
  154.8490  135.4427  154.1844 H   0  0  0  0  0  0  0  0  0  0  0  0  # atno 10765 bound_to 10752
  139.8803  134.8825  156.3809 H   0  0  0  0  0  0  0  0  0  0  0  0  # atno 11005 bound_to 11000
  144.7150  140.4179  143.7051 LP  0  0  0  0  0  0  0  0  0  0  0  0  # atno 17320 bound_to 7965
  145.6635  139.1586  143.2795 LP  0  0  0  0  0  0  0  0  0  0  0  0  # atno 17321 bound_to 7965
  140.7376  143.2768  151.3718 LP  0  0  0  0  0  0  0  0  0  0  0  0  # atno 17342 bound_to 10162
  139.6196  144.0933  152.2379 LP  0  0  0  0  0  0  0  0  0  0  0  0  # atno 17343 bound_to 10162
  157.1114  130.6023  149.5483 LP  0  0  0  0  0  0  0  0  0  0  0  0  # atno 17370 bound_to 10713
  155.9921  130.4978  150.7327 LP  0  0  0  0  0  0  0  0  0  0  0  0  # atno 17371 bound_to 10713
  140.9399  133.7521  156.0133 LP  0  0  0  0  0  0  0  0  0  0  0  0  # atno 17394 bound_to 11000
  140.8231  134.3265  157.5375 LP  0  0  0  0  0  0  0  0  0  0  0  0  # atno 17395 bound_to 11000

$$$$
