#       Name:                AV-unprocessed.smi:1735
#       Creating user name   scv26
#       Creation time:       Fri Mar 27 08:20:29 2020


#       File generated by GOLD software.
#

@<TRIPOS>MOLECULE
AV-unprocessed.smi:1735
    37    38     1
SMALL
NO_CHARGES


@<TRIPOS>ATOM
      1 ****        -0.7231   1.9246  -0.5178 O.2            1 S1                 0.0000
      2 ****        -1.1730   0.9300   0.0518 C.2            1 S1                 0.0000
      3 ****        -2.4715   0.7143   0.3189 N.am           1 S1                 0.0000
      4 ****        -3.5676   1.5533  -0.0048 C.2            1 S1                 0.0000
      5 ****        -4.9261   1.2623   0.2954 C.2            1 S1                 0.0000
      6 ****        -5.7320   2.2256  -0.1280 N.2            1 S1                 0.0000
      7 ****        -4.9008   3.1288  -0.6952 N.pl3          1 S1                 0.0000
      8 ****        -3.5742   2.7617  -0.6432 C.2            1 S1                 0.0000
      9 ****        -0.4122  -0.0860   0.4836 N.am           1 S1                 0.0000
     10 ****         1.0378  -0.1753   0.3395 C.3            1 S1                 0.0000
     11 ****         1.4115  -0.7019  -1.0611 C.3            1 S1                 0.0000
     12 ****         2.9326  -0.8764  -1.2137 C.3            1 S1                 0.0000
     13 ****         3.5337  -1.7620  -0.1061 C.3            1 S1                 0.0000
     14 ****         3.1224  -3.1036  -0.2811 O.3            1 S1                 0.0000
     15 ****         3.1311  -1.2658   1.2954 C.3            1 S1                 0.0000
     16 ****         1.6087  -1.0917   1.4370 C.3            1 S1                 0.0000
     17 ****        -5.2499   3.9813  -1.1097 H              1 S1                 0.0000
     18 ****        -2.7018  -0.1454   0.7954 H              1 S1                 0.0000
     19 ****        -5.3452   0.4015   0.7953 H              1 S1                 0.0000
     20 ****        -2.7873   3.3770  -1.0539 H              1 S1                 0.0000
     21 ****        -0.8702  -0.8615   0.9399 H              1 S1                 0.0000
     22 ****         1.4702   0.8188   0.4701 H              1 S1                 0.0000
     23 ****         0.9156  -1.6570  -1.2405 H              1 S1                 0.0000
     24 ****         1.0473  -0.0192  -1.8295 H              1 S1                 0.0000
     25 ****         3.1663  -1.2876  -2.1965 H              1 S1                 0.0000
     26 ****         3.4043   0.1064  -1.1768 H              1 S1                 0.0000
     27 ****         4.6209  -1.7496  -0.1898 H              1 S1                 0.0000
     28 ****         3.4092  -3.3971  -1.1323 H              1 S1                 0.0000
     29 ****         3.5033  -1.9489   2.0599 H              1 S1                 0.0000
     30 ****         3.6144  -0.3064   1.4845 H              1 S1                 0.0000
     31 ****         1.3793  -0.6817   2.4212 H              1 S1                 0.0000
     32 ****         1.1260  -2.0690   1.3919 H              1 S1                 0.0000
     33 ****        -1.3413   2.6501  -0.8201 LP             1 S1                 0.0000
     34 ****         0.2606   2.0069  -0.6781 LP             1 S1                 0.0000
     35 ****        -6.7275   2.2735  -0.0466 LP             1 S1                 0.0000
     36 ****         2.1258  -3.1611  -0.2228 LP             1 S1                 0.0000
     37 ****         3.5315  -3.6770   0.4288 LP             1 S1                 0.0000
@<TRIPOS>BOND
    1    1    2 2     
    2    2    3 am    
    3    2    9 am    
    4    3    4 1     
    5    3   18 1     
    6    4    8 2     
    7    4    5 1     
    8    5    6 2     
    9    5   19 1     
   10    6    7 1     
   11    7   17 1     
   12    7    8 1     
   13    8   20 1     
   14    9   10 1     
   15    9   21 1     
   16   10   16 1     
   17   10   11 1     
   18   10   22 1     
   19   11   12 1     
   20   11   23 1     
   21   11   24 1     
   22   12   13 1     
   23   12   25 1     
   24   12   26 1     
   25   13   14 1     
   26   13   15 1     
   27   13   27 1     
   28   14   28 1     
   29   15   16 1     
   30   15   29 1     
   31   15   30 1     
   32   16   31 1     
   33   16   32 1     
   34    1   33 1     
   35    1   34 1     
   36    6   35 1     
   37   14   36 1     
   38   14   37 1     
@<TRIPOS>SUBSTRUCTURE
      1 S1             1
@<TRIPOS>SET
LONE_PAIRS      STATIC     ATOMS    <user>   **** ""
5 33 34 35 36 37
DONOR_HYDROGENS      STATIC     ATOMS    <user>   **** ""
4 18 17 21 28
ATOM$BLUE        STATIC     ATOMS    COLORGROUP SYSTEM
5 33 34 35 36 37
ATOM$RED        STATIC     ATOMS    COLORGROUP SYSTEM
4 18 17 21 28
