AV-unprocessed.smi:1674|AV-procd|sdf|6713|dock6
  -GOLD-   22720 7453D 1   1.00000     0.00000
 Structure written by MMmdl.
 47 48  0  0  0  0  0  0  0  0  1 V2000
  146.9884  137.9677  158.0946 C   0  0  0  0  0  0  0  0  0  0  0  0
  148.1010  137.3561  157.2868 C   0  0  0  0  0  0  0  0  0  0  0  0
  148.5617  138.0623  156.3077 N   0  0  0  0  0  0  0  0  0  0  0  0
  149.5737  137.5937  155.4938 N   0  0  0  0  0  0  0  0  0  0  0  0
  149.9208  138.5218  154.4059 C   0  0  0  0  0  0  0  0  0  0  0  0
  149.6770  140.0186  154.7400 C   0  0  2  0  0  0  0  0  0  0  0  0
  149.8115  140.7845  153.5587 O   0  0  0  0  0  0  0  0  0  0  0  0
  150.4935  140.5644  155.9081 C   0  0  0  0  0  0  0  0  0  0  0  0
  150.3854  141.9273  156.2566 C   0  0  0  0  0  0  0  0  0  0  0  0
  151.1083  142.4425  157.3493 C   0  0  0  0  0  0  0  0  0  0  0  0
  151.9501  141.5993  158.1037 C   0  0  0  0  0  0  0  0  0  0  0  0
  152.7305  142.1512  159.2845 C   0  0  0  0  0  0  0  0  0  0  0  0
  151.9082  143.1049  160.1759 C   0  0  0  0  0  0  0  0  0  0  0  0
  151.8758  144.5191  159.5774 C   0  0  0  0  0  0  0  0  0  0  0  0
  152.4164  143.1379  161.6274 C   0  0  0  0  0  0  0  0  0  0  0  0
  152.0610  140.2368  157.7580 C   0  0  0  0  0  0  0  0  0  0  0  0
  151.3384  139.7220  156.6652 C   0  0  0  0  0  0  0  0  0  0  0  0
  150.1931  136.3865  155.6443 C   0  0  0  0  0  0  0  0  0  0  0  0
  151.0991  136.0052  154.9017 O   0  0  0  0  0  0  0  0  0  0  0  0
  149.6661  135.5911  156.7555 C   0  0  0  0  0  0  0  0  0  0  0  0
  150.2722  134.3115  156.9343 C   0  0  0  0  0  0  0  0  0  0  0  0
  150.7809  133.2829  157.0876 N   0  0  0  0  0  0  0  0  0  0  0  0
  148.6648  136.0372  157.5543 C   0  0  0  0  0  0  0  0  0  0  0  0
  148.0818  135.2482  158.7186 C   0  0  0  0  0  0  0  0  0  0  0  0
  147.3189  138.1737  159.1126 H   0  0  0  0  0  0  0  0  0  0  0  0
  146.1303  137.2972  158.1458 H   0  0  0  0  0  0  0  0  0  0  0  0
  146.6423  138.9084  157.6630 H   0  0  0  0  0  0  0  0  0  0  0  0
  150.9508  138.3591  154.0826 H   0  0  0  0  0  0  0  0  0  0  0  0
  149.3296  138.2744  153.5230 H   0  0  0  0  0  0  0  0  0  0  0  0
  148.6253  140.1234  155.0098 H   0  0  0  0  0  0  0  0  0  0  0  0
  149.5594  140.2465  152.8238 H   0  0  0  0  0  0  0  0  0  0  0  0
  149.7363  142.5808  155.6923 H   0  0  0  0  0  0  0  0  0  0  0  0
  151.0138  143.4873  157.6062 H   0  0  0  0  0  0  0  0  0  0  0  0
  153.1195  141.3250  159.8815 H   0  0  0  0  0  0  0  0  0  0  0  0
  153.6036  142.6747  158.8923 H   0  0  0  0  0  0  0  0  0  0  0  0
  150.8791  142.7432  160.1951 H   0  0  0  0  0  0  0  0  0  0  0  0
  152.8766  144.9487  159.5209 H   0  0  0  0  0  0  0  0  0  0  0  0
  151.2609  145.1880  160.1802 H   0  0  0  0  0  0  0  0  0  0  0  0
  151.4592  144.5108  158.5697 H   0  0  0  0  0  0  0  0  0  0  0  0
  153.4567  143.4615  161.6754 H   0  0  0  0  0  0  0  0  0  0  0  0
  152.3506  142.1567  162.0981 H   0  0  0  0  0  0  0  0  0  0  0  0
  151.8259  143.8256  162.2334 H   0  0  0  0  0  0  0  0  0  0  0  0
  152.6999  139.5822  158.3324 H   0  0  0  0  0  0  0  0  0  0  0  0
  151.4252  138.6733  156.4211 H   0  0  0  0  0  0  0  0  0  0  0  0
  148.6330  134.3279  158.9099 H   0  0  0  0  0  0  0  0  0  0  0  0
  147.0463  134.9763  158.5118 H   0  0  0  0  0  0  0  0  0  0  0  0
  148.1070  135.8372  159.6359 H   0  0  0  0  0  0  0  0  0  0  0  0
  1  2  1  0  0  0  0
  1 25  1  0  0  0  0
  1 26  1  0  0  0  0
  1 27  1  0  0  0  0
  2 23  1  0  0  0  0
  2  3  2  0  0  0  0
  3  4  1  0  0  0  0
  4  5  1  0  0  0  0
  4 18  1  0  0  0  0
  5  6  1  0  0  0  0
  5 28  1  0  0  0  0
  5 29  1  0  0  0  0
  6  7  1  0  0  0  0
  6  8  1  0  0  0  0
  6 30  1  0  0  0  0
  7 31  1  0  0  0  0
  8 17  1  0  0  0  0
  8  9  2  0  0  0  0
  9 10  1  0  0  0  0
  9 32  1  0  0  0  0
 10 11  2  0  0  0  0
 10 33  1  0  0  0  0
 11 12  1  0  0  0  0
 11 16  1  0  0  0  0
 12 13  1  0  0  0  0
 12 34  1  0  0  0  0
 12 35  1  0  0  0  0
 13 14  1  0  0  0  0
 13 15  1  0  0  0  0
 13 36  1  0  0  0  0
 14 37  1  0  0  0  0
 14 38  1  0  0  0  0
 14 39  1  0  0  0  0
 15 40  1  0  0  0  0
 15 41  1  0  0  0  0
 15 42  1  0  0  0  0
 16 17  2  0  0  0  0
 16 43  1  0  0  0  0
 17 44  1  0  0  0  0
 18 19  2  0  0  0  0
 18 20  1  0  0  0  0
 20 21  1  0  0  0  0
 20 23  2  0  0  0  0
 21 22  3  0  0  0  0
 23 24  1  0  0  0  0
 24 45  1  0  0  0  0
 24 46  1  0  0  0  0
 24 47  1  0  0  0  0
M  END
> <s_m_source_file>
AV-unprocessed.smi

> <i_m_source_file_index>
1674

> <i_lp_mmshare_version>
43012

> <i_f3d_flags>
0

> <s_epik_input>
TiNDYyhjMVtDSDNdKWMoPU8pbihuYzFbQ0gzXSlbQ0gyXVtDQEhdKFtPSF0pYzJbY0hdW2NIXWMoW2NIXVtjSF0yKVtDSDJdW0NIXShbQ0gzXSlbQ0gzXQ==

> <s_epik_cmdline>
J2VwaWtfcHl0aG9uJywgJy1waCcsICc3LjAnLCAnLXRuJywgJzgnLCAnLW1hJywgJzIwMCcsICctbWV0YWxfYmluZGluZycsICctaW1hZScsICc8aW5maWxlLm1hZT4nLCAnLW9tYWUnLCAnPG91dGZpbGUubWFlPic=

> <r_lp_tautomer_probability>
1

> <r_epik_Ionization_Penalty>
4.60566e-08

> <r_epik_Ionization_Penalty_Charging>
1.40848e-10

> <r_epik_Ionization_Penalty_Neutral>
4.59158e-08

> <r_epik_State_Penalty>
-0

> <r_epik_Charging_Adjusted_Penalty>
1.40848e-10

> <i_epik_Tot_Q>
0

> <i_epik_Tot_abs_Q>
0

> <r_epik_Metal_State_Penalty>
-0

> <b_epik_Metal_Only>
0

> <s_lp_Force_Field>
OPLS_2005

> <r_lp_Energy>
29.2193

> <b_lp_Chiralities_Consistent>
1

> <s_lp_Variant>
AV-unprocessed.smi:1674-1

> <Gold.Version>
5.8.1

> <Gold.Id.Protein>
6NUR|6NUR_protein|mol2

> <Gold.PLP.Fitness>
50.6513

> <Gold.PLP.PLP>
-42.2684

> <Gold.PLP.part.hbond>
-4.6089

> <Gold.PLP.part.metal>
0.0000

> <Gold.PLP.part.buried>
-3.8322

> <Gold.PLP.part.nonpolar>
-34.3972

> <Gold.PLP.part.repulsive>
0.1556

> <Gold.PLP.ligand.clash>
0.0000

> <Gold.PLP.ligand.torsion>
0.9971

> <Gold.PLP.Chemscore.Hbond>
3.4165

> <Gold.PLP.Chemscore.CHOScore>
0.0000

> <Gold.PLP.Chemscore.Metal>
0.0000

> <Gold.Chemscore.Hbonds>
donor molecule, donor type, donor heavy atom, donor atom, acceptor molecule, acceptor atom, score
      L1  H     7    31       P1  7957  0.91
      P1  H  6896  6908       L1    22  0.50
      P1  H  7989  7998       L1     7  0.38
      P1  H  8011  8017       L1     7  0.45
      P1  H 10752 10765       L1    19  1.00

> <Gold.PLP.Chemscore.Internal.Correction>
0.1276

> <Gold.Rescore>
     Score         DG    S(hbond)    S(metal)    S(lipo)     H(rot)  DE(clash)    DE(int)     intcor
     19.61     -20.58       2.36        0.00     108.39       2.13       0.10       0.87       ----

> <Gold.Chemscore.Fitness>
19.6091

> <Gold.Chemscore.DG>
-20.5802

> <Gold.Chemscore.ZeroCoef>
-5.4800

> <Gold.Chemscore.Hbond>
2.3567

> <Gold.Chemscore.Metal>
0.0000

> <Gold.Chemscore.Lipo>
108.3890

> <Gold.Chemscore.Internal_Hbond>
0.0000

> <Gold.Chemscore.DEClash>
0.0991

> <Gold.Chemscore.DEInternal>
0.8720

> <Gold.Chemscore.Rot>
2.1299

> <Gold.Chemscore.Internal.Correction>
   9.000000E+99

> <Gold.Chemscore.Hbonds>
donor molecule, donor type, donor heavy atom, donor atom, acceptor molecule, acceptor atom, score
      L1  H     7    31       P1  7957  0.89
      P1  H  6896  6908       L1    22  0.15
      P1  H  7989  7998       L1     7  0.05
      P1  H  8011  8017       L1     7  0.01
      P1  H 10752 10765       L1    19  1.00

> <Gold.Chemscore.Hbond.Weighted>
-7.8713

> <Gold.Chemscore.Metal.Weighted>
-0.0000

> <Gold.Chemscore.Lipo.Weighted>
-12.6815

> <Gold.Chemscore.Internal_Hbond.Weighted>
0.0000

> <Gold.Chemscore.DEClash.Weighted>
0.0991

> <Gold.Chemscore.DEInternal.Weighted>
0.8720

> <Gold.Chemscore.Rot.Weighted>
5.4526

> <Gold.Chemscore.Internal.Correction.Weighted>
   9.000000E+99

> <Gold.Protein.RotatedTorsions>
[ 6907 6896 6895 6894 ] final   80.68 input  -60.11 | X-H torsion
[ 7974 7965 7964 7962 ] final   77.25 input  175.53 | X-H torsion
[ 8008 7997 7996 7995 ] final   30.36 input   59.86 | X-H torsion
[ 10167 10162 10161 10158 ] final   -3.82 input  -65.29 | X-H torsion
[ 10718 10713 10712 10709 ] final -150.42 input   66.30 | X-H torsion
[ 10763 10752 10751 10750 ] final  170.72 input  -60.55 | X-H torsion
[ 11005 11000 10999 10996 ] final  116.80 input  -57.11 | X-H torsion

> <Gold.Protein.ActiveResidues>
 VAL166  LYS551  ARG553  GLY616  TRP617  ASP618  TYR619  PRO620  LYS621  CYS622 
 ASP623  PHE694  ASN695  SER759  ASP760  ASP761  ALA762  ILE779  LEU786  VAL792 
 PHE793  MET794  SER795  GLU796  ALA797  LYS798  CYS799  TRP800  GLU811  SER814 

> <Gold.Protein.RotatedAtoms>
  152.5243  134.3321  159.9186 H   0  0  0  0  0  0  0  0  0  0  0  0  # atno 6907 bound_to 6896
  151.3270  133.4010  159.2667 H   0  0  0  0  0  0  0  0  0  0  0  0  # atno 6908 bound_to 6896
  150.9912  134.9264  159.7958 H   0  0  0  0  0  0  0  0  0  0  0  0  # atno 6909 bound_to 6896
  145.6924  139.2557  143.1752 H   0  0  0  0  0  0  0  0  0  0  0  0  # atno 7974 bound_to 7965
  155.0893  140.3218  155.4578 H   0  0  0  0  0  0  0  0  0  0  0  0  # atno 8008 bound_to 7997
  156.2747  140.2081  156.5966 H   0  0  0  0  0  0  0  0  0  0  0  0  # atno 8009 bound_to 7997
  154.6916  140.0516  157.0356 H   0  0  0  0  0  0  0  0  0  0  0  0  # atno 8010 bound_to 7997
  140.6904  143.6495  150.8362 H   0  0  0  0  0  0  0  0  0  0  0  0  # atno 10167 bound_to 10162
  156.4459  130.8144  151.2375 H   0  0  0  0  0  0  0  0  0  0  0  0  # atno 10718 bound_to 10713
  154.4017  135.2755  155.2092 H   0  0  0  0  0  0  0  0  0  0  0  0  # atno 10763 bound_to 10752
  154.4115  135.6021  153.5959 H   0  0  0  0  0  0  0  0  0  0  0  0  # atno 10764 bound_to 10752
  152.9831  135.5950  154.4286 H   0  0  0  0  0  0  0  0  0  0  0  0  # atno 10765 bound_to 10752
  139.9053  134.9602  156.7254 H   0  0  0  0  0  0  0  0  0  0  0  0  # atno 11005 bound_to 11000
  146.0870  140.7700  142.9614 LP  0  0  0  0  0  0  0  0  0  0  0  0  # atno 17320 bound_to 7965
  144.6992  140.3577  143.7170 LP  0  0  0  0  0  0  0  0  0  0  0  0  # atno 17321 bound_to 7965
  140.0208  143.5545  152.2801 LP  0  0  0  0  0  0  0  0  0  0  0  0  # atno 17342 bound_to 10162
  139.6302  144.7643  151.2552 LP  0  0  0  0  0  0  0  0  0  0  0  0  # atno 17343 bound_to 10162
  157.7505  131.0153  150.3500 LP  0  0  0  0  0  0  0  0  0  0  0  0  # atno 17370 bound_to 10713
  156.3868  130.3890  149.7060 LP  0  0  0  0  0  0  0  0  0  0  0  0  # atno 17371 bound_to 10713
  140.6967  133.9342  155.7999 LP  0  0  0  0  0  0  0  0  0  0  0  0  # atno 17394 bound_to 11000
  141.0401  134.0633  157.3912 LP  0  0  0  0  0  0  0  0  0  0  0  0  # atno 17395 bound_to 11000

$$$$
