AV-unprocessed.smi:2241|AV-procd|sdf|9059|dock6
  -GOLD-   2272012263D 1   1.00000     0.00000
 Structure written by MMmdl.
 45 47  0  0  0  0  0  0  0  0  1 V2000
  153.8610  139.4480  160.4541 C   0  0  0  0  0  0  0  0  0  0  0  0
  153.2873  140.7468  159.9259 C   0  0  0  0  0  0  0  0  0  0  0  0
  153.5791  141.9669  160.5669 C   0  0  0  0  0  0  0  0  0  0  0  0
  153.0415  143.1677  160.0691 C   0  0  0  0  0  0  0  0  0  0  0  0
  152.2111  143.1535  158.9318 C   0  0  0  0  0  0  0  0  0  0  0  0
  151.5599  144.6413  158.3423 Cl  0  0  0  0  0  0  0  0  0  0  0  0
  151.9089  141.9385  158.2783 C   0  0  0  0  0  0  0  0  0  0  0  0
  151.0867  142.0033  157.1738 O   0  0  0  0  0  0  0  0  0  0  0  0
  150.9215  140.8388  156.3766 C   0  0  0  0  0  0  0  0  0  0  0  0
  149.8225  141.1195  155.3407 C   0  0  1  0  0  0  0  0  0  0  0  0
  150.1811  140.4439  154.1521 O   0  0  0  0  0  0  0  0  0  0  0  0
  148.4408  140.6075  155.8086 C   0  0  0  0  0  0  0  0  0  0  0  0
  147.3496  141.5033  155.3967 N   0  0  0  0  0  0  0  0  0  0  0  0
  146.3956  141.8219  156.3811 C   0  0  0  0  0  0  0  0  0  0  0  0
  145.4053  142.6200  156.1370 N   0  0  0  0  0  0  0  0  0  0  0  0
  145.2634  143.1833  154.8634 C   0  0  0  0  0  0  0  0  0  0  0  0
  144.0764  144.1077  154.6298 C   0  0  0  0  0  0  0  0  0  0  0  0
  144.2669  145.2066  153.5705 C   0  0  0  0  0  0  0  0  0  0  0  0
  143.4743  146.1406  154.4916 C   0  0  0  0  0  0  0  0  0  0  0  0
  143.8902  145.2358  155.6572 C   0  0  0  0  0  0  0  0  0  0  0  0
  146.1418  142.8856  153.8764 C   0  0  0  0  0  0  0  0  0  0  0  0
  147.2695  141.9870  154.1228 C   0  0  0  0  0  0  0  0  0  0  0  0
  148.0851  141.6904  153.2494 O   0  0  0  0  0  0  0  0  0  0  0  0
  152.4585  140.7337  158.7856 C   0  0  0  0  0  0  0  0  0  0  0  0
  154.3496  139.5913  161.4183 H   0  0  0  0  0  0  0  0  0  0  0  0
  154.5957  139.0487  159.7546 H   0  0  0  0  0  0  0  0  0  0  0  0
  153.0703  138.7080  160.5821 H   0  0  0  0  0  0  0  0  0  0  0  0
  154.2144  141.9874  161.4404 H   0  0  0  0  0  0  0  0  0  0  0  0
  153.2664  144.1019  160.5621 H   0  0  0  0  0  0  0  0  0  0  0  0
  151.8632  140.6116  155.8735 H   0  0  0  0  0  0  0  0  0  0  0  0
  150.6456  139.9787  156.9894 H   0  0  0  0  0  0  0  0  0  0  0  0
  149.7990  142.1906  155.1345 H   0  0  0  0  0  0  0  0  0  0  0  0
  149.3946  140.1193  153.7414 H   0  0  0  0  0  0  0  0  0  0  0  0
  148.2758  139.5789  155.4807 H   0  0  0  0  0  0  0  0  0  0  0  0
  148.4245  140.5378  156.8977 H   0  0  0  0  0  0  0  0  0  0  0  0
  146.5493  141.3509  157.3536 H   0  0  0  0  0  0  0  0  0  0  0  0
  143.1537  143.5467  154.4715 H   0  0  0  0  0  0  0  0  0  0  0  0
  145.3036  145.5269  153.4505 H   0  0  0  0  0  0  0  0  0  0  0  0
  143.7938  145.0014  152.6100 H   0  0  0  0  0  0  0  0  0  0  0  0
  143.8549  147.1609  154.5460 H   0  0  0  0  0  0  0  0  0  0  0  0
  142.4007  146.1167  154.2975 H   0  0  0  0  0  0  0  0  0  0  0  0
  143.1100  145.0558  156.3972 H   0  0  0  0  0  0  0  0  0  0  0  0
  144.8230  145.5589  156.1232 H   0  0  0  0  0  0  0  0  0  0  0  0
  146.0198  143.3174  152.8935 H   0  0  0  0  0  0  0  0  0  0  0  0
  152.2574  139.7836  158.3147 H   0  0  0  0  0  0  0  0  0  0  0  0
  1  2  1  0  0  0  0
  1 25  1  0  0  0  0
  1 26  1  0  0  0  0
  1 27  1  0  0  0  0
  2 24  1  0  0  0  0
  2  3  2  0  0  0  0
  3  4  1  0  0  0  0
  3 28  1  0  0  0  0
  4  5  2  0  0  0  0
  4 29  1  0  0  0  0
  5  6  1  0  0  0  0
  5  7  1  0  0  0  0
  7  8  1  0  0  0  0
  7 24  2  0  0  0  0
  8  9  1  0  0  0  0
  9 10  1  0  0  0  0
  9 30  1  0  0  0  0
  9 31  1  0  0  0  0
 10 11  1  0  0  0  0
 10 12  1  0  0  0  0
 10 32  1  0  0  0  0
 11 33  1  0  0  0  0
 12 13  1  0  0  0  0
 12 34  1  0  0  0  0
 12 35  1  0  0  0  0
 13 22  1  0  0  0  0
 13 14  1  0  0  0  0
 14 15  2  0  0  0  0
 14 36  1  0  0  0  0
 15 16  1  0  0  0  0
 16 17  1  0  0  0  0
 16 21  2  0  0  0  0
 17 20  1  0  0  0  0
 17 18  1  0  0  0  0
 17 37  1  0  0  0  0
 18 19  1  0  0  0  0
 18 38  1  0  0  0  0
 18 39  1  0  0  0  0
 19 20  1  0  0  0  0
 19 40  1  0  0  0  0
 19 41  1  0  0  0  0
 20 42  1  0  0  0  0
 20 43  1  0  0  0  0
 21 22  1  0  0  0  0
 21 44  1  0  0  0  0
 22 23  2  0  0  0  0
 24 45  1  0  0  0  0
M  END
> <s_m_source_file>
AV-unprocessed.smi

> <i_m_source_file_index>
2241

> <i_lp_mmshare_version>
43012

> <i_f3d_flags>
0

> <s_epik_input>
W0NIM11jMVtjSF1bY0hdYyhDbCljKFtjSF0xKU9bQ0gyXVtDQEhdKFtPSF0pW0NIMl1uMltjSF1uYyhbY0hdYzI9TylbQ0hdM1tDSDJdW0NIMl1bQ0gyXTM=

> <s_epik_cmdline>
J2VwaWtfcHl0aG9uJywgJy1waCcsICc3LjAnLCAnLXRuJywgJzgnLCAnLW1hJywgJzIwMCcsICctbWV0YWxfYmluZGluZycsICctaW1hZScsICc8aW5maWxlLm1hZT4nLCAnLW9tYWUnLCAnPG91dGZpbGUubWFlPic=

> <r_lp_tautomer_probability>
1

> <r_epik_Ionization_Penalty>
1.78212e-05

> <r_epik_Ionization_Penalty_Charging>
5.61663e-08

> <r_epik_Ionization_Penalty_Neutral>
1.7765e-05

> <r_epik_State_Penalty>
-0

> <r_epik_Charging_Adjusted_Penalty>
5.61663e-08

> <i_epik_Tot_Q>
0

> <i_epik_Tot_abs_Q>
0

> <r_epik_Metal_State_Penalty>
-0

> <b_epik_Metal_Only>
0

> <s_lp_Force_Field>
OPLS_2005

> <r_lp_Energy>
30.2703

> <b_lp_Chiralities_Consistent>
1

> <s_lp_Variant>
AV-unprocessed.smi:2241-2

> <Gold.Version>
5.8.1

> <Gold.Id.Protein>
6NUR|6NUR_protein|mol2

> <Gold.PLP.Fitness>
53.8203

> <Gold.PLP.PLP>
-52.5152

> <Gold.PLP.part.hbond>
-2.8543

> <Gold.PLP.part.metal>
0.0000

> <Gold.PLP.part.buried>
-3.9225

> <Gold.PLP.part.nonpolar>
-46.3687

> <Gold.PLP.part.repulsive>
0.9324

> <Gold.PLP.ligand.clash>
0.0000

> <Gold.PLP.ligand.torsion>
1.7173

> <Gold.PLP.Chemscore.Hbond>
1.4350

> <Gold.PLP.Chemscore.CHOScore>
0.0000

> <Gold.PLP.Chemscore.Metal>
0.0000

> <Gold.Chemscore.Hbonds>
donor molecule, donor type, donor heavy atom, donor atom, acceptor molecule, acceptor atom, score
      P1  H  7989  7998       L1    11  0.85
      P1  H  8011  8017       L1    23  0.53

> <Gold.PLP.Chemscore.Internal.Correction>
0.4348

> <Gold.Rescore>
     Score         DG    S(hbond)    S(metal)    S(lipo)     H(rot)  DE(clash)    DE(int)     intcor
     15.38     -20.53       1.45        0.00     139.25       2.38       0.45       4.70       ----

> <Gold.Chemscore.Fitness>
15.3845

> <Gold.Chemscore.DG>
-20.5345

> <Gold.Chemscore.ZeroCoef>
-5.4800

> <Gold.Chemscore.Hbond>
1.4537

> <Gold.Chemscore.Metal>
0.0000

> <Gold.Chemscore.Lipo>
139.2503

> <Gold.Chemscore.Internal_Hbond>
0.0000

> <Gold.Chemscore.DEClash>
0.4489

> <Gold.Chemscore.DEInternal>
4.7010

> <Gold.Chemscore.Rot>
2.3801

> <Gold.Chemscore.Internal.Correction>
   9.000000E+99

> <Gold.Chemscore.Hbonds>
donor molecule, donor type, donor heavy atom, donor atom, acceptor molecule, acceptor atom, score
      P1  H  7989  7998       L1    11  0.78
      P1  H  8011  8017       L1    23  0.51

> <Gold.Chemscore.Hbond.Weighted>
-4.8552

> <Gold.Chemscore.Metal.Weighted>
-0.0000

> <Gold.Chemscore.Lipo.Weighted>
-16.2923

> <Gold.Chemscore.Internal_Hbond.Weighted>
0.0000

> <Gold.Chemscore.DEClash.Weighted>
0.4489

> <Gold.Chemscore.DEInternal.Weighted>
4.7010

> <Gold.Chemscore.Rot.Weighted>
6.0931

> <Gold.Chemscore.Internal.Correction.Weighted>
   9.000000E+99

> <Gold.Protein.RotatedTorsions>
[ 6907 6896 6895 6894 ] final  174.79 input  -60.11 | X-H torsion
[ 7974 7965 7964 7962 ] final  -27.25 input  175.53 | X-H torsion
[ 8008 7997 7996 7995 ] final -130.68 input   59.86 | X-H torsion
[ 10167 10162 10161 10158 ] final   69.38 input  -65.29 | X-H torsion
[ 10718 10713 10712 10709 ] final   -2.95 input   66.30 | X-H torsion
[ 10763 10752 10751 10750 ] final   93.14 input  -60.55 | X-H torsion
[ 11005 11000 10999 10996 ] final   23.23 input  -57.11 | X-H torsion

> <Gold.Protein.ActiveResidues>
 VAL166  LYS551  ARG553  GLY616  TRP617  ASP618  TYR619  PRO620  LYS621  CYS622 
 ASP623  PHE694  ASN695  SER759  ASP760  ASP761  ALA762  ILE779  LEU786  VAL792 
 PHE793  MET794  SER795  GLU796  ALA797  LYS798  CYS799  TRP800  GLU811  SER814 

> <Gold.Protein.RotatedAtoms>
  151.7467  133.3325  159.3380 H   0  0  0  0  0  0  0  0  0  0  0  0  # atno 6907 bound_to 6896
  150.7552  134.6229  159.6155 H   0  0  0  0  0  0  0  0  0  0  0  0  # atno 6908 bound_to 6896
  152.3495  134.7027  160.0292 H   0  0  0  0  0  0  0  0  0  0  0  0  # atno 6909 bound_to 6896
  146.1370  140.5127  142.8668 H   0  0  0  0  0  0  0  0  0  0  0  0  # atno 7974 bound_to 7965
  155.2998  140.0452  157.3028 H   0  0  0  0  0  0  0  0  0  0  0  0  # atno 8008 bound_to 7997
  154.5493  140.2312  155.8478 H   0  0  0  0  0  0  0  0  0  0  0  0  # atno 8009 bound_to 7997
  156.1953  140.3040  155.9420 H   0  0  0  0  0  0  0  0  0  0  0  0  # atno 8010 bound_to 7997
  140.0684  144.5173  150.7244 H   0  0  0  0  0  0  0  0  0  0  0  0  # atno 10167 bound_to 10162
  156.7832  130.5337  149.5747 H   0  0  0  0  0  0  0  0  0  0  0  0  # atno 10718 bound_to 10713
  153.2270  135.4336  155.0553 H   0  0  0  0  0  0  0  0  0  0  0  0  # atno 10763 bound_to 10752
  154.8278  135.3370  154.6843 H   0  0  0  0  0  0  0  0  0  0  0  0  # atno 10764 bound_to 10752
  153.7272  135.7013  153.5054 H   0  0  0  0  0  0  0  0  0  0  0  0  # atno 10765 bound_to 10752
  140.3719  134.2013  155.7666 H   0  0  0  0  0  0  0  0  0  0  0  0  # atno 11005 bound_to 11000
  144.7751  140.5722  143.6643 LP  0  0  0  0  0  0  0  0  0  0  0  0  # atno 17320 bound_to 7965
  145.5132  139.1478  143.3593 LP  0  0  0  0  0  0  0  0  0  0  0  0  # atno 17321 bound_to 7965
  140.7137  143.2526  151.4500 LP  0  0  0  0  0  0  0  0  0  0  0  0  # atno 17342 bound_to 10162
  139.5851  144.1623  152.2018 LP  0  0  0  0  0  0  0  0  0  0  0  0  # atno 17343 bound_to 10162
  156.1205  130.6106  151.0186 LP  0  0  0  0  0  0  0  0  0  0  0  0  # atno 17370 bound_to 10713
  157.6636  131.0876  150.7780 LP  0  0  0  0  0  0  0  0  0  0  0  0  # atno 17371 bound_to 10713
  141.1952  133.8112  157.0726 LP  0  0  0  0  0  0  0  0  0  0  0  0  # atno 17394 bound_to 11000
  140.0545  134.9788  157.1196 LP  0  0  0  0  0  0  0  0  0  0  0  0  # atno 17395 bound_to 11000

$$$$
