AV-unprocessed.smi:450|AV-procd|sdf|2607|dock6
  -GOLD-   2262023 03D 1   1.00000     0.00000
 Structure written by MMmdl.
 32 32  0  0  0  0  0  0  0  0  1 V2000
  150.3287  130.1466  154.9130 C   0  0  0  0  0  0  0  0  0  0  0  0
  149.6307  131.5144  154.9099 C   0  0  0  0  0  0  0  0  0  0  0  0
  150.5118  132.6652  155.4334 C   0  0  2  0  0  0  0  0  0  0  0  0
  150.7987  132.5230  156.9347 C   0  0  0  0  0  0  0  0  0  0  0  0
  149.8701  133.9556  155.1867 N   0  0  0  0  0  0  0  0  0  0  0  0
  150.3262  135.1534  155.5847 C   0  0  0  0  0  0  0  0  0  0  0  0
  151.3667  135.3047  156.2269 O   0  0  0  0  0  0  0  0  0  0  0  0
  149.4635  136.3554  155.1814 C   0  0  0  0  0  0  0  0  0  0  0  0
  150.1251  137.6360  155.4279 N   0  0  0  0  0  0  0  0  0  0  0  0
  150.4133  138.6090  154.5399 C   0  0  0  0  0  0  0  0  0  0  0  0
  150.0805  138.4753  153.1999 N   0  0  0  0  0  0  0  0  0  0  0  0
  151.0301  139.6654  155.0624 N   0  0  0  0  0  0  0  0  0  0  0  0
  151.1743  139.3676  156.4161 C   0  0  0  0  0  0  0  0  0  0  0  0
  151.8043  140.2677  157.3219 C   0  0  0  0  0  0  0  0  0  0  0  0
  152.3188  140.9976  158.0574 N   0  0  0  0  0  0  0  0  0  0  0  0
  150.6215  138.1240  156.6344 C   0  0  0  0  0  0  0  0  0  0  0  0
  150.5633  137.4374  157.8657 C   0  0  0  0  0  0  0  0  0  0  0  0
  150.5145  136.8737  158.8746 N   0  0  0  0  0  0  0  0  0  0  0  0
  149.6429  129.3623  154.5925 H   0  0  0  0  0  0  0  0  0  0  0  0
  150.6847  129.8889  155.9108 H   0  0  0  0  0  0  0  0  0  0  0  0
  151.1838  130.1302  154.2370 H   0  0  0  0  0  0  0  0  0  0  0  0
  149.2872  131.7407  153.8997 H   0  0  0  0  0  0  0  0  0  0  0  0
  148.7332  131.4455  155.5256 H   0  0  0  0  0  0  0  0  0  0  0  0
  151.4705  132.6148  154.9146 H   0  0  0  0  0  0  0  0  0  0  0  0
  151.3009  131.5795  157.1502 H   0  0  0  0  0  0  0  0  0  0  0  0
  149.8794  132.5519  157.5206 H   0  0  0  0  0  0  0  0  0  0  0  0
  151.4450  133.3269  157.2888 H   0  0  0  0  0  0  0  0  0  0  0  0
  149.0066  133.9341  154.6636 H   0  0  0  0  0  0  0  0  0  0  0  0
  149.2076  136.2809  154.1239 H   0  0  0  0  0  0  0  0  0  0  0  0
  148.5208  136.3257  155.7286 H   0  0  0  0  0  0  0  0  0  0  0  0
  149.6150  137.6478  152.8556 H   0  0  0  0  0  0  0  0  0  0  0  0
  150.2519  139.2154  152.5349 H   0  0  0  0  0  0  0  0  0  0  0  0
  1  2  1  0  0  0  0
  1 19  1  0  0  0  0
  1 20  1  0  0  0  0
  1 21  1  0  0  0  0
  2  3  1  0  0  0  0
  2 22  1  0  0  0  0
  2 23  1  0  0  0  0
  3  4  1  0  0  0  0
  3  5  1  0  0  0  0
  3 24  1  0  0  0  0
  4 25  1  0  0  0  0
  4 26  1  0  0  0  0
  4 27  1  0  0  0  0
  5  6  1  0  0  0  0
  5 28  1  0  0  0  0
  6  7  2  0  0  0  0
  6  8  1  0  0  0  0
  8  9  1  0  0  0  0
  8 29  1  0  0  0  0
  8 30  1  0  0  0  0
  9 16  1  0  0  0  0
  9 10  1  0  0  0  0
 10 11  1  0  0  0  0
 10 12  2  0  0  0  0
 11 31  1  0  0  0  0
 11 32  1  0  0  0  0
 12 13  1  0  0  0  0
 13 14  1  0  0  0  0
 13 16  2  0  0  0  0
 14 15  3  0  0  0  0
 16 17  1  0  0  0  0
 17 18  3  0  0  0  0
M  END
> <s_m_source_file>
AV-unprocessed.smi

> <i_m_source_file_index>
450

> <i_lp_mmshare_version>
43012

> <i_f3d_flags>
0

> <s_epik_input>
W0NIM11bQ0gyXVtDQEhdKFtDSDNdKVtOSF1DKD1PKVtDSDJdbjFjKFtOSDJdKW5jKEMjTiljMUMjTg==

> <s_epik_cmdline>
J2VwaWtfcHl0aG9uJywgJy1waCcsICc3LjAnLCAnLXRuJywgJzgnLCAnLW1hJywgJzIwMCcsICctbWV0YWxfYmluZGluZycsICctaW1hZScsICc8aW5maWxlLm1hZT4nLCAnLW9tYWUnLCAnPG91dGZpbGUubWFlPic=

> <r_epik_Ionization_Penalty>
0.000482749

> <r_epik_Ionization_Penalty_Charging>
7.71074e-10

> <r_epik_Ionization_Penalty_Neutral>
0.000482748

> <r_epik_State_Penalty>
0.000433536

> <r_epik_Charging_Adjusted_Penalty>
0.000433537

> <i_epik_Tot_Q>
0

> <i_epik_Tot_abs_Q>
0

> <r_epik_Metal_State_Penalty>
-0

> <b_epik_Metal_Only>
0

> <s_lp_Force_Field>
OPLS_2005

> <r_lp_Energy>
6.35239

> <b_lp_Chiralities_Consistent>
1

> <s_lp_Variant>
AV-unprocessed.smi:450-1

> <Gold.Version>
5.8.1

> <Gold.Id.Protein>
6NUR|6NUR_protein|mol2

> <Gold.PLP.Fitness>
38.5401

> <Gold.PLP.PLP>
-23.9630

> <Gold.PLP.part.hbond>
-5.3699

> <Gold.PLP.part.metal>
0.0000

> <Gold.PLP.part.buried>
-1.9504

> <Gold.PLP.part.nonpolar>
-15.0528

> <Gold.PLP.part.repulsive>
0.2101

> <Gold.PLP.ligand.clash>
0.0000

> <Gold.PLP.ligand.torsion>
0.1757

> <Gold.PLP.Chemscore.Hbond>
4.9670

> <Gold.PLP.Chemscore.CHOScore>
0.0000

> <Gold.PLP.Chemscore.Metal>
0.0000

> <Gold.Chemscore.Hbonds>
donor molecule, donor type, donor heavy atom, donor atom, acceptor molecule, acceptor atom, score
      L1  H    11    31       P1  7948  1.00
      L1  H    11    32       P1  7957  0.90
      P1  H  6896  6908       L1    18  0.76
      P1  H  7989  7998       L1    12  0.93
      P1  H 10752 10763       L1     7  0.76

> <Gold.PLP.Chemscore.Internal.Correction>
0.0275

> <Gold.Rescore>
     Score         DG    S(hbond)    S(metal)    S(lipo)     H(rot)  DE(clash)    DE(int)     intcor
     15.96     -18.57       4.44        0.00      33.69       2.21       0.00       2.61       ----

> <Gold.Chemscore.Fitness>
15.9597

> <Gold.Chemscore.DG>
-18.5726

> <Gold.Chemscore.ZeroCoef>
-5.4800

> <Gold.Chemscore.Hbond>
4.4352

> <Gold.Chemscore.Metal>
0.0000

> <Gold.Chemscore.Lipo>
33.6904

> <Gold.Chemscore.Internal_Hbond>
0.0000

> <Gold.Chemscore.DEClash>
0.0043

> <Gold.Chemscore.DEInternal>
2.6087

> <Gold.Chemscore.Rot>
2.2121

> <Gold.Chemscore.Internal.Correction>
   9.000000E+99

> <Gold.Chemscore.Hbonds>
donor molecule, donor type, donor heavy atom, donor atom, acceptor molecule, acceptor atom, score
      L1  H    11    31       P1  7948  0.65
      L1  H    11    32       P1  7957  0.49
      P1  H  6896  6908       L1    18  0.74
      P1  H  7989  7998       L1    12  0.58
      P1  H 10752 10763       L1     7  0.69

> <Gold.Chemscore.Hbond.Weighted>
-14.8137

> <Gold.Chemscore.Metal.Weighted>
-0.0000

> <Gold.Chemscore.Lipo.Weighted>
-3.9418

> <Gold.Chemscore.Internal_Hbond.Weighted>
0.0000

> <Gold.Chemscore.DEClash.Weighted>
0.0043

> <Gold.Chemscore.DEInternal.Weighted>
2.6087

> <Gold.Chemscore.Rot.Weighted>
5.6629

> <Gold.Chemscore.Internal.Correction.Weighted>
   9.000000E+99

> <Gold.Protein.RotatedTorsions>
[ 6907 6896 6895 6894 ] final -147.53 input  -60.11 | X-H torsion
[ 7974 7965 7964 7962 ] final   56.03 input  175.53 | X-H torsion
[ 8008 7997 7996 7995 ] final  -62.29 input   59.86 | X-H torsion
[ 10167 10162 10161 10158 ] final  -14.72 input  -65.29 | X-H torsion
[ 10718 10713 10712 10709 ] final  -91.38 input   66.30 | X-H torsion
[ 10763 10752 10751 10750 ] final   88.94 input  -60.55 | X-H torsion
[ 11005 11000 10999 10996 ] final  116.77 input  -57.11 | X-H torsion

> <Gold.Protein.ActiveResidues>
 VAL166  LYS551  ARG553  GLY616  TRP617  ASP618  TYR619  PRO620  LYS621  CYS622 
 ASP623  PHE694  ASN695  SER759  ASP760  ASP761  ALA762  ILE779  LEU786  VAL792 
 PHE793  MET794  SER795  GLU796  ALA797  LYS798  CYS799  TRP800  GLU811  SER814 

> <Gold.Protein.RotatedAtoms>
  151.1570  133.4870  159.2594 H   0  0  0  0  0  0  0  0  0  0  0  0  # atno 6907 bound_to 6896
  151.1494  135.0219  159.8671 H   0  0  0  0  0  0  0  0  0  0  0  0  # atno 6908 bound_to 6896
  152.5463  134.1456  159.8550 H   0  0  0  0  0  0  0  0  0  0  0  0  # atno 6909 bound_to 6896
  145.9441  139.3914  143.0346 H   0  0  0  0  0  0  0  0  0  0  0  0  # atno 7974 bound_to 7965
  154.4492  140.0999  156.6564 H   0  0  0  0  0  0  0  0  0  0  0  0  # atno 8008 bound_to 7997
  155.5341  140.3482  155.4414 H   0  0  0  0  0  0  0  0  0  0  0  0  # atno 8009 bound_to 7997
  156.0643  140.1334  156.9893 H   0  0  0  0  0  0  0  0  0  0  0  0  # atno 8010 bound_to 7997
  140.7206  143.5292  150.9540 H   0  0  0  0  0  0  0  0  0  0  0  0  # atno 10167 bound_to 10162
  155.9993  130.4946  150.5466 H   0  0  0  0  0  0  0  0  0  0  0  0  # atno 10718 bound_to 10713
  153.1819  135.4488  155.0039 H   0  0  0  0  0  0  0  0  0  0  0  0  # atno 10763 bound_to 10752
  154.8036  135.3265  154.7491 H   0  0  0  0  0  0  0  0  0  0  0  0  # atno 10764 bound_to 10752
  153.7955  135.6967  153.4919 H   0  0  0  0  0  0  0  0  0  0  0  0  # atno 10765 bound_to 10752
  139.9052  134.9602  156.7249 H   0  0  0  0  0  0  0  0  0  0  0  0  # atno 11005 bound_to 11000
  145.8260  140.9655  143.0874 LP  0  0  0  0  0  0  0  0  0  0  0  0  # atno 17320 bound_to 7965
  144.6784  140.0102  143.7484 LP  0  0  0  0  0  0  0  0  0  0  0  0  # atno 17321 bound_to 7965
  139.9012  143.6834  152.3131 LP  0  0  0  0  0  0  0  0  0  0  0  0  # atno 17342 bound_to 10162
  139.7184  144.7607  151.0996 LP  0  0  0  0  0  0  0  0  0  0  0  0  # atno 17343 bound_to 10162
  157.3395  131.0714  151.1799 LP  0  0  0  0  0  0  0  0  0  0  0  0  # atno 17370 bound_to 10713
  157.2652  130.6678  149.5993 LP  0  0  0  0  0  0  0  0  0  0  0  0  # atno 17371 bound_to 10713
  140.6971  133.9339  155.8001 LP  0  0  0  0  0  0  0  0  0  0  0  0  # atno 17394 bound_to 11000
  141.0399  134.0636  157.3914 LP  0  0  0  0  0  0  0  0  0  0  0  0  # atno 17395 bound_to 11000

$$$$
