AV-unprocessed.smi:702|AV-procd|sdf|3418|dock1
  -GOLD-   22720 0403D 1   1.00000     0.00000
 Structure written by MMmdl.
 49 51  0  0  0  0  0  0  0  0  1 V2000
  149.8714  136.2393  156.4001 C   0  0  0  0  0  0  0  0  0  0  0  0
  148.8770  137.2085  155.7197 C   0  0  2  0  0  0  0  0  0  0  0  0
  148.3337  136.5604  154.5208 N   0  0  0  0  0  0  0  0  0  0  0  0
  147.0799  136.1117  154.3638 C   0  0  0  0  0  0  0  0  0  0  0  0
  146.2211  136.1724  155.2431 O   0  0  0  0  0  0  0  0  0  0  0  0
  146.9085  135.5819  153.1404 N   0  0  0  0  0  0  0  0  0  0  0  0
  145.7347  135.0217  152.5670 C   0  0  0  0  0  0  0  0  0  0  0  0
  145.6314  135.0178  151.1606 C   0  0  0  0  0  0  0  0  0  0  0  0
  144.4709  134.4841  150.5657 C   0  0  0  0  0  0  0  0  0  0  0  0
  143.4387  133.9805  151.2746 N   0  0  0  0  0  0  0  0  0  0  0  0
  143.5324  133.9981  152.6211 C   0  0  0  0  0  0  0  0  0  0  0  0
  144.6483  134.5071  153.3156 C   0  0  0  0  0  0  0  0  0  0  0  0
  149.4782  138.6294  155.3978 C   0  0  0  0  0  0  0  0  0  0  0  0
  148.4345  139.5654  154.8728 N   0  0  0  0  0  0  0  0  0  0  0  0
  147.2726  139.7672  155.7542 C   0  0  0  0  0  0  0  0  0  0  0  0
  146.1829  140.6249  155.0903 C   0  0  0  0  0  0  0  0  0  0  0  0
  146.7305  141.8839  154.7207 O   0  0  0  0  0  0  0  0  0  0  0  0
  147.8302  141.7539  153.8289 C   0  0  0  0  0  0  0  0  0  0  0  0
  148.9296  140.8919  154.4740 C   0  0  0  0  0  0  0  0  0  0  0  0
  150.1529  139.1745  156.7034 C   0  0  0  0  0  0  0  0  0  0  0  0
  151.6670  139.1922  156.4763 C   0  0  0  0  0  0  0  0  0  0  0  0
  151.8364  139.2965  154.9689 C   0  0  0  0  0  0  0  0  0  0  0  0
  150.6752  138.4784  154.4042 C   0  0  0  0  0  0  0  0  0  0  0  0
  150.2674  136.6437  157.3310 H   0  0  0  0  0  0  0  0  0  0  0  0
  150.7213  136.0067  155.7592 H   0  0  0  0  0  0  0  0  0  0  0  0
  149.3862  135.2950  156.6492 H   0  0  0  0  0  0  0  0  0  0  0  0
  148.0338  137.3483  156.3966 H   0  0  0  0  0  0  0  0  0  0  0  0
  148.9686  136.4618  153.7424 H   0  0  0  0  0  0  0  0  0  0  0  0
  147.7340  135.5331  152.5617 H   0  0  0  0  0  0  0  0  0  0  0  0
  146.4269  135.4108  150.5440 H   0  0  0  0  0  0  0  0  0  0  0  0
  144.3687  134.4634  149.4908 H   0  0  0  0  0  0  0  0  0  0  0  0
  142.6878  133.5997  153.1637 H   0  0  0  0  0  0  0  0  0  0  0  0
  144.6400  134.5033  154.3944 H   0  0  0  0  0  0  0  0  0  0  0  0
  146.8183  138.8260  156.0523 H   0  0  0  0  0  0  0  0  0  0  0  0
  147.5808  140.2612  156.6758 H   0  0  0  0  0  0  0  0  0  0  0  0
  145.7748  140.1217  154.2124 H   0  0  0  0  0  0  0  0  0  0  0  0
  145.3559  140.7875  155.7813 H   0  0  0  0  0  0  0  0  0  0  0  0
  147.4950  141.3109  152.8897 H   0  0  0  0  0  0  0  0  0  0  0  0
  148.2164  142.7458  153.5941 H   0  0  0  0  0  0  0  0  0  0  0  0
  149.3365  141.4218  155.3348 H   0  0  0  0  0  0  0  0  0  0  0  0
  149.7354  140.8126  153.7480 H   0  0  0  0  0  0  0  0  0  0  0  0
  149.8108  140.1725  156.9668 H   0  0  0  0  0  0  0  0  0  0  0  0
  149.9271  138.5851  157.5914 H   0  0  0  0  0  0  0  0  0  0  0  0
  152.1612  140.0038  157.0111 H   0  0  0  0  0  0  0  0  0  0  0  0
  152.1006  138.2543  156.8256 H   0  0  0  0  0  0  0  0  0  0  0  0
  151.7486  140.3381  154.6594 H   0  0  0  0  0  0  0  0  0  0  0  0
  152.8073  138.9326  154.6311 H   0  0  0  0  0  0  0  0  0  0  0  0
  151.0018  137.4419  154.3242 H   0  0  0  0  0  0  0  0  0  0  0  0
  150.4462  138.7800  153.3830 H   0  0  0  0  0  0  0  0  0  0  0  0
  1  2  1  0  0  0  0
  1 24  1  0  0  0  0
  1 25  1  0  0  0  0
  1 26  1  0  0  0  0
  2  3  1  0  0  0  0
  2 13  1  0  0  0  0
  2 27  1  0  0  0  0
  3  4  1  0  0  0  0
  3 28  1  0  0  0  0
  4  5  2  0  0  0  0
  4  6  1  0  0  0  0
  6  7  1  0  0  0  0
  6 29  1  0  0  0  0
  7 12  1  0  0  0  0
  7  8  2  0  0  0  0
  8  9  1  0  0  0  0
  8 30  1  0  0  0  0
  9 10  2  0  0  0  0
  9 31  1  0  0  0  0
 10 11  1  0  0  0  0
 11 12  2  0  0  0  0
 11 32  1  0  0  0  0
 12 33  1  0  0  0  0
 13 23  1  0  0  0  0
 13 14  1  0  0  0  0
 13 20  1  0  0  0  0
 14 19  1  0  0  0  0
 14 15  1  0  0  0  0
 15 16  1  0  0  0  0
 15 34  1  0  0  0  0
 15 35  1  0  0  0  0
 16 17  1  0  0  0  0
 16 36  1  0  0  0  0
 16 37  1  0  0  0  0
 17 18  1  0  0  0  0
 18 19  1  0  0  0  0
 18 38  1  0  0  0  0
 18 39  1  0  0  0  0
 19 40  1  0  0  0  0
 19 41  1  0  0  0  0
 20 21  1  0  0  0  0
 20 42  1  0  0  0  0
 20 43  1  0  0  0  0
 21 22  1  0  0  0  0
 21 44  1  0  0  0  0
 21 45  1  0  0  0  0
 22 23  1  0  0  0  0
 22 46  1  0  0  0  0
 22 47  1  0  0  0  0
 23 48  1  0  0  0  0
 23 49  1  0  0  0  0
M  END
> <s_m_source_file>
AV-unprocessed.smi

> <i_m_source_file_index>
702

> <i_lp_mmshare_version>
43012

> <i_f3d_flags>
0

> <s_epik_input>
W0NIMl0xW0NIMl1PW0NIMl1bQ0gyXU4xQzIoW0NIMl1bQ0gyXVtDSDJdW0NIMl0yKVtDQEhdKFtDSDNdKVtOSF1DKD1PKVtOSF1jM1tjSF1bY0hdbltjSF1bY0hdMw==

> <s_epik_cmdline>
J2VwaWtfcHl0aG9uJywgJy1waCcsICc3LjAnLCAnLXRuJywgJzgnLCAnLW1hJywgJzIwMCcsICctbWV0YWxfYmluZGluZycsICctaW1hZScsICc8aW5maWxlLm1hZT4nLCAnLW9tYWUnLCAnPG91dGZpbGUubWFlPic=

> <r_epik_Ionization_Penalty>
0.626636

> <r_epik_Ionization_Penalty_Charging>
0

> <r_epik_Ionization_Penalty_Neutral>
0.626636

> <r_epik_State_Penalty>
0.629018

> <r_epik_Charging_Adjusted_Penalty>
0.629018

> <i_epik_Tot_Q>
0

> <i_epik_Tot_abs_Q>
0

> <r_epik_Metal_State_Penalty>
0.606459

> <b_epik_Metal_Only>
0

> <s_lp_Force_Field>
OPLS_2005

> <r_lp_Energy>
67.5809

> <b_lp_Chiralities_Consistent>
1

> <s_lp_Variant>
AV-unprocessed.smi:702-3

> <Gold.Version>
5.8.1

> <Gold.Id.Protein>
6NUR|6NUR_protein|mol2

> <Gold.PLP.Fitness>
37.0365

> <Gold.PLP.PLP>
-26.0130

> <Gold.PLP.part.hbond>
-1.7535

> <Gold.PLP.part.metal>
0.0000

> <Gold.PLP.part.buried>
-2.6577

> <Gold.PLP.part.nonpolar>
-22.6045

> <Gold.PLP.part.repulsive>
1.0991

> <Gold.PLP.ligand.clash>
0.0000

> <Gold.PLP.ligand.torsion>
0.2445

> <Gold.PLP.Chemscore.Hbond>
1.8073

> <Gold.PLP.Chemscore.CHOScore>
1.9788

> <Gold.PLP.Chemscore.Metal>
0.0000

> <Gold.Chemscore.Hbonds>
donor molecule, donor type, donor heavy atom, donor atom, acceptor molecule, acceptor atom, score
      L1  H     3    28       P1  7948  0.83
      L1  H     6    29       P1  7948  1.00
      L1  C     9    31       P1  7921  0.87
      L1  C    11    32       P1 10957  0.97

> <Gold.PLP.Chemscore.Internal.Correction>
0.1545

> <Gold.Rescore>
     Score         DG    S(hbond)    S(metal)    S(lipo)     H(rot)  DE(clash)    DE(int)     intcor
     14.95     -16.76       1.87        0.00      73.84       1.41       0.53       1.28       ----

> <Gold.Chemscore.Fitness>
14.9495

> <Gold.Chemscore.DG>
-16.7574

> <Gold.Chemscore.ZeroCoef>
-5.4800

> <Gold.Chemscore.Hbond>
1.8715

> <Gold.Chemscore.Metal>
0.0000

> <Gold.Chemscore.Lipo>
73.8381

> <Gold.Chemscore.Internal_Hbond>
0.0000

> <Gold.Chemscore.DEClash>
0.5250

> <Gold.Chemscore.DEInternal>
1.2829

> <Gold.Chemscore.Rot>
1.4111

> <Gold.Chemscore.Internal.Correction>
   9.000000E+99

> <Gold.Chemscore.Hbonds>
donor molecule, donor type, donor heavy atom, donor atom, acceptor molecule, acceptor atom, score
      L1  H     3    28       P1  7948  0.83
      L1  H     6    29       P1  7948  0.92

> <Gold.Chemscore.Hbond.Weighted>
-6.2507

> <Gold.Chemscore.Metal.Weighted>
-0.0000

> <Gold.Chemscore.Lipo.Weighted>
-8.6391

> <Gold.Chemscore.Internal_Hbond.Weighted>
0.0000

> <Gold.Chemscore.DEClash.Weighted>
0.5250

> <Gold.Chemscore.DEInternal.Weighted>
1.2829

> <Gold.Chemscore.Rot.Weighted>
3.6123

> <Gold.Chemscore.Internal.Correction.Weighted>
   9.000000E+99

> <Gold.Protein.RotatedTorsions>
[ 6907 6896 6895 6894 ] final  131.77 input  -60.11 | X-H torsion
[ 7974 7965 7964 7962 ] final   99.93 input  175.53 | X-H torsion
[ 8008 7997 7996 7995 ] final  106.38 input   59.86 | X-H torsion
[ 10167 10162 10161 10158 ] final   85.36 input  -65.29 | X-H torsion
[ 10718 10713 10712 10709 ] final   74.76 input   66.30 | X-H torsion
[ 10763 10752 10751 10750 ] final  -56.88 input  -60.55 | X-H torsion
[ 11005 11000 10999 10996 ] final   81.27 input  -57.11 | X-H torsion

> <Gold.Protein.ActiveResidues>
 VAL166  LYS551  ARG553  GLY616  TRP617  ASP618  TYR619  PRO620  LYS621  CYS622 
 ASP623  PHE694  ASN695  SER759  ASP760  ASP761  ALA762  ILE779  LEU786  VAL792 
 PHE793  MET794  SER795  GLU796  ALA797  LYS798  CYS799  TRP800  GLU811  SER814 

> <Gold.Protein.RotatedAtoms>
  152.3393  133.6048  159.5864 H   0  0  0  0  0  0  0  0  0  0  0  0  # atno 6907 bound_to 6896
  150.7469  133.9748  159.3566 H   0  0  0  0  0  0  0  0  0  0  0  0  # atno 6908 bound_to 6896
  151.7614  135.0810  160.0397 H   0  0  0  0  0  0  0  0  0  0  0  0  # atno 6909 bound_to 6896
  145.3923  139.2361  143.3345 H   0  0  0  0  0  0  0  0  0  0  0  0  # atno 7974 bound_to 7965
  156.1738  140.3114  155.9022 H   0  0  0  0  0  0  0  0  0  0  0  0  # atno 8008 bound_to 7997
  155.3530  140.0472  157.3063 H   0  0  0  0  0  0  0  0  0  0  0  0  # atno 8009 bound_to 7997
  154.5269  140.2217  155.8884 H   0  0  0  0  0  0  0  0  0  0  0  0  # atno 8010 bound_to 7997
  139.8985  144.6343  150.8662 H   0  0  0  0  0  0  0  0  0  0  0  0  # atno 10167 bound_to 10162
  157.6606  130.9693  150.1256 H   0  0  0  0  0  0  0  0  0  0  0  0  # atno 10718 bound_to 10713
  154.2136  135.6390  153.5123 H   0  0  0  0  0  0  0  0  0  0  0  0  # atno 10763 bound_to 10752
  152.9984  135.5480  154.6189 H   0  0  0  0  0  0  0  0  0  0  0  0  # atno 10764 bound_to 10752
  154.5632  135.2910  155.0873 H   0  0  0  0  0  0  0  0  0  0  0  0  # atno 10765 bound_to 10752
  139.9104  134.7984  156.2019 H   0  0  0  0  0  0  0  0  0  0  0  0  # atno 11005 bound_to 11000
  146.2792  140.4608  142.8783 LP  0  0  0  0  0  0  0  0  0  0  0  0  # atno 17320 bound_to 7965
  144.8431  140.6888  143.6216 LP  0  0  0  0  0  0  0  0  0  0  0  0  # atno 17321 bound_to 7965
  140.7712  143.3455  151.2120 LP  0  0  0  0  0  0  0  0  0  0  0  0  # atno 17342 bound_to 10162
  139.7046  143.9476  152.2921 LP  0  0  0  0  0  0  0  0  0  0  0  0  # atno 17343 bound_to 10162
  156.2116  130.3667  149.8663 LP  0  0  0  0  0  0  0  0  0  0  0  0  # atno 17370 bound_to 10713
  156.6540  130.8755  151.3536 LP  0  0  0  0  0  0  0  0  0  0  0  0  # atno 17371 bound_to 10713
  141.0519  133.6884  156.1788 LP  0  0  0  0  0  0  0  0  0  0  0  0  # atno 17394 bound_to 11000
  140.6796  134.4781  157.5589 LP  0  0  0  0  0  0  0  0  0  0  0  0  # atno 17395 bound_to 11000

$$$$
