AV-unprocessed.smi:342|AV-procd|sdf|2386|dock3
  -GOLD-   2262022313D 1   1.00000     0.00000
 Structure written by MMmdl.
 42 44  0  0  0  0  0  0  0  0  2 V2000
  150.8180  142.7762  155.9252 O   0  0  0  0  0  0  0  0  0  0  0  0
  150.5915  141.3933  155.7426 C   0  0  2  0  0  0  0  0  0  0  0  0
  149.4158  141.2063  154.7587 C   0  0  0  0  0  0  0  0  0  0  0  0
  148.2396  142.0409  155.1113 N   0  3  0  0  0  0  0  0  0  0  0  0
  147.2591  142.1851  154.0060 C   0  0  0  0  0  0  0  0  0  0  0  0
  146.0963  143.0950  154.4367 C   0  0  0  0  0  0  0  0  0  0  0  0
  145.4816  142.5639  155.6039 O   0  0  0  0  0  0  0  0  0  0  0  0
  146.3869  142.4992  156.6986 C   0  0  0  0  0  0  0  0  0  0  0  0
  147.5617  141.5719  156.3432 C   0  0  0  0  0  0  0  0  0  0  0  0
  150.3492  140.7663  157.1318 C   0  0  0  0  0  0  0  0  0  0  0  0
  151.5805  140.5665  157.8862 N   0  0  0  0  0  0  0  0  0  0  0  0
  152.4379  139.5115  157.8518 C   0  0  0  0  0  0  0  0  0  0  0  0
  152.2069  138.3097  156.9773 C   0  0  0  0  0  0  0  0  0  0  0  0
  151.0448  137.7235  157.2684 F   0  0  0  0  0  0  0  0  0  0  0  0
  152.1742  138.6643  155.6928 F   0  0  0  0  0  0  0  0  0  0  0  0
  153.1700  137.4050  157.1498 F   0  0  0  0  0  0  0  0  0  0  0  0
  153.4984  139.6075  158.6568 N   0  0  0  0  0  0  0  0  0  0  0  0
  153.3031  140.8213  159.2834 C   0  0  0  0  0  0  0  0  0  0  0  0
  154.0814  141.4874  160.2567 C   0  0  0  0  0  0  0  0  0  0  0  0
  153.6716  142.7372  160.7650 C   0  0  0  0  0  0  0  0  0  0  0  0
  152.4798  143.3364  160.3092 C   0  0  0  0  0  0  0  0  0  0  0  0
  151.6905  142.6896  159.3388 C   0  0  0  0  0  0  0  0  0  0  0  0
  152.1063  141.4439  158.8307 C   0  0  0  0  0  0  0  0  0  0  0  0
  150.0148  143.2417  155.7457 H   0  0  0  0  0  0  0  0  0  0  0  0
  151.5013  140.9655  155.3253 H   0  0  0  0  0  0  0  0  0  0  0  0
  149.7144  141.4414  153.7363 H   0  0  0  0  0  0  0  0  0  0  0  0
  149.1311  140.1532  154.7577 H   0  0  0  0  0  0  0  0  0  0  0  0
  147.7349  142.6059  153.1214 H   0  0  0  0  0  0  0  0  0  0  0  0
  146.8759  141.2028  153.7245 H   0  0  0  0  0  0  0  0  0  0  0  0
  146.4456  144.1118  154.6243 H   0  0  0  0  0  0  0  0  0  0  0  0
  145.3524  143.1557  153.6422 H   0  0  0  0  0  0  0  0  0  0  0  0
  146.7415  143.4993  156.9534 H   0  0  0  0  0  0  0  0  0  0  0  0
  145.8580  142.1173  157.5718 H   0  0  0  0  0  0  0  0  0  0  0  0
  147.2024  140.5519  156.1973 H   0  0  0  0  0  0  0  0  0  0  0  0
  148.2713  141.5475  157.1712 H   0  0  0  0  0  0  0  0  0  0  0  0
  149.6978  141.4121  157.7223 H   0  0  0  0  0  0  0  0  0  0  0  0
  149.8215  139.8193  157.0290 H   0  0  0  0  0  0  0  0  0  0  0  0
  154.9939  141.0346  160.6157 H   0  0  0  0  0  0  0  0  0  0  0  0
  154.2730  143.2368  161.5103 H   0  0  0  0  0  0  0  0  0  0  0  0
  152.1715  144.2924  160.7068 H   0  0  0  0  0  0  0  0  0  0  0  0
  150.7749  143.1464  158.9944 H   0  0  0  0  0  0  0  0  0  0  0  0
  148.5953  142.9640  155.3170 H   0  0  0  0  0  0  0  0  0  0  0  0
  1  2  1  0  0  0  0
  1 24  1  0  0  0  0
  2  3  1  0  0  0  0
  2 10  1  0  0  0  0
  2 25  1  0  0  0  0
  3  4  1  0  0  0  0
  3 26  1  0  0  0  0
  3 27  1  0  0  0  0
  4  9  1  0  0  0  0
  4  5  1  0  0  0  0
  4 42  1  0  0  0  0
  5  6  1  0  0  0  0
  5 28  1  0  0  0  0
  5 29  1  0  0  0  0
  6  7  1  0  0  0  0
  6 30  1  0  0  0  0
  6 31  1  0  0  0  0
  7  8  1  0  0  0  0
  8  9  1  0  0  0  0
  8 32  1  0  0  0  0
  8 33  1  0  0  0  0
  9 34  1  0  0  0  0
  9 35  1  0  0  0  0
 10 11  1  0  0  0  0
 10 36  1  0  0  0  0
 10 37  1  0  0  0  0
 11 23  1  0  0  0  0
 11 12  1  0  0  0  0
 12 13  1  0  0  0  0
 12 17  2  0  0  0  0
 13 14  1  0  0  0  0
 13 15  1  0  0  0  0
 13 16  1  0  0  0  0
 17 18  1  0  0  0  0
 18 23  2  0  0  0  0
 18 19  1  0  0  0  0
 19 20  2  0  0  0  0
 19 38  1  0  0  0  0
 20 21  1  0  0  0  0
 20 39  1  0  0  0  0
 21 22  2  0  0  0  0
 21 40  1  0  0  0  0
 22 23  1  0  0  0  0
 22 41  1  0  0  0  0
M  CHG  1   4   1
M  END
> <s_m_source_file>
AV-unprocessed.smi

> <i_m_source_file_index>
342

> <i_lp_mmshare_version>
43012

> <i_f3d_flags>
0

> <s_epik_input>
W2NIXTFbY0hdW2NIXVtjSF1jKGMxMiluKGMobjIpQyhGKShGKUYpW0NIMl1bQ0BIXShbT0hdKVtDSDJdTjNbQ0gyXVtDSDJdT1tDSDJdW0NIMl0z

> <s_epik_cmdline>
J2VwaWtfcHl0aG9uJywgJy1waCcsICc3LjAnLCAnLXRuJywgJzgnLCAnLW1hJywgJzIwMCcsICctbWV0YWxfYmluZGluZycsICctaW1hZScsICc8aW5maWxlLm1hZT4nLCAnLW9tYWUnLCAnPG91dGZpbGUubWFlPic=

> <r_epik_Ionization_Penalty>
0.608409

> <r_epik_Ionization_Penalty_Charging>
0.608065

> <r_epik_Ionization_Penalty_Neutral>
0.000344684

> <r_epik_State_Penalty>
0.623026

> <r_epik_Charging_Adjusted_Penalty>
1.23109

> <i_epik_Tot_Q>
1

> <i_epik_Tot_abs_Q>
1

> <r_epik_Metal_State_Penalty>
0.623013

> <b_epik_Metal_Only>
0

> <s_lp_Force_Field>
OPLS_2005

> <r_lp_Energy>
26.0931

> <b_lp_Chiralities_Consistent>
1

> <s_lp_Variant>
AV-unprocessed.smi:342-3

> <Gold.Version>
5.8.1

> <Gold.Id.Protein>
6NUR|6NUR_protein|mol2

> <Gold.PLP.Fitness>
53.7222

> <Gold.PLP.PLP>
-43.6467

> <Gold.PLP.part.hbond>
-3.0000

> <Gold.PLP.part.metal>
0.0000

> <Gold.PLP.part.buried>
-5.0888

> <Gold.PLP.part.nonpolar>
-35.0226

> <Gold.PLP.part.repulsive>
0.2633

> <Gold.PLP.ligand.clash>
0.0000

> <Gold.PLP.ligand.torsion>
0.6707

> <Gold.PLP.Chemscore.Hbond>
3.7840

> <Gold.PLP.Chemscore.CHOScore>
0.0000

> <Gold.PLP.Chemscore.Metal>
0.0000

> <Gold.Chemscore.Hbonds>
donor molecule, donor type, donor heavy atom, donor atom, acceptor molecule, acceptor atom, score
      L1  H     1    24       P1  8028  1.00
      L1  H     4    42       P1  8028  2.00
      P1  H  7997  8009       L1    17  0.64

> <Gold.PLP.Chemscore.Internal.Correction>
0.0648

> <Gold.Rescore>
     Score         DG    S(hbond)    S(metal)    S(lipo)     H(rot)  DE(clash)    DE(int)     intcor
     16.27     -18.27       1.98        0.00     103.48       2.32       0.14       1.85       ----

> <Gold.Chemscore.Fitness>
16.2741

> <Gold.Chemscore.DG>
-18.2703

> <Gold.Chemscore.ZeroCoef>
-5.4800

> <Gold.Chemscore.Hbond>
1.9834

> <Gold.Chemscore.Metal>
0.0000

> <Gold.Chemscore.Lipo>
103.4754

> <Gold.Chemscore.Internal_Hbond>
0.0000

> <Gold.Chemscore.DEClash>
0.1435

> <Gold.Chemscore.DEInternal>
1.8527

> <Gold.Chemscore.Rot>
2.3206

> <Gold.Chemscore.Internal.Correction>
   9.000000E+99

> <Gold.Chemscore.Hbonds>
donor molecule, donor type, donor heavy atom, donor atom, acceptor molecule, acceptor atom, score
      L1  H     1    24       P1  8028  0.98
      L1  H     4    42       P1  8028  1.00
      P1  H  7997  8009       L1    17  0.11

> <Gold.Chemscore.Hbond.Weighted>
-6.6244

> <Gold.Chemscore.Metal.Weighted>
-0.0000

> <Gold.Chemscore.Lipo.Weighted>
-12.1066

> <Gold.Chemscore.Internal_Hbond.Weighted>
0.0000

> <Gold.Chemscore.DEClash.Weighted>
0.1435

> <Gold.Chemscore.DEInternal.Weighted>
1.8527

> <Gold.Chemscore.Rot.Weighted>
5.9407

> <Gold.Chemscore.Internal.Correction.Weighted>
   9.000000E+99

> <Gold.Protein.RotatedTorsions>
[ 6907 6896 6895 6894 ] final  -25.35 input  -60.11 | X-H torsion
[ 7974 7965 7964 7962 ] final  -45.92 input  175.53 | X-H torsion
[ 8008 7997 7996 7995 ] final  118.92 input   59.86 | X-H torsion
[ 10167 10162 10161 10158 ] final  -87.39 input  -65.29 | X-H torsion
[ 10718 10713 10712 10709 ] final  109.86 input   66.30 | X-H torsion
[ 10763 10752 10751 10750 ] final    8.60 input  -60.55 | X-H torsion
[ 11005 11000 10999 10996 ] final -150.33 input  -57.11 | X-H torsion

> <Gold.Protein.ActiveResidues>
 VAL166  LYS551  ARG553  GLY616  TRP617  ASP618  TYR619  PRO620  LYS621  CYS622 
 ASP623  PHE694  ASN695  SER759  ASP760  ASP761  ALA762  ILE779  LEU786  VAL792 
 PHE793  MET794  SER795  GLU796  ALA797  LYS798  CYS799  TRP800  GLU811  SER814 

> <Gold.Protein.RotatedAtoms>
  151.1764  135.0341  159.8773 H   0  0  0  0  0  0  0  0  0  0  0  0  # atno 6907 bound_to 6896
  152.5447  134.1113  159.8369 H   0  0  0  0  0  0  0  0  0  0  0  0  # atno 6908 bound_to 6896
  151.1224  133.5048  159.2634 H   0  0  0  0  0  0  0  0  0  0  0  0  # atno 6909 bound_to 6896
  145.9772  140.7322  142.9381 H   0  0  0  0  0  0  0  0  0  0  0  0  # atno 7974 bound_to 7965
  156.2570  140.2864  156.0910 H   0  0  0  0  0  0  0  0  0  0  0  0  # atno 8008 bound_to 7997
  155.1463  140.0396  157.2828 H   0  0  0  0  0  0  0  0  0  0  0  0  # atno 8009 bound_to 7997
  154.6493  140.2541  155.7238 H   0  0  0  0  0  0  0  0  0  0  0  0  # atno 8010 bound_to 7997
  140.3849  143.2731  151.9337 H   0  0  0  0  0  0  0  0  0  0  0  0  # atno 10167 bound_to 10162
  157.6521  131.0922  150.6516 H   0  0  0  0  0  0  0  0  0  0  0  0  # atno 10718 bound_to 10713
  153.2233  135.6884  153.7975 H   0  0  0  0  0  0  0  0  0  0  0  0  # atno 10763 bound_to 10752
  153.7166  135.3274  155.3258 H   0  0  0  0  0  0  0  0  0  0  0  0  # atno 10764 bound_to 10752
  154.8280  135.4603  154.1089 H   0  0  0  0  0  0  0  0  0  0  0  0  # atno 10765 bound_to 10752
  140.7413  134.3511  157.5147 H   0  0  0  0  0  0  0  0  0  0  0  0  # atno 11005 bound_to 11000
  144.6852  140.2848  143.7287 LP  0  0  0  0  0  0  0  0  0  0  0  0  # atno 17320 bound_to 7965
  145.7821  139.1895  143.2151 LP  0  0  0  0  0  0  0  0  0  0  0  0  # atno 17321 bound_to 7965
  139.4793  144.5783  151.7975 LP  0  0  0  0  0  0  0  0  0  0  0  0  # atno 17342 bound_to 10162
  140.4899  144.1325  150.5948 LP  0  0  0  0  0  0  0  0  0  0  0  0  # atno 17343 bound_to 10162
  156.6827  130.4572  149.5623 LP  0  0  0  0  0  0  0  0  0  0  0  0  # atno 17370 bound_to 10713
  156.1918  130.6564  151.1070 LP  0  0  0  0  0  0  0  0  0  0  0  0  # atno 17371 bound_to 10713
  139.8805  134.9082  156.2963 LP  0  0  0  0  0  0  0  0  0  0  0  0  # atno 17394 bound_to 11000
  140.9834  133.7253  156.0706 LP  0  0  0  0  0  0  0  0  0  0  0  0  # atno 17395 bound_to 11000

$$$$
