#       Name:                AV-unprocessed.smi:256
#       Creating user name   scv26
#       Creation time:       Thu Mar 26 21:10:00 2020


#       File generated by GOLD software.
#

@<TRIPOS>MOLECULE
AV-unprocessed.smi:256
    71    74     1
SMALL
NO_CHARGES


@<TRIPOS>ATOM
      1 ****        -3.0136  -4.3957   1.4164 C.3            1 S1                 0.0000
      2 ****        -3.7749  -3.0808   1.1880 C.3            1 S1                 0.0000
      3 ****        -3.2064  -2.1858   0.0537 C.3            1 S1                 0.0000
      4 ****        -1.7019  -1.9034   0.2909 C.3            1 S1                 0.0000
      5 ****        -1.1409  -1.0149  -0.7224 N.pl3          1 S1                 0.0000
      6 ****         0.2130  -1.0164  -0.8542 C.ar           1 S1                 0.0000
      7 ****         0.8164  -2.2161  -1.0622 N.ar           1 S1                 0.0000
      8 ****         2.1407  -2.2957  -1.2165 C.ar           1 S1                 0.0000
      9 ****         3.0416  -1.3135  -1.1990 N.ar           1 S1                 0.0000
     10 ****         2.4502  -0.1041  -0.9849 C.ar           1 S1                 0.0000
     11 ****         1.0563   0.1364  -0.8059 C.ar           1 S1                 0.0000
     12 ****         0.8446   1.4980  -0.6100 N.2            1 S1                 0.0000
     13 ****         2.0342   2.0278  -0.6828 C.2            1 S1                 0.0000
     14 ****         3.0590   1.1356  -0.8957 N.pl3          1 S1                 0.0000
     15 ****         4.4751   1.4483  -1.0148 C.3            1 S1                 0.0000
     16 ****         5.2435   1.4312   0.3304 C.3            1 S1                 0.0000
     17 ****         5.1884   0.1124   0.8452 O.3            1 S1                 0.0000
     18 ****         6.7223   1.8054   0.1030 C.3            1 S1                 0.0000
     19 ****         7.4913   1.9751   1.4251 C.3            1 S1                 0.0000
     20 ****         6.8362   2.9323   2.2481 O.3            1 S1                 0.0000
     21 ****         5.5262   2.5271   2.6254 C.3            1 S1                 0.0000
     22 ****         4.6335   2.3872   1.3791 C.3            1 S1                 0.0000
     23 ****        -1.8707   0.2271  -0.9177 C.3            1 S1                 0.0000
     24 ****        -3.3546  -0.0499  -1.1810 C.3            1 S1                 0.0000
     25 ****        -3.9650  -0.9008  -0.1206 N.4            1 S1                 1.0000
     26 ****        -5.4354  -1.0869  -0.3133 C.3            1 S1                 0.0000
     27 ****        -6.2401   0.2200  -0.4480 C.3            1 S1                 0.0000
     28 ****        -6.2559   0.6408  -1.8027 O.3            1 S1                 0.0000
     29 ****        -6.9813   1.8431  -1.9913 C.3            1 S1                 0.0000
     30 ****        -3.5449  -5.0264   2.1295 H              1 S1                 0.0000
     31 ****        -2.0168  -4.2256   1.8227 H              1 S1                 0.0000
     32 ****        -2.9130  -4.9603   0.4890 H              1 S1                 0.0000
     33 ****        -4.7979  -3.3736   0.9579 H              1 S1                 0.0000
     34 ****        -3.8136  -2.5197   2.1224 H              1 S1                 0.0000
     35 ****        -3.2959  -2.7400  -0.8825 H              1 S1                 0.0000
     36 ****        -1.5577  -1.4434   1.2695 H              1 S1                 0.0000
     37 ****        -1.1561  -2.8457   0.3058 H              1 S1                 0.0000
     38 ****         2.5352  -3.2880  -1.3785 H              1 S1                 0.0000
     39 ****         2.1992   3.0899  -0.5740 H              1 S1                 0.0000
     40 ****         4.9246   0.7441  -1.7168 H              1 S1                 0.0000
     41 ****         4.5605   2.4315  -1.4793 H              1 S1                 0.0000
     42 ****         5.6589   0.0886   1.6643 H              1 S1                 0.0000
     43 ****         7.2144   1.0600  -0.5232 H              1 S1                 0.0000
     44 ****         6.7747   2.7461  -0.4464 H              1 S1                 0.0000
     45 ****         7.5841   1.0250   1.9531 H              1 S1                 0.0000
     46 ****         8.5041   2.3234   1.2230 H              1 S1                 0.0000
     47 ****         5.5696   1.5915   3.1848 H              1 S1                 0.0000
     48 ****         5.1092   3.2762   3.2987 H              1 S1                 0.0000
     49 ****         4.5038   3.3740   0.9330 H              1 S1                 0.0000
     50 ****         3.6403   2.0529   1.6801 H              1 S1                 0.0000
     51 ****        -1.7611   0.8519  -0.0302 H              1 S1                 0.0000
     52 ****        -1.4583   0.7791  -1.7630 H              1 S1                 0.0000
     53 ****        -3.8522   0.9163  -1.2424 H              1 S1                 0.0000
     54 ****        -3.4784  -0.5366  -2.1498 H              1 S1                 0.0000
     55 ****        -5.6321  -1.7473  -1.1592 H              1 S1                 0.0000
     56 ****        -5.8400  -1.5769   0.5698 H              1 S1                 0.0000
     57 ****        -7.2700   0.0378  -0.1364 H              1 S1                 0.0000
     58 ****        -5.8401   0.9950   0.2084 H              1 S1                 0.0000
     59 ****        -6.9610   2.1218  -3.0449 H              1 S1                 0.0000
     60 ****        -6.5430   2.6613  -1.4184 H              1 S1                 0.0000
     61 ****        -8.0242   1.7257  -1.6944 H              1 S1                 0.0000
     62 ****        -3.8555  -0.3902   0.7439 H              1 S1                 0.0000
     63 ****         0.2631  -3.0482  -1.1001 LP             1 S1                 0.0000
     64 ****         4.0245  -1.4467  -1.3265 LP             1 S1                 0.0000
     65 ****        -0.0247   1.9653  -0.4494 LP             1 S1                 0.0000
     66 ****         5.6101  -0.5206   0.1960 LP             1 S1                 0.0000
     67 ****         4.2356  -0.1508   0.9963 LP             1 S1                 0.0000
     68 ****         6.7722   3.7950   1.7465 LP             1 S1                 0.0000
     69 ****         7.3801   3.0678   3.0763 LP             1 S1                 0.0000
     70 ****        -6.6771  -0.0776  -2.3563 LP             1 S1                 0.0000
     71 ****        -5.3134   0.7847  -2.1044 LP             1 S1                 0.0000
@<TRIPOS>BOND
    1    1    2 1     
    2    1   30 1     
    3    1   31 1     
    4    1   32 1     
    5    2    3 1     
    6    2   33 1     
    7    2   34 1     
    8    3   25 1     
    9    3    4 1     
   10    3   35 1     
   11    4    5 1     
   12    4   36 1     
   13    4   37 1     
   14    5    6 1     
   15    5   23 1     
   16    6   11 ar    
   17    6    7 ar    
   18    7    8 ar    
   19    8    9 ar    
   20    8   38 1     
   21    9   10 ar    
   22   10   14 1     
   23   10   11 ar    
   24   11   12 1     
   25   12   13 2     
   26   13   14 1     
   27   13   39 1     
   28   14   15 1     
   29   15   16 1     
   30   15   40 1     
   31   15   41 1     
   32   16   22 1     
   33   16   17 1     
   34   16   18 1     
   35   17   42 1     
   36   18   19 1     
   37   18   43 1     
   38   18   44 1     
   39   19   20 1     
   40   19   45 1     
   41   19   46 1     
   42   20   21 1     
   43   21   22 1     
   44   21   47 1     
   45   21   48 1     
   46   22   49 1     
   47   22   50 1     
   48   23   24 1     
   49   23   51 1     
   50   23   52 1     
   51   24   25 1     
   52   24   53 1     
   53   24   54 1     
   54   25   26 1     
   55   25   62 1     
   56   26   27 1     
   57   26   55 1     
   58   26   56 1     
   59   27   28 1     
   60   27   57 1     
   61   27   58 1     
   62   28   29 1     
   63   29   59 1     
   64   29   60 1     
   65   29   61 1     
   66    7   63 1     
   67    9   64 1     
   68   12   65 1     
   69   17   66 1     
   70   17   67 1     
   71   20   68 1     
   72   20   69 1     
   73   28   70 1     
   74   28   71 1     
@<TRIPOS>SUBSTRUCTURE
      1 S1             1
@<TRIPOS>SET
LONE_PAIRS      STATIC     ATOMS    <user>   **** ""
9 63 64 65 66 67 68 69 70 71
DONOR_HYDROGENS      STATIC     ATOMS    <user>   **** ""
2 42 62
ATOM$BLUE        STATIC     ATOMS    COLORGROUP SYSTEM
9 63 64 65 66 67 68 69 70 71
ATOM$RED        STATIC     ATOMS    COLORGROUP SYSTEM
2 42 62
