#       Name:                AV-unprocessed.smi:1748
#       Creating user name   scv26
#       Creation time:       Fri Mar 27 08:25:52 2020


#       File generated by GOLD software.
#

@<TRIPOS>MOLECULE
AV-unprocessed.smi:1748
    44    45     1
SMALL
NO_CHARGES


@<TRIPOS>ATOM
      1 ****        -3.7784  -2.0159   2.3411 C.3            1 S1                 0.0000
      2 ****        -3.4390  -1.5802   0.9693 N.4            1 S1                 1.0000
      3 ****        -4.0291  -2.4651  -0.0662 C.3            1 S1                 0.0000
      4 ****        -3.7619  -1.9176  -1.4783 C.3            1 S1                 0.0000
      5 ****        -2.2593  -1.7121  -1.7154 C.3            1 S1                 0.0000
      6 ****        -1.6689  -0.8144  -0.6160 C.3            1 S1                 0.0000
      7 ****        -0.2295  -0.6680  -0.8118 N.am           1 S1                 0.0000
      8 ****         0.5146   0.3400  -0.3340 C.2            1 S1                 0.0000
      9 ****         0.0494   1.2564   0.3435 O.2            1 S1                 0.0000
     10 ****         1.8072   0.1902  -0.6767 N.am           1 S1                 0.0000
     11 ****         2.9001   1.0294  -0.4014 C.2            1 S1                 0.0000
     12 ****         2.8030   2.3344  -0.0357 C.2            1 S1                 0.0000
     13 ****         3.9758   3.1535   0.2194 C.2            1 S1                 0.0000
     14 ****         3.8473   4.5907   0.6997 C.3            1 S1                 0.0000
     15 ****         4.9331   4.9810   1.3687 F              1 S1                 0.0000
     16 ****         3.6867   5.4036  -0.3438 F              1 S1                 0.0000
     17 ****         2.7896   4.7302   1.4992 F              1 S1                 0.0000
     18 ****         5.1710   2.5498   0.0828 C.2            1 S1                 0.0000
     19 ****         5.2800   1.2147  -0.3133 N.am           1 S1                 0.0000
     20 ****         4.2248   0.4092  -0.5690 C.2            1 S1                 0.0000
     21 ****         4.4030  -0.7584  -0.9145 O.2            1 S1                 0.0000
     22 ****        -1.9782  -1.3977   0.7793 C.3            1 S1                 0.0000
     23 ****         6.2125   0.8392  -0.4092 H              1 S1                 0.0000
     24 ****        -3.3558  -2.9984   2.5555 H              1 S1                 0.0000
     25 ****        -4.8596  -2.0725   2.4709 H              1 S1                 0.0000
     26 ****        -3.3927  -1.3092   3.0766 H              1 S1                 0.0000
     27 ****        -3.6147  -3.4698   0.0319 H              1 S1                 0.0000
     28 ****        -5.1048  -2.5487   0.0939 H              1 S1                 0.0000
     29 ****        -4.1672  -2.6000  -2.2259 H              1 S1                 0.0000
     30 ****        -4.2857  -0.9696  -1.6088 H              1 S1                 0.0000
     31 ****        -1.7545  -2.6795  -1.7205 H              1 S1                 0.0000
     32 ****        -2.0952  -1.2681  -2.6980 H              1 S1                 0.0000
     33 ****        -2.1343   0.1702  -0.6981 H              1 S1                 0.0000
     34 ****         0.2324  -1.3833  -1.3551 H              1 S1                 0.0000
     35 ****         2.0462  -0.6568  -1.1718 H              1 S1                 0.0000
     36 ****         1.8431   2.8163   0.0551 H              1 S1                 0.0000
     37 ****         6.1210   3.0300   0.2660 H              1 S1                 0.0000
     38 ****        -1.5998  -0.7283   1.5532 H              1 S1                 0.0000
     39 ****        -1.4711  -2.3550   0.9129 H              1 S1                 0.0000
     40 ****        -3.8600  -0.6703   0.8458 H              1 S1                 0.0000
     41 ****        -0.9266   1.2718   0.5610 LP             1 S1                 0.0000
     42 ****         0.6474   1.9855   0.6763 LP             1 S1                 0.0000
     43 ****         3.6185  -1.3500  -1.1009 LP             1 S1                 0.0000
     44 ****         5.3322  -1.1156  -1.0089 LP             1 S1                 0.0000
@<TRIPOS>BOND
    1    1    2 1     
    2    1   24 1     
    3    1   25 1     
    4    1   26 1     
    5    2   22 1     
    6    2    3 1     
    7    2   40 1     
    8    3    4 1     
    9    3   27 1     
   10    3   28 1     
   11    4    5 1     
   12    4   29 1     
   13    4   30 1     
   14    5    6 1     
   15    5   31 1     
   16    5   32 1     
   17    6    7 1     
   18    6   22 1     
   19    6   33 1     
   20    7    8 am    
   21    7   34 1     
   22    8    9 2     
   23    8   10 am    
   24   10   11 1     
   25   10   35 1     
   26   11   20 1     
   27   11   12 2     
   28   12   13 1     
   29   12   36 1     
   30   13   14 1     
   31   13   18 2     
   32   14   15 1     
   33   14   16 1     
   34   14   17 1     
   35   18   19 1     
   36   18   37 1     
   37   19   23 1     
   38   19   20 am    
   39   20   21 2     
   40   22   38 1     
   41   22   39 1     
   42    9   41 1     
   43    9   42 1     
   44   21   43 1     
   45   21   44 1     
@<TRIPOS>SUBSTRUCTURE
      1 S1             1
@<TRIPOS>SET
LONE_PAIRS      STATIC     ATOMS    <user>   **** ""
4 41 42 43 44
DONOR_HYDROGENS      STATIC     ATOMS    <user>   **** ""
4 40 34 35 23
ATOM$BLUE        STATIC     ATOMS    COLORGROUP SYSTEM
4 41 42 43 44
ATOM$RED        STATIC     ATOMS    COLORGROUP SYSTEM
4 40 34 35 23
