AV-unprocessed.smi:2579|AV-procd|sdf|10125|dock6
  -GOLD-   2272014143D 1   1.00000     0.00000
 Structure written by MMmdl.
 38 40  0  0  0  0  0  0  0  0  1 V2000
  152.8862  136.5786  160.2844 O   0  0  0  0  0  0  0  0  0  0  0  0
  152.6472  137.8951  159.8340 C   0  0  0  0  0  0  0  0  0  0  0  0
  151.3029  137.9652  159.0985 C   0  0  0  0  0  0  0  0  0  0  0  0
  151.2439  139.0985  158.1952 N   0  0  0  0  0  0  0  0  0  0  0  0
  151.4216  140.4610  158.3979 C   0  0  0  0  0  0  0  0  0  0  0  0
  151.7031  141.0072  159.5794 N   0  0  0  0  0  0  0  0  0  0  0  0
  151.7719  142.3530  159.2701 C   0  0  0  0  0  0  0  0  0  0  0  0
  152.0350  143.4713  160.0935 C   0  0  0  0  0  0  0  0  0  0  0  0
  152.0513  144.7718  159.5479 C   0  0  0  0  0  0  0  0  0  0  0  0
  151.8044  144.9734  158.1744 C   0  0  0  0  0  0  0  0  0  0  0  0
  151.5405  143.8738  157.3354 C   0  0  0  0  0  0  0  0  0  0  0  0
  151.5272  142.5772  157.8837 C   0  0  0  0  0  0  0  0  0  0  0  0
  151.3059  141.3108  157.3506 N   0  0  0  0  0  0  0  0  0  0  0  0
  151.0037  140.9941  155.9625 C   0  0  0  0  0  0  0  0  0  0  0  0
  149.7717  141.7620  155.4584 C   0  0  2  0  0  0  0  0  0  0  0  0
  148.4905  141.4534  156.2331 C   0  0  0  0  0  0  0  0  0  0  0  0
  147.4278  141.7120  155.1897 C   0  0  0  0  0  0  0  0  0  0  0  0
  148.0985  141.1668  153.9342 C   0  0  0  0  0  0  0  0  0  0  0  0
  149.4872  141.4352  154.0983 O   0  0  0  0  0  0  0  0  0  0  0  0
  153.8016  136.3795  160.1600 H   0  0  0  0  0  0  0  0  0  0  0  0
  152.6186  138.5427  160.7106 H   0  0  0  0  0  0  0  0  0  0  0  0
  153.4699  138.2401  159.2063 H   0  0  0  0  0  0  0  0  0  0  0  0
  151.0993  137.0410  158.5566 H   0  0  0  0  0  0  0  0  0  0  0  0
  150.5002  138.0872  159.8263 H   0  0  0  0  0  0  0  0  0  0  0  0
  151.0038  138.8439  157.2483 H   0  0  0  0  0  0  0  0  0  0  0  0
  152.2233  143.3279  161.1471 H   0  0  0  0  0  0  0  0  0  0  0  0
  152.2526  145.6191  160.1868 H   0  0  0  0  0  0  0  0  0  0  0  0
  151.8161  145.9732  157.7654 H   0  0  0  0  0  0  0  0  0  0  0  0
  151.3474  144.0254  156.2837 H   0  0  0  0  0  0  0  0  0  0  0  0
  151.8759  141.2389  155.3555 H   0  0  0  0  0  0  0  0  0  0  0  0
  150.8535  139.9186  155.8622 H   0  0  0  0  0  0  0  0  0  0  0  0
  149.9601  142.8360  155.5000 H   0  0  0  0  0  0  0  0  0  0  0  0
  148.4634  140.4054  156.5352 H   0  0  0  0  0  0  0  0  0  0  0  0
  148.3742  142.0687  157.1256 H   0  0  0  0  0  0  0  0  0  0  0  0
  146.4776  141.2254  155.4121 H   0  0  0  0  0  0  0  0  0  0  0  0
  147.2516  142.7837  155.0882 H   0  0  0  0  0  0  0  0  0  0  0  0
  147.9601  140.0869  153.8682 H   0  0  0  0  0  0  0  0  0  0  0  0
  147.7091  141.6162  153.0205 H   0  0  0  0  0  0  0  0  0  0  0  0
  1  2  1  0  0  0  0
  1 20  1  0  0  0  0
  2  3  1  0  0  0  0
  2 21  1  0  0  0  0
  2 22  1  0  0  0  0
  3  4  1  0  0  0  0
  3 23  1  0  0  0  0
  3 24  1  0  0  0  0
  4  5  1  0  0  0  0
  4 25  1  0  0  0  0
  5 13  1  0  0  0  0
  5  6  2  0  0  0  0
  6  7  1  0  0  0  0
  7 12  2  0  0  0  0
  7  8  1  0  0  0  0
  8  9  2  0  0  0  0
  8 26  1  0  0  0  0
  9 10  1  0  0  0  0
  9 27  1  0  0  0  0
 10 11  2  0  0  0  0
 10 28  1  0  0  0  0
 11 12  1  0  0  0  0
 11 29  1  0  0  0  0
 12 13  1  0  0  0  0
 13 14  1  0  0  0  0
 14 15  1  0  0  0  0
 14 30  1  0  0  0  0
 14 31  1  0  0  0  0
 15 19  1  0  0  0  0
 15 16  1  0  0  0  0
 15 32  1  0  0  0  0
 16 17  1  0  0  0  0
 16 33  1  0  0  0  0
 16 34  1  0  0  0  0
 17 18  1  0  0  0  0
 17 35  1  0  0  0  0
 17 36  1  0  0  0  0
 18 19  1  0  0  0  0
 18 37  1  0  0  0  0
 18 38  1  0  0  0  0
M  END
> <s_m_source_file>
AV-unprocessed.smi

> <i_m_source_file_index>
2579

> <i_lp_mmshare_version>
43012

> <i_f3d_flags>
0

> <s_epik_input>
W09IXVtDSDJdW0NIMl1bTkhdYyhuMSluKGMoYzEyKVtjSF1bY0hdW2NIXVtjSF0yKVtDSDJdW0NAQEhdM1tDSDJdW0NIMl1bQ0gyXU8z

> <s_epik_cmdline>
J2VwaWtfcHl0aG9uJywgJy1waCcsICc3LjAnLCAnLXRuJywgJzgnLCAnLW1hJywgJzIwMCcsICctbWV0YWxfYmluZGluZycsICctaW1hZScsICc8aW5maWxlLm1hZT4nLCAnLW9tYWUnLCAnPG91dGZpbGUubWFlPic=

> <r_epik_Ionization_Penalty>
1.27244

> <r_epik_Ionization_Penalty_Charging>
0

> <r_epik_Ionization_Penalty_Neutral>
1.27244

> <r_epik_State_Penalty>
1.34401

> <r_epik_Charging_Adjusted_Penalty>
1.34401

> <i_epik_Tot_Q>
0

> <i_epik_Tot_abs_Q>
0

> <r_epik_Metal_State_Penalty>
0.00511131

> <b_epik_Metal_Only>
0

> <s_lp_Force_Field>
OPLS_2005

> <r_lp_Energy>
20.4938

> <b_lp_Chiralities_Consistent>
1

> <s_lp_Variant>
AV-unprocessed.smi:2579-3

> <Gold.Version>
5.8.1

> <Gold.Id.Protein>
6NUR|6NUR_protein|mol2

> <Gold.PLP.Fitness>
46.2734

> <Gold.PLP.PLP>
-41.2060

> <Gold.PLP.part.hbond>
-3.0000

> <Gold.PLP.part.metal>
0.0000

> <Gold.PLP.part.buried>
-3.6048

> <Gold.PLP.part.nonpolar>
-33.7258

> <Gold.PLP.part.repulsive>
0.2568

> <Gold.PLP.ligand.clash>
0.0000

> <Gold.PLP.ligand.torsion>
0.1411

> <Gold.PLP.Chemscore.Hbond>
1.7775

> <Gold.PLP.Chemscore.CHOScore>
0.0000

> <Gold.PLP.Chemscore.Metal>
0.0000

> <Gold.Chemscore.Hbonds>
donor molecule, donor type, donor heavy atom, donor atom, acceptor molecule, acceptor atom, score
      P1  H  6896  6907       L1     1  1.00
      P1  H  7989  7998       L1    19  0.11
      P1  H  8011  8017       L1    19  0.59

> <Gold.PLP.Chemscore.Internal.Correction>
0.0171

> <Gold.Rescore>
     Score         DG    S(hbond)    S(metal)    S(lipo)     H(rot)  DE(clash)    DE(int)     intcor
     16.96     -17.10       1.44        0.00     105.59       2.17       0.08       0.06       ----

> <Gold.Chemscore.Fitness>
16.9606

> <Gold.Chemscore.DG>
-17.0972

> <Gold.Chemscore.ZeroCoef>
-5.4800

> <Gold.Chemscore.Hbond>
1.4417

> <Gold.Chemscore.Metal>
0.0000

> <Gold.Chemscore.Lipo>
105.5912

> <Gold.Chemscore.Internal_Hbond>
0.0000

> <Gold.Chemscore.DEClash>
0.0774

> <Gold.Chemscore.DEInternal>
0.0592

> <Gold.Chemscore.Rot>
2.1688

> <Gold.Chemscore.Internal.Correction>
   9.000000E+99

> <Gold.Chemscore.Hbonds>
donor molecule, donor type, donor heavy atom, donor atom, acceptor molecule, acceptor atom, score
      P1  H  6896  6907       L1     1  0.45
      P1  H  7989  7998       L1    19  0.02
      P1  H  8011  8017       L1    19  0.11

> <Gold.Chemscore.Hbond.Weighted>
-4.8152

> <Gold.Chemscore.Metal.Weighted>
-0.0000

> <Gold.Chemscore.Lipo.Weighted>
-12.3542

> <Gold.Chemscore.Internal_Hbond.Weighted>
0.0000

> <Gold.Chemscore.DEClash.Weighted>
0.0774

> <Gold.Chemscore.DEInternal.Weighted>
0.0592

> <Gold.Chemscore.Rot.Weighted>
5.5522

> <Gold.Chemscore.Internal.Correction.Weighted>
   9.000000E+99

> <Gold.Protein.RotatedTorsions>
[ 6907 6896 6895 6894 ] final   30.45 input  -60.11 | X-H torsion
[ 7974 7965 7964 7962 ] final   61.43 input  175.53 | X-H torsion
[ 8008 7997 7996 7995 ] final -172.66 input   59.86 | X-H torsion
[ 10167 10162 10161 10158 ] final  165.21 input  -65.29 | X-H torsion
[ 10718 10713 10712 10709 ] final  -81.38 input   66.30 | X-H torsion
[ 10763 10752 10751 10750 ] final  -11.29 input  -60.55 | X-H torsion
[ 11005 11000 10999 10996 ] final  164.49 input  -57.11 | X-H torsion

> <Gold.Protein.ActiveResidues>
 VAL166  LYS551  ARG553  GLY616  TRP617  ASP618  TYR619  PRO620  LYS621  CYS622 
 ASP623  PHE694  ASN695  SER759  ASP760  ASP761  ALA762  ILE779  LEU786  VAL792 
 PHE793  MET794  SER795  GLU796  ALA797  LYS798  CYS799  TRP800  GLU811  SER814 

> <Gold.Protein.RotatedAtoms>
  152.0461  134.9682  160.0574 H   0  0  0  0  0  0  0  0  0  0  0  0  # atno 6907 bound_to 6896
  152.1101  133.4291  159.4635 H   0  0  0  0  0  0  0  0  0  0  0  0  # atno 6908 bound_to 6896
  150.6843  134.2577  159.4579 H   0  0  0  0  0  0  0  0  0  0  0  0  # atno 6909 bound_to 6896
  145.8848  139.3468  143.0684 H   0  0  0  0  0  0  0  0  0  0  0  0  # atno 7974 bound_to 7965
  155.9475  140.1120  157.1004 H   0  0  0  0  0  0  0  0  0  0  0  0  # atno 8008 bound_to 7997
  154.4102  140.1207  156.5075 H   0  0  0  0  0  0  0  0  0  0  0  0  # atno 8009 bound_to 7997
  155.6884  140.3473  155.4886 H   0  0  0  0  0  0  0  0  0  0  0  0  # atno 8010 bound_to 7997
  139.4902  144.4155  151.9248 H   0  0  0  0  0  0  0  0  0  0  0  0  # atno 10167 bound_to 10162
  156.0051  130.4602  150.3944 H   0  0  0  0  0  0  0  0  0  0  0  0  # atno 10718 bound_to 10713
  153.4816  135.7017  153.5935 H   0  0  0  0  0  0  0  0  0  0  0  0  # atno 10763 bound_to 10752
  153.4145  135.3840  155.2072 H   0  0  0  0  0  0  0  0  0  0  0  0  # atno 10764 bound_to 10752
  154.8721  135.3913  154.4266 H   0  0  0  0  0  0  0  0  0  0  0  0  # atno 10765 bound_to 10752
  140.2464  134.8011  157.3460 H   0  0  0  0  0  0  0  0  0  0  0  0  # atno 11005 bound_to 11000
  145.8980  140.9261  143.0517 LP  0  0  0  0  0  0  0  0  0  0  0  0  # atno 17320 bound_to 7965
  144.6728  140.0994  143.7461 LP  0  0  0  0  0  0  0  0  0  0  0  0  # atno 17321 bound_to 7965
  140.3598  144.2987  150.5935 LP  0  0  0  0  0  0  0  0  0  0  0  0  # atno 17342 bound_to 10162
  140.5413  143.2223  151.8080 LP  0  0  0  0  0  0  0  0  0  0  0  0  # atno 17343 bound_to 10162
  157.2016  131.0439  151.2647 LP  0  0  0  0  0  0  0  0  0  0  0  0  # atno 17370 bound_to 10713
  157.3970  130.7313  149.6739 LP  0  0  0  0  0  0  0  0  0  0  0  0  # atno 17371 bound_to 10713
  140.1602  134.4739  155.7900 LP  0  0  0  0  0  0  0  0  0  0  0  0  # atno 17394 bound_to 11000
  141.2206  133.6898  156.7530 LP  0  0  0  0  0  0  0  0  0  0  0  0  # atno 17395 bound_to 11000

$$$$
