#       Name:                AV-unprocessed.smi:1915
#       Creating user name   scv26
#       Creation time:       Fri Mar 27 09:50:34 2020


#       File generated by GOLD software.
#

@<TRIPOS>MOLECULE
AV-unprocessed.smi:1915
    49    50     1
SMALL
NO_CHARGES


@<TRIPOS>ATOM
      1 ****        -2.7910   0.6213   1.1882 C.3            1 S1                 0.0000
      2 ****        -2.7608  -0.6465   0.3176 C.3            1 S1                 0.0000
      3 ****        -4.1495  -0.9285  -0.2737 C.3            1 S1                 0.0000
      4 ****        -2.2244  -1.8909   1.0601 C.3            1 S1                 0.0000
      5 ****        -0.8699  -1.7018   1.5759 N.am           1 S1                 0.0000
      6 ****         0.2834  -1.9582   0.7306 C.3            1 S1                 0.0000
      7 ****         1.4876  -1.3840   1.5038 C.3            1 S1                 0.0000
      8 ****         1.9370  -0.0292   0.9326 C.2            1 S1                 0.0000
      9 ****         1.2198   0.9646   1.0570 O.2            1 S1                 0.0000
     10 ****         3.1138  -0.0074   0.2867 N.am           1 S1                 0.0000
     11 ****         3.7170   1.1714  -0.3323 C.3            1 S1                 0.0000
     12 ****         3.3313   1.3490  -1.8161 C.3            1 S1                 0.0000
     13 ****         1.8393   1.5111  -2.0536 C.ar           1 S1                 0.0000
     14 ****         1.1897   2.7552  -1.9013 C.ar           1 S1                 0.0000
     15 ****        -0.2067   2.8312  -2.0866 C.ar           1 S1                 0.0000
     16 ****        -0.9230   1.6643  -2.4235 C.ar           1 S1                 0.0000
     17 ****        -0.2236   0.4491  -2.5681 C.ar           1 S1                 0.0000
     18 ****         1.1137   0.4160  -2.3785 N.pl3          1 S1                 1.0000
     19 ****         0.9872  -1.2548   2.9569 C.3            1 S1                 0.0000
     20 ****        -0.5234  -1.3784   2.8279 C.2            1 S1                 0.0000
     21 ****        -1.2923  -1.1753   3.7659 O.2            1 S1                 0.0000
     22 ****        -3.3940   0.4716   2.0843 H              1 S1                 0.0000
     23 ****        -3.2133   1.4632   0.6392 H              1 S1                 0.0000
     24 ****        -1.7902   0.9171   1.5027 H              1 S1                 0.0000
     25 ****        -2.0924  -0.4474  -0.5197 H              1 S1                 0.0000
     26 ****        -4.8798  -1.1317   0.5103 H              1 S1                 0.0000
     27 ****        -4.1264  -1.7922  -0.9387 H              1 S1                 0.0000
     28 ****        -4.5111  -0.0784  -0.8533 H              1 S1                 0.0000
     29 ****        -2.8991  -2.1580   1.8755 H              1 S1                 0.0000
     30 ****        -2.2179  -2.7483   0.3857 H              1 S1                 0.0000
     31 ****         0.3927  -3.0341   0.5880 H              1 S1                 0.0000
     32 ****         0.1537  -1.5072  -0.2541 H              1 S1                 0.0000
     33 ****         2.3243  -2.0831   1.4592 H              1 S1                 0.0000
     34 ****         3.6388  -0.8686   0.2322 H              1 S1                 0.0000
     35 ****         3.4576   2.0689   0.2319 H              1 S1                 0.0000
     36 ****         4.7995   1.0703  -0.2527 H              1 S1                 0.0000
     37 ****         3.8423   2.2234  -2.2203 H              1 S1                 0.0000
     38 ****         3.6930   0.4967  -2.3933 H              1 S1                 0.0000
     39 ****         1.7507   3.6378  -1.6309 H              1 S1                 0.0000
     40 ****        -0.7225   3.7727  -1.9666 H              1 S1                 0.0000
     41 ****        -1.9934   1.7003  -2.5647 H              1 S1                 0.0000
     42 ****        -0.6911  -0.4919  -2.8183 H              1 S1                 0.0000
     43 ****         1.3640  -2.0701   3.5752 H              1 S1                 0.0000
     44 ****         1.2615  -0.3142   3.4373 H              1 S1                 0.0000
     45 ****         1.5975  -0.4767  -2.4770 H              1 S1                 0.0000
     46 ****         0.3422   0.8917   1.5307 LP             1 S1                 0.0000
     47 ****         1.5152   1.8443   0.6842 LP             1 S1                 0.0000
     48 ****        -2.2800  -1.2472   3.6273 LP             1 S1                 0.0000
     49 ****        -0.9298  -0.9381   4.6672 LP             1 S1                 0.0000
@<TRIPOS>BOND
    1    1    2 1     
    2    1   22 1     
    3    1   23 1     
    4    1   24 1     
    5    2    3 1     
    6    2    4 1     
    7    2   25 1     
    8    3   26 1     
    9    3   27 1     
   10    3   28 1     
   11    4    5 1     
   12    4   29 1     
   13    4   30 1     
   14    5   20 am    
   15    5    6 1     
   16    6    7 1     
   17    6   31 1     
   18    6   32 1     
   19    7    8 1     
   20    7   19 1     
   21    7   33 1     
   22    8    9 2     
   23    8   10 am    
   24   10   11 1     
   25   10   34 1     
   26   11   12 1     
   27   11   35 1     
   28   11   36 1     
   29   12   13 1     
   30   12   37 1     
   31   12   38 1     
   32   13   18 ar    
   33   13   14 ar    
   34   14   15 ar    
   35   14   39 1     
   36   15   16 ar    
   37   15   40 1     
   38   16   17 ar    
   39   16   41 1     
   40   17   18 ar    
   41   17   42 1     
   42   18   45 1     
   43   19   20 1     
   44   19   43 1     
   45   19   44 1     
   46   20   21 2     
   47    9   46 1     
   48    9   47 1     
   49   21   48 1     
   50   21   49 1     
@<TRIPOS>SUBSTRUCTURE
      1 S1             1
@<TRIPOS>SET
LONE_PAIRS      STATIC     ATOMS    <user>   **** ""
4 46 47 48 49
DONOR_HYDROGENS      STATIC     ATOMS    <user>   **** ""
2 34 45
ATOM$BLUE        STATIC     ATOMS    COLORGROUP SYSTEM
4 46 47 48 49
ATOM$RED        STATIC     ATOMS    COLORGROUP SYSTEM
2 34 45
