#       Name:                AV-unprocessed.smi:2087
#       Creating user name   scv26
#       Creation time:       Fri Mar 27 11:24:02 2020


#       File generated by GOLD software.
#

@<TRIPOS>MOLECULE
AV-unprocessed.smi:2087
    59    60     1
SMALL
NO_CHARGES


@<TRIPOS>ATOM
      1 ****        -3.3970  -2.4198  -2.1831 C.3            1 S1                 0.0000
      2 ****        -3.1634  -1.5326  -3.4179 C.3            1 S1                 0.0000
      3 ****        -3.8001  -2.1696  -4.6622 C.3            1 S1                 0.0000
      4 ****        -1.6621  -1.2608  -3.6550 C.3            1 S1                 0.0000
      5 ****        -1.0203  -0.5297  -2.5326 N.4            1 S1                 1.0000
      6 ****        -1.3368   0.9201  -2.5049 C.3            1 S1                 0.0000
      7 ****        -0.6683   1.5931  -1.2943 C.3            1 S1                 0.0000
      8 ****         0.7326   1.3530  -1.3298 O.3            1 S1                 0.0000
      9 ****         1.0415  -0.0351  -1.2478 C.3            1 S1                 0.0000
     10 ****         2.5708  -0.1937  -1.1604 C.3            1 S1                 0.0000
     11 ****         3.1000   0.4587   0.0314 N.am           1 S1                 0.0000
     12 ****         2.9753  -0.0091   1.2820 C.2            1 S1                 0.0000
     13 ****         2.4785  -1.1043   1.5479 O.2            1 S1                 0.0000
     14 ****         3.4808   0.9081   2.4024 C.3            1 S1                 0.0000
     15 ****         2.5758   0.9297   3.5597 N.am           1 S1                 0.0000
     16 ****         2.9420   0.2877   4.7290 C.2            1 S1                 0.0000
     17 ****         2.1683   0.2574   5.8360 C.2            1 S1                 0.0000
     18 ****         0.8667   0.9132   5.8565 C.2            1 S1                 0.0000
     19 ****         0.1325   0.9274   6.8454 O.2            1 S1                 0.0000
     20 ****         0.5088   1.5497   4.6453 N.am           1 S1                 0.0000
     21 ****        -0.7728   2.2239   4.6092 C.3            1 S1                 0.0000
     22 ****         1.3318   1.5978   3.4967 C.2            1 S1                 0.0000
     23 ****         0.9958   2.1959   2.4710 O.2            1 S1                 0.0000
     24 ****         0.4461  -0.7404  -2.4800 C.3            1 S1                 0.0000
     25 ****        -2.9006  -3.3850  -2.2890 H              1 S1                 0.0000
     26 ****        -4.4602  -2.6090  -2.0313 H              1 S1                 0.0000
     27 ****        -3.0203  -1.9496  -1.2745 H              1 S1                 0.0000
     28 ****        -3.6770  -0.5857  -3.2530 H              1 S1                 0.0000
     29 ****        -3.3455  -3.1341  -4.8909 H              1 S1                 0.0000
     30 ****        -3.6816  -1.5300  -5.5374 H              1 S1                 0.0000
     31 ****        -4.8689  -2.3316  -4.5182 H              1 S1                 0.0000
     32 ****        -1.1608  -2.2195  -3.7963 H              1 S1                 0.0000
     33 ****        -1.5120  -0.7015  -4.5801 H              1 S1                 0.0000
     34 ****        -0.9906   1.3881  -3.4277 H              1 S1                 0.0000
     35 ****        -2.4136   1.0764  -2.4522 H              1 S1                 0.0000
     36 ****        -0.8426   2.6691  -1.3179 H              1 S1                 0.0000
     37 ****        -1.0900   1.2238  -0.3581 H              1 S1                 0.0000
     38 ****         0.5871  -0.4527  -0.3473 H              1 S1                 0.0000
     39 ****         2.8465  -1.2496  -1.1550 H              1 S1                 0.0000
     40 ****         3.0467   0.2482  -2.0363 H              1 S1                 0.0000
     41 ****         3.5319   1.3627  -0.0967 H              1 S1                 0.0000
     42 ****         4.4729   0.5659   2.6996 H              1 S1                 0.0000
     43 ****         3.6159   1.9244   2.0272 H              1 S1                 0.0000
     44 ****         3.8966  -0.2169   4.7644 H              1 S1                 0.0000
     45 ****         2.5168  -0.2591   6.7184 H              1 S1                 0.0000
     46 ****        -1.1019   2.3675   3.5799 H              1 S1                 0.0000
     47 ****        -0.6428   3.1796   5.1188 H              1 S1                 0.0000
     48 ****        -1.5087   1.5977   5.1166 H              1 S1                 0.0000
     49 ****         0.6623  -1.8084  -2.4294 H              1 S1                 0.0000
     50 ****         0.9050  -0.3613  -3.3947 H              1 S1                 0.0000
     51 ****        -1.3905  -0.9299  -1.6821 H              1 S1                 0.0000
     52 ****         1.1600   1.8244  -0.5584 LP             1 S1                 0.0000
     53 ****         1.1000   1.7149  -2.1866 LP             1 S1                 0.0000
     54 ****         2.1437  -1.6933   0.8124 LP             1 S1                 0.0000
     55 ****         2.4099  -1.4045   2.4993 LP             1 S1                 0.0000
     56 ****         0.4207   0.4736   7.6886 LP             1 S1                 0.0000
     57 ****        -0.7517   1.3927   6.8050 LP             1 S1                 0.0000
     58 ****         1.6049   2.2098   1.6780 LP             1 S1                 0.0000
     59 ****         0.1144   2.6666   2.4327 LP             1 S1                 0.0000
@<TRIPOS>BOND
    1    1    2 1     
    2    1   25 1     
    3    1   26 1     
    4    1   27 1     
    5    2    3 1     
    6    2    4 1     
    7    2   28 1     
    8    3   29 1     
    9    3   30 1     
   10    3   31 1     
   11    4    5 1     
   12    4   32 1     
   13    4   33 1     
   14    5   24 1     
   15    5    6 1     
   16    5   51 1     
   17    6    7 1     
   18    6   34 1     
   19    6   35 1     
   20    7    8 1     
   21    7   36 1     
   22    7   37 1     
   23    8    9 1     
   24    9   10 1     
   25    9   24 1     
   26    9   38 1     
   27   10   11 1     
   28   10   39 1     
   29   10   40 1     
   30   11   12 am    
   31   11   41 1     
   32   12   13 2     
   33   12   14 1     
   34   14   15 1     
   35   14   42 1     
   36   14   43 1     
   37   15   22 am    
   38   15   16 1     
   39   16   17 2     
   40   16   44 1     
   41   17   18 1     
   42   17   45 1     
   43   18   19 2     
   44   18   20 am    
   45   20   21 1     
   46   20   22 am    
   47   21   46 1     
   48   21   47 1     
   49   21   48 1     
   50   22   23 2     
   51   24   49 1     
   52   24   50 1     
   53    8   52 1     
   54    8   53 1     
   55   13   54 1     
   56   13   55 1     
   57   19   56 1     
   58   19   57 1     
   59   23   58 1     
   60   23   59 1     
@<TRIPOS>SUBSTRUCTURE
      1 S1             1
@<TRIPOS>SET
LONE_PAIRS      STATIC     ATOMS    <user>   **** ""
8 52 53 54 55 56 57 58 59
DONOR_HYDROGENS      STATIC     ATOMS    <user>   **** ""
2 51 41
ATOM$BLUE        STATIC     ATOMS    COLORGROUP SYSTEM
8 52 53 54 55 56 57 58 59
ATOM$RED        STATIC     ATOMS    COLORGROUP SYSTEM
2 51 41
