AV-unprocessed.smi:240|AV-procd|sdf|1825|dock9
  -GOLD-   2262020423D 1   1.00000     0.00000
 Structure written by MMmdl.
 55 59  0  0  0  0  0  0  0  0  1 V2000
  152.7771  140.6713  158.7765 O   0  0  0  0  0  0  0  0  0  0  0  0
  151.8686  141.6809  159.1664 C   0  0  1  0  0  0  0  0  0  0  0  0
  152.4468  143.0895  159.0473 C   0  0  0  0  0  0  0  0  0  0  0  0
  151.2091  143.9814  159.1219 C   0  0  0  0  0  0  0  0  0  0  0  0
  150.0911  143.1918  158.4266 C   0  0  0  0  0  0  0  0  0  0  0  0
  150.5367  141.7106  158.3842 C   0  0  1  0  0  0  0  0  0  0  0  0
  150.5550  141.0975  156.9435 C   0  0  2  0  0  0  0  0  0  0  0  0
  150.0813  142.0840  155.8420 C   0  0  0  0  0  0  0  0  0  0  0  0
  150.1179  141.4618  154.5628 O   0  0  0  0  0  0  0  0  0  0  0  0
  149.2502  140.3391  154.4954 C   0  0  0  0  0  0  0  0  0  0  0  0
  149.7269  139.2883  155.5052 C   0  0  0  0  0  0  0  0  0  0  0  0
  149.7689  139.8581  156.8475 N   0  0  0  0  0  0  0  0  0  0  0  0
  150.0397  138.9063  157.7690 C   0  0  0  0  0  0  0  0  0  0  0  0
  151.3139  138.7202  158.2045 N   0  0  0  0  0  0  0  0  0  0  0  0
  151.5706  137.7914  159.1306 C   0  0  0  0  0  0  0  0  0  0  0  0
  150.7199  136.9626  159.7414 N   0  0  0  0  0  0  0  0  0  0  0  0
  149.4424  137.1465  159.2984 C   0  0  0  0  0  0  0  0  0  0  0  0
  149.0200  138.0885  158.3205 C   0  0  0  0  0  0  0  0  0  0  0  0
  147.6476  137.9988  158.1299 N   0  0  0  0  0  0  0  0  0  0  0  0
  147.2772  137.0560  158.9531 C   0  0  0  0  0  0  0  0  0  0  0  0
  148.2913  136.4846  159.6902 N   0  0  0  0  0  0  0  0  0  0  0  0
  148.1635  135.4272  160.6816 C   0  0  0  0  0  0  0  0  0  0  0  0
  147.2073  135.7750  161.8489 C   0  0  1  0  0  0  0  0  0  0  0  0
  147.6418  136.9758  162.4613 O   0  0  0  0  0  0  0  0  0  0  0  0
  145.7617  135.9484  161.3792 C   0  0  0  0  0  0  0  0  0  0  0  0
  145.0755  134.6785  161.8660 C   0  0  0  0  0  0  0  0  0  0  0  0
  145.7136  134.4432  163.1078 O   0  0  0  0  0  0  0  0  0  0  0  0
  147.1039  134.6641  162.9149 C   0  0  0  0  0  0  0  0  0  0  0  0
  152.3957  139.8298  158.9758 H   0  0  0  0  0  0  0  0  0  0  0  0
  151.6388  141.5085  160.2193 H   0  0  0  0  0  0  0  0  0  0  0  0
  153.1709  143.3132  159.8312 H   0  0  0  0  0  0  0  0  0  0  0  0
  152.9449  143.2260  158.0872 H   0  0  0  0  0  0  0  0  0  0  0  0
  150.9428  144.1451  160.1669 H   0  0  0  0  0  0  0  0  0  0  0  0
  151.3734  144.9589  158.6680 H   0  0  0  0  0  0  0  0  0  0  0  0
  149.1495  143.3031  158.9656 H   0  0  0  0  0  0  0  0  0  0  0  0
  149.9179  143.5894  157.4271 H   0  0  0  0  0  0  0  0  0  0  0  0
  149.8370  141.1280  158.9843 H   0  0  0  0  0  0  0  0  0  0  0  0
  151.5870  140.8306  156.7108 H   0  0  0  0  0  0  0  0  0  0  0  0
  149.0737  142.4537  156.0325 H   0  0  0  0  0  0  0  0  0  0  0  0
  150.7298  142.9568  155.7932 H   0  0  0  0  0  0  0  0  0  0  0  0
  148.2204  140.6396  154.6967 H   0  0  0  0  0  0  0  0  0  0  0  0
  149.2741  139.9298  153.4854 H   0  0  0  0  0  0  0  0  0  0  0  0
  149.0565  138.4278  155.4862 H   0  0  0  0  0  0  0  0  0  0  0  0
  150.7191  138.9315  155.2241 H   0  0  0  0  0  0  0  0  0  0  0  0
  152.6054  137.7000  159.4257 H   0  0  0  0  0  0  0  0  0  0  0  0
  146.2446  136.7520  159.0459 H   0  0  0  0  0  0  0  0  0  0  0  0
  147.8233  134.5243  160.1724 H   0  0  0  0  0  0  0  0  0  0  0  0
  149.1584  135.2005  161.0672 H   0  0  0  0  0  0  0  0  0  0  0  0
  147.8969  136.7850  163.3511 H   0  0  0  0  0  0  0  0  0  0  0  0
  145.2939  136.8074  161.8635 H   0  0  0  0  0  0  0  0  0  0  0  0
  145.6657  136.0879  160.3019 H   0  0  0  0  0  0  0  0  0  0  0  0
  143.9978  134.7965  161.9808 H   0  0  0  0  0  0  0  0  0  0  0  0
  145.2643  133.8441  161.1885 H   0  0  0  0  0  0  0  0  0  0  0  0
  147.5356  133.7300  162.5555 H   0  0  0  0  0  0  0  0  0  0  0  0
  147.5974  134.9136  163.8551 H   0  0  0  0  0  0  0  0  0  0  0  0
  1  2  1  0  0  0  0
  1 29  1  0  0  0  0
  2  6  1  0  0  0  0
  2  3  1  0  0  0  0
  2 30  1  0  0  0  0
  3  4  1  0  0  0  0
  3 31  1  0  0  0  0
  3 32  1  0  0  0  0
  4  5  1  0  0  0  0
  4 33  1  0  0  0  0
  4 34  1  0  0  0  0
  5  6  1  0  0  0  0
  5 35  1  0  0  0  0
  5 36  1  0  0  0  0
  6  7  1  0  0  0  0
  6 37  1  0  0  0  0
  7 12  1  0  0  0  0
  7  8  1  0  0  0  0
  7 38  1  0  0  0  0
  8  9  1  0  0  0  0
  8 39  1  0  0  0  0
  8 40  1  0  0  0  0
  9 10  1  0  0  0  0
 10 11  1  0  0  0  0
 10 41  1  0  0  0  0
 10 42  1  0  0  0  0
 11 12  1  0  0  0  0
 11 43  1  0  0  0  0
 11 44  1  0  0  0  0
 12 13  1  0  0  0  0
 13 18  1  0  0  0  0
 13 14  2  0  0  0  0
 14 15  1  0  0  0  0
 15 16  2  0  0  0  0
 15 45  1  0  0  0  0
 16 17  1  0  0  0  0
 17 21  1  0  0  0  0
 17 18  2  0  0  0  0
 18 19  1  0  0  0  0
 19 20  2  0  0  0  0
 20 21  1  0  0  0  0
 20 46  1  0  0  0  0
 21 22  1  0  0  0  0
 22 23  1  0  0  0  0
 22 47  1  0  0  0  0
 22 48  1  0  0  0  0
 23 28  1  0  0  0  0
 23 24  1  0  0  0  0
 23 25  1  0  0  0  0
 24 49  1  0  0  0  0
 25 26  1  0  0  0  0
 25 50  1  0  0  0  0
 25 51  1  0  0  0  0
 26 27  1  0  0  0  0
 26 52  1  0  0  0  0
 26 53  1  0  0  0  0
 27 28  1  0  0  0  0
 28 54  1  0  0  0  0
 28 55  1  0  0  0  0
M  END
> <s_m_source_file>
AV-unprocessed.smi

> <i_m_source_file_index>
240

> <i_lp_mmshare_version>
43012

> <i_f3d_flags>
0

> <s_epik_input>
W09IXVtDQEBIXTFbQ0gyXVtDSDJdW0NIMl1bQ0BIXTFbQ0BASF0yW0NIMl1PW0NIMl1bQ0gyXU4yYyhuW2NIXW4zKWMoYzM0KW5bY0hdbjRbQ0gyXVtDQEBdNShbT0hdKVtDSDJdW0NIMl1PW0NIMl01

> <s_epik_cmdline>
J2VwaWtfcHl0aG9uJywgJy1waCcsICc3LjAnLCAnLXRuJywgJzgnLCAnLW1hJywgJzIwMCcsICctbWV0YWxfYmluZGluZycsICctaW1hZScsICc8aW5maWxlLm1hZT4nLCAnLW9tYWUnLCAnPG91dGZpbGUubWFlPic=

> <r_lp_tautomer_probability>
1

> <r_epik_Ionization_Penalty>
0.000130618

> <r_epik_Ionization_Penalty_Charging>
0

> <r_epik_Ionization_Penalty_Neutral>
0.000130618

> <r_epik_State_Penalty>
-0

> <r_epik_Charging_Adjusted_Penalty>
0

> <i_epik_Tot_Q>
0

> <i_epik_Tot_abs_Q>
0

> <r_epik_Metal_State_Penalty>
-0

> <b_epik_Metal_Only>
0

> <s_lp_Force_Field>
OPLS_2005

> <r_lp_Energy>
64.9026

> <b_lp_Chiralities_Consistent>
1

> <s_lp_Variant>
AV-unprocessed.smi:240-2

> <Gold.Version>
5.8.1

> <Gold.Id.Protein>
6NUR|6NUR_protein|mol2

> <Gold.PLP.Fitness>
45.9714

> <Gold.PLP.PLP>
-42.5792

> <Gold.PLP.part.hbond>
-5.7401

> <Gold.PLP.part.metal>
0.0000

> <Gold.PLP.part.buried>
-2.6641

> <Gold.PLP.part.nonpolar>
-34.2821

> <Gold.PLP.part.repulsive>
0.2078

> <Gold.PLP.ligand.clash>
0.0000

> <Gold.PLP.ligand.torsion>
2.1577

> <Gold.PLP.Chemscore.Hbond>
2.5094

> <Gold.PLP.Chemscore.CHOScore>
0.0000

> <Gold.PLP.Chemscore.Metal>
0.0000

> <Gold.Chemscore.Hbonds>
donor molecule, donor type, donor heavy atom, donor atom, acceptor molecule, acceptor atom, score
      P1  H  6896  6909       L1    16  0.99
      P1  H  6931  6943       L1    24  0.96
      P1  H  7989  7998       L1     9  0.38

> <Gold.PLP.Chemscore.Internal.Correction>
0.1793

> <Gold.Rescore>
     Score         DG    S(hbond)    S(metal)    S(lipo)     H(rot)  DE(clash)    DE(int)     intcor
     10.96     -17.08       2.14        0.00     103.91       3.00       1.42       4.71       ----

> <Gold.Chemscore.Fitness>
10.9571

> <Gold.Chemscore.DG>
-17.0836

> <Gold.Chemscore.ZeroCoef>
-5.4800

> <Gold.Chemscore.Hbond>
2.1364

> <Gold.Chemscore.Metal>
0.0000

> <Gold.Chemscore.Lipo>
103.9127

> <Gold.Chemscore.Internal_Hbond>
0.0000

> <Gold.Chemscore.DEClash>
1.4188

> <Gold.Chemscore.DEInternal>
4.7077

> <Gold.Chemscore.Rot>
3.0039

> <Gold.Chemscore.Internal.Correction>
   9.000000E+99

> <Gold.Chemscore.Hbonds>
donor molecule, donor type, donor heavy atom, donor atom, acceptor molecule, acceptor atom, score
      P1  H  6896  6909       L1    16  0.40
      P1  H  6931  6943       L1    24  0.27
      P1  H  7989  7998       L1     9  0.15
      P1  H  8011  8017       L1     9  0.01

> <Gold.Chemscore.Hbond.Weighted>
-7.1357

> <Gold.Chemscore.Metal.Weighted>
-0.0000

> <Gold.Chemscore.Lipo.Weighted>
-12.1578

> <Gold.Chemscore.Internal_Hbond.Weighted>
0.0000

> <Gold.Chemscore.DEClash.Weighted>
1.4188

> <Gold.Chemscore.DEInternal.Weighted>
4.7077

> <Gold.Chemscore.Rot.Weighted>
7.6899

> <Gold.Chemscore.Internal.Correction.Weighted>
   9.000000E+99

> <Gold.Protein.RotatedTorsions>
[ 6907 6896 6895 6894 ] final   78.02 input  -60.11 | X-H torsion
[ 7974 7965 7964 7962 ] final  -86.58 input  175.53 | X-H torsion
[ 8008 7997 7996 7995 ] final   75.94 input   59.86 | X-H torsion
[ 10167 10162 10161 10158 ] final -114.33 input  -65.29 | X-H torsion
[ 10718 10713 10712 10709 ] final  177.99 input   66.30 | X-H torsion
[ 10763 10752 10751 10750 ] final   38.29 input  -60.55 | X-H torsion
[ 11005 11000 10999 10996 ] final  127.03 input  -57.11 | X-H torsion

> <Gold.Protein.ActiveResidues>
 VAL166  LYS551  ARG553  GLY616  TRP617  ASP618  TYR619  PRO620  LYS621  CYS622 
 ASP623  PHE694  ASN695  SER759  ASP760  ASP761  ALA762  ILE779  LEU786  VAL792 
 PHE793  MET794  SER795  GLU796  ALA797  LYS798  CYS799  TRP800  GLU811  SER814 

> <Gold.Protein.RotatedAtoms>
  152.5142  134.3728  159.9323 H   0  0  0  0  0  0  0  0  0  0  0  0  # atno 6907 bound_to 6896
  151.3683  133.3858  159.2704 H   0  0  0  0  0  0  0  0  0  0  0  0  # atno 6908 bound_to 6896
  150.9598  134.9006  159.7782 H   0  0  0  0  0  0  0  0  0  0  0  0  # atno 6909 bound_to 6896
  145.4780  140.9558  143.1880 H   0  0  0  0  0  0  0  0  0  0  0  0  # atno 7974 bound_to 7965
  155.8202  140.3470  155.5510 H   0  0  0  0  0  0  0  0  0  0  0  0  # atno 8008 bound_to 7997
  155.8350  140.0933  157.1790 H   0  0  0  0  0  0  0  0  0  0  0  0  # atno 8009 bound_to 7997
  154.4004  140.1405  156.3647 H   0  0  0  0  0  0  0  0  0  0  0  0  # atno 8010 bound_to 7997
  140.1021  143.4603  152.1805 H   0  0  0  0  0  0  0  0  0  0  0  0  # atno 10167 bound_to 10162
  156.8972  130.9867  151.3041 H   0  0  0  0  0  0  0  0  0  0  0  0  # atno 10718 bound_to 10713
  153.0006  135.6254  154.2280 H   0  0  0  0  0  0  0  0  0  0  0  0  # atno 10763 bound_to 10752
  154.2023  135.2803  155.2988 H   0  0  0  0  0  0  0  0  0  0  0  0  # atno 10764 bound_to 10752
  154.5674  135.5687  153.7122 H   0  0  0  0  0  0  0  0  0  0  0  0  # atno 10765 bound_to 10752
  139.9487  134.9625  156.8795 H   0  0  0  0  0  0  0  0  0  0  0  0  # atno 11005 bound_to 11000
  144.7906  139.6337  143.7115 LP  0  0  0  0  0  0  0  0  0  0  0  0  # atno 17320 bound_to 7965
  146.2358  139.5902  142.9525 LP  0  0  0  0  0  0  0  0  0  0  0  0  # atno 17321 bound_to 7965
  139.5665  144.7438  151.4007 LP  0  0  0  0  0  0  0  0  0  0  0  0  # atno 17342 bound_to 10162
  140.6972  143.7720  150.7345 LP  0  0  0  0  0  0  0  0  0  0  0  0  # atno 17343 bound_to 10162
  157.6048  130.8539  149.8858 LP  0  0  0  0  0  0  0  0  0  0  0  0  # atno 17370 bound_to 10713
  156.0600  130.3701  150.1004 LP  0  0  0  0  0  0  0  0  0  0  0  0  # atno 17371 bound_to 10713
  140.5772  134.0386  155.7451 LP  0  0  0  0  0  0  0  0  0  0  0  0  # atno 17394 bound_to 11000
  141.1144  133.9564  157.2850 LP  0  0  0  0  0  0  0  0  0  0  0  0  # atno 17395 bound_to 11000

$$$$
