AV-unprocessed.smi:2184|AV-procd|sdf|8869|dock6
  -GOLD-   2272012 73D 1   1.00000     0.00000
 Structure written by MMmdl.
 47 48  0  0  0  0  0  0  0  0  1 V2000
  150.7298  133.1341  155.3781 C   0  0  0  0  0  0  0  0  0  0  0  0
  149.3096  133.9595  154.6097 S   0  0  0  0  0  0  0  0  0  0  0  0
  149.0955  135.3882  155.7143 C   0  0  2  0  0  0  0  0  0  0  0  0
  147.7090  136.0166  155.5038 C   0  0  0  0  0  0  0  0  0  0  0  0
  150.2040  136.4309  155.5260 C   0  0  0  0  0  0  0  0  0  0  0  0
  151.0086  136.6531  156.4316 O   0  0  0  0  0  0  0  0  0  0  0  0
  150.2272  137.0757  154.3489 N   0  0  0  0  0  0  0  0  0  0  0  0
  151.1773  138.1233  153.9919 C   0  0  0  0  0  0  0  0  0  0  0  0
  151.4110  139.1263  155.1094 C   0  0  0  0  0  0  0  0  0  0  0  0
  150.5586  140.2351  155.2737 C   0  0  0  0  0  0  0  0  0  0  0  0
  150.8150  141.1438  156.3182 C   0  0  0  0  0  0  0  0  0  0  0  0
  151.9182  140.9178  157.1757 C   0  0  0  0  0  0  0  0  0  0  0  0
  152.1944  141.8179  158.2272 N   0  0  0  0  0  0  0  0  0  0  0  0
  152.6279  141.2639  159.5078 C   0  0  0  0  0  0  0  0  0  0  0  0
  153.1650  142.3802  160.4225 C   0  0  2  0  0  0  0  0  0  0  0  0
  153.5207  141.8584  161.8185 C   0  0  0  0  0  0  0  0  0  0  0  0
  152.1685  143.3891  160.5618 O   0  0  0  0  0  0  0  0  0  0  0  0
  151.8328  143.9983  159.3179 C   0  0  2  0  0  0  0  0  0  0  0  0
  150.8300  145.1246  159.5896 C   0  0  0  0  0  0  0  0  0  0  0  0
  151.2590  142.9304  158.3674 C   0  0  0  0  0  0  0  0  0  0  0  0
  152.7360  139.8481  157.0130 N   0  0  0  0  0  0  0  0  0  0  0  0
  152.4840  138.9795  156.0119 C   0  0  0  0  0  0  0  0  0  0  0  0
  150.9424  132.1985  154.8611 H   0  0  0  0  0  0  0  0  0  0  0  0
  150.5237  132.9115  156.4251 H   0  0  0  0  0  0  0  0  0  0  0  0
  151.6173  133.7633  155.3213 H   0  0  0  0  0  0  0  0  0  0  0  0
  149.1365  135.0126  156.7379 H   0  0  0  0  0  0  0  0  0  0  0  0
  147.5623  136.8824  156.1508 H   0  0  0  0  0  0  0  0  0  0  0  0
  146.9198  135.3003  155.7333 H   0  0  0  0  0  0  0  0  0  0  0  0
  147.5681  136.3422  154.4723 H   0  0  0  0  0  0  0  0  0  0  0  0
  149.5316  136.8328  153.6583 H   0  0  0  0  0  0  0  0  0  0  0  0
  152.1229  137.6780  153.6772 H   0  0  0  0  0  0  0  0  0  0  0  0
  150.7860  138.6589  153.1266 H   0  0  0  0  0  0  0  0  0  0  0  0
  149.7246  140.3956  154.6063 H   0  0  0  0  0  0  0  0  0  0  0  0
  150.1774  142.0069  156.4377 H   0  0  0  0  0  0  0  0  0  0  0  0
  151.7863  140.7587  159.9842 H   0  0  0  0  0  0  0  0  0  0  0  0
  153.4089  140.5191  159.3488 H   0  0  0  0  0  0  0  0  0  0  0  0
  154.0598  142.8201  159.9784 H   0  0  0  0  0  0  0  0  0  0  0  0
  154.2900  141.0877  161.7650 H   0  0  0  0  0  0  0  0  0  0  0  0
  152.6490  141.4285  162.3128 H   0  0  0  0  0  0  0  0  0  0  0  0
  153.8989  142.6626  162.4501 H   0  0  0  0  0  0  0  0  0  0  0  0
  152.7321  144.4344  158.8791 H   0  0  0  0  0  0  0  0  0  0  0  0
  150.5492  145.6309  158.6659 H   0  0  0  0  0  0  0  0  0  0  0  0
  151.2548  145.8704  160.2618 H   0  0  0  0  0  0  0  0  0  0  0  0
  149.9198  144.7400  160.0510 H   0  0  0  0  0  0  0  0  0  0  0  0
  151.0370  143.3922  157.4065 H   0  0  0  0  0  0  0  0  0  0  0  0
  150.3164  142.5458  158.7592 H   0  0  0  0  0  0  0  0  0  0  0  0
  153.1625  138.1433  155.9291 H   0  0  0  0  0  0  0  0  0  0  0  0
  1  2  1  0  0  0  0
  1 23  1  0  0  0  0
  1 24  1  0  0  0  0
  1 25  1  0  0  0  0
  2  3  1  0  0  0  0
  3  4  1  0  0  0  0
  3  5  1  0  0  0  0
  3 26  1  0  0  0  0
  4 27  1  0  0  0  0
  4 28  1  0  0  0  0
  4 29  1  0  0  0  0
  5  6  2  0  0  0  0
  5  7  1  0  0  0  0
  7  8  1  0  0  0  0
  7 30  1  0  0  0  0
  8  9  1  0  0  0  0
  8 31  1  0  0  0  0
  8 32  1  0  0  0  0
  9 22  1  0  0  0  0
  9 10  2  0  0  0  0
 10 11  1  0  0  0  0
 10 33  1  0  0  0  0
 11 12  2  0  0  0  0
 11 34  1  0  0  0  0
 12 13  1  0  0  0  0
 12 21  1  0  0  0  0
 13 20  1  0  0  0  0
 13 14  1  0  0  0  0
 14 15  1  0  0  0  0
 14 35  1  0  0  0  0
 14 36  1  0  0  0  0
 15 16  1  0  0  0  0
 15 17  1  0  0  0  0
 15 37  1  0  0  0  0
 16 38  1  0  0  0  0
 16 39  1  0  0  0  0
 16 40  1  0  0  0  0
 17 18  1  0  0  0  0
 18 19  1  0  0  0  0
 18 20  1  0  0  0  0
 18 41  1  0  0  0  0
 19 42  1  0  0  0  0
 19 43  1  0  0  0  0
 19 44  1  0  0  0  0
 20 45  1  0  0  0  0
 20 46  1  0  0  0  0
 21 22  2  0  0  0  0
 22 47  1  0  0  0  0
M  END
> <s_m_source_file>
AV-unprocessed.smi

> <i_m_source_file_index>
2184

> <i_lp_mmshare_version>
43012

> <i_f3d_flags>
0

> <s_epik_input>
W0NIM11TW0NASF0oW0NIM10pQyg9TylbTkhdW0NIMl1jMVtjSF1bY0hdYyhuW2NIXTEpTjJbQ0gyXVtDQEBIXShbQ0gzXSlPW0NAQEhdKFtDSDNdKVtDSDJdMg==

> <s_epik_cmdline>
J2VwaWtfcHl0aG9uJywgJy1waCcsICc3LjAnLCAnLXRuJywgJzgnLCAnLW1hJywgJzIwMCcsICctbWV0YWxfYmluZGluZycsICctaW1hZScsICc8aW5maWxlLm1hZT4nLCAnLW9tYWUnLCAnPG91dGZpbGUubWFlPic=

> <r_lp_tautomer_probability>
1

> <r_epik_Ionization_Penalty>
0.00551702

> <r_epik_Ionization_Penalty_Charging>
0

> <r_epik_Ionization_Penalty_Neutral>
0.00551702

> <r_epik_State_Penalty>
0.00403758

> <r_epik_Charging_Adjusted_Penalty>
0.00403758

> <i_epik_Tot_Q>
0

> <i_epik_Tot_abs_Q>
0

> <r_epik_Metal_State_Penalty>
-0

> <b_epik_Metal_Only>
0

> <s_lp_Force_Field>
OPLS_2005

> <r_lp_Energy>
14.0724

> <b_lp_Chiralities_Consistent>
1

> <s_lp_Variant>
AV-unprocessed.smi:2184-1

> <Gold.Version>
5.8.1

> <Gold.Id.Protein>
6NUR|6NUR_protein|mol2

> <Gold.PLP.Fitness>
48.6030

> <Gold.PLP.PLP>
-44.0652

> <Gold.PLP.part.hbond>
-2.2726

> <Gold.PLP.part.metal>
0.0000

> <Gold.PLP.part.buried>
-5.0548

> <Gold.PLP.part.nonpolar>
-36.3899

> <Gold.PLP.part.repulsive>
0.1076

> <Gold.PLP.ligand.clash>
0.0000

> <Gold.PLP.ligand.torsion>
0.9080

> <Gold.PLP.Chemscore.Hbond>
2.0000

> <Gold.PLP.Chemscore.CHOScore>
0.0000

> <Gold.PLP.Chemscore.Metal>
0.0000

> <Gold.Chemscore.Hbonds>
donor molecule, donor type, donor heavy atom, donor atom, acceptor molecule, acceptor atom, score
      L1  H     7    30       P1  7948  1.00
      P1  H  7997  8008       L1    21  1.00

> <Gold.PLP.Chemscore.Internal.Correction>
0.3538

> <Gold.Rescore>
     Score         DG    S(hbond)    S(metal)    S(lipo)     H(rot)  DE(clash)    DE(int)     intcor
     15.35     -19.06       1.27        0.00     114.72       1.59       0.10       3.61       ----

> <Gold.Chemscore.Fitness>
15.3485

> <Gold.Chemscore.DG>
-19.0592

> <Gold.Chemscore.ZeroCoef>
-5.4800

> <Gold.Chemscore.Hbond>
1.2692

> <Gold.Chemscore.Metal>
0.0000

> <Gold.Chemscore.Lipo>
114.7237

> <Gold.Chemscore.Internal_Hbond>
0.0000

> <Gold.Chemscore.DEClash>
0.1028

> <Gold.Chemscore.DEInternal>
3.6080

> <Gold.Chemscore.Rot>
1.5947

> <Gold.Chemscore.Internal.Correction>
   9.000000E+99

> <Gold.Chemscore.Hbonds>
donor molecule, donor type, donor heavy atom, donor atom, acceptor molecule, acceptor atom, score
      L1  H     7    30       P1  7948  0.78
      P1  H  7997  8008       L1    21  0.25

> <Gold.Chemscore.Hbond.Weighted>
-4.2390

> <Gold.Chemscore.Metal.Weighted>
-0.0000

> <Gold.Chemscore.Lipo.Weighted>
-13.4227

> <Gold.Chemscore.Internal_Hbond.Weighted>
0.0000

> <Gold.Chemscore.DEClash.Weighted>
0.1028

> <Gold.Chemscore.DEInternal.Weighted>
3.6080

> <Gold.Chemscore.Rot.Weighted>
4.0824

> <Gold.Chemscore.Internal.Correction.Weighted>
   9.000000E+99

> <Gold.Protein.RotatedTorsions>
[ 6907 6896 6895 6894 ] final -176.35 input  -60.11 | X-H torsion
[ 7974 7965 7964 7962 ] final -116.01 input  175.53 | X-H torsion
[ 8008 7997 7996 7995 ] final  -69.92 input   59.86 | X-H torsion
[ 10167 10162 10161 10158 ] final   26.72 input  -65.29 | X-H torsion
[ 10718 10713 10712 10709 ] final -140.78 input   66.30 | X-H torsion
[ 10763 10752 10751 10750 ] final  153.18 input  -60.55 | X-H torsion
[ 11005 11000 10999 10996 ] final -159.90 input  -57.11 | X-H torsion

> <Gold.Protein.ActiveResidues>
 VAL166  LYS551  ARG553  GLY616  TRP617  ASP618  TYR619  PRO620  LYS621  CYS622 
 ASP623  PHE694  ASN695  SER759  ASP760  ASP761  ALA762  ILE779  LEU786  VAL792 
 PHE793  MET794  SER795  GLU796  ALA797  LYS798  CYS799  TRP800  GLU811  SER814 

> <Gold.Protein.RotatedAtoms>
  151.6033  133.3354  159.3051 H   0  0  0  0  0  0  0  0  0  0  0  0  # atno 6907 bound_to 6896
  150.8196  134.7400  159.6772 H   0  0  0  0  0  0  0  0  0  0  0  0  # atno 6908 bound_to 6896
  152.4290  134.5819  160.0002 H   0  0  0  0  0  0  0  0  0  0  0  0  # atno 6909 bound_to 6896
  145.1018  140.8556  143.3922 H   0  0  0  0  0  0  0  0  0  0  0  0  # atno 7974 bound_to 7965
  154.4974  140.0844  156.7725 H   0  0  0  0  0  0  0  0  0  0  0  0  # atno 8008 bound_to 7997
  155.4084  140.3440  155.4243 H   0  0  0  0  0  0  0  0  0  0  0  0  # atno 8009 bound_to 7997
  156.1412  140.1530  156.8906 H   0  0  0  0  0  0  0  0  0  0  0  0  # atno 8010 bound_to 7997
  140.4999  144.0332  150.6329 H   0  0  0  0  0  0  0  0  0  0  0  0  # atno 10167 bound_to 10162
  156.3263  130.7561  151.1670 H   0  0  0  0  0  0  0  0  0  0  0  0  # atno 10718 bound_to 10713
  154.1320  135.2826  155.3183 H   0  0  0  0  0  0  0  0  0  0  0  0  # atno 10763 bound_to 10752
  154.6349  135.5422  153.7725 H   0  0  0  0  0  0  0  0  0  0  0  0  # atno 10764 bound_to 10752
  153.0278  135.6472  154.1470 H   0  0  0  0  0  0  0  0  0  0  0  0  # atno 10765 bound_to 10752
  140.6375  134.4586  157.5232 H   0  0  0  0  0  0  0  0  0  0  0  0  # atno 11005 bound_to 11000
  145.0947  139.2865  143.5717 LP  0  0  0  0  0  0  0  0  0  0  0  0  # atno 17320 bound_to 7965
  146.3529  140.0496  142.8637 LP  0  0  0  0  0  0  0  0  0  0  0  0  # atno 17321 bound_to 7965
  140.3625  143.2900  152.0368 LP  0  0  0  0  0  0  0  0  0  0  0  0  # atno 17342 bound_to 10162
  139.4870  144.6292  151.7103 LP  0  0  0  0  0  0  0  0  0  0  0  0  # atno 17343 bound_to 10162
  157.7422  131.0494  150.5044 LP  0  0  0  0  0  0  0  0  0  0  0  0  # atno 17370 bound_to 10713
  156.5203  130.4160  149.6254 LP  0  0  0  0  0  0  0  0  0  0  0  0  # atno 17371 bound_to 10713
  139.9093  134.8381  156.1589 LP  0  0  0  0  0  0  0  0  0  0  0  0  # atno 17394 bound_to 11000
  141.0631  133.6832  156.1991 LP  0  0  0  0  0  0  0  0  0  0  0  0  # atno 17395 bound_to 11000

$$$$
