AV-unprocessed.smi:38|AV-procd|sdf|341|dock7
  -GOLD-   2262016183D 1   1.00000     0.00000
 Structure written by MMmdl.
 28 29  0  0  0  0  0  0  0  0  1 V2000
  140.5390  135.1116  153.9654 O   0  0  0  0  0  0  0  0  0  0  0  0
  141.6731  135.4756  153.6608 C   0  0  0  0  0  0  0  0  0  0  0  0
  142.7365  134.5688  153.7006 N   0  0  0  0  0  0  0  0  0  0  0  0
  144.0637  134.8593  153.3790 C   0  0  0  0  0  0  0  0  0  0  0  0
  144.9150  133.9728  153.4340 O   0  0  0  0  0  0  0  0  0  0  0  0
  144.3568  136.1855  152.9904 N   0  0  0  0  0  0  0  0  0  0  0  0
  145.7762  136.5632  152.6334 C   0  0  1  0  0  0  0  0  0  0  0  0
  145.8203  137.3370  151.3151 C   0  0  0  0  0  0  0  0  0  0  0  0
  146.8894  138.3677  151.6111 C   0  0  1  0  0  0  0  0  0  0  0  0
  146.7307  139.5088  150.7929 O   0  0  0  0  0  0  0  0  0  0  0  0
  146.6386  138.6692  153.0911 C   0  0  2  0  0  0  0  0  0  0  0  0
  147.8715  139.2247  153.8202 C   0  0  0  0  0  0  0  0  0  0  0  0
  149.0162  138.4730  153.4781 O   0  0  0  0  0  0  0  0  0  0  0  0
  146.2906  137.3946  153.6322 O   0  0  0  0  0  0  0  0  0  0  0  0
  143.3295  137.1176  152.9261 C   0  0  0  0  0  0  0  0  0  0  0  0
  142.0451  136.8221  153.2365 C   0  0  0  0  0  0  0  0  0  0  0  0
  141.1038  137.7771  153.1483 F   0  0  0  0  0  0  0  0  0  0  0  0
  142.5256  133.6227  153.9829 H   0  0  0  0  0  0  0  0  0  0  0  0
  146.3793  135.6541  152.6231 H   0  0  0  0  0  0  0  0  0  0  0  0
  147.8797  137.9328  151.4670 H   0  0  0  0  0  0  0  0  0  0  0  0
  145.7878  139.3466  153.1852 H   0  0  0  0  0  0  0  0  0  0  0  0
  146.0545  136.6812  150.4761 H   0  0  0  0  0  0  0  0  0  0  0  0
  144.8564  137.8171  151.1353 H   0  0  0  0  0  0  0  0  0  0  0  0
  147.5666  139.9429  150.7149 H   0  0  0  0  0  0  0  0  0  0  0  0
  148.0262  140.2798  153.5923 H   0  0  0  0  0  0  0  0  0  0  0  0
  147.7377  139.1416  154.8991 H   0  0  0  0  0  0  0  0  0  0  0  0
  148.7628  137.8031  152.8618 H   0  0  0  0  0  0  0  0  0  0  0  0
  143.5493  138.1264  152.6112 H   0  0  0  0  0  0  0  0  0  0  0  0
  1  2  2  0  0  0  0
  2 16  1  0  0  0  0
  2  3  1  0  0  0  0
  3 18  1  0  0  0  0
  3  4  1  0  0  0  0
  4  5  2  0  0  0  0
  4  6  1  0  0  0  0
  6  7  1  0  0  0  0
  6 15  1  0  0  0  0
  7 19  1  0  0  0  0
  7 14  1  0  0  0  0
  7  8  1  0  0  0  0
  8  9  1  0  0  0  0
  8 22  1  0  0  0  0
  8 23  1  0  0  0  0
  9 20  1  0  0  0  0
  9 10  1  0  0  0  0
  9 11  1  0  0  0  0
 10 24  1  0  0  0  0
 11 21  1  0  0  0  0
 11 12  1  0  0  0  0
 11 14  1  0  0  0  0
 12 13  1  0  0  0  0
 12 25  1  0  0  0  0
 12 26  1  0  0  0  0
 13 27  1  0  0  0  0
 15 16  2  0  0  0  0
 15 28  1  0  0  0  0
 16 17  1  0  0  0  0
M  END
> <s_m_source_file>
AV-unprocessed.smi

> <i_m_source_file_index>
38

> <i_lp_mmshare_version>
43012

> <i_f3d_flags>
0

> <s_epik_input>
Tz1jMVtuSF1jKD1PKW4oW2NIXWMxRilbQ0BIXTJbQ0gyXVtDQEhdKFtPSF0pW0NASF0oTzIpW0NIMl1bT0hd

> <s_epik_cmdline>
J2VwaWtfcHl0aG9uJywgJy1waCcsICc3LjAnLCAnLXRuJywgJzgnLCAnLW1hJywgJzIwMCcsICctbWV0YWxfYmluZGluZycsICctaW1hZScsICc8aW5maWxlLm1hZT4nLCAnLW9tYWUnLCAnPG91dGZpbGUubWFlPic=

> <r_lp_tautomer_probability>
0.999537

> <r_epik_Ionization_Penalty>
0.0357432

> <r_epik_Ionization_Penalty_Charging>
0.0357431

> <r_epik_Ionization_Penalty_Neutral>
1.19946e-07

> <r_epik_State_Penalty>
0.0298169

> <r_epik_Charging_Adjusted_Penalty>
0.06556

> <i_epik_Tot_Q>
0

> <i_epik_Tot_abs_Q>
0

> <r_epik_Metal_State_Penalty>
2.348

> <b_epik_Metal_Only>
0

> <s_epik_Chemistry_Notes>
This compound contains an acetal/aminal-like group ( X-CH(R)-Y where X, Y are N, S, or O) that may be acid/base labile, releasing an aldehyde.

> <s_lp_Force_Field>
OPLS_2005

> <r_lp_Energy>
27.15

> <b_lp_Chiralities_Consistent>
1

> <s_lp_Variant>
AV-unprocessed.smi:38-7

> <Gold.Version>
5.8.1

> <Gold.Id.Protein>
6NUR|6NUR_protein|mol2

> <Gold.PLP.Fitness>
40.9445

> <Gold.PLP.PLP>
-26.3303

> <Gold.PLP.part.hbond>
-7.3077

> <Gold.PLP.part.metal>
0.0000

> <Gold.PLP.part.buried>
3.0483

> <Gold.PLP.part.nonpolar>
-22.3596

> <Gold.PLP.part.repulsive>
0.4441

> <Gold.PLP.ligand.clash>
0.0000

> <Gold.PLP.ligand.torsion>
0.3211

> <Gold.PLP.Chemscore.Hbond>
3.9663

> <Gold.PLP.Chemscore.CHOScore>
1.1160

> <Gold.PLP.Chemscore.Metal>
0.0000

> <Gold.Chemscore.Hbonds>
donor molecule, donor type, donor heavy atom, donor atom, acceptor molecule, acceptor atom, score
      L1  H     3    18       P1 10957  1.00
      L1  H    10    24       P1  7957  1.00
      L1  H    13    27       P1  7948  1.00
      P1  H 11000 11005       L1     1  1.00
      L1  C    15    28       P1 10171  0.17
      L1  C    15    28       P1 10175  1.00

> <Gold.PLP.Chemscore.Internal.Correction>
0.0097

> <Gold.Rescore>
     Score         DG    S(hbond)    S(metal)    S(lipo)     H(rot)  DE(clash)    DE(int)     intcor
     13.32     -14.75       3.87        0.00      32.42       2.91       1.16       0.27       ----

> <Gold.Chemscore.Fitness>
13.3208

> <Gold.Chemscore.DG>
-14.7466

> <Gold.Chemscore.ZeroCoef>
-5.4800

> <Gold.Chemscore.Hbond>
3.8725

> <Gold.Chemscore.Metal>
0.0000

> <Gold.Chemscore.Lipo>
32.4161

> <Gold.Chemscore.Internal_Hbond>
0.0000

> <Gold.Chemscore.DEClash>
1.1573

> <Gold.Chemscore.DEInternal>
0.2685

> <Gold.Chemscore.Rot>
2.9141

> <Gold.Chemscore.Internal.Correction>
   9.000000E+99

> <Gold.Chemscore.Hbonds>
donor molecule, donor type, donor heavy atom, donor atom, acceptor molecule, acceptor atom, score
      L1  H     3    18       P1 10957  0.94
      L1  H    10    24       P1  7957  0.62
      L1  H    13    27       P1  7948  0.98
      P1  H 11000 11005       L1     1  0.94

> <Gold.Chemscore.Hbond.Weighted>
-12.9340

> <Gold.Chemscore.Metal.Weighted>
-0.0000

> <Gold.Chemscore.Lipo.Weighted>
-3.7927

> <Gold.Chemscore.Internal_Hbond.Weighted>
0.0000

> <Gold.Chemscore.DEClash.Weighted>
1.1573

> <Gold.Chemscore.DEInternal.Weighted>
0.2685

> <Gold.Chemscore.Rot.Weighted>
7.4601

> <Gold.Chemscore.Internal.Correction.Weighted>
   9.000000E+99

> <Gold.Protein.RotatedTorsions>
[ 6907 6896 6895 6894 ] final  121.07 input  -60.11 | X-H torsion
[ 7974 7965 7964 7962 ] final  155.35 input  175.53 | X-H torsion
[ 8008 7997 7996 7995 ] final  142.55 input   59.86 | X-H torsion
[ 10167 10162 10161 10158 ] final  -36.69 input  -65.29 | X-H torsion
[ 10718 10713 10712 10709 ] final  -53.91 input   66.30 | X-H torsion
[ 10763 10752 10751 10750 ] final  169.11 input  -60.55 | X-H torsion
[ 11005 11000 10999 10996 ] final   49.11 input  -57.11 | X-H torsion

> <Gold.Protein.ActiveResidues>
 VAL166  LYS551  ARG553  GLY616  TRP617  ASP618  TYR619  PRO620  LYS621  CYS622 
 ASP623  PHE694  ASN695  SER759  ASP760  ASP761  ALA762  ILE779  LEU786  VAL792 
 PHE793  MET794  SER795  GLU796  ALA797  LYS798  CYS799  TRP800  GLU811  SER814 

> <Gold.Protein.RotatedAtoms>
  152.4350  133.7344  159.6605 H   0  0  0  0  0  0  0  0  0  0  0  0  # atno 6907 bound_to 6896
  150.8233  133.8205  159.3135 H   0  0  0  0  0  0  0  0  0  0  0  0  # atno 6908 bound_to 6896
  151.5881  135.1057  160.0084 H   0  0  0  0  0  0  0  0  0  0  0  0  # atno 6909 bound_to 6896
  144.8030  139.7057  143.6174 H   0  0  0  0  0  0  0  0  0  0  0  0  # atno 7974 bound_to 7965
  156.2947  140.2286  156.4745 H   0  0  0  0  0  0  0  0  0  0  0  0  # atno 8008 bound_to 7997
  154.7906  140.0454  157.1219 H   0  0  0  0  0  0  0  0  0  0  0  0  # atno 8009 bound_to 7997
  154.9650  140.3059  155.5017 H   0  0  0  0  0  0  0  0  0  0  0  0  # atno 8010 bound_to 7997
  140.7136  143.3392  151.2395 H   0  0  0  0  0  0  0  0  0  0  0  0  # atno 10167 bound_to 10162
  156.1495  130.4152  149.9969 H   0  0  0  0  0  0  0  0  0  0  0  0  # atno 10718 bound_to 10713
  154.3784  135.2753  155.2226 H   0  0  0  0  0  0  0  0  0  0  0  0  # atno 10763 bound_to 10752
  154.4343  135.5970  153.6092 H   0  0  0  0  0  0  0  0  0  0  0  0  # atno 10764 bound_to 10752
  152.9835  135.6003  154.4024 H   0  0  0  0  0  0  0  0  0  0  0  0  # atno 10765 bound_to 10752
  140.1132  134.4927  155.8660 H   0  0  0  0  0  0  0  0  0  0  0  0  # atno 11005 bound_to 11000
  146.2316  139.5824  142.9551 LP  0  0  0  0  0  0  0  0  0  0  0  0  # atno 17320 bound_to 7965
  145.5506  141.0413  143.2280 LP  0  0  0  0  0  0  0  0  0  0  0  0  # atno 17321 bound_to 7965
  139.6895  143.9716  152.2852 LP  0  0  0  0  0  0  0  0  0  0  0  0  # atno 17342 bound_to 10162
  139.9373  144.6704  150.8302 LP  0  0  0  0  0  0  0  0  0  0  0  0  # atno 17343 bound_to 10162
  156.7831  130.9228  151.3646 LP  0  0  0  0  0  0  0  0  0  0  0  0  # atno 17370 bound_to 10713
  157.6645  130.8995  149.9901 LP  0  0  0  0  0  0  0  0  0  0  0  0  # atno 17371 bound_to 10713
  141.2135  133.6734  156.6745 LP  0  0  0  0  0  0  0  0  0  0  0  0  # atno 17394 bound_to 11000
  140.3063  134.8122  157.4140 LP  0  0  0  0  0  0  0  0  0  0  0  0  # atno 17395 bound_to 11000

$$$$
