AV-unprocessed.smi:560|AV-procd|sdf|2933|dock7
  -GOLD-   2262023433D 1   1.00000     0.00000
 Structure written by MMmdl.
 41 42  0  0  0  0  0  0  0  0  3 V2000
  150.3747  141.6848  156.1387 C   0  0  0  0  0  0  0  0  0  0  0  0
  151.0098  141.3648  157.5070 C   0  0  1  0  0  0  0  0  0  0  0  0
  152.0552  140.2410  157.4277 C   0  0  0  0  0  0  0  0  0  0  0  0
  152.4955  139.8658  156.3402 O   0  0  0  0  0  0  0  0  0  0  0  0
  152.4446  139.7088  158.5975 N   0  0  0  0  0  0  0  0  0  0  0  0
  153.4283  138.6416  158.7512 C   0  0  2  0  0  0  0  0  0  0  0  0
  153.0096  137.3907  157.9561 C   0  0  0  0  0  0  0  0  0  0  0  0
  153.9805  136.2246  158.2013 C   0  0  0  0  0  0  0  0  0  0  0  0
  154.0840  135.9134  159.6516 N   0  3  1  0  0  0  0  0  0  0  0  0
  154.8908  134.6994  159.9380 C   0  0  0  0  0  0  0  0  0  0  0  0
  154.7100  133.6502  158.8347 C   0  0  0  0  0  0  0  0  0  0  0  0
  153.4396  133.2060  158.7500 N   0  5  0  0  0  0  0  0  0  0  0  0
  155.6748  133.3127  158.1531 O   0  0  0  0  0  0  0  0  0  0  0  0
  154.5321  137.0923  160.4340 C   0  0  0  0  0  0  0  0  0  0  0  0
  153.5774  138.2821  160.2385 C   0  0  0  0  0  0  0  0  0  0  0  0
  151.5828  142.5480  158.1378 N   0  0  0  0  0  0  0  0  0  0  0  0
  151.6081  143.8397  157.6522 C   0  0  0  0  0  0  0  0  0  0  0  0
  152.2150  144.6211  158.5930 C   0  0  0  0  0  0  0  0  0  0  0  0
  152.5211  143.7105  159.6420 C   0  0  0  0  0  0  0  0  0  0  0  0
  152.1360  142.4745  159.3711 N   0  0  0  0  0  0  0  0  0  0  0  0
  149.9030  140.8007  155.7084 H   0  0  0  0  0  0  0  0  0  0  0  0
  151.1082  142.0506  155.4191 H   0  0  0  0  0  0  0  0  0  0  0  0
  149.6037  142.4492  156.2398 H   0  0  0  0  0  0  0  0  0  0  0  0
  150.2058  141.0140  158.1563 H   0  0  0  0  0  0  0  0  0  0  0  0
  152.0323  140.0746  159.4437 H   0  0  0  0  0  0  0  0  0  0  0  0
  154.3949  138.9924  158.3841 H   0  0  0  0  0  0  0  0  0  0  0  0
  152.0017  137.0872  158.2435 H   0  0  0  0  0  0  0  0  0  0  0  0
  152.9718  137.6147  156.8894 H   0  0  0  0  0  0  0  0  0  0  0  0
  153.6320  135.3504  157.6508 H   0  0  0  0  0  0  0  0  0  0  0  0
  154.9684  136.4705  157.8090 H   0  0  0  0  0  0  0  0  0  0  0  0
  155.9440  134.9604  160.0545 H   0  0  0  0  0  0  0  0  0  0  0  0
  154.5760  134.2469  160.8799 H   0  0  0  0  0  0  0  0  0  0  0  0
  153.2764  132.2346  158.4580 H   0  0  0  0  0  0  0  0  0  0  0  0
  154.5706  136.8366  161.4935 H   0  0  0  0  0  0  0  0  0  0  0  0
  155.5454  137.3653  160.1351 H   0  0  0  0  0  0  0  0  0  0  0  0
  153.9443  139.1438  160.7973 H   0  0  0  0  0  0  0  0  0  0  0  0
  152.6024  138.0325  160.6602 H   0  0  0  0  0  0  0  0  0  0  0  0
  151.1971  144.0934  156.6860 H   0  0  0  0  0  0  0  0  0  0  0  0
  152.4076  145.6822  158.5418 H   0  0  0  0  0  0  0  0  0  0  0  0
  153.0044  143.9103  160.5870 H   0  0  0  0  0  0  0  0  0  0  0  0
  153.1519  135.6922  159.9742 H   0  0  0  0  0  0  0  0  0  0  0  0
  1  2  1  0  0  0  0
  1 21  1  0  0  0  0
  1 22  1  0  0  0  0
  1 23  1  0  0  0  0
  2  3  1  0  0  0  0
  2 16  1  0  0  0  0
  2 24  1  0  0  0  0
  3  4  2  0  0  0  0
  3  5  1  0  0  0  0
  5  6  1  0  0  0  0
  5 25  1  0  0  0  0
  6 15  1  0  0  0  0
  6  7  1  0  0  0  0
  6 26  1  0  0  0  0
  7  8  1  0  0  0  0
  7 27  1  0  0  0  0
  7 28  1  0  0  0  0
  8  9  1  0  0  0  0
  8 29  1  0  0  0  0
  8 30  1  0  0  0  0
  9 10  1  0  0  0  0
  9 14  1  0  0  0  0
  9 41  1  0  0  0  0
 10 11  1  0  0  0  0
 10 31  1  0  0  0  0
 10 32  1  0  0  0  0
 11 12  1  0  0  0  0
 11 13  2  0  0  0  0
 12 33  1  0  0  0  0
 14 15  1  0  0  0  0
 14 34  1  0  0  0  0
 14 35  1  0  0  0  0
 15 36  1  0  0  0  0
 15 37  1  0  0  0  0
 16 20  1  0  0  0  0
 16 17  1  0  0  0  0
 17 18  2  0  0  0  0
 17 38  1  0  0  0  0
 18 19  1  0  0  0  0
 18 39  1  0  0  0  0
 19 20  2  0  0  0  0
 19 40  1  0  0  0  0
M  CHG  1   9   1
M  CHG  1  12  -1
M  END
> <s_m_source_file>
AV-unprocessed.smi

> <i_m_source_file_index>
560

> <i_lp_mmshare_version>
43012

> <i_f3d_flags>
0

> <s_epik_input>
bjFbY0hdW2NIXVtjSF1uMVtDQEhdKFtDSDNdKUMoPU8pW05IXVtDSF0yW0NIMl1bQ0gyXU4oW0NIMl1bQ0gyXTIpW0NIMl1DKD1PKVtOSDJd

> <s_epik_cmdline>
J2VwaWtfcHl0aG9uJywgJy1waCcsICc3LjAnLCAnLXRuJywgJzgnLCAnLW1hJywgJzIwMCcsICctbWV0YWxfYmluZGluZycsICctaW1hZScsICc8aW5maWxlLm1hZT4nLCAnLW9tYWUnLCAnPG91dGZpbGUubWFlPic=

> <r_lp_tautomer_probability>
1

> <r_epik_Ionization_Penalty>
5.71084

> <r_epik_Ionization_Penalty_Charging>
5.71081

> <r_epik_Ionization_Penalty_Neutral>
3.04611e-05

> <r_epik_State_Penalty>
6.71277

> <r_epik_Charging_Adjusted_Penalty>
12.4236

> <i_epik_Tot_Q>
0

> <i_epik_Tot_abs_Q>
2

> <r_epik_Metal_State_Penalty>
2.67562

> <b_epik_Metal_Only>
1

> <s_lp_Force_Field>
OPLS_2005

> <r_lp_Energy>
10.2497

> <b_lp_Chiralities_Consistent>
1

> <s_lp_Variant>
AV-unprocessed.smi:560-8

> <Gold.Version>
5.8.1

> <Gold.Id.Protein>
6NUR|6NUR_protein|mol2

> <Gold.PLP.Fitness>
42.0482

> <Gold.PLP.PLP>
-30.8872

> <Gold.PLP.part.hbond>
-2.0000

> <Gold.PLP.part.metal>
0.0000

> <Gold.PLP.part.buried>
-3.9498

> <Gold.PLP.part.nonpolar>
-24.2281

> <Gold.PLP.part.repulsive>
0.1839

> <Gold.PLP.ligand.clash>
0.0081

> <Gold.PLP.ligand.torsion>
0.4817

> <Gold.PLP.Chemscore.Hbond>
3.0000

> <Gold.PLP.Chemscore.CHOScore>
1.0000

> <Gold.PLP.Chemscore.Metal>
0.0000

> <Gold.Chemscore.Hbonds>
donor molecule, donor type, donor heavy atom, donor atom, acceptor molecule, acceptor atom, score
      P1  H  6896  6908       L1    12  1.20
      P1  H  7997  8009       L1     4  1.00
      L1  C    17    38       P1  8028  0.88

> <Gold.PLP.Chemscore.Internal.Correction>
0.1325

> <Gold.Rescore>
     Score         DG    S(hbond)    S(metal)    S(lipo)     H(rot)  DE(clash)    DE(int)     intcor
     11.64     -13.85       1.90        0.00      71.32       2.47       0.03       2.18       ----

> <Gold.Chemscore.Fitness>
11.6435

> <Gold.Chemscore.DG>
-13.8537

> <Gold.Chemscore.ZeroCoef>
-5.4800

> <Gold.Chemscore.Hbond>
1.9044

> <Gold.Chemscore.Metal>
0.0000

> <Gold.Chemscore.Lipo>
71.3241

> <Gold.Chemscore.Internal_Hbond>
0.0000

> <Gold.Chemscore.DEClash>
0.0317

> <Gold.Chemscore.DEInternal>
2.1785

> <Gold.Chemscore.Rot>
2.4734

> <Gold.Chemscore.Internal.Correction>
   9.000000E+99

> <Gold.Chemscore.Hbonds>
donor molecule, donor type, donor heavy atom, donor atom, acceptor molecule, acceptor atom, score
      P1  H  6896  6908       L1    12  0.42
      P1  H  7997  8009       L1     4  0.74

> <Gold.Chemscore.Hbond.Weighted>
-6.3606

> <Gold.Chemscore.Metal.Weighted>
-0.0000

> <Gold.Chemscore.Lipo.Weighted>
-8.3449

> <Gold.Chemscore.Internal_Hbond.Weighted>
0.0000

> <Gold.Chemscore.DEClash.Weighted>
0.0317

> <Gold.Chemscore.DEInternal.Weighted>
2.1785

> <Gold.Chemscore.Rot.Weighted>
6.3318

> <Gold.Chemscore.Internal.Correction.Weighted>
   9.000000E+99

> <Gold.Protein.RotatedTorsions>
[ 6907 6896 6895 6894 ] final    8.81 input  -60.11 | X-H torsion
[ 7974 7965 7964 7962 ] final  139.95 input  175.53 | X-H torsion
[ 8008 7997 7996 7995 ] final -158.30 input   59.86 | X-H torsion
[ 10167 10162 10161 10158 ] final -108.57 input  -65.29 | X-H torsion
[ 10718 10713 10712 10709 ] final -163.86 input   66.30 | X-H torsion
[ 10763 10752 10751 10750 ] final   33.46 input  -60.55 | X-H torsion
[ 11005 11000 10999 10996 ] final   -1.39 input  -57.11 | X-H torsion

> <Gold.Protein.ActiveResidues>
 VAL166  LYS551  ARG553  GLY616  TRP617  ASP618  TYR619  PRO620  LYS621  CYS622 
 ASP623  PHE694  ASN695  SER759  ASP760  ASP761  ALA762  ILE779  LEU786  VAL792 
 PHE793  MET794  SER795  GLU796  ALA797  LYS798  CYS799  TRP800  GLU811  SER814 

> <Gold.Protein.RotatedAtoms>
  151.7120  135.0911  160.0269 H   0  0  0  0  0  0  0  0  0  0  0  0  # atno 6907 bound_to 6896
  152.3656  133.6348  159.6056 H   0  0  0  0  0  0  0  0  0  0  0  0  # atno 6908 bound_to 6896
  150.7635  133.9270  159.3457 H   0  0  0  0  0  0  0  0  0  0  0  0  # atno 6909 bound_to 6896
  144.9231  139.5142  143.5654 H   0  0  0  0  0  0  0  0  0  0  0  0  # atno 7974 bound_to 7965
  155.7455  140.0820  157.2225 H   0  0  0  0  0  0  0  0  0  0  0  0  # atno 8008 bound_to 7997
  154.4017  140.1570  156.2720 H   0  0  0  0  0  0  0  0  0  0  0  0  # atno 8009 bound_to 7997
  155.8980  140.3411  155.6008 H   0  0  0  0  0  0  0  0  0  0  0  0  # atno 8010 bound_to 7997
  140.1647  143.4091  152.1399 H   0  0  0  0  0  0  0  0  0  0  0  0  # atno 10167 bound_to 10162
  156.6308  130.8929  151.2977 H   0  0  0  0  0  0  0  0  0  0  0  0  # atno 10718 bound_to 10713
  153.0211  135.6386  154.1515 H   0  0  0  0  0  0  0  0  0  0  0  0  # atno 10763 bound_to 10752
  154.1250  135.2844  155.3201 H   0  0  0  0  0  0  0  0  0  0  0  0  # atno 10764 bound_to 10752
  154.6236  135.5516  153.7664 H   0  0  0  0  0  0  0  0  0  0  0  0  # atno 10765 bound_to 10752
  140.6468  133.9440  155.8357 H   0  0  0  0  0  0  0  0  0  0  0  0  # atno 11005 bound_to 11000
  146.3214  139.8125  142.8943 LP  0  0  0  0  0  0  0  0  0  0  0  0  # atno 17320 bound_to 7965
  145.3263  141.0256  143.3471 LP  0  0  0  0  0  0  0  0  0  0  0  0  # atno 17321 bound_to 7965
  139.5365  144.7214  151.4876 LP  0  0  0  0  0  0  0  0  0  0  0  0  # atno 17342 bound_to 10162
  140.6620  143.8477  150.6899 LP  0  0  0  0  0  0  0  0  0  0  0  0  # atno 17343 bound_to 10162
  157.7200  130.9546  150.1403 LP  0  0  0  0  0  0  0  0  0  0  0  0  # atno 17370 bound_to 10713
  156.2236  130.3676  149.8527 LP  0  0  0  0  0  0  0  0  0  0  0  0  # atno 17371 bound_to 10713
  141.0566  134.0407  157.3714 LP  0  0  0  0  0  0  0  0  0  0  0  0  # atno 17394 bound_to 11000
  139.9060  135.0179  156.7487 LP  0  0  0  0  0  0  0  0  0  0  0  0  # atno 17395 bound_to 11000

$$$$
