AV-unprocessed.smi:1426|AV-procd|sdf|5805|dock10
  -GOLD-   22720 5463D 1   1.00000     0.00000
 Structure written by MMmdl.
 43 45  0  0  0  0  0  0  0  0  1 V2000
  149.3305  134.9249  155.9191 O   0  0  0  0  0  0  0  0  0  0  0  0
  149.0404  135.1412  154.7430 C   0  0  0  0  0  0  0  0  0  0  0  0
  148.8781  136.3718  154.2362 N   0  0  0  0  0  0  0  0  0  0  0  0
  148.9992  137.6187  154.9854 C   0  0  0  0  0  0  0  0  0  0  0  0
  150.2585  138.4071  154.5806 C   0  0  2  0  0  0  0  0  0  0  0  0
  151.5478  137.8170  155.1146 C   0  0  0  0  0  0  0  0  0  0  0  0
  152.5155  138.9889  154.9771 C   0  0  0  0  0  0  0  0  0  0  0  0
  151.7272  140.1670  155.1234 O   0  0  0  0  0  0  0  0  0  0  0  0
  150.3430  139.8312  155.1332 C   0  0  0  0  0  0  0  0  0  0  0  0
  148.8539  134.2041  153.7978 N   0  0  0  0  0  0  0  0  0  0  0  0
  148.9547  132.7847  153.8942 C   0  0  0  0  0  0  0  0  0  0  0  0
  149.9137  132.1418  154.7169 C   0  0  0  0  0  0  0  0  0  0  0  0
  149.9741  130.7378  154.7408 C   0  0  0  0  0  0  0  0  0  0  0  0
  149.0699  130.0191  153.9423 C   0  0  0  0  0  0  0  0  0  0  0  0
  148.1384  130.6127  153.1705 N   0  0  0  0  0  0  0  0  0  0  0  0
  148.0584  131.9659  153.1477 C   0  0  0  0  0  0  0  0  0  0  0  0
  147.0415  132.5314  152.3449 N   0  0  0  0  0  0  0  0  0  0  0  0
  147.3829  133.3670  151.1980 C   0  0  0  0  0  0  0  0  0  0  0  0
  146.1047  133.4381  150.3679 C   0  0  0  0  0  0  0  0  0  0  0  0
  145.5192  132.0426  150.5584 C   0  0  0  0  0  0  0  0  0  0  0  0
  145.9065  131.6815  151.9963 C   0  0  0  0  0  0  0  0  0  0  0  0
  148.6473  136.4535  153.2567 H   0  0  0  0  0  0  0  0  0  0  0  0
  148.1058  138.2348  154.8684 H   0  0  0  0  0  0  0  0  0  0  0  0
  149.0543  137.3643  156.0442 H   0  0  0  0  0  0  0  0  0  0  0  0
  150.3243  138.4505  153.4920 H   0  0  0  0  0  0  0  0  0  0  0  0
  151.4367  137.5478  156.1661 H   0  0  0  0  0  0  0  0  0  0  0  0
  151.8742  136.9314  154.5687 H   0  0  0  0  0  0  0  0  0  0  0  0
  153.3189  138.9529  155.7133 H   0  0  0  0  0  0  0  0  0  0  0  0
  152.9668  138.9956  153.9841 H   0  0  0  0  0  0  0  0  0  0  0  0
  149.7581  140.5425  154.5494 H   0  0  0  0  0  0  0  0  0  0  0  0
  149.9880  139.8674  156.1640 H   0  0  0  0  0  0  0  0  0  0  0  0
  148.6888  134.5528  152.8650 H   0  0  0  0  0  0  0  0  0  0  0  0
  150.6021  132.6920  155.3382 H   0  0  0  0  0  0  0  0  0  0  0  0
  150.6989  130.2250  155.3555 H   0  0  0  0  0  0  0  0  0  0  0  0
  149.0877  128.9394  153.9294 H   0  0  0  0  0  0  0  0  0  0  0  0
  147.7181  134.3557  151.5122 H   0  0  0  0  0  0  0  0  0  0  0  0
  148.1738  132.9094  150.6022 H   0  0  0  0  0  0  0  0  0  0  0  0
  145.4291  134.1871  150.7839 H   0  0  0  0  0  0  0  0  0  0  0  0
  146.2887  133.6871  149.3225 H   0  0  0  0  0  0  0  0  0  0  0  0
  144.4437  132.0026  150.3853 H   0  0  0  0  0  0  0  0  0  0  0  0
  145.9972  131.3493  149.8649 H   0  0  0  0  0  0  0  0  0  0  0  0
  146.1421  130.6204  152.0909 H   0  0  0  0  0  0  0  0  0  0  0  0
  145.0795  131.9059  152.6703 H   0  0  0  0  0  0  0  0  0  0  0  0
  1  2  2  0  0  0  0
  2  3  1  0  0  0  0
  2 10  1  0  0  0  0
  3  4  1  0  0  0  0
  3 22  1  0  0  0  0
  4  5  1  0  0  0  0
  4 23  1  0  0  0  0
  4 24  1  0  0  0  0
  5  9  1  0  0  0  0
  5  6  1  0  0  0  0
  5 25  1  0  0  0  0
  6  7  1  0  0  0  0
  6 26  1  0  0  0  0
  6 27  1  0  0  0  0
  7  8  1  0  0  0  0
  7 28  1  0  0  0  0
  7 29  1  0  0  0  0
  8  9  1  0  0  0  0
  9 30  1  0  0  0  0
  9 31  1  0  0  0  0
 10 11  1  0  0  0  0
 10 32  1  0  0  0  0
 11 16  1  0  0  0  0
 11 12  2  0  0  0  0
 12 13  1  0  0  0  0
 12 33  1  0  0  0  0
 13 14  2  0  0  0  0
 13 34  1  0  0  0  0
 14 15  1  0  0  0  0
 14 35  1  0  0  0  0
 15 16  2  0  0  0  0
 16 17  1  0  0  0  0
 17 21  1  0  0  0  0
 17 18  1  0  0  0  0
 18 19  1  0  0  0  0
 18 36  1  0  0  0  0
 18 37  1  0  0  0  0
 19 20  1  0  0  0  0
 19 38  1  0  0  0  0
 19 39  1  0  0  0  0
 20 21  1  0  0  0  0
 20 40  1  0  0  0  0
 20 41  1  0  0  0  0
 21 42  1  0  0  0  0
 21 43  1  0  0  0  0
M  END
> <s_m_source_file>
AV-unprocessed.smi

> <i_m_source_file_index>
1426

> <i_lp_mmshare_version>
43012

> <i_f3d_flags>
0

> <s_epik_input>
W0NIMl0xT1tDSDJdW0NIMl1bQ0BIXTFbQ0gyXVtOSF1DKD1PKVtOSF1jMltjSF1bY0hdW2NIXW5jMk4zW0NIMl1bQ0gyXVtDSDJdW0NIMl0z

> <s_epik_cmdline>
J2VwaWtfcHl0aG9uJywgJy1waCcsICc3LjAnLCAnLXRuJywgJzgnLCAnLW1hJywgJzIwMCcsICctbWV0YWxfYmluZGluZycsICctaW1hZScsICc8aW5maWxlLm1hZT4nLCAnLW9tYWUnLCAnPG91dGZpbGUubWFlPic=

> <r_lp_tautomer_probability>
1

> <r_epik_Ionization_Penalty>
0.0999657

> <r_epik_Ionization_Penalty_Charging>
0

> <r_epik_Ionization_Penalty_Neutral>
0.0999657

> <r_epik_State_Penalty>
0.0894442

> <r_epik_Charging_Adjusted_Penalty>
0.0894442

> <i_epik_Tot_Q>
0

> <i_epik_Tot_abs_Q>
0

> <r_epik_Metal_State_Penalty>
0.076486

> <b_epik_Metal_Only>
0

> <s_lp_Force_Field>
OPLS_2005

> <r_lp_Energy>
47.443

> <b_lp_Chiralities_Consistent>
1

> <s_lp_Variant>
AV-unprocessed.smi:1426-1

> <Gold.Version>
5.8.1

> <Gold.Id.Protein>
6NUR|6NUR_protein|mol2

> <Gold.PLP.Fitness>
44.1931

> <Gold.PLP.PLP>
-37.6799

> <Gold.PLP.part.hbond>
-2.9317

> <Gold.PLP.part.metal>
0.0000

> <Gold.PLP.part.buried>
-5.6976

> <Gold.PLP.part.nonpolar>
-30.0972

> <Gold.PLP.part.repulsive>
0.3490

> <Gold.PLP.ligand.clash>
0.0000

> <Gold.PLP.ligand.torsion>
0.6886

> <Gold.PLP.Chemscore.Hbond>
2.5288

> <Gold.PLP.Chemscore.CHOScore>
0.0000

> <Gold.PLP.Chemscore.Metal>
0.0000

> <Gold.Chemscore.Hbonds>
donor molecule, donor type, donor heavy atom, donor atom, acceptor molecule, acceptor atom, score
      L1  H     3    22       P1  7948  0.76
      L1  H    10    32       P1  7948  0.58
      P1  H  7989  7998       L1     8  0.65

> <Gold.PLP.Chemscore.Internal.Correction>
0.3041

> <Gold.Rescore>
     Score         DG    S(hbond)    S(metal)    S(lipo)     H(rot)  DE(clash)    DE(int)     intcor
     14.30     -15.87       1.24        0.00      83.60       1.38       0.07       1.50       ----

> <Gold.Chemscore.Fitness>
14.2952

> <Gold.Chemscore.DG>
-15.8690

> <Gold.Chemscore.ZeroCoef>
-5.4800

> <Gold.Chemscore.Hbond>
1.2392

> <Gold.Chemscore.Metal>
0.0000

> <Gold.Chemscore.Lipo>
83.6043

> <Gold.Chemscore.Internal_Hbond>
0.0000

> <Gold.Chemscore.DEClash>
0.0720

> <Gold.Chemscore.DEInternal>
1.5018

> <Gold.Chemscore.Rot>
1.3796

> <Gold.Chemscore.Internal.Correction>
   9.000000E+99

> <Gold.Chemscore.Hbonds>
donor molecule, donor type, donor heavy atom, donor atom, acceptor molecule, acceptor atom, score
      L1  H     3    22       P1  7948  0.72
      L1  H    10    32       P1  7948  0.07
      P1  H  7989  7998       L1     8  0.03

> <Gold.Chemscore.Hbond.Weighted>
-4.1389

> <Gold.Chemscore.Metal.Weighted>
-0.0000

> <Gold.Chemscore.Lipo.Weighted>
-9.7817

> <Gold.Chemscore.Internal_Hbond.Weighted>
0.0000

> <Gold.Chemscore.DEClash.Weighted>
0.0720

> <Gold.Chemscore.DEInternal.Weighted>
1.5018

> <Gold.Chemscore.Rot.Weighted>
3.5317

> <Gold.Chemscore.Internal.Correction.Weighted>
   9.000000E+99

> <Gold.Protein.RotatedTorsions>
[ 6907 6896 6895 6894 ] final   50.22 input  -60.11 | X-H torsion
[ 7974 7965 7964 7962 ] final  136.71 input  175.53 | X-H torsion
[ 8008 7997 7996 7995 ] final -162.49 input   59.86 | X-H torsion
[ 10167 10162 10161 10158 ] final -153.72 input  -65.29 | X-H torsion
[ 10718 10713 10712 10709 ] final -100.52 input   66.30 | X-H torsion
[ 10763 10752 10751 10750 ] final -166.32 input  -60.55 | X-H torsion
[ 11005 11000 10999 10996 ] final  107.86 input  -57.11 | X-H torsion

> <Gold.Protein.ActiveResidues>
 VAL166  LYS551  ARG553  GLY616  TRP617  ASP618  TYR619  PRO620  LYS621  CYS622 
 ASP623  PHE694  ASN695  SER759  ASP760  ASP761  ALA762  ILE779  LEU786  VAL792 
 PHE793  MET794  SER795  GLU796  ALA797  LYS798  CYS799  TRP800  GLU811  SER814 

> <Gold.Protein.RotatedAtoms>
  152.2994  134.7628  160.0360 H   0  0  0  0  0  0  0  0  0  0  0  0  # atno 6907 bound_to 6896
  151.8147  133.3381  159.3574 H   0  0  0  0  0  0  0  0  0  0  0  0  # atno 6908 bound_to 6896
  150.7267  134.5560  159.5863 H   0  0  0  0  0  0  0  0  0  0  0  0  # atno 6909 bound_to 6896
  144.9538  139.4788  143.5513 H   0  0  0  0  0  0  0  0  0  0  0  0  # atno 7974 bound_to 7965
  155.8075  140.0901  157.1923 H   0  0  0  0  0  0  0  0  0  0  0  0  # atno 8008 bound_to 7997
  154.3980  140.1461  156.3406 H   0  0  0  0  0  0  0  0  0  0  0  0  # atno 8009 bound_to 7997
  155.8399  140.3439  155.5628 H   0  0  0  0  0  0  0  0  0  0  0  0  # atno 8010 bound_to 7997
  139.7073  143.9165  152.2454 H   0  0  0  0  0  0  0  0  0  0  0  0  # atno 10167 bound_to 10162
  156.0166  130.5331  150.6829 H   0  0  0  0  0  0  0  0  0  0  0  0  # atno 10718 bound_to 10713
  154.6845  135.2960  154.9567 H   0  0  0  0  0  0  0  0  0  0  0  0  # atno 10763 bound_to 10752
  154.0551  135.6639  153.4809 H   0  0  0  0  0  0  0  0  0  0  0  0  # atno 10764 bound_to 10752
  153.0569  135.5139  154.7904 H   0  0  0  0  0  0  0  0  0  0  0  0  # atno 10765 bound_to 10752
  139.8835  134.9413  156.5884 H   0  0  0  0  0  0  0  0  0  0  0  0  # atno 11005 bound_to 11000
  146.3330  139.8641  142.8851 LP  0  0  0  0  0  0  0  0  0  0  0  0  # atno 17320 bound_to 7965
  145.2804  141.0137  143.3721 LP  0  0  0  0  0  0  0  0  0  0  0  0  # atno 17321 bound_to 7965
  139.9024  144.6904  150.8651 LP  0  0  0  0  0  0  0  0  0  0  0  0  # atno 17342 bound_to 10162
  140.7725  143.3504  151.2026 LP  0  0  0  0  0  0  0  0  0  0  0  0  # atno 17343 bound_to 10162
  157.4527  131.0874  151.0829 LP  0  0  0  0  0  0  0  0  0  0  0  0  # atno 17370 bound_to 10713
  157.1339  130.6114  149.5537 LP  0  0  0  0  0  0  0  0  0  0  0  0  # atno 17371 bound_to 10713
  140.7974  133.8533  155.8697 LP  0  0  0  0  0  0  0  0  0  0  0  0  # atno 17394 bound_to 11000
  140.9623  134.1639  157.4644 LP  0  0  0  0  0  0  0  0  0  0  0  0  # atno 17395 bound_to 11000

$$$$
