AV-unprocessed.smi:2567|AV-procd|sdf|10087|dock8
  -GOLD-   2272014113D 1   1.00000     0.00000
 Structure written by MMmdl.
 32 33  0  0  0  0  0  0  0  0  2 V2000
  150.9641  145.2056  159.6786 C   0  0  0  0  0  0  0  0  0  0  0  0
  151.8405  144.1073  159.0531 C   0  0  0  0  0  0  0  0  0  0  0  0
  152.7760  144.7189  157.9906 C   0  0  0  0  0  0  0  0  0  0  0  0
  152.7316  143.4644  160.1347 C   0  0  0  0  0  0  0  0  0  0  0  0
  150.9500  143.0465  158.4141 C   0  0  0  0  0  0  0  0  0  0  0  0
  149.6082  143.1019  158.3056 N   0  5  0  0  0  0  0  0  0  0  0  0
  149.1666  142.0868  157.5924 N   0  0  0  0  0  0  0  0  0  0  0  0
  150.2629  141.4067  157.2267 C   0  0  0  0  0  0  0  0  0  0  0  0
  150.2546  140.1754  156.3427 C   0  0  1  0  0  0  0  0  0  0  0  0
  149.7462  140.5151  154.9267 C   0  0  0  0  0  0  0  0  0  0  0  0
  149.7527  139.3256  154.0749 N   0  0  0  0  0  0  0  0  0  0  0  0
  151.0730  138.7004  154.0493 C   0  0  0  0  0  0  0  0  0  0  0  0
  151.5464  138.3975  155.4809 C   0  0  0  0  0  0  0  0  0  0  0  0
  151.5561  139.6005  156.2408 O   0  0  0  0  0  0  0  0  0  0  0  0
  151.3669  142.0053  157.6965 N   0  0  0  0  0  0  0  0  0  0  0  0
  151.5709  145.9842  160.1413 H   0  0  0  0  0  0  0  0  0  0  0  0
  150.3083  144.7959  160.4475 H   0  0  0  0  0  0  0  0  0  0  0  0
  150.3325  145.6813  158.9276 H   0  0  0  0  0  0  0  0  0  0  0  0
  152.2125  145.2147  157.1996 H   0  0  0  0  0  0  0  0  0  0  0  0
  153.3969  143.9547  157.5216 H   0  0  0  0  0  0  0  0  0  0  0  0
  153.4422  145.4630  158.4281 H   0  0  0  0  0  0  0  0  0  0  0  0
  153.3968  144.1987  160.5898 H   0  0  0  0  0  0  0  0  0  0  0  0
  153.3521  142.6708  159.7170 H   0  0  0  0  0  0  0  0  0  0  0  0
  152.1354  143.0276  160.9365 H   0  0  0  0  0  0  0  0  0  0  0  0
  149.5858  139.4486  156.8083 H   0  0  0  0  0  0  0  0  0  0  0  0
  148.7385  140.9280  154.9798 H   0  0  0  0  0  0  0  0  0  0  0  0
  150.3777  141.2887  154.4874 H   0  0  0  0  0  0  0  0  0  0  0  0
  151.0415  137.7825  153.4620 H   0  0  0  0  0  0  0  0  0  0  0  0
  151.7885  139.3624  153.5601 H   0  0  0  0  0  0  0  0  0  0  0  0
  150.9063  137.6528  155.9569 H   0  0  0  0  0  0  0  0  0  0  0  0
  152.5550  137.9848  155.4618 H   0  0  0  0  0  0  0  0  0  0  0  0
  149.4803  139.5841  153.1323 H   0  0  0  0  0  0  0  0  0  0  0  0
  1  2  1  0  0  0  0
  1 16  1  0  0  0  0
  1 17  1  0  0  0  0
  1 18  1  0  0  0  0
  2  3  1  0  0  0  0
  2  4  1  0  0  0  0
  2  5  1  0  0  0  0
  3 19  1  0  0  0  0
  3 20  1  0  0  0  0
  3 21  1  0  0  0  0
  4 22  1  0  0  0  0
  4 23  1  0  0  0  0
  4 24  1  0  0  0  0
  5 15  2  0  0  0  0
  5  6  1  0  0  0  0
  6  7  1  0  0  0  0
  7  8  2  0  0  0  0
  8  9  1  0  0  0  0
  8 15  1  0  0  0  0
  9 14  1  0  0  0  0
  9 10  1  0  0  0  0
  9 25  1  0  0  0  0
 10 11  1  0  0  0  0
 10 26  1  0  0  0  0
 10 27  1  0  0  0  0
 11 12  1  0  0  0  0
 11 32  1  0  0  0  0
 12 13  1  0  0  0  0
 12 28  1  0  0  0  0
 12 29  1  0  0  0  0
 13 14  1  0  0  0  0
 13 30  1  0  0  0  0
 13 31  1  0  0  0  0
M  CHG  1   6  -1
M  END
> <s_m_source_file>
AV-unprocessed.smi

> <i_m_source_file_index>
2567

> <i_lp_mmshare_version>
43012

> <i_f3d_flags>
0

> <s_epik_input>
W0NIM11DKFtDSDNdKShbQ0gzXSljMW5bbkhdYyhuMSlbQ0BASF0yW0NIMl1bTkhdW0NIMl1bQ0gyXU8y

> <s_epik_cmdline>
J2VwaWtfcHl0aG9uJywgJy1waCcsICc3LjAnLCAnLXRuJywgJzgnLCAnLW1hJywgJzIwMCcsICctbWV0YWxfYmluZGluZycsICctaW1hZScsICc8aW5maWxlLm1hZT4nLCAnLW9tYWUnLCAnPG91dGZpbGUubWFlPic=

> <r_lp_tautomer_probability>
0.948284

> <r_epik_Ionization_Penalty>
17.5852

> <r_epik_Ionization_Penalty_Charging>
16.0119

> <r_epik_Ionization_Penalty_Neutral>
1.5733

> <r_epik_State_Penalty>
6.64574

> <r_epik_Charging_Adjusted_Penalty>
22.6576

> <i_epik_Tot_Q>
-1

> <i_epik_Tot_abs_Q>
1

> <r_epik_Metal_State_Penalty>
2.89273

> <b_epik_Metal_Only>
1

> <s_lp_Force_Field>
OPLS_2005

> <r_lp_Energy>
12.7072

> <b_lp_Chiralities_Consistent>
1

> <s_lp_Variant>
AV-unprocessed.smi:2567-12

> <Gold.Version>
5.8.1

> <Gold.Id.Protein>
6NUR|6NUR_protein|mol2

> <Gold.PLP.Fitness>
33.1522

> <Gold.PLP.PLP>
-30.3267

> <Gold.PLP.part.hbond>
-1.0000

> <Gold.PLP.part.metal>
0.0000

> <Gold.PLP.part.buried>
-5.1435

> <Gold.PLP.part.nonpolar>
-24.4861

> <Gold.PLP.part.repulsive>
0.3607

> <Gold.PLP.ligand.clash>
0.0000

> <Gold.PLP.ligand.torsion>
0.1796

> <Gold.PLP.Chemscore.Hbond>
1.0000

> <Gold.PLP.Chemscore.CHOScore>
0.0000

> <Gold.PLP.Chemscore.Metal>
0.0000

> <Gold.Chemscore.Hbonds>
donor molecule, donor type, donor heavy atom, donor atom, acceptor molecule, acceptor atom, score
      L1  H    11    32       P1  7957  1.00

> <Gold.PLP.Chemscore.Internal.Correction>
0.1847

> <Gold.Rescore>
     Score         DG    S(hbond)    S(metal)    S(lipo)     H(rot)  DE(clash)    DE(int)     intcor
     14.21     -14.61       0.94        0.00      78.00       1.23       0.23       0.17       ----

> <Gold.Chemscore.Fitness>
14.2126

> <Gold.Chemscore.DG>
-14.6145

> <Gold.Chemscore.ZeroCoef>
-5.4800

> <Gold.Chemscore.Hbond>
0.9441

> <Gold.Chemscore.Metal>
0.0000

> <Gold.Chemscore.Lipo>
77.9979

> <Gold.Chemscore.Internal_Hbond>
0.0000

> <Gold.Chemscore.DEClash>
0.2290

> <Gold.Chemscore.DEInternal>
0.1730

> <Gold.Chemscore.Rot>
1.2283

> <Gold.Chemscore.Internal.Correction>
   9.000000E+99

> <Gold.Chemscore.Hbonds>
donor molecule, donor type, donor heavy atom, donor atom, acceptor molecule, acceptor atom, score
      L1  H    11    32       P1  7957  0.93

> <Gold.Chemscore.Hbond.Weighted>
-3.1532

> <Gold.Chemscore.Metal.Weighted>
-0.0000

> <Gold.Chemscore.Lipo.Weighted>
-9.1258

> <Gold.Chemscore.Internal_Hbond.Weighted>
0.0000

> <Gold.Chemscore.DEClash.Weighted>
0.2290

> <Gold.Chemscore.DEInternal.Weighted>
0.1730

> <Gold.Chemscore.Rot.Weighted>
3.1444

> <Gold.Chemscore.Internal.Correction.Weighted>
   9.000000E+99

> <Gold.Protein.RotatedTorsions>
[ 6907 6896 6895 6894 ] final  157.56 input  -60.11 | X-H torsion
[ 7974 7965 7964 7962 ] final  -16.59 input  175.53 | X-H torsion
[ 8008 7997 7996 7995 ] final -102.08 input   59.86 | X-H torsion
[ 10167 10162 10161 10158 ] final -105.47 input  -65.29 | X-H torsion
[ 10718 10713 10712 10709 ] final  -59.85 input   66.30 | X-H torsion
[ 10763 10752 10751 10750 ] final -175.39 input  -60.55 | X-H torsion
[ 11005 11000 10999 10996 ] final -160.29 input  -57.11 | X-H torsion

> <Gold.Protein.ActiveResidues>
 VAL166  LYS551  ARG553  GLY616  TRP617  ASP618  TYR619  PRO620  LYS621  CYS622 
 ASP623  PHE694  ASN695  SER759  ASP760  ASP761  ALA762  ILE779  LEU786  VAL792 
 PHE793  MET794  SER795  GLU796  ALA797  LYS798  CYS799  TRP800  GLU811  SER814 

> <Gold.Protein.RotatedAtoms>
  152.0133  133.3870  159.4228 H   0  0  0  0  0  0  0  0  0  0  0  0  # atno 6907 bound_to 6896
  150.6897  134.3706  159.5000 H   0  0  0  0  0  0  0  0  0  0  0  0  # atno 6908 bound_to 6896
  152.1470  134.9018  160.0601 H   0  0  0  0  0  0  0  0  0  0  0  0  # atno 6909 bound_to 6896
  146.1980  140.3658  142.8433 H   0  0  0  0  0  0  0  0  0  0  0  0  # atno 7974 bound_to 7965
  154.8516  140.0430  157.1608 H   0  0  0  0  0  0  0  0  0  0  0  0  # atno 8008 bound_to 7997
  154.8937  140.2990  155.5336 H   0  0  0  0  0  0  0  0  0  0  0  0  # atno 8009 bound_to 7997
  156.2996  140.2389  156.3955 H   0  0  0  0  0  0  0  0  0  0  0  0  # atno 8010 bound_to 7997
  140.1982  143.3839  152.1151 H   0  0  0  0  0  0  0  0  0  0  0  0  # atno 10167 bound_to 10162
  156.1032  130.4183  150.0773 H   0  0  0  0  0  0  0  0  0  0  0  0  # atno 10718 bound_to 10713
  154.5850  135.2839  155.0694 H   0  0  0  0  0  0  0  0  0  0  0  0  # atno 10763 bound_to 10752
  154.2016  135.6423  153.5092 H   0  0  0  0  0  0  0  0  0  0  0  0  # atno 10764 bound_to 10752
  153.0101  135.5470  154.6516 H   0  0  0  0  0  0  0  0  0  0  0  0  # atno 10765 bound_to 10752
  140.6331  134.4630  157.5230 H   0  0  0  0  0  0  0  0  0  0  0  0  # atno 11005 bound_to 11000
  144.8622  140.7156  143.6100 LP  0  0  0  0  0  0  0  0  0  0  0  0  # atno 17320 bound_to 7965
  145.3578  139.1689  143.4400 LP  0  0  0  0  0  0  0  0  0  0  0  0  # atno 17321 bound_to 7965
  139.5228  144.7063  151.5343 LP  0  0  0  0  0  0  0  0  0  0  0  0  # atno 17342 bound_to 10162
  140.6409  143.8891  150.6690 LP  0  0  0  0  0  0  0  0  0  0  0  0  # atno 17343 bound_to 10162
  156.8755  130.9539  151.3605 LP  0  0  0  0  0  0  0  0  0  0  0  0  # atno 17370 bound_to 10713
  157.6205  130.8651  149.9100 LP  0  0  0  0  0  0  0  0  0  0  0  0  # atno 17371 bound_to 10713
  139.9108  134.8349  156.1535 LP  0  0  0  0  0  0  0  0  0  0  0  0  # atno 17394 bound_to 11000
  141.0661  133.6819  156.2047 LP  0  0  0  0  0  0  0  0  0  0  0  0  # atno 17395 bound_to 11000

$$$$
