AV-unprocessed.smi:227|AV-procd|sdf|1728|dock8
  -GOLD-   2262020213D 1   1.00000     0.00000
 Structure written by MMmdl.
 54 58  0  0  0  0  0  0  0  0  1 V2000
  146.1477  137.7605  161.0598 O   0  0  0  0  0  0  0  0  0  0  0  0
  146.8756  136.8370  161.8432 C   0  0  0  0  0  0  0  0  0  0  0  0
  146.9962  135.4611  161.1386 C   0  0  1  0  0  0  0  0  0  0  0  0
  148.2324  135.4212  160.1915 C   0  0  0  0  0  0  0  0  0  0  0  0
  148.3131  136.5414  159.2651 N   0  0  0  0  0  0  0  0  0  0  0  0
  149.3066  137.4910  159.2065 C   0  0  0  0  0  0  0  0  0  0  0  0
  149.1557  138.3960  158.2799 N   0  0  0  0  0  0  0  0  0  0  0  0
  147.9592  138.0604  157.6561 C   0  0  0  0  0  0  0  0  0  0  0  0
  147.2024  138.6057  156.5753 C   0  0  0  0  0  0  0  0  0  0  0  0
  147.5623  139.6958  155.8408 N   0  0  0  0  0  0  0  0  0  0  0  0
  148.8455  139.7631  155.1558 C   0  0  2  0  0  0  0  0  0  0  0  0
  148.8668  141.2105  154.6353 C   0  0  0  0  0  0  0  0  0  0  0  0
  147.3838  141.4353  154.3095 C   0  0  0  0  0  0  0  0  0  0  0  0
  146.7856  140.0607  154.6619 C   0  0  1  0  0  0  0  0  0  0  0  0
  147.1906  138.9803  153.6251 C   0  0  1  0  0  0  0  0  0  0  0  0
  146.8751  139.2937  152.1513 C   0  0  0  0  0  0  0  0  0  0  0  0
  147.4059  138.2821  151.3222 O   0  0  0  0  0  0  0  0  0  0  0  0
  148.6853  138.8061  153.9567 C   0  0  0  0  0  0  0  0  0  0  0  0
  146.0261  137.9940  156.2730 N   0  0  0  0  0  0  0  0  0  0  0  0
  145.6239  136.9169  156.9514 C   0  0  0  0  0  0  0  0  0  0  0  0
  146.2330  136.2934  157.9593 N   0  0  0  0  0  0  0  0  0  0  0  0
  147.4081  136.9040  158.2817 C   0  0  0  0  0  0  0  0  0  0  0  0
  146.9863  134.2816  162.1623 C   0  0  2  0  0  0  0  0  0  0  0  0
  147.6418  133.0044  161.6425 C   0  0  0  0  0  0  0  0  0  0  0  0
  146.5116  132.2706  160.9174 C   0  0  0  0  0  0  0  0  0  0  0  0
  145.3013  132.8509  161.3888 O   0  0  0  0  0  0  0  0  0  0  0  0
  145.5995  133.7050  162.4818 C   0  0  0  0  0  0  0  0  0  0  0  0
  145.2353  137.5140  161.0750 H   0  0  0  0  0  0  0  0  0  0  0  0
  147.8565  137.2505  162.0759 H   0  0  0  0  0  0  0  0  0  0  0  0
  146.3370  136.7592  162.7849 H   0  0  0  0  0  0  0  0  0  0  0  0
  146.1132  135.3544  160.5070 H   0  0  0  0  0  0  0  0  0  0  0  0
  149.1602  135.3789  160.7594 H   0  0  0  0  0  0  0  0  0  0  0  0
  148.2338  134.5026  159.6041 H   0  0  0  0  0  0  0  0  0  0  0  0
  150.1577  137.4875  159.8721 H   0  0  0  0  0  0  0  0  0  0  0  0
  149.7210  139.5517  155.7664 H   0  0  0  0  0  0  0  0  0  0  0  0
  149.1966  141.9007  155.4126 H   0  0  0  0  0  0  0  0  0  0  0  0
  149.5173  141.3387  153.7693 H   0  0  0  0  0  0  0  0  0  0  0  0
  146.9693  142.2069  154.9596 H   0  0  0  0  0  0  0  0  0  0  0  0
  147.2085  141.7472  153.2809 H   0  0  0  0  0  0  0  0  0  0  0  0
  145.7086  140.1141  154.8242 H   0  0  0  0  0  0  0  0  0  0  0  0
  146.6670  138.0591  153.8871 H   0  0  0  0  0  0  0  0  0  0  0  0
  145.7970  139.3404  151.9952 H   0  0  0  0  0  0  0  0  0  0  0  0
  147.2943  140.2511  151.8426 H   0  0  0  0  0  0  0  0  0  0  0  0
  147.7402  137.5896  151.8712 H   0  0  0  0  0  0  0  0  0  0  0  0
  149.3479  139.0639  153.1296 H   0  0  0  0  0  0  0  0  0  0  0  0
  148.8952  137.7750  154.2443 H   0  0  0  0  0  0  0  0  0  0  0  0
  144.6802  136.4933  156.6406 H   0  0  0  0  0  0  0  0  0  0  0  0
  147.4642  134.6093  163.0863 H   0  0  0  0  0  0  0  0  0  0  0  0
  148.5112  133.1528  161.0058 H   0  0  0  0  0  0  0  0  0  0  0  0
  147.9726  132.4038  162.4912 H   0  0  0  0  0  0  0  0  0  0  0  0
  146.5752  132.4125  159.8381 H   0  0  0  0  0  0  0  0  0  0  0  0
  146.5351  131.1998  161.1213 H   0  0  0  0  0  0  0  0  0  0  0  0
  145.6518  133.0957  163.3858 H   0  0  0  0  0  0  0  0  0  0  0  0
  144.8129  134.4371  162.6477 H   0  0  0  0  0  0  0  0  0  0  0  0
  1  2  1  0  0  0  0
  1 28  1  0  0  0  0
  2  3  1  0  0  0  0
  2 29  1  0  0  0  0
  2 30  1  0  0  0  0
  3  4  1  0  0  0  0
  3 23  1  0  0  0  0
  3 31  1  0  0  0  0
  4  5  1  0  0  0  0
  4 32  1  0  0  0  0
  4 33  1  0  0  0  0
  5 22  1  0  0  0  0
  5  6  1  0  0  0  0
  6  7  2  0  0  0  0
  6 34  1  0  0  0  0
  7  8  1  0  0  0  0
  8 22  2  0  0  0  0
  8  9  1  0  0  0  0
  9 10  1  0  0  0  0
  9 19  2  0  0  0  0
 10 14  1  0  0  0  0
 10 11  1  0  0  0  0
 11 18  1  0  0  0  0
 11 12  1  0  0  0  0
 11 35  1  0  0  0  0
 12 13  1  0  0  0  0
 12 36  1  0  0  0  0
 12 37  1  0  0  0  0
 13 14  1  0  0  0  0
 13 38  1  0  0  0  0
 13 39  1  0  0  0  0
 14 15  1  0  0  0  0
 14 40  1  0  0  0  0
 15 16  1  0  0  0  0
 15 18  1  0  0  0  0
 15 41  1  0  0  0  0
 16 17  1  0  0  0  0
 16 42  1  0  0  0  0
 16 43  1  0  0  0  0
 17 44  1  0  0  0  0
 18 45  1  0  0  0  0
 18 46  1  0  0  0  0
 19 20  1  0  0  0  0
 20 21  2  0  0  0  0
 20 47  1  0  0  0  0
 21 22  1  0  0  0  0
 23 27  1  0  0  0  0
 23 24  1  0  0  0  0
 23 48  1  0  0  0  0
 24 25  1  0  0  0  0
 24 49  1  0  0  0  0
 24 50  1  0  0  0  0
 25 26  1  0  0  0  0
 25 51  1  0  0  0  0
 25 52  1  0  0  0  0
 26 27  1  0  0  0  0
 27 53  1  0  0  0  0
 27 54  1  0  0  0  0
M  END
> <s_m_source_file>
AV-unprocessed.smi

> <i_m_source_file_index>
227

> <i_lp_mmshare_version>
43012

> <i_f3d_flags>
0

> <s_epik_input>
W0NIMl0xT1tDSDJdW0NIMl1bQ0BIXTFbQ0BIXShbQ0gyXVtPSF0pW0NIMl1uKFtjSF1uMiljKGMyMyluW2NIXW5jM04oW0NASF00NSlbQ0BASF0oW0NIMl1bQ0gyXTQpW0NASF0oW0NIMl01KVtDSDJdW09IXQ==

> <s_epik_cmdline>
J2VwaWtfcHl0aG9uJywgJy1waCcsICc3LjAnLCAnLXRuJywgJzgnLCAnLW1hJywgJzIwMCcsICctbWV0YWxfYmluZGluZycsICctaW1hZScsICc8aW5maWxlLm1hZT4nLCAnLW9tYWUnLCAnPG91dGZpbGUubWFlPic=

> <r_lp_tautomer_probability>
1

> <r_epik_Ionization_Penalty>
0.0055791

> <r_epik_Ionization_Penalty_Charging>
0

> <r_epik_Ionization_Penalty_Neutral>
0.0055791

> <r_epik_State_Penalty>
0.00401299

> <r_epik_Charging_Adjusted_Penalty>
0.00401299

> <i_epik_Tot_Q>
0

> <i_epik_Tot_abs_Q>
0

> <r_epik_Metal_State_Penalty>
-0

> <b_epik_Metal_Only>
0

> <s_lp_Force_Field>
OPLS_2005

> <r_lp_Energy>
90.5153

> <b_lp_Chiralities_Consistent>
1

> <s_lp_Variant>
AV-unprocessed.smi:227-2

> <Gold.Version>
5.8.1

> <Gold.Id.Protein>
6NUR|6NUR_protein|mol2

> <Gold.PLP.Fitness>
44.4785

> <Gold.PLP.PLP>
-38.4976

> <Gold.PLP.part.hbond>
-3.8817

> <Gold.PLP.part.metal>
0.0000

> <Gold.PLP.part.buried>
-2.7901

> <Gold.PLP.part.nonpolar>
-32.6322

> <Gold.PLP.part.repulsive>
0.0512

> <Gold.PLP.ligand.clash>
0.0000

> <Gold.PLP.ligand.torsion>
1.2491

> <Gold.PLP.Chemscore.Hbond>
2.7680

> <Gold.PLP.Chemscore.CHOScore>
0.0000

> <Gold.PLP.Chemscore.Metal>
0.0000

> <Gold.Chemscore.Hbonds>
donor molecule, donor type, donor heavy atom, donor atom, acceptor molecule, acceptor atom, score
      L1  H    17    44       P1  7948  0.78
      P1  H  6934  6947       L1     1  1.00
      P1  H  7954  7966       L1    17  0.95

> <Gold.PLP.Chemscore.Internal.Correction>
0.1751

> <Gold.Rescore>
     Score         DG    S(hbond)    S(metal)    S(lipo)     H(rot)  DE(clash)    DE(int)     intcor
     13.01     -14.59       2.32        0.00      90.57       3.61       0.04       1.55       ----

> <Gold.Chemscore.Fitness>
13.0057

> <Gold.Chemscore.DG>
-14.5919

> <Gold.Chemscore.ZeroCoef>
-5.4800

> <Gold.Chemscore.Hbond>
2.3201

> <Gold.Chemscore.Metal>
0.0000

> <Gold.Chemscore.Lipo>
90.5731

> <Gold.Chemscore.Internal_Hbond>
0.0000

> <Gold.Chemscore.DEClash>
0.0405

> <Gold.Chemscore.DEInternal>
1.5456

> <Gold.Chemscore.Rot>
3.6071

> <Gold.Chemscore.Internal.Correction>
   9.000000E+99

> <Gold.Chemscore.Hbonds>
donor molecule, donor type, donor heavy atom, donor atom, acceptor molecule, acceptor atom, score
      L1  H    17    44       P1  7948  0.78
      P1  H  6934  6947       L1     1  0.44
      P1  H  7954  7966       L1    17  0.21

> <Gold.Chemscore.Hbond.Weighted>
-7.7490

> <Gold.Chemscore.Metal.Weighted>
-0.0000

> <Gold.Chemscore.Lipo.Weighted>
-10.5971

> <Gold.Chemscore.Internal_Hbond.Weighted>
0.0000

> <Gold.Chemscore.DEClash.Weighted>
0.0405

> <Gold.Chemscore.DEInternal.Weighted>
1.5456

> <Gold.Chemscore.Rot.Weighted>
9.2342

> <Gold.Chemscore.Internal.Correction.Weighted>
   9.000000E+99

> <Gold.Protein.RotatedTorsions>
[ 6907 6896 6895 6894 ] final -109.76 input  -60.11 | X-H torsion
[ 7974 7965 7964 7962 ] final    9.66 input  175.53 | X-H torsion
[ 8008 7997 7996 7995 ] final  100.95 input   59.86 | X-H torsion
[ 10167 10162 10161 10158 ] final -102.99 input  -65.29 | X-H torsion
[ 10718 10713 10712 10709 ] final  125.95 input   66.30 | X-H torsion
[ 10763 10752 10751 10750 ] final  140.08 input  -60.55 | X-H torsion
[ 11005 11000 10999 10996 ] final -103.64 input  -57.11 | X-H torsion

> <Gold.Protein.ActiveResidues>
 VAL166  LYS551  ARG553  GLY616  TRP617  ASP618  TYR619  PRO620  LYS621  CYS622 
 ASP623  PHE694  ASN695  SER759  ASP760  ASP761  ALA762  ILE779  LEU786  VAL792 
 PHE793  MET794  SER795  GLU796  ALA797  LYS798  CYS799  TRP800  GLU811  SER814 

> <Gold.Protein.RotatedAtoms>
  150.7582  133.9482  159.3477 H   0  0  0  0  0  0  0  0  0  0  0  0  # atno 6907 bound_to 6896
  151.7396  135.0855  160.0323 H   0  0  0  0  0  0  0  0  0  0  0  0  # atno 6908 bound_to 6896
  152.3537  133.6173  159.5999 H   0  0  0  0  0  0  0  0  0  0  0  0  # atno 6909 bound_to 6896
  146.2400  139.9751  142.8442 H   0  0  0  0  0  0  0  0  0  0  0  0  # atno 7974 bound_to 7965
  156.1253  140.3205  155.8268 H   0  0  0  0  0  0  0  0  0  0  0  0  # atno 8008 bound_to 7997
  155.4431  140.0527  157.3025 H   0  0  0  0  0  0  0  0  0  0  0  0  # atno 8009 bound_to 7997
  154.4857  140.2072  155.9673 H   0  0  0  0  0  0  0  0  0  0  0  0  # atno 8010 bound_to 7997
  140.2248  143.3650  152.0938 H   0  0  0  0  0  0  0  0  0  0  0  0  # atno 10167 bound_to 10162
  157.5460  131.1095  150.8781 H   0  0  0  0  0  0  0  0  0  0  0  0  # atno 10718 bound_to 10713
  153.9167  135.3005  155.3448 H   0  0  0  0  0  0  0  0  0  0  0  0  # atno 10763 bound_to 10752
  154.7596  135.4940  153.9442 H   0  0  0  0  0  0  0  0  0  0  0  0  # atno 10764 bound_to 10752
  153.1163  135.6771  153.9514 H   0  0  0  0  0  0  0  0  0  0  0  0  # atno 10765 bound_to 10752
  141.1136  133.8657  157.1511 H   0  0  0  0  0  0  0  0  0  0  0  0  # atno 11005 bound_to 11000
  145.1644  140.9689  143.4358 LP  0  0  0  0  0  0  0  0  0  0  0  0  # atno 17320 bound_to 7965
  145.0086  139.3531  143.6131 LP  0  0  0  0  0  0  0  0  0  0  0  0  # atno 17321 bound_to 7965
  139.5131  144.6927  151.5715 LP  0  0  0  0  0  0  0  0  0  0  0  0  # atno 17342 bound_to 10162
  140.6229  143.9224  150.6540 LP  0  0  0  0  0  0  0  0  0  0  0  0  # atno 17343 bound_to 10162
  156.9320  130.5353  149.5279 LP  0  0  0  0  0  0  0  0  0  0  0  0  # atno 17370 bound_to 10713
  156.0536  130.5601  150.9043 LP  0  0  0  0  0  0  0  0  0  0  0  0  # atno 17371 bound_to 10713
  140.0045  135.0014  157.0262 LP  0  0  0  0  0  0  0  0  0  0  0  0  # atno 17394 bound_to 11000
  140.4706  134.1390  155.7202 LP  0  0  0  0  0  0  0  0  0  0  0  0  # atno 17395 bound_to 11000

$$$$
