AV-unprocessed.smi:227|AV-procd|sdf|1736|dock5
  -GOLD-   2262020233D 1   1.00000     0.00000
 Structure written by MMmdl.
 54 58  0  0  0  0  0  0  0  0  1 V2000
  149.6337  140.4071  154.2205 O   0  0  0  0  0  0  0  0  0  0  0  0
  149.4498  141.4058  155.2032 C   0  0  0  0  0  0  0  0  0  0  0  0
  150.1344  141.0297  156.5433 C   0  0  1  0  0  0  0  0  0  0  0  0
  151.4136  140.1764  156.3347 C   0  0  0  0  0  0  0  0  0  0  0  0
  151.1566  138.8666  155.7630 N   0  0  0  0  0  0  0  0  0  0  0  0
  151.8795  138.2516  154.7687 C   0  0  0  0  0  0  0  0  0  0  0  0
  151.4540  137.0666  154.4280 N   0  0  0  0  0  0  0  0  0  0  0  0
  150.3563  136.8387  155.2518 C   0  0  0  0  0  0  0  0  0  0  0  0
  149.4374  135.7604  155.4288 C   0  0  0  0  0  0  0  0  0  0  0  0
  149.4555  134.5888  154.7332 N   0  0  0  0  0  0  0  0  0  0  0  0
  149.7187  133.3107  155.3787 C   0  0  2  0  0  0  0  0  0  0  0  0
  149.8167  132.3510  154.1802 C   0  0  0  0  0  0  0  0  0  0  0  0
  148.7810  132.9571  153.2229 C   0  0  0  0  0  0  0  0  0  0  0  0
  148.2450  134.1321  154.0624 C   0  0  1  0  0  0  0  0  0  0  0  0
  147.3591  133.6381  155.2356 C   0  0  1  0  0  0  0  0  0  0  0  0
  146.1790  132.7225  154.8614 C   0  0  0  0  0  0  0  0  0  0  0  0
  145.4266  132.4133  156.0150 O   0  0  0  0  0  0  0  0  0  0  0  0
  148.4211  133.0038  156.1547 C   0  0  0  0  0  0  0  0  0  0  0  0
  148.4563  135.9292  156.3547 N   0  0  0  0  0  0  0  0  0  0  0  0
  148.3804  137.0531  157.0713 C   0  0  0  0  0  0  0  0  0  0  0  0
  149.1690  138.1267  157.0227 N   0  0  0  0  0  0  0  0  0  0  0  0
  150.1508  137.9742  156.0893 C   0  0  0  0  0  0  0  0  0  0  0  0
  150.4565  142.2973  157.3765 C   0  0  1  0  0  0  0  0  0  0  0  0
  151.1119  142.0252  158.7312 C   0  0  0  0  0  0  0  0  0  0  0  0
  152.1202  143.1628  158.9194 C   0  0  0  0  0  0  0  0  0  0  0  0
  151.9039  144.0418  157.8270 O   0  0  0  0  0  0  0  0  0  0  0  0
  151.4634  143.2557  156.7348 C   0  0  0  0  0  0  0  0  0  0  0  0
  149.8533  139.5964  154.6538 H   0  0  0  0  0  0  0  0  0  0  0  0
  149.8237  142.3605  154.8319 H   0  0  0  0  0  0  0  0  0  0  0  0
  148.3735  141.5214  155.3236 H   0  0  0  0  0  0  0  0  0  0  0  0
  149.4274  140.4368  157.1262 H   0  0  0  0  0  0  0  0  0  0  0  0
  152.1170  140.7054  155.6902 H   0  0  0  0  0  0  0  0  0  0  0  0
  151.9282  140.0168  157.2820 H   0  0  0  0  0  0  0  0  0  0  0  0
  152.7403  138.7111  154.3051 H   0  0  0  0  0  0  0  0  0  0  0  0
  150.6162  133.2670  155.9927 H   0  0  0  0  0  0  0  0  0  0  0  0
  150.8120  132.3807  153.7352 H   0  0  0  0  0  0  0  0  0  0  0  0
  149.5953  131.3172  154.4477 H   0  0  0  0  0  0  0  0  0  0  0  0
  149.2740  133.3282  152.3234 H   0  0  0  0  0  0  0  0  0  0  0  0
  148.0161  132.2493  152.9067 H   0  0  0  0  0  0  0  0  0  0  0  0
  147.7539  134.8846  153.4447 H   0  0  0  0  0  0  0  0  0  0  0  0
  146.9507  134.5194  155.7340 H   0  0  0  0  0  0  0  0  0  0  0  0
  145.5257  133.2195  154.1440 H   0  0  0  0  0  0  0  0  0  0  0  0
  146.5172  131.7912  154.4078 H   0  0  0  0  0  0  0  0  0  0  0  0
  144.5318  132.2545  155.7555 H   0  0  0  0  0  0  0  0  0  0  0  0
  148.2765  131.9343  156.3123 H   0  0  0  0  0  0  0  0  0  0  0  0
  148.4209  133.4887  157.1317 H   0  0  0  0  0  0  0  0  0  0  0  0
  147.5728  137.0978  157.7869 H   0  0  0  0  0  0  0  0  0  0  0  0
  149.5343  142.8540  157.5514 H   0  0  0  0  0  0  0  0  0  0  0  0
  150.3696  142.0112  159.5301 H   0  0  0  0  0  0  0  0  0  0  0  0
  151.6313  141.0660  158.7448 H   0  0  0  0  0  0  0  0  0  0  0  0
  151.9910  143.6841  159.8681 H   0  0  0  0  0  0  0  0  0  0  0  0
  153.1414  142.7810  158.8772 H   0  0  0  0  0  0  0  0  0  0  0  0
  152.3101  142.7175  156.3047 H   0  0  0  0  0  0  0  0  0  0  0  0
  151.0201  143.8808  155.9595 H   0  0  0  0  0  0  0  0  0  0  0  0
  1  2  1  0  0  0  0
  1 28  1  0  0  0  0
  2  3  1  0  0  0  0
  2 29  1  0  0  0  0
  2 30  1  0  0  0  0
  3  4  1  0  0  0  0
  3 23  1  0  0  0  0
  3 31  1  0  0  0  0
  4  5  1  0  0  0  0
  4 32  1  0  0  0  0
  4 33  1  0  0  0  0
  5 22  1  0  0  0  0
  5  6  1  0  0  0  0
  6  7  2  0  0  0  0
  6 34  1  0  0  0  0
  7  8  1  0  0  0  0
  8 22  2  0  0  0  0
  8  9  1  0  0  0  0
  9 10  1  0  0  0  0
  9 19  2  0  0  0  0
 10 14  1  0  0  0  0
 10 11  1  0  0  0  0
 11 18  1  0  0  0  0
 11 12  1  0  0  0  0
 11 35  1  0  0  0  0
 12 13  1  0  0  0  0
 12 36  1  0  0  0  0
 12 37  1  0  0  0  0
 13 14  1  0  0  0  0
 13 38  1  0  0  0  0
 13 39  1  0  0  0  0
 14 15  1  0  0  0  0
 14 40  1  0  0  0  0
 15 16  1  0  0  0  0
 15 18  1  0  0  0  0
 15 41  1  0  0  0  0
 16 17  1  0  0  0  0
 16 42  1  0  0  0  0
 16 43  1  0  0  0  0
 17 44  1  0  0  0  0
 18 45  1  0  0  0  0
 18 46  1  0  0  0  0
 19 20  1  0  0  0  0
 20 21  2  0  0  0  0
 20 47  1  0  0  0  0
 21 22  1  0  0  0  0
 23 27  1  0  0  0  0
 23 24  1  0  0  0  0
 23 48  1  0  0  0  0
 24 25  1  0  0  0  0
 24 49  1  0  0  0  0
 24 50  1  0  0  0  0
 25 26  1  0  0  0  0
 25 51  1  0  0  0  0
 25 52  1  0  0  0  0
 26 27  1  0  0  0  0
 27 53  1  0  0  0  0
 27 54  1  0  0  0  0
M  END
> <s_m_source_file>
AV-unprocessed.smi

> <i_m_source_file_index>
227

> <i_lp_mmshare_version>
43012

> <i_f3d_flags>
0

> <s_epik_input>
W0NIMl0xT1tDSDJdW0NIMl1bQ0BIXTFbQ0BIXShbQ0gyXVtPSF0pW0NIMl1uKFtjSF1uMiljKGMyMyluW2NIXW5jM04oW0NASF00NSlbQ0BASF0oW0NIMl1bQ0gyXTQpW0NASF0oW0NIMl01KVtDSDJdW09IXQ==

> <s_epik_cmdline>
J2VwaWtfcHl0aG9uJywgJy1waCcsICc3LjAnLCAnLXRuJywgJzgnLCAnLW1hJywgJzIwMCcsICctbWV0YWxfYmluZGluZycsICctaW1hZScsICc8aW5maWxlLm1hZT4nLCAnLW9tYWUnLCAnPG91dGZpbGUubWFlPic=

> <r_lp_tautomer_probability>
1

> <r_epik_Ionization_Penalty>
0.0055791

> <r_epik_Ionization_Penalty_Charging>
0

> <r_epik_Ionization_Penalty_Neutral>
0.0055791

> <r_epik_State_Penalty>
0.00401299

> <r_epik_Charging_Adjusted_Penalty>
0.00401299

> <i_epik_Tot_Q>
0

> <i_epik_Tot_abs_Q>
0

> <r_epik_Metal_State_Penalty>
-0

> <b_epik_Metal_Only>
0

> <s_lp_Force_Field>
OPLS_2005

> <r_lp_Energy>
88.8293

> <b_lp_Chiralities_Consistent>
1

> <s_lp_Variant>
AV-unprocessed.smi:227-10

> <Gold.Version>
5.8.1

> <Gold.Id.Protein>
6NUR|6NUR_protein|mol2

> <Gold.PLP.Fitness>
43.6109

> <Gold.PLP.PLP>
-36.4206

> <Gold.PLP.part.hbond>
-4.0000

> <Gold.PLP.part.metal>
0.0000

> <Gold.PLP.part.buried>
-5.2239

> <Gold.PLP.part.nonpolar>
-27.8681

> <Gold.PLP.part.repulsive>
0.4297

> <Gold.PLP.ligand.clash>
0.0000

> <Gold.PLP.ligand.torsion>
0.6633

> <Gold.PLP.Chemscore.Hbond>
2.7680

> <Gold.PLP.Chemscore.CHOScore>
0.0000

> <Gold.PLP.Chemscore.Metal>
0.0000

> <Gold.Chemscore.Hbonds>
donor molecule, donor type, donor heavy atom, donor atom, acceptor molecule, acceptor atom, score
      L1  H    17    44       P1 10957  0.76
      P1  H  7989  7998       L1     1  0.46
      P1  H 10752 10763       L1     7  0.94

> <Gold.PLP.Chemscore.Internal.Correction>
0.2129

> <Gold.Rescore>
     Score         DG    S(hbond)    S(metal)    S(lipo)     H(rot)  DE(clash)    DE(int)     intcor
      9.09     -14.78       2.68        0.00      82.03       3.61       0.71       4.98       ----

> <Gold.Chemscore.Fitness>
9.0938

> <Gold.Chemscore.DG>
-14.7796

> <Gold.Chemscore.ZeroCoef>
-5.4800

> <Gold.Chemscore.Hbond>
2.6757

> <Gold.Chemscore.Metal>
0.0000

> <Gold.Chemscore.Lipo>
82.0250

> <Gold.Chemscore.Internal_Hbond>
0.0000

> <Gold.Chemscore.DEClash>
0.7057

> <Gold.Chemscore.DEInternal>
4.9802

> <Gold.Chemscore.Rot>
3.6071

> <Gold.Chemscore.Internal.Correction>
   9.000000E+99

> <Gold.Chemscore.Hbonds>
donor molecule, donor type, donor heavy atom, donor atom, acceptor molecule, acceptor atom, score
      L1  H    17    44       P1 10957  0.71
      P1  H  7989  7998       L1     1  0.03
      P1  H 10752 10763       L1     7  0.72

> <Gold.Chemscore.Hbond.Weighted>
-8.9369

> <Gold.Chemscore.Metal.Weighted>
-0.0000

> <Gold.Chemscore.Lipo.Weighted>
-9.5969

> <Gold.Chemscore.Internal_Hbond.Weighted>
0.0000

> <Gold.Chemscore.DEClash.Weighted>
0.7057

> <Gold.Chemscore.DEInternal.Weighted>
4.9802

> <Gold.Chemscore.Rot.Weighted>
9.2342

> <Gold.Chemscore.Internal.Correction.Weighted>
   9.000000E+99

> <Gold.Protein.RotatedTorsions>
[ 6907 6896 6895 6894 ] final  125.03 input  -60.11 | X-H torsion
[ 7974 7965 7964 7962 ] final  -49.33 input  175.53 | X-H torsion
[ 8008 7997 7996 7995 ] final -144.04 input   59.86 | X-H torsion
[ 10167 10162 10161 10158 ] final -125.41 input  -65.29 | X-H torsion
[ 10718 10713 10712 10709 ] final -167.49 input   66.30 | X-H torsion
[ 10763 10752 10751 10750 ] final   50.82 input  -60.55 | X-H torsion
[ 11005 11000 10999 10996 ] final -112.70 input  -57.11 | X-H torsion

> <Gold.Protein.ActiveResidues>
 VAL166  LYS551  ARG553  GLY616  TRP617  ASP618  TYR619  PRO620  LYS621  CYS622 
 ASP623  PHE694  ASN695  SER759  ASP760  ASP761  ALA762  ILE779  LEU786  VAL792 
 PHE793  MET794  SER795  GLU796  ALA797  LYS798  CYS799  TRP800  GLU811  SER814 

> <Gold.Protein.RotatedAtoms>
  152.4027  133.6842  159.6329 H   0  0  0  0  0  0  0  0  0  0  0  0  # atno 6907 bound_to 6896
  150.7916  133.8762  159.3281 H   0  0  0  0  0  0  0  0  0  0  0  0  # atno 6908 bound_to 6896
  151.6524  135.1001  160.0215 H   0  0  0  0  0  0  0  0  0  0  0  0  # atno 6909 bound_to 6896
  145.9417  140.7656  142.9549 H   0  0  0  0  0  0  0  0  0  0  0  0  # atno 7974 bound_to 7965
  155.5204  140.0591  157.2907 H   0  0  0  0  0  0  0  0  0  0  0  0  # atno 8008 bound_to 7997
  154.4519  140.1953  156.0439 H   0  0  0  0  0  0  0  0  0  0  0  0  # atno 8009 bound_to 7997
  156.0722  140.3258  155.7594 H   0  0  0  0  0  0  0  0  0  0  0  0  # atno 8010 bound_to 7997
  139.9824  143.5728  152.2373 H   0  0  0  0  0  0  0  0  0  0  0  0  # atno 10167 bound_to 10162
  156.6831  130.9130  151.3059 H   0  0  0  0  0  0  0  0  0  0  0  0  # atno 10718 bound_to 10713
  152.9784  135.5866  154.4315 H   0  0  0  0  0  0  0  0  0  0  0  0  # atno 10763 bound_to 10752
  154.3927  135.2768  155.2147 H   0  0  0  0  0  0  0  0  0  0  0  0  # atno 10764 bound_to 10752
  154.4012  135.6103  153.5952 H   0  0  0  0  0  0  0  0  0  0  0  0  # atno 10765 bound_to 10752
  141.0659  133.9460  157.2579 H   0  0  0  0  0  0  0  0  0  0  0  0  # atno 11005 bound_to 11000
  144.6780  140.2291  143.7357 LP  0  0  0  0  0  0  0  0  0  0  0  0  # atno 17320 bound_to 7965
  145.8291  139.2078  143.1893 LP  0  0  0  0  0  0  0  0  0  0  0  0  # atno 17321 bound_to 7965
  139.6400  144.7654  151.2359 LP  0  0  0  0  0  0  0  0  0  0  0  0  # atno 17342 bound_to 10162
  140.7484  143.6333  150.8402 LP  0  0  0  0  0  0  0  0  0  0  0  0  # atno 17343 bound_to 10162
  157.7036  130.9360  150.0861 LP  0  0  0  0  0  0  0  0  0  0  0  0  # atno 17370 bound_to 10713
  156.1853  130.3652  149.8981 LP  0  0  0  0  0  0  0  0  0  0  0  0  # atno 17371 bound_to 10713
  139.9476  135.0181  156.8898 LP  0  0  0  0  0  0  0  0  0  0  0  0  # atno 17394 bound_to 11000
  140.5774  134.0385  155.7452 LP  0  0  0  0  0  0  0  0  0  0  0  0  # atno 17395 bound_to 11000

$$$$
