AV-unprocessed.smi:3100|AV-procd|sdf|11806|dock4
  -GOLD-   2272017183D 1   1.00000     0.00000
 Structure written by MMmdl.
 28 29  0  0  0  0  0  0  0  0  1 V2000
  151.3500  144.2842  159.0926 C   0  0  0  0  0  0  0  0  0  0  0  0
  152.1228  143.1956  159.8442 C   0  0  2  0  0  0  0  0  0  0  0  0
  153.6130  143.1554  159.5248 C   0  0  0  0  0  0  0  0  0  0  0  0
  153.9846  141.7534  159.9639 C   0  0  0  0  0  0  0  0  0  0  0  0
  152.6966  140.9454  159.7216 C   0  0  2  0  0  0  0  0  0  0  0  0
  152.7763  139.9895  158.5254 C   0  0  0  0  0  0  0  0  0  0  0  0
  153.7652  139.2693  158.3822 O   0  0  0  0  0  0  0  0  0  0  0  0
  151.7259  140.0200  157.6847 N   0  0  0  0  0  0  0  0  0  0  0  0
  151.5293  139.2642  156.4990 C   0  0  0  0  0  0  0  0  0  0  0  0
  151.9503  137.9143  156.5539 C   0  0  0  0  0  0  0  0  0  0  0  0
  151.8270  137.0684  155.5069 N   0  0  0  0  0  0  0  0  0  0  0  0
  151.2728  137.5742  154.3842 C   0  0  0  0  0  0  0  0  0  0  0  0
  150.8472  138.9157  154.3114 C   0  0  0  0  0  0  0  0  0  0  0  0
  150.9747  139.7560  155.3614 N   0  0  0  0  0  0  0  0  0  0  0  0
  151.6769  141.9062  159.4513 O   0  0  0  0  0  0  0  0  0  0  0  0
  151.7068  145.2771  159.3671 H   0  0  0  0  0  0  0  0  0  0  0  0
  150.2860  144.2358  159.3244 H   0  0  0  0  0  0  0  0  0  0  0  0
  151.4610  144.1739  158.0134 H   0  0  0  0  0  0  0  0  0  0  0  0
  151.9759  143.3026  160.9203 H   0  0  0  0  0  0  0  0  0  0  0  0
  153.7773  143.2649  158.4515 H   0  0  0  0  0  0  0  0  0  0  0  0
  154.1818  143.9298  160.0401 H   0  0  0  0  0  0  0  0  0  0  0  0
  154.8576  141.3734  159.4311 H   0  0  0  0  0  0  0  0  0  0  0  0
  154.2255  141.7483  161.0277 H   0  0  0  0  0  0  0  0  0  0  0  0
  152.4351  140.3947  160.6269 H   0  0  0  0  0  0  0  0  0  0  0  0
  150.9815  140.6590  157.9227 H   0  0  0  0  0  0  0  0  0  0  0  0
  152.3936  137.5042  157.4500 H   0  0  0  0  0  0  0  0  0  0  0  0
  151.1684  136.9072  153.5414 H   0  0  0  0  0  0  0  0  0  0  0  0
  150.4045  139.3150  153.4110 H   0  0  0  0  0  0  0  0  0  0  0  0
  1  2  1  0  0  0  0
  1 16  1  0  0  0  0
  1 17  1  0  0  0  0
  1 18  1  0  0  0  0
  2 15  1  0  0  0  0
  2  3  1  0  0  0  0
  2 19  1  0  0  0  0
  3  4  1  0  0  0  0
  3 20  1  0  0  0  0
  3 21  1  0  0  0  0
  4  5  1  0  0  0  0
  4 22  1  0  0  0  0
  4 23  1  0  0  0  0
  5  6  1  0  0  0  0
  5 15  1  0  0  0  0
  5 24  1  0  0  0  0
  6  7  2  0  0  0  0
  6  8  1  0  0  0  0
  8  9  1  0  0  0  0
  8 25  1  0  0  0  0
  9 14  1  0  0  0  0
  9 10  2  0  0  0  0
 10 11  1  0  0  0  0
 10 26  1  0  0  0  0
 11 12  2  0  0  0  0
 12 13  1  0  0  0  0
 12 27  1  0  0  0  0
 13 14  2  0  0  0  0
 13 28  1  0  0  0  0
M  END
> <s_m_source_file>
AV-unprocessed.smi

> <i_m_source_file_index>
3100

> <i_lp_mmshare_version>
43012

> <i_f3d_flags>
0

> <s_epik_input>
W0NIM11bQ0BASF0xW0NIMl1bQ0gyXVtDQEhdKE8xKUMoPU8pW05IXWMyW2NIXW5bY0hdW2NIXW4y

> <s_epik_cmdline>
J2VwaWtfcHl0aG9uJywgJy1waCcsICc3LjAnLCAnLXRuJywgJzgnLCAnLW1hJywgJzIwMCcsICctbWV0YWxfYmluZGluZycsICctaW1hZScsICc8aW5maWxlLm1hZT4nLCAnLW9tYWUnLCAnPG91dGZpbGUubWFlPic=

> <r_lp_tautomer_probability>
1

> <r_epik_Ionization_Penalty>
2.81186e-06

> <r_epik_Ionization_Penalty_Charging>
0

> <r_epik_Ionization_Penalty_Neutral>
2.81186e-06

> <r_epik_State_Penalty>
-0

> <r_epik_Charging_Adjusted_Penalty>
0

> <i_epik_Tot_Q>
0

> <i_epik_Tot_abs_Q>
0

> <r_epik_Metal_State_Penalty>
-0

> <b_epik_Metal_Only>
0

> <s_lp_Force_Field>
OPLS_2005

> <r_lp_Energy>
25.9651

> <b_lp_Chiralities_Consistent>
1

> <s_lp_Variant>
AV-unprocessed.smi:3100-3

> <Gold.Version>
5.8.1

> <Gold.Id.Protein>
6NUR|6NUR_protein|mol2

> <Gold.PLP.Fitness>
39.6663

> <Gold.PLP.PLP>
-29.0273

> <Gold.PLP.part.hbond>
-2.2990

> <Gold.PLP.part.metal>
0.0000

> <Gold.PLP.part.buried>
-4.0597

> <Gold.PLP.part.nonpolar>
-22.6052

> <Gold.PLP.part.repulsive>
0.1473

> <Gold.PLP.ligand.clash>
0.0000

> <Gold.PLP.ligand.torsion>
0.6710

> <Gold.PLP.Chemscore.Hbond>
1.9913

> <Gold.PLP.Chemscore.CHOScore>
2.0000

> <Gold.PLP.Chemscore.Metal>
0.0000

> <Gold.Chemscore.Hbonds>
donor molecule, donor type, donor heavy atom, donor atom, acceptor molecule, acceptor atom, score
      P1  H  7997  8009       L1     7  1.00
      P1  H 10752 10763       L1    11  0.98
      L1  C    12    27       P1  7949  1.00
      L1  C    13    28       P1  7957  1.00

> <Gold.PLP.Chemscore.Internal.Correction>
0.0073

> <Gold.Rescore>
     Score         DG    S(hbond)    S(metal)    S(lipo)     H(rot)  DE(clash)    DE(int)     intcor
     15.43     -17.41       1.85        0.00      70.95       1.00       0.03       1.95       ----

> <Gold.Chemscore.Fitness>
15.4285

> <Gold.Chemscore.DG>
-17.4070

> <Gold.Chemscore.ZeroCoef>
-5.4800

> <Gold.Chemscore.Hbond>
1.8521

> <Gold.Chemscore.Metal>
0.0000

> <Gold.Chemscore.Lipo>
70.9492

> <Gold.Chemscore.Internal_Hbond>
0.0000

> <Gold.Chemscore.DEClash>
0.0310

> <Gold.Chemscore.DEInternal>
1.9475

> <Gold.Chemscore.Rot>
1.0000

> <Gold.Chemscore.Internal.Correction>
   9.000000E+99

> <Gold.Chemscore.Hbonds>
donor molecule, donor type, donor heavy atom, donor atom, acceptor molecule, acceptor atom, score
      P1  H  7997  8009       L1     7  0.60
      P1  H 10752 10763       L1    11  0.27

> <Gold.Chemscore.Hbond.Weighted>
-6.1860

> <Gold.Chemscore.Metal.Weighted>
-0.0000

> <Gold.Chemscore.Lipo.Weighted>
-8.3011

> <Gold.Chemscore.Internal_Hbond.Weighted>
0.0000

> <Gold.Chemscore.DEClash.Weighted>
0.0310

> <Gold.Chemscore.DEInternal.Weighted>
1.9475

> <Gold.Chemscore.Rot.Weighted>
2.5600

> <Gold.Chemscore.Internal.Correction.Weighted>
   9.000000E+99

> <Gold.Protein.RotatedTorsions>
[ 6907 6896 6895 6894 ] final  110.75 input  -60.11 | X-H torsion
[ 7974 7965 7964 7962 ] final -104.09 input  175.53 | X-H torsion
[ 8008 7997 7996 7995 ] final  140.78 input   59.86 | X-H torsion
[ 10167 10162 10161 10158 ] final  115.81 input  -65.29 | X-H torsion
[ 10718 10713 10712 10709 ] final -178.28 input   66.30 | X-H torsion
[ 10763 10752 10751 10750 ] final   68.01 input  -60.55 | X-H torsion
[ 11005 11000 10999 10996 ] final  -64.24 input  -57.11 | X-H torsion

> <Gold.Protein.ActiveResidues>
 VAL166  LYS551  ARG553  GLY616  TRP617  ASP618  TYR619  PRO620  LYS621  CYS622 
 ASP623  PHE694  ASN695  SER759  ASP760  ASP761  ALA762  ILE779  LEU786  VAL792 
 PHE793  MET794  SER795  GLU796  ALA797  LYS798  CYS799  TRP800  GLU811  SER814 

> <Gold.Protein.RotatedAtoms>
  152.5004  133.8756  159.7320 H   0  0  0  0  0  0  0  0  0  0  0  0  # atno 6907 bound_to 6896
  150.9231  133.6847  159.2834 H   0  0  0  0  0  0  0  0  0  0  0  0  # atno 6908 bound_to 6896
  151.4217  135.1003  159.9668 H   0  0  0  0  0  0  0  0  0  0  0  0  # atno 6909 bound_to 6896
  145.2475  140.9227  143.3114 H   0  0  0  0  0  0  0  0  0  0  0  0  # atno 7974 bound_to 7965
  156.2975  140.2332  156.4457 H   0  0  0  0  0  0  0  0  0  0  0  0  # atno 8008 bound_to 7997
  154.8146  140.0441  157.1388 H   0  0  0  0  0  0  0  0  0  0  0  0  # atno 8009 bound_to 7997
  154.9384  140.3026  155.5136 H   0  0  0  0  0  0  0  0  0  0  0  0  # atno 8010 bound_to 7997
  139.6290  144.7112  151.2471 H   0  0  0  0  0  0  0  0  0  0  0  0  # atno 10167 bound_to 10162
  156.8419  130.9689  151.3099 H   0  0  0  0  0  0  0  0  0  0  0  0  # atno 10718 bound_to 10713
  153.0214  135.5263  154.7068 H   0  0  0  0  0  0  0  0  0  0  0  0  # atno 10763 bound_to 10752
  154.6161  135.2883  155.0380 H   0  0  0  0  0  0  0  0  0  0  0  0  # atno 10764 bound_to 10752
  154.1384  135.6582  153.4989 H   0  0  0  0  0  0  0  0  0  0  0  0  # atno 10765 bound_to 10752
  141.1418  133.6663  156.5803 H   0  0  0  0  0  0  0  0  0  0  0  0  # atno 11005 bound_to 11000
  144.9533  139.4059  143.6392 LP  0  0  0  0  0  0  0  0  0  0  0  0  # atno 17320 bound_to 7965
  146.3311  139.8550  142.8866 LP  0  0  0  0  0  0  0  0  0  0  0  0  # atno 17321 bound_to 7965
  140.7428  143.6514  150.8245 LP  0  0  0  0  0  0  0  0  0  0  0  0  # atno 17342 bound_to 10162
  140.0136  143.5616  152.2829 LP  0  0  0  0  0  0  0  0  0  0  0  0  # atno 17343 bound_to 10162
  157.6351  130.8760  149.9344 LP  0  0  0  0  0  0  0  0  0  0  0  0  # atno 17370 bound_to 10713
  156.0876  130.3666  150.0458 LP  0  0  0  0  0  0  0  0  0  0  0  0  # atno 17371 bound_to 10713
  140.3843  134.7496  157.4681 LP  0  0  0  0  0  0  0  0  0  0  0  0  # atno 17394 bound_to 11000
  140.0614  134.5990  155.8745 LP  0  0  0  0  0  0  0  0  0  0  0  0  # atno 17395 bound_to 11000

$$$$
