AV-unprocessed.smi:1741|AV-procd|sdf|7016|dock1
  -GOLD-   22720 8233D 1   1.00000     0.00000
 Structure written by MMmdl.
 38 39  0  0  0  0  0  0  0  0  1 V2000
  150.7016  141.8482  157.3799 C   0  0  0  0  0  0  0  0  0  0  0  0
  150.4841  142.1348  155.8893 C   0  0  0  0  0  0  0  0  0  0  0  0
  150.2664  140.9164  155.1342 N   0  0  0  0  0  0  0  0  0  0  0  0
  149.1837  140.5829  154.3445 C   0  0  0  0  0  0  0  0  0  0  0  0
  149.4516  139.3340  153.8592 C   0  0  0  0  0  0  0  0  0  0  0  0
  148.6738  138.5153  153.0019 N   0  0  0  0  0  0  0  0  0  0  0  0
  147.3947  138.6996  152.6366 C   0  0  0  0  0  0  0  0  0  0  0  0
  146.6875  139.6430  152.9909 O   0  0  0  0  0  0  0  0  0  0  0  0
  146.9786  137.7204  151.8204 N   0  0  0  0  0  0  0  0  0  0  0  0
  145.6462  137.6028  151.2295 C   0  0  2  0  0  0  0  0  0  0  0  0
  144.6012  137.6464  152.3540 C   0  0  0  0  0  0  0  0  0  0  0  0
  145.5379  136.3087  150.3967 C   0  0  2  0  0  0  0  0  0  0  0  0
  144.1116  135.8154  150.1475 C   0  0  0  0  0  0  0  0  0  0  0  0
  144.3441  134.3521  149.8498 C   0  0  0  0  0  0  0  0  0  0  0  0
  145.4691  134.0059  150.8217 C   0  0  0  0  0  0  0  0  0  0  0  0
  146.1681  135.2232  151.0721 O   0  0  0  0  0  0  0  0  0  0  0  0
  150.7146  138.9728  154.3957 C   0  0  0  0  0  0  0  0  0  0  0  0
  151.2015  139.9345  155.1648 N   0  0  0  0  0  0  0  0  0  0  0  0
  150.8529  142.7743  157.9347 H   0  0  0  0  0  0  0  0  0  0  0  0
  151.5782  141.2192  157.5379 H   0  0  0  0  0  0  0  0  0  0  0  0
  149.8402  141.3379  157.8121 H   0  0  0  0  0  0  0  0  0  0  0  0
  149.6212  142.7878  155.7541 H   0  0  0  0  0  0  0  0  0  0  0  0
  151.3461  142.6580  155.4732 H   0  0  0  0  0  0  0  0  0  0  0  0
  148.3452  141.2500  154.2094 H   0  0  0  0  0  0  0  0  0  0  0  0
  149.1405  137.7015  152.6292 H   0  0  0  0  0  0  0  0  0  0  0  0
  147.6377  136.9924  151.5868 H   0  0  0  0  0  0  0  0  0  0  0  0
  145.4555  138.4531  150.5722 H   0  0  0  0  0  0  0  0  0  0  0  0
  143.5885  137.6031  151.9526 H   0  0  0  0  0  0  0  0  0  0  0  0
  144.6837  138.5677  152.9313 H   0  0  0  0  0  0  0  0  0  0  0  0
  144.7214  136.8091  153.0423 H   0  0  0  0  0  0  0  0  0  0  0  0
  146.0395  136.4378  149.4359 H   0  0  0  0  0  0  0  0  0  0  0  0
  143.5045  135.9212  151.0479 H   0  0  0  0  0  0  0  0  0  0  0  0
  143.6129  136.3421  149.3335 H   0  0  0  0  0  0  0  0  0  0  0  0
  143.4548  133.7371  149.9893 H   0  0  0  0  0  0  0  0  0  0  0  0
  144.6862  134.2314  148.8210 H   0  0  0  0  0  0  0  0  0  0  0  0
  145.0622  133.6411  151.7653 H   0  0  0  0  0  0  0  0  0  0  0  0
  146.1356  133.2412  150.4226 H   0  0  0  0  0  0  0  0  0  0  0  0
  151.2825  138.0647  154.2565 H   0  0  0  0  0  0  0  0  0  0  0  0
  1  2  1  0  0  0  0
  1 19  1  0  0  0  0
  1 20  1  0  0  0  0
  1 21  1  0  0  0  0
  2  3  1  0  0  0  0
  2 22  1  0  0  0  0
  2 23  1  0  0  0  0
  3 18  1  0  0  0  0
  3  4  1  0  0  0  0
  4  5  2  0  0  0  0
  4 24  1  0  0  0  0
  5  6  1  0  0  0  0
  5 17  1  0  0  0  0
  6  7  1  0  0  0  0
  6 25  1  0  0  0  0
  7  8  2  0  0  0  0
  7  9  1  0  0  0  0
  9 10  1  0  0  0  0
  9 26  1  0  0  0  0
 10 11  1  0  0  0  0
 10 12  1  0  0  0  0
 10 27  1  0  0  0  0
 11 28  1  0  0  0  0
 11 29  1  0  0  0  0
 11 30  1  0  0  0  0
 12 16  1  0  0  0  0
 12 13  1  0  0  0  0
 12 31  1  0  0  0  0
 13 14  1  0  0  0  0
 13 32  1  0  0  0  0
 13 33  1  0  0  0  0
 14 15  1  0  0  0  0
 14 34  1  0  0  0  0
 14 35  1  0  0  0  0
 15 16  1  0  0  0  0
 15 36  1  0  0  0  0
 15 37  1  0  0  0  0
 17 18  2  0  0  0  0
 17 38  1  0  0  0  0
M  END
> <s_m_source_file>
AV-unprocessed.smi

> <i_m_source_file_index>
1741

> <i_lp_mmshare_version>
43012

> <i_f3d_flags>
0

> <s_epik_input>
W0NIM11bQ0gyXW4xW2NIXWMoW2NIXW4xKVtOSF1DKD1PKVtOSF1bQ0BIXShbQ0gzXSlbQ0BASF0yW0NIMl1bQ0gyXVtDSDJdTzI=

> <s_epik_cmdline>
J2VwaWtfcHl0aG9uJywgJy1waCcsICc3LjAnLCAnLXRuJywgJzgnLCAnLW1hJywgJzIwMCcsICctbWV0YWxfYmluZGluZycsICctaW1hZScsICc8aW5maWxlLm1hZT4nLCAnLW9tYWUnLCAnPG91dGZpbGUubWFlPic=

> <r_lp_tautomer_probability>
1

> <r_epik_Ionization_Penalty>
0.000179292

> <r_epik_Ionization_Penalty_Charging>
0

> <r_epik_Ionization_Penalty_Neutral>
0.000179292

> <r_epik_State_Penalty>
-0

> <r_epik_Charging_Adjusted_Penalty>
0

> <i_epik_Tot_Q>
0

> <i_epik_Tot_abs_Q>
0

> <r_epik_Metal_State_Penalty>
-0

> <b_epik_Metal_Only>
0

> <s_lp_Force_Field>
OPLS_2005

> <r_lp_Energy>
21.1803

> <b_lp_Chiralities_Consistent>
1

> <s_lp_Variant>
AV-unprocessed.smi:1741-1

> <Gold.Version>
5.8.1

> <Gold.Id.Protein>
6NUR|6NUR_protein|mol2

> <Gold.PLP.Fitness>
37.1107

> <Gold.PLP.PLP>
-31.4404

> <Gold.PLP.part.hbond>
-4.0000

> <Gold.PLP.part.metal>
0.0000

> <Gold.PLP.part.buried>
-2.6585

> <Gold.PLP.part.nonpolar>
-25.3742

> <Gold.PLP.part.repulsive>
0.4458

> <Gold.PLP.ligand.clash>
0.0000

> <Gold.PLP.ligand.torsion>
0.4401

> <Gold.PLP.Chemscore.Hbond>
2.1750

> <Gold.PLP.Chemscore.CHOScore>
0.0000

> <Gold.PLP.Chemscore.Metal>
0.0000

> <Gold.Chemscore.Hbonds>
donor molecule, donor type, donor heavy atom, donor atom, acceptor molecule, acceptor atom, score
      L1  H     6    25       P1  7948  0.94
      L1  H     9    26       P1  7948  0.96

> <Gold.PLP.Chemscore.Internal.Correction>
0.0254

> <Gold.Rescore>
     Score         DG    S(hbond)    S(metal)    S(lipo)     H(rot)  DE(clash)    DE(int)     intcor
     14.85     -16.43       1.94        0.00      68.34       1.38       0.12       1.46       ----

> <Gold.Chemscore.Fitness>
14.8533

> <Gold.Chemscore.DG>
-16.4348

> <Gold.Chemscore.ZeroCoef>
-5.4800

> <Gold.Chemscore.Hbond>
1.9429

> <Gold.Chemscore.Metal>
0.0000

> <Gold.Chemscore.Lipo>
68.3387

> <Gold.Chemscore.Internal_Hbond>
0.0000

> <Gold.Chemscore.DEClash>
0.1245

> <Gold.Chemscore.DEInternal>
1.4571

> <Gold.Chemscore.Rot>
1.3790

> <Gold.Chemscore.Internal.Correction>
   9.000000E+99

> <Gold.Chemscore.Hbonds>
donor molecule, donor type, donor heavy atom, donor atom, acceptor molecule, acceptor atom, score
      L1  H     6    25       P1  7948  0.88
      L1  H     9    26       P1  7948  0.87

> <Gold.Chemscore.Hbond.Weighted>
-6.4893

> <Gold.Chemscore.Metal.Weighted>
-0.0000

> <Gold.Chemscore.Lipo.Weighted>
-7.9956

> <Gold.Chemscore.Internal_Hbond.Weighted>
0.0000

> <Gold.Chemscore.DEClash.Weighted>
0.1245

> <Gold.Chemscore.DEInternal.Weighted>
1.4571

> <Gold.Chemscore.Rot.Weighted>
3.5302

> <Gold.Chemscore.Internal.Correction.Weighted>
   9.000000E+99

> <Gold.Protein.RotatedTorsions>
[ 6907 6896 6895 6894 ] final  174.34 input  -60.11 | X-H torsion
[ 7974 7965 7964 7962 ] final -121.79 input  175.53 | X-H torsion
[ 8008 7997 7996 7995 ] final  150.04 input   59.86 | X-H torsion
[ 10167 10162 10161 10158 ] final  -97.94 input  -65.29 | X-H torsion
[ 10718 10713 10712 10709 ] final   42.63 input   66.30 | X-H torsion
[ 10763 10752 10751 10750 ] final   50.47 input  -60.55 | X-H torsion
[ 11005 11000 10999 10996 ] final   76.10 input  -57.11 | X-H torsion

> <Gold.Protein.ActiveResidues>
 VAL166  LYS551  ARG553  GLY616  TRP617  ASP618  TYR619  PRO620  LYS621  CYS622 
 ASP623  PHE694  ASN695  SER759  ASP760  ASP761  ALA762  ILE779  LEU786  VAL792 
 PHE793  MET794  SER795  GLU796  ALA797  LYS798  CYS799  TRP800  GLU811  SER814 

> <Gold.Protein.RotatedAtoms>
  151.7538  133.3329  159.3398 H   0  0  0  0  0  0  0  0  0  0  0  0  # atno 6907 bound_to 6896
  150.7524  134.6168  159.6124 H   0  0  0  0  0  0  0  0  0  0  0  0  # atno 6908 bound_to 6896
  152.3450  134.7085  160.0304 H   0  0  0  0  0  0  0  0  0  0  0  0  # atno 6909 bound_to 6896
  145.0365  140.8110  143.4292 H   0  0  0  0  0  0  0  0  0  0  0  0  # atno 7974 bound_to 7965
  156.2732  140.2085  156.5953 H   0  0  0  0  0  0  0  0  0  0  0  0  # atno 8008 bound_to 7997
  154.6949  140.0526  157.0424 H   0  0  0  0  0  0  0  0  0  0  0  0  # atno 8009 bound_to 7997
  155.0814  140.3187  155.4603 H   0  0  0  0  0  0  0  0  0  0  0  0  # atno 8010 bound_to 7997
  140.2782  143.3299  152.0467 H   0  0  0  0  0  0  0  0  0  0  0  0  # atno 10167 bound_to 10162
  157.4070  130.7892  149.7397 H   0  0  0  0  0  0  0  0  0  0  0  0  # atno 10718 bound_to 10713
  152.9784  135.5878  154.4258 H   0  0  0  0  0  0  0  0  0  0  0  0  # atno 10763 bound_to 10752
  154.3877  135.2767  155.2176 H   0  0  0  0  0  0  0  0  0  0  0  0  # atno 10764 bound_to 10752
  154.4062  135.6092  153.5980 H   0  0  0  0  0  0  0  0  0  0  0  0  # atno 10765 bound_to 10752
  139.9313  134.7573  156.1353 H   0  0  0  0  0  0  0  0  0  0  0  0  # atno 11005 bound_to 11000
  145.1703  139.2408  143.5345 LP  0  0  0  0  0  0  0  0  0  0  0  0  # atno 17320 bound_to 7965
  146.3504  140.1452  142.8593 LP  0  0  0  0  0  0  0  0  0  0  0  0  # atno 17321 bound_to 7965
  139.4970  144.6610  151.6465 LP  0  0  0  0  0  0  0  0  0  0  0  0  # atno 17342 bound_to 10162
  140.5834  143.9907  150.6281 LP  0  0  0  0  0  0  0  0  0  0  0  0  # atno 17343 bound_to 10162
  155.9839  130.3996  150.3338 LP  0  0  0  0  0  0  0  0  0  0  0  0  # atno 17370 bound_to 10713
  157.1472  131.0311  151.2901 LP  0  0  0  0  0  0  0  0  0  0  0  0  # atno 17371 bound_to 10713
  141.0903  133.6717  156.2527 LP  0  0  0  0  0  0  0  0  0  0  0  0  # atno 17394 bound_to 11000
  140.6194  134.5377  157.5545 LP  0  0  0  0  0  0  0  0  0  0  0  0  # atno 17395 bound_to 11000

$$$$
