AV-unprocessed.smi:2010|AV-procd|sdf|8150|dock9
  -GOLD-   2272010393D 1   1.00000     0.00000
 Structure written by MMmdl.
 41 42  0  0  0  0  0  0  0  0  1 V2000
  151.9547  145.5879  159.9941 C   0  0  0  0  0  0  0  0  0  0  0  0
  151.5092  144.2512  159.3848 C   0  0  0  0  0  0  0  0  0  0  0  0
  152.3445  143.0773  159.9139 C   0  0  0  0  0  0  0  0  0  0  0  0
  151.8908  141.7397  159.3058 C   0  0  0  0  0  0  0  0  0  0  0  0
  151.8897  141.7860  157.8298 N   0  0  0  0  0  0  0  0  0  0  0  0
  151.8451  140.2804  156.9722 S   0  0  0  0  0  0  0  0  0  0  0  0
  151.5837  140.5465  155.5492 O   0  0  0  0  0  0  0  0  0  0  0  0
  152.9817  139.4465  157.3922 O   0  0  0  0  0  0  0  0  0  0  0  0
  150.4117  139.6266  157.6670 N   0  0  0  0  0  0  0  0  0  0  0  0
  149.2018  139.5036  156.8515 C   0  0  1  0  0  0  0  0  0  0  0  0
  148.0732  138.8955  157.6978 C   0  0  0  0  0  0  0  0  0  0  0  0
  148.8588  140.8676  156.2163 C   0  0  0  0  0  0  0  0  0  0  0  0
  148.1336  140.7586  154.9607 N   0  0  0  0  0  0  0  0  0  0  0  0
  147.7495  141.7701  154.1054 C   0  0  0  0  0  0  0  0  0  0  0  0
  147.0919  141.1907  153.0586 C   0  0  0  0  0  0  0  0  0  0  0  0
  147.1302  139.8014  153.3636 C   0  0  0  0  0  0  0  0  0  0  0  0
  147.7556  139.5455  154.5013 N   0  0  0  0  0  0  0  0  0  0  0  0
  151.1514  142.9254  157.2492 C   0  0  0  0  0  0  0  0  0  0  0  0
  151.6074  144.2632  157.8535 C   0  0  0  0  0  0  0  0  0  0  0  0
  152.9942  145.8086  159.7491 H   0  0  0  0  0  0  0  0  0  0  0  0
  151.8636  145.5732  161.0804 H   0  0  0  0  0  0  0  0  0  0  0  0
  151.3431  146.4109  159.6233 H   0  0  0  0  0  0  0  0  0  0  0  0
  150.4673  144.0867  159.6628 H   0  0  0  0  0  0  0  0  0  0  0  0
  153.3986  143.2406  159.6847 H   0  0  0  0  0  0  0  0  0  0  0  0
  152.2710  143.0258  161.0005 H   0  0  0  0  0  0  0  0  0  0  0  0
  152.5537  140.9454  159.6484 H   0  0  0  0  0  0  0  0  0  0  0  0
  150.8883  141.4875  159.6532 H   0  0  0  0  0  0  0  0  0  0  0  0
  150.5933  138.8054  158.2433 H   0  0  0  0  0  0  0  0  0  0  0  0
  149.4128  138.8112  156.0355 H   0  0  0  0  0  0  0  0  0  0  0  0
  147.1578  138.7981  157.1137 H   0  0  0  0  0  0  0  0  0  0  0  0
  147.8472  139.5070  158.5717 H   0  0  0  0  0  0  0  0  0  0  0  0
  148.3449  137.9009  158.0525 H   0  0  0  0  0  0  0  0  0  0  0  0
  148.2616  141.4649  156.9067 H   0  0  0  0  0  0  0  0  0  0  0  0
  149.7752  141.4331  156.0403 H   0  0  0  0  0  0  0  0  0  0  0  0
  147.9710  142.8064  154.3140 H   0  0  0  0  0  0  0  0  0  0  0  0
  146.6520  141.6837  152.2045 H   0  0  0  0  0  0  0  0  0  0  0  0
  146.7255  138.9766  152.7958 H   0  0  0  0  0  0  0  0  0  0  0  0
  151.2991  142.9487  156.1695 H   0  0  0  0  0  0  0  0  0  0  0  0
  150.0839  142.7792  157.4187 H   0  0  0  0  0  0  0  0  0  0  0  0
  151.0002  145.0719  157.4455 H   0  0  0  0  0  0  0  0  0  0  0  0
  152.6353  144.4670  157.5495 H   0  0  0  0  0  0  0  0  0  0  0  0
  1  2  1  0  0  0  0
  1 20  1  0  0  0  0
  1 21  1  0  0  0  0
  1 22  1  0  0  0  0
  2 19  1  0  0  0  0
  2  3  1  0  0  0  0
  2 23  1  0  0  0  0
  3  4  1  0  0  0  0
  3 24  1  0  0  0  0
  3 25  1  0  0  0  0
  4  5  1  0  0  0  0
  4 26  1  0  0  0  0
  4 27  1  0  0  0  0
  5  6  1  0  0  0  0
  5 18  1  0  0  0  0
  6  7  2  0  0  0  0
  6  8  2  0  0  0  0
  6  9  1  0  0  0  0
  9 10  1  0  0  0  0
  9 28  1  0  0  0  0
 10 11  1  0  0  0  0
 10 12  1  0  0  0  0
 10 29  1  0  0  0  0
 11 30  1  0  0  0  0
 11 31  1  0  0  0  0
 11 32  1  0  0  0  0
 12 13  1  0  0  0  0
 12 33  1  0  0  0  0
 12 34  1  0  0  0  0
 13 17  1  0  0  0  0
 13 14  1  0  0  0  0
 14 15  2  0  0  0  0
 14 35  1  0  0  0  0
 15 16  1  0  0  0  0
 15 36  1  0  0  0  0
 16 17  2  0  0  0  0
 16 37  1  0  0  0  0
 18 19  1  0  0  0  0
 18 38  1  0  0  0  0
 18 39  1  0  0  0  0
 19 40  1  0  0  0  0
 19 41  1  0  0  0  0
M  END
> <s_m_source_file>
AV-unprocessed.smi

> <i_m_source_file_index>
2010

> <i_lp_mmshare_version>
43012

> <i_f3d_flags>
0

> <s_epik_input>
W0NIM11bQ0hdMVtDSDJdW0NIMl1OKFtDSDJdW0NIMl0xKVMoPU8pKD1PKVtOSF1bQ0BIXShbQ0gzXSlbQ0gyXW4yW2NIXVtjSF1bY0hdbjI=

> <s_epik_cmdline>
J2VwaWtfcHl0aG9uJywgJy1waCcsICc3LjAnLCAnLXRuJywgJzgnLCAnLW1hJywgJzIwMCcsICctbWV0YWxfYmluZGluZycsICctaW1hZScsICc8aW5maWxlLm1hZT4nLCAnLW9tYWUnLCAnPG91dGZpbGUubWFlPic=

> <r_lp_tautomer_probability>
1

> <r_epik_Ionization_Penalty>
0.0313937

> <r_epik_Ionization_Penalty_Charging>
0

> <r_epik_Ionization_Penalty_Neutral>
0.0313937

> <r_epik_State_Penalty>
0.0259441

> <r_epik_Charging_Adjusted_Penalty>
0.0259441

> <i_epik_Tot_Q>
0

> <i_epik_Tot_abs_Q>
0

> <r_epik_Metal_State_Penalty>
0.365037

> <b_epik_Metal_Only>
0

> <s_lp_Force_Field>
OPLS_2005

> <r_lp_Energy>
7.16397

> <b_lp_Chiralities_Consistent>
1

> <s_lp_Variant>
AV-unprocessed.smi:2010-2

> <Gold.Version>
5.8.1

> <Gold.Id.Protein>
6NUR|6NUR_protein|mol2

> <Gold.PLP.Fitness>
44.7085

> <Gold.PLP.PLP>
-37.4212

> <Gold.PLP.part.hbond>
-2.0000

> <Gold.PLP.part.metal>
0.0000

> <Gold.PLP.part.buried>
-5.6735

> <Gold.PLP.part.nonpolar>
-29.7390

> <Gold.PLP.part.repulsive>
0.1131

> <Gold.PLP.ligand.clash>
0.0000

> <Gold.PLP.ligand.torsion>
1.5040

> <Gold.PLP.Chemscore.Hbond>
1.7262

> <Gold.PLP.Chemscore.CHOScore>
1.0000

> <Gold.PLP.Chemscore.Metal>
0.0000

> <Gold.Chemscore.Hbonds>
donor molecule, donor type, donor heavy atom, donor atom, acceptor molecule, acceptor atom, score
      P1  H  7989  7998       L1     7  0.70
      P1  H  7997  8009       L1     8  1.00
      L1  C    14    35       P1  8028  1.00

> <Gold.PLP.Chemscore.Internal.Correction>
2.1168

> <Gold.Rescore>
     Score         DG    S(hbond)    S(metal)    S(lipo)     H(rot)  DE(clash)    DE(int)     intcor
     15.50     -18.39       1.76        0.00      95.05       1.59       0.08       2.81       ----

> <Gold.Chemscore.Fitness>
15.5016

> <Gold.Chemscore.DG>
-18.3937

> <Gold.Chemscore.ZeroCoef>
-5.4800

> <Gold.Chemscore.Hbond>
1.7556

> <Gold.Chemscore.Metal>
0.0000

> <Gold.Chemscore.Lipo>
95.0484

> <Gold.Chemscore.Internal_Hbond>
0.0000

> <Gold.Chemscore.DEClash>
0.0830

> <Gold.Chemscore.DEInternal>
2.8091

> <Gold.Chemscore.Rot>
1.5901

> <Gold.Chemscore.Internal.Correction>
   9.000000E+99

> <Gold.Chemscore.Hbonds>
donor molecule, donor type, donor heavy atom, donor atom, acceptor molecule, acceptor atom, score
      P1  H  7989  7998       L1     7  0.67
      P1  H  7997  8009       L1     8  0.65

> <Gold.Chemscore.Hbond.Weighted>
-5.8637

> <Gold.Chemscore.Metal.Weighted>
-0.0000

> <Gold.Chemscore.Lipo.Weighted>
-11.1207

> <Gold.Chemscore.Internal_Hbond.Weighted>
0.0000

> <Gold.Chemscore.DEClash.Weighted>
0.0830

> <Gold.Chemscore.DEInternal.Weighted>
2.8091

> <Gold.Chemscore.Rot.Weighted>
4.0707

> <Gold.Chemscore.Internal.Correction.Weighted>
   9.000000E+99

> <Gold.Protein.RotatedTorsions>
[ 6907 6896 6895 6894 ] final  -77.13 input  -60.11 | X-H torsion
[ 7974 7965 7964 7962 ] final  168.07 input  175.53 | X-H torsion
[ 8008 7997 7996 7995 ] final  177.67 input   59.86 | X-H torsion
[ 10167 10162 10161 10158 ] final  -26.72 input  -65.29 | X-H torsion
[ 10718 10713 10712 10709 ] final  135.57 input   66.30 | X-H torsion
[ 10763 10752 10751 10750 ] final   59.84 input  -60.55 | X-H torsion
[ 11005 11000 10999 10996 ] final  -40.54 input  -57.11 | X-H torsion

> <Gold.Protein.ActiveResidues>
 VAL166  LYS551  ARG553  GLY616  TRP617  ASP618  TYR619  PRO620  LYS621  CYS622 
 ASP623  PHE694  ASN695  SER759  ASP760  ASP761  ALA762  ILE779  LEU786  VAL792 
 PHE793  MET794  SER795  GLU796  ALA797  LYS798  CYS799  TRP800  GLU811  SER814 

> <Gold.Protein.RotatedAtoms>
  150.7007  134.4468  159.5317 H   0  0  0  0  0  0  0  0  0  0  0  0  # atno 6907 bound_to 6896
  152.2168  134.8447  160.0500 H   0  0  0  0  0  0  0  0  0  0  0  0  # atno 6908 bound_to 6896
  151.9312  133.3577  159.3968 H   0  0  0  0  0  0  0  0  0  0  0  0  # atno 6909 bound_to 6896
  144.7401  139.8853  143.6399 H   0  0  0  0  0  0  0  0  0  0  0  0  # atno 7974 bound_to 7965
  156.0631  140.1352  156.9917 H   0  0  0  0  0  0  0  0  0  0  0  0  # atno 8008 bound_to 7997
  154.4492  140.0987  156.6618 H   0  0  0  0  0  0  0  0  0  0  0  0  # atno 8009 bound_to 7997
  155.5346  140.3459  155.4435 H   0  0  0  0  0  0  0  0  0  0  0  0  # atno 8010 bound_to 7997
  140.7281  143.4154  151.1037 H   0  0  0  0  0  0  0  0  0  0  0  0  # atno 10167 bound_to 10162
  157.4556  131.1069  150.9981 H   0  0  0  0  0  0  0  0  0  0  0  0  # atno 10718 bound_to 10713
  152.9905  135.5557  154.5778 H   0  0  0  0  0  0  0  0  0  0  0  0  # atno 10763 bound_to 10752
  154.5166  135.2805  155.1300 H   0  0  0  0  0  0  0  0  0  0  0  0  # atno 10764 bound_to 10752
  154.2671  135.6370  153.5349 H   0  0  0  0  0  0  0  0  0  0  0  0  # atno 10765 bound_to 10752
  141.0182  133.6875  156.2335 H   0  0  0  0  0  0  0  0  0  0  0  0  # atno 11005 bound_to 11000
  146.1181  139.4195  143.0245 LP  0  0  0  0  0  0  0  0  0  0  0  0  # atno 17320 bound_to 7965
  145.7345  141.0030  143.1334 LP  0  0  0  0  0  0  0  0  0  0  0  0  # atno 17321 bound_to 7965
  139.7793  143.8379  152.3135 LP  0  0  0  0  0  0  0  0  0  0  0  0  # atno 17342 bound_to 10162
  139.8324  144.7247  150.9433 LP  0  0  0  0  0  0  0  0  0  0  0  0  # atno 17343 bound_to 10162
  157.0796  130.5897  149.5418 LP  0  0  0  0  0  0  0  0  0  0  0  0  # atno 17370 bound_to 10713
  156.0006  130.5084  150.7648 LP  0  0  0  0  0  0  0  0  0  0  0  0  # atno 17371 bound_to 10713
  140.6619  134.4959  157.5584 LP  0  0  0  0  0  0  0  0  0  0  0  0  # atno 17394 bound_to 11000
  139.9129  134.8306  156.1464 LP  0  0  0  0  0  0  0  0  0  0  0  0  # atno 17395 bound_to 11000

$$$$
