AV-unprocessed.smi:800|AV-procd|sdf|3787|dock8
  -GOLD-   22720 1223D 1   1.00000     0.00000
 Structure written by MMmdl.
 36 37  0  0  0  0  0  0  0  0  1 V2000
  157.0764  144.9230  164.0597 C   0  0  0  0  0  0  0  0  0  0  0  0
  156.9848  143.3995  164.2154 C   0  0  0  0  0  0  0  0  0  0  0  0
  158.3666  142.7349  164.1151 C   0  0  0  0  0  0  0  0  0  0  0  0
  156.0869  142.8622  163.1983 N   0  0  0  0  0  0  0  0  0  0  0  0
  155.8897  141.5591  162.9406 C   0  0  0  0  0  0  0  0  0  0  0  0
  156.4271  140.6489  163.5726 O   0  0  0  0  0  0  0  0  0  0  0  0
  154.8912  141.2565  161.8606 C   0  0  0  0  0  0  0  0  0  0  0  0
  154.2036  142.3118  161.3668 N   0  0  0  0  0  0  0  0  0  0  0  0
  153.2970  142.0954  160.4059 C   0  0  0  0  0  0  0  0  0  0  0  0
  152.6014  143.2054  159.9092 N   0  0  0  0  0  0  0  0  0  0  0  0
  151.7246  143.1138  158.7388 C   0  0  0  0  0  0  0  0  0  0  0  0
  151.7248  144.4341  157.9501 C   0  0  0  0  0  0  0  0  0  0  0  0
  151.3724  145.5103  158.8106 O   0  0  0  0  0  0  0  0  0  0  0  0
  152.3100  145.6605  159.8691 C   0  0  0  0  0  0  0  0  0  0  0  0
  152.3306  144.3872  160.7316 C   0  0  0  0  0  0  0  0  0  0  0  0
  153.0062  140.8958  159.8879 N   0  0  0  0  0  0  0  0  0  0  0  0
  153.6681  139.8249  160.3725 C   0  0  0  0  0  0  0  0  0  0  0  0
  154.6405  139.9432  161.3843 C   0  0  0  0  0  0  0  0  0  0  0  0
  155.4229  138.5247  161.9949 Cl  0  0  0  0  0  0  0  0  0  0  0  0
  157.7236  145.3568  164.8225 H   0  0  0  0  0  0  0  0  0  0  0  0
  156.0949  145.3877  164.1595 H   0  0  0  0  0  0  0  0  0  0  0  0
  157.4795  145.2003  163.0849 H   0  0  0  0  0  0  0  0  0  0  0  0
  156.5690  143.1909  165.2027 H   0  0  0  0  0  0  0  0  0  0  0  0
  159.0431  143.1234  164.8766 H   0  0  0  0  0  0  0  0  0  0  0  0
  158.8236  142.9135  163.1412 H   0  0  0  0  0  0  0  0  0  0  0  0
  158.2993  141.6559  164.2577 H   0  0  0  0  0  0  0  0  0  0  0  0
  155.5815  143.5325  162.6369 H   0  0  0  0  0  0  0  0  0  0  0  0
  152.0225  142.3136  158.0621 H   0  0  0  0  0  0  0  0  0  0  0  0
  150.7148  142.8806  159.0778 H   0  0  0  0  0  0  0  0  0  0  0  0
  152.7017  144.6175  157.4996 H   0  0  0  0  0  0  0  0  0  0  0  0
  151.0036  144.3829  157.1344 H   0  0  0  0  0  0  0  0  0  0  0  0
  153.3014  145.8733  159.4658 H   0  0  0  0  0  0  0  0  0  0  0  0
  152.0238  146.5193  160.4759 H   0  0  0  0  0  0  0  0  0  0  0  0
  151.3675  144.2546  161.2254 H   0  0  0  0  0  0  0  0  0  0  0  0
  153.0729  144.5207  161.5179 H   0  0  0  0  0  0  0  0  0  0  0  0
  153.4120  138.8629  159.9538 H   0  0  0  0  0  0  0  0  0  0  0  0
  1  2  1  0  0  0  0
  1 20  1  0  0  0  0
  1 21  1  0  0  0  0
  1 22  1  0  0  0  0
  2  3  1  0  0  0  0
  2  4  1  0  0  0  0
  2 23  1  0  0  0  0
  3 24  1  0  0  0  0
  3 25  1  0  0  0  0
  3 26  1  0  0  0  0
  4  5  1  0  0  0  0
  4 27  1  0  0  0  0
  5  6  2  0  0  0  0
  5  7  1  0  0  0  0
  7 18  1  0  0  0  0
  7  8  2  0  0  0  0
  8  9  1  0  0  0  0
  9 10  1  0  0  0  0
  9 16  2  0  0  0  0
 10 15  1  0  0  0  0
 10 11  1  0  0  0  0
 11 12  1  0  0  0  0
 11 28  1  0  0  0  0
 11 29  1  0  0  0  0
 12 13  1  0  0  0  0
 12 30  1  0  0  0  0
 12 31  1  0  0  0  0
 13 14  1  0  0  0  0
 14 15  1  0  0  0  0
 14 32  1  0  0  0  0
 14 33  1  0  0  0  0
 15 34  1  0  0  0  0
 15 35  1  0  0  0  0
 16 17  1  0  0  0  0
 17 18  2  0  0  0  0
 17 36  1  0  0  0  0
 18 19  1  0  0  0  0
M  END
> <s_m_source_file>
AV-unprocessed.smi

> <i_m_source_file_index>
800

> <i_lp_mmshare_version>
43012

> <i_f3d_flags>
0

> <s_epik_input>
W0NIM11bQ0hdKFtDSDNdKVtOSF1DKD1PKWMxbmMobltjSF1jMUNsKU4yW0NIMl1bQ0gyXU9bQ0gyXVtDSDJdMg==

> <s_epik_cmdline>
J2VwaWtfcHl0aG9uJywgJy1waCcsICc3LjAnLCAnLXRuJywgJzgnLCAnLW1hJywgJzIwMCcsICctbWV0YWxfYmluZGluZycsICctaW1hZScsICc8aW5maWxlLm1hZT4nLCAnLW9tYWUnLCAnPG91dGZpbGUubWFlPic=

> <r_lp_tautomer_probability>
1

> <r_epik_Ionization_Penalty>
1.24434e-05

> <r_epik_Ionization_Penalty_Charging>
0

> <r_epik_Ionization_Penalty_Neutral>
1.24434e-05

> <r_epik_State_Penalty>
-0

> <r_epik_Charging_Adjusted_Penalty>
0

> <i_epik_Tot_Q>
0

> <i_epik_Tot_abs_Q>
0

> <r_epik_Metal_State_Penalty>
0.0120585

> <b_epik_Metal_Only>
0

> <s_lp_Force_Field>
OPLS_2005

> <r_lp_Energy>
14.0321

> <b_lp_Chiralities_Consistent>
1

> <s_lp_Variant>
AV-unprocessed.smi:800-1

> <Gold.Version>
5.8.1

> <Gold.Id.Protein>
6NUR|6NUR_protein|mol2

> <Gold.PLP.Fitness>
42.6779

> <Gold.PLP.PLP>
-43.1948

> <Gold.PLP.part.hbond>
-2.5156

> <Gold.PLP.part.metal>
0.0000

> <Gold.PLP.part.buried>
-0.6061

> <Gold.PLP.part.nonpolar>
-38.7300

> <Gold.PLP.part.repulsive>
0.1993

> <Gold.PLP.ligand.clash>
0.0000

> <Gold.PLP.ligand.torsion>
0.3132

> <Gold.PLP.Chemscore.Hbond>
0.0000

> <Gold.PLP.Chemscore.CHOScore>
0.0000

> <Gold.PLP.Chemscore.Metal>
0.0000

> <Gold.PLP.Chemscore.Internal.Correction>
0.1094

> <Gold.Rescore>
     Score         DG    S(hbond)    S(metal)    S(lipo)     H(rot)  DE(clash)    DE(int)     intcor
     11.70     -14.51       0.00        0.00      99.09       1.00       0.04       2.77       ----

> <Gold.Chemscore.Fitness>
11.7041

> <Gold.Chemscore.DG>
-14.5141

> <Gold.Chemscore.ZeroCoef>
-5.4800

> <Gold.Chemscore.Hbond>
0.0000

> <Gold.Chemscore.Metal>
0.0000

> <Gold.Chemscore.Lipo>
99.0946

> <Gold.Chemscore.Internal_Hbond>
0.0000

> <Gold.Chemscore.DEClash>
0.0418

> <Gold.Chemscore.DEInternal>
2.7681

> <Gold.Chemscore.Rot>
1.0000

> <Gold.Chemscore.Internal.Correction>
   9.000000E+99

> <Gold.Chemscore.Hbond.Weighted>
-0.0000

> <Gold.Chemscore.Metal.Weighted>
-0.0000

> <Gold.Chemscore.Lipo.Weighted>
-11.5941

> <Gold.Chemscore.Internal_Hbond.Weighted>
0.0000

> <Gold.Chemscore.DEClash.Weighted>
0.0418

> <Gold.Chemscore.DEInternal.Weighted>
2.7681

> <Gold.Chemscore.Rot.Weighted>
2.5600

> <Gold.Chemscore.Internal.Correction.Weighted>
   9.000000E+99

> <Gold.Protein.RotatedTorsions>
[ 6907 6896 6895 6894 ] final  -35.66 input  -60.11 | X-H torsion
[ 7974 7965 7964 7962 ] final -152.21 input  175.53 | X-H torsion
[ 8008 7997 7996 7995 ] final   43.77 input   59.86 | X-H torsion
[ 10167 10162 10161 10158 ] final  139.57 input  -65.29 | X-H torsion
[ 10718 10713 10712 10709 ] final   36.45 input   66.30 | X-H torsion
[ 10763 10752 10751 10750 ] final  131.13 input  -60.55 | X-H torsion
[ 11005 11000 10999 10996 ] final  -15.97 input  -57.11 | X-H torsion

> <Gold.Protein.ActiveResidues>
 VAL166  LYS551  ARG553  GLY616  TRP617  ASP618  TYR619  PRO620  LYS621  CYS622 
 ASP623  PHE694  ASN695  SER759  ASP760  ASP761  ALA762  ILE779  LEU786  VAL792 
 PHE793  MET794  SER795  GLU796  ALA797  LYS798  CYS799  TRP800  GLU811  SER814 

> <Gold.Protein.RotatedAtoms>
  151.0369  134.9579  159.8140 H   0  0  0  0  0  0  0  0  0  0  0  0  # atno 6907 bound_to 6896
  152.5357  134.2708  159.8980 H   0  0  0  0  0  0  0  0  0  0  0  0  # atno 6908 bound_to 6896
  151.2719  133.4209  159.2655 H   0  0  0  0  0  0  0  0  0  0  0  0  # atno 6909 bound_to 6896
  144.7807  140.4693  143.5841 H   0  0  0  0  0  0  0  0  0  0  0  0  # atno 7974 bound_to 7965
  155.3082  140.3389  155.4245 H   0  0  0  0  0  0  0  0  0  0  0  0  # atno 8008 bound_to 7997
  156.1968  140.1718  156.8020 H   0  0  0  0  0  0  0  0  0  0  0  0  # atno 8009 bound_to 7997
  154.5509  140.0706  156.8650 H   0  0  0  0  0  0  0  0  0  0  0  0  # atno 8010 bound_to 7997
  139.5075  144.6287  151.5873 H   0  0  0  0  0  0  0  0  0  0  0  0  # atno 10167 bound_to 10162
  157.3351  130.7518  149.6873 H   0  0  0  0  0  0  0  0  0  0  0  0  # atno 10718 bound_to 10713
  153.7693  135.3184  155.3349 H   0  0  0  0  0  0  0  0  0  0  0  0  # atno 10763 bound_to 10752
  154.8202  135.4608  154.0760 H   0  0  0  0  0  0  0  0  0  0  0  0  # atno 10764 bound_to 10752
  153.2015  135.6923  153.8310 H   0  0  0  0  0  0  0  0  0  0  0  0  # atno 10765 bound_to 10752
  140.8021  133.8206  155.9480 H   0  0  0  0  0  0  0  0  0  0  0  0  # atno 11005 bound_to 11000
  145.6059  139.1508  143.3103 LP  0  0  0  0  0  0  0  0  0  0  0  0  # atno 17320 bound_to 7965
  146.2013  140.6178  142.9101 LP  0  0  0  0  0  0  0  0  0  0  0  0  # atno 17321 bound_to 7965
  140.6012  143.9606  150.6387 LP  0  0  0  0  0  0  0  0  0  0  0  0  # atno 17342 bound_to 10162
  140.2818  143.3384  152.1144 LP  0  0  0  0  0  0  0  0  0  0  0  0  # atno 17343 bound_to 10162
  155.9700  130.4184  150.4325 LP  0  0  0  0  0  0  0  0  0  0  0  0  # atno 17370 bound_to 10713
  157.2364  131.0515  151.2462 LP  0  0  0  0  0  0  0  0  0  0  0  0  # atno 17371 bound_to 10713
  140.9284  134.2053  157.4880 LP  0  0  0  0  0  0  0  0  0  0  0  0  # atno 17394 bound_to 11000
  139.8721  134.9822  156.5148 LP  0  0  0  0  0  0  0  0  0  0  0  0  # atno 17395 bound_to 11000

$$$$
