AV-unprocessed.smi:3166|AV-procd|sdf|12093|dock2
  -GOLD-   2272017523D 1   1.00000     0.00000
 Structure written by MMmdl.
 41 42  0  0  0  0  0  0  0  0  2 V2000
  151.5715  140.9533  157.4257 C   0  0  0  0  0  0  0  0  0  0  0  0
  150.9882  142.3036  156.9862 C   0  0  2  0  0  0  0  0  0  0  0  0
  150.1095  142.9248  158.1000 C   0  0  0  0  0  0  0  0  0  0  0  0
  150.8682  143.7975  158.9774 N   0  0  0  0  0  0  0  0  0  0  0  0
  150.7173  145.1547  159.1702 C   0  0  0  0  0  0  0  0  0  0  0  0
  151.6489  145.5403  160.0911 C   0  0  0  0  0  0  0  0  0  0  0  0
  152.3310  144.3326  160.4080 C   0  0  0  0  0  0  0  0  0  0  0  0
  151.8613  143.2917  159.7395 N   0  0  0  0  0  0  0  0  0  0  0  0
  150.2299  142.1187  155.7287 N   0  3  0  0  0  0  0  0  0  0  0  0
  149.2895  140.9767  155.7140 C   0  0  0  0  0  0  0  0  0  0  0  0
  148.5432  140.8486  154.3641 C   0  0  0  0  0  0  0  0  0  0  0  0
  149.5269  140.8273  153.3470 O   0  0  0  0  0  0  0  0  0  0  0  0
  147.6949  139.5581  154.2489 C   0  0  0  0  0  0  0  0  0  0  0  0
  146.4577  139.5876  155.1635 C   0  0  0  0  0  0  0  0  0  0  0  0
  145.5887  140.8230  154.8813 C   0  0  0  0  0  0  0  0  0  0  0  0
  146.4026  142.1214  154.9946 C   0  0  0  0  0  0  0  0  0  0  0  0
  147.6506  142.0827  154.0930 C   0  0  0  0  0  0  0  0  0  0  0  0
  152.1776  141.0631  158.3257 H   0  0  0  0  0  0  0  0  0  0  0  0
  152.2120  140.5306  156.6508 H   0  0  0  0  0  0  0  0  0  0  0  0
  150.7843  140.2293  157.6397 H   0  0  0  0  0  0  0  0  0  0  0  0
  151.8349  142.9581  156.7705 H   0  0  0  0  0  0  0  0  0  0  0  0
  149.2694  143.4848  157.6857 H   0  0  0  0  0  0  0  0  0  0  0  0
  149.6630  142.1458  158.7197 H   0  0  0  0  0  0  0  0  0  0  0  0
  149.9678  145.7267  158.6430 H   0  0  0  0  0  0  0  0  0  0  0  0
  151.8175  146.5338  160.4796 H   0  0  0  0  0  0  0  0  0  0  0  0
  153.1473  144.1822  161.0992 H   0  0  0  0  0  0  0  0  0  0  0  0
  149.6801  142.9518  155.5732 H   0  0  0  0  0  0  0  0  0  0  0  0
  149.8424  140.0634  155.9205 H   0  0  0  0  0  0  0  0  0  0  0  0
  148.5726  141.0988  156.5273 H   0  0  0  0  0  0  0  0  0  0  0  0
  149.2404  140.2397  152.6636 H   0  0  0  0  0  0  0  0  0  0  0  0
  147.3558  139.4394  153.2184 H   0  0  0  0  0  0  0  0  0  0  0  0
  148.2944  138.6734  154.4651 H   0  0  0  0  0  0  0  0  0  0  0  0
  145.8685  138.6824  155.0146 H   0  0  0  0  0  0  0  0  0  0  0  0
  146.7634  139.5816  156.2100 H   0  0  0  0  0  0  0  0  0  0  0  0
  145.1642  140.7470  153.8795 H   0  0  0  0  0  0  0  0  0  0  0  0
  144.7449  140.8506  155.5717 H   0  0  0  0  0  0  0  0  0  0  0  0
  145.7776  142.9713  154.7192 H   0  0  0  0  0  0  0  0  0  0  0  0
  146.6930  142.2848  156.0326 H   0  0  0  0  0  0  0  0  0  0  0  0
  148.2241  143.0024  154.2173 H   0  0  0  0  0  0  0  0  0  0  0  0
  147.3211  142.0729  153.0527 H   0  0  0  0  0  0  0  0  0  0  0  0
  150.8814  142.0194  154.9636 H   0  0  0  0  0  0  0  0  0  0  0  0
  1  2  1  0  0  0  0
  1 18  1  0  0  0  0
  1 19  1  0  0  0  0
  1 20  1  0  0  0  0
  2  3  1  0  0  0  0
  2  9  1  0  0  0  0
  2 21  1  0  0  0  0
  3  4  1  0  0  0  0
  3 22  1  0  0  0  0
  3 23  1  0  0  0  0
  4  8  1  0  0  0  0
  4  5  1  0  0  0  0
  5  6  2  0  0  0  0
  5 24  1  0  0  0  0
  6  7  1  0  0  0  0
  6 25  1  0  0  0  0
  7  8  2  0  0  0  0
  7 26  1  0  0  0  0
  9 10  1  0  0  0  0
  9 27  1  0  0  0  0
  9 41  1  0  0  0  0
 10 11  1  0  0  0  0
 10 28  1  0  0  0  0
 10 29  1  0  0  0  0
 11 17  1  0  0  0  0
 11 12  1  0  0  0  0
 11 13  1  0  0  0  0
 12 30  1  0  0  0  0
 13 14  1  0  0  0  0
 13 31  1  0  0  0  0
 13 32  1  0  0  0  0
 14 15  1  0  0  0  0
 14 33  1  0  0  0  0
 14 34  1  0  0  0  0
 15 16  1  0  0  0  0
 15 35  1  0  0  0  0
 15 36  1  0  0  0  0
 16 17  1  0  0  0  0
 16 37  1  0  0  0  0
 16 38  1  0  0  0  0
 17 39  1  0  0  0  0
 17 40  1  0  0  0  0
M  CHG  1   9   1
M  END
> <s_m_source_file>
AV-unprocessed.smi

> <i_m_source_file_index>
3166

> <i_lp_mmshare_version>
43012

> <i_f3d_flags>
0

> <s_epik_input>
bjFbY0hdW2NIXVtjSF1uMVtDSDJdW0NAQEhdKFtDSDNdKVtOSF1bQ0gyXUMyKFtPSF0pW0NIMl1bQ0gyXVtDSDJdW0NIMl1bQ0gyXTI=

> <s_epik_cmdline>
J2VwaWtfcHl0aG9uJywgJy1waCcsICc3LjAnLCAnLXRuJywgJzgnLCAnLW1hJywgJzIwMCcsICctbWV0YWxfYmluZGluZycsICctaW1hZScsICc8aW5maWxlLm1hZT4nLCAnLW9tYWUnLCAnPG91dGZpbGUubWFlPic=

> <r_lp_tautomer_probability>
1

> <r_epik_Ionization_Penalty>
0.0111521

> <r_epik_Ionization_Penalty_Charging>
0.0111472

> <r_epik_Ionization_Penalty_Neutral>
4.96355e-06

> <r_epik_State_Penalty>
0.00856328

> <r_epik_Charging_Adjusted_Penalty>
0.0197104

> <i_epik_Tot_Q>
1

> <i_epik_Tot_abs_Q>
1

> <r_epik_Metal_State_Penalty>
0.00856387

> <b_epik_Metal_Only>
0

> <s_lp_Force_Field>
OPLS_2005

> <r_lp_Energy>
18.587

> <b_lp_Chiralities_Consistent>
1

> <s_lp_Variant>
AV-unprocessed.smi:3166-1

> <Gold.Version>
5.8.1

> <Gold.Id.Protein>
6NUR|6NUR_protein|mol2

> <Gold.PLP.Fitness>
48.2248

> <Gold.PLP.PLP>
-34.5502

> <Gold.PLP.part.hbond>
-3.2992

> <Gold.PLP.part.metal>
0.0000

> <Gold.PLP.part.buried>
-4.9761

> <Gold.PLP.part.nonpolar>
-26.8645

> <Gold.PLP.part.repulsive>
0.1549

> <Gold.PLP.ligand.clash>
0.0000

> <Gold.PLP.ligand.torsion>
0.5688

> <Gold.PLP.Chemscore.Hbond>
3.9267

> <Gold.PLP.Chemscore.CHOScore>
1.0000

> <Gold.PLP.Chemscore.Metal>
0.0000

> <Gold.Chemscore.Hbonds>
donor molecule, donor type, donor heavy atom, donor atom, acceptor molecule, acceptor atom, score
      L1  H     9    27       P1  8028  2.00
      L1  H    12    30       P1  7957  0.69
      P1  H  7989  7998       L1    12  0.24
      P1  H  8011  8017       L1    12  1.00
      L1  C     5    24       P1  8029  1.00

> <Gold.PLP.Chemscore.Internal.Correction>
0.0322

> <Gold.Rescore>
     Score         DG    S(hbond)    S(metal)    S(lipo)     H(rot)  DE(clash)    DE(int)     intcor
     17.59     -18.19       2.33        0.00      90.19       2.20       0.05       0.55       ----

> <Gold.Chemscore.Fitness>
17.5917

> <Gold.Chemscore.DG>
-18.1868

> <Gold.Chemscore.ZeroCoef>
-5.4800

> <Gold.Chemscore.Hbond>
2.3306

> <Gold.Chemscore.Metal>
0.0000

> <Gold.Chemscore.Lipo>
90.1913

> <Gold.Chemscore.Internal_Hbond>
0.0000

> <Gold.Chemscore.DEClash>
0.0475

> <Gold.Chemscore.DEInternal>
0.5477

> <Gold.Chemscore.Rot>
2.1991

> <Gold.Chemscore.Internal.Correction>
   9.000000E+99

> <Gold.Chemscore.Hbonds>
donor molecule, donor type, donor heavy atom, donor atom, acceptor molecule, acceptor atom, score
      L1  H     9    27       P1  8028  0.99
      L1  H    12    30       P1  7957  0.67
      P1  H  7989  7998       L1    12  0.19
      P1  H  8011  8017       L1    12  0.25

> <Gold.Chemscore.Hbond.Weighted>
-7.7842

> <Gold.Chemscore.Metal.Weighted>
-0.0000

> <Gold.Chemscore.Lipo.Weighted>
-10.5524

> <Gold.Chemscore.Internal_Hbond.Weighted>
0.0000

> <Gold.Chemscore.DEClash.Weighted>
0.0475

> <Gold.Chemscore.DEInternal.Weighted>
0.5477

> <Gold.Chemscore.Rot.Weighted>
5.6298

> <Gold.Chemscore.Internal.Correction.Weighted>
   9.000000E+99

> <Gold.Protein.RotatedTorsions>
[ 6907 6896 6895 6894 ] final  -15.22 input  -60.11 | X-H torsion
[ 7974 7965 7964 7962 ] final  -11.61 input  175.53 | X-H torsion
[ 8008 7997 7996 7995 ] final  -31.37 input   59.86 | X-H torsion
[ 10167 10162 10161 10158 ] final -169.58 input  -65.29 | X-H torsion
[ 10718 10713 10712 10709 ] final   82.22 input   66.30 | X-H torsion
[ 10763 10752 10751 10750 ] final  155.83 input  -60.55 | X-H torsion
[ 11005 11000 10999 10996 ] final -129.48 input  -57.11 | X-H torsion

> <Gold.Protein.ActiveResidues>
 VAL166  LYS551  ARG553  GLY616  TRP617  ASP618  TYR619  PRO620  LYS621  CYS622 
 ASP623  PHE694  ASN695  SER759  ASP760  ASP761  ALA762  ILE779  LEU786  VAL792 
 PHE793  MET794  SER795  GLU796  ALA797  LYS798  CYS799  TRP800  GLU811  SER814 

> <Gold.Protein.RotatedAtoms>
  151.3273  135.0833  159.9326 H   0  0  0  0  0  0  0  0  0  0  0  0  # atno 6907 bound_to 6896
  152.5243  133.9578  159.7713 H   0  0  0  0  0  0  0  0  0  0  0  0  # atno 6908 bound_to 6896
  150.9910  133.6096  159.2738 H   0  0  0  0  0  0  0  0  0  0  0  0  # atno 6909 bound_to 6896
  146.2181  140.2936  142.8370 H   0  0  0  0  0  0  0  0  0  0  0  0  # atno 7974 bound_to 7965
  154.4216  140.1766  156.1555 H   0  0  0  0  0  0  0  0  0  0  0  0  # atno 8008 bound_to 7997
  155.9880  140.3371  155.6701 H   0  0  0  0  0  0  0  0  0  0  0  0  # atno 8009 bound_to 7997
  155.6411  140.0680  157.2609 H   0  0  0  0  0  0  0  0  0  0  0  0  # atno 8010 bound_to 7997
  139.5914  144.1205  152.1638 H   0  0  0  0  0  0  0  0  0  0  0  0  # atno 10167 bound_to 10162
  157.6852  131.0038  150.2342 H   0  0  0  0  0  0  0  0  0  0  0  0  # atno 10718 bound_to 10713
  154.1746  135.2802  155.3070 H   0  0  0  0  0  0  0  0  0  0  0  0  # atno 10763 bound_to 10752
  154.6049  135.5517  153.7416 H   0  0  0  0  0  0  0  0  0  0  0  0  # atno 10764 bound_to 10752
  153.0155  135.6401  154.1886 H   0  0  0  0  0  0  0  0  0  0  0  0  # atno 10765 bound_to 10752
  140.9428  134.1170  157.4135 H   0  0  0  0  0  0  0  0  0  0  0  0  # atno 11005 bound_to 11000
  144.9109  140.7756  143.5808 LP  0  0  0  0  0  0  0  0  0  0  0  0  # atno 17320 bound_to 7965
  145.2866  139.1898  143.4762 LP  0  0  0  0  0  0  0  0  0  0  0  0  # atno 17321 bound_to 7965
  140.0780  144.5724  150.7143 LP  0  0  0  0  0  0  0  0  0  0  0  0  # atno 17342 bound_to 10162
  140.7176  143.2559  151.4383 LP  0  0  0  0  0  0  0  0  0  0  0  0  # atno 17343 bound_to 10162
  156.2969  130.3753  149.7788 LP  0  0  0  0  0  0  0  0  0  0  0  0  # atno 17370 bound_to 10713
  156.5430  130.8308  151.3275 LP  0  0  0  0  0  0  0  0  0  0  0  0  # atno 17371 bound_to 10713
  139.8825  135.0042  156.6233 LP  0  0  0  0  0  0  0  0  0  0  0  0  # atno 17394 bound_to 11000
  140.7711  133.8738  155.8492 LP  0  0  0  0  0  0  0  0  0  0  0  0  # atno 17395 bound_to 11000

$$$$
