AV-unprocessed.smi:3301|AV-procd|sdf|12653|dock8
  -GOLD-   2272018593D 1   1.00000     0.00000
 Structure written by MMmdl.
 37 38  0  0  0  0  0  0  0  0  2 V2000
  149.1698  131.9318  156.2108 C   0  0  0  0  0  0  0  0  0  0  0  0
  149.1849  133.4122  155.7968 C   0  0  1  0  0  0  0  0  0  0  0  0
  148.8029  133.6301  154.3164 C   0  0  0  0  0  0  0  0  0  0  0  0
  147.5561  132.9542  153.9458 N   0  0  0  0  0  0  0  0  0  0  0  0
  147.3896  132.0070  152.9686 C   0  0  0  0  0  0  0  0  0  0  0  0
  146.0615  131.6663  152.9768 C   0  0  0  0  0  0  0  0  0  0  0  0
  145.4733  132.4225  153.9551 N   0  3  0  0  0  0  0  0  0  0  0  0
  146.3832  133.2077  154.5412 C   0  0  0  0  0  0  0  0  0  0  0  0
  148.2839  134.1641  156.6652 N   0  0  0  0  0  0  0  0  0  0  0  0
  148.4112  134.2810  157.9961 C   0  0  0  0  0  0  0  0  0  0  0  0
  149.3132  133.7390  158.6367 O   0  0  0  0  0  0  0  0  0  0  0  0
  147.3444  135.1249  158.7051 C   0  0  0  0  0  0  0  0  0  0  0  0
  147.3242  134.9202  160.1543 N   0  0  0  0  0  0  0  0  0  0  0  0
  147.1092  133.5961  160.7147 C   0  0  0  0  0  0  0  0  0  0  0  0
  146.9881  133.8153  162.2299 C   0  0  0  0  0  0  0  0  0  0  0  0
  147.4431  135.2566  162.4850 C   0  0  0  0  0  0  0  0  0  0  0  0
  147.5175  135.8566  161.0916 C   0  0  0  0  0  0  0  0  0  0  0  0
  147.7333  137.0507  160.8888 O   0  0  0  0  0  0  0  0  0  0  0  0
  149.8948  131.3497  155.6417 H   0  0  0  0  0  0  0  0  0  0  0  0
  148.1868  131.4863  156.0541 H   0  0  0  0  0  0  0  0  0  0  0  0
  149.4223  131.8180  157.2656 H   0  0  0  0  0  0  0  0  0  0  0  0
  150.2000  133.7826  155.9530 H   0  0  0  0  0  0  0  0  0  0  0  0
  148.6988  134.6941  154.0978 H   0  0  0  0  0  0  0  0  0  0  0  0
  149.5820  133.2479  153.6553 H   0  0  0  0  0  0  0  0  0  0  0  0
  148.2082  131.6547  152.3573 H   0  0  0  0  0  0  0  0  0  0  0  0
  145.5055  130.9622  152.3750 H   0  0  0  0  0  0  0  0  0  0  0  0
  146.2053  133.9054  155.3402 H   0  0  0  0  0  0  0  0  0  0  0  0
  147.5087  134.6355  156.2215 H   0  0  0  0  0  0  0  0  0  0  0  0
  147.5091  136.1832  158.4949 H   0  0  0  0  0  0  0  0  0  0  0  0
  146.3699  134.8736  158.2849 H   0  0  0  0  0  0  0  0  0  0  0  0
  146.2123  133.1312  160.3032 H   0  0  0  0  0  0  0  0  0  0  0  0
  147.9639  132.9611  160.4770 H   0  0  0  0  0  0  0  0  0  0  0  0
  145.9512  133.6916  162.5459 H   0  0  0  0  0  0  0  0  0  0  0  0
  147.5880  133.0958  162.7881 H   0  0  0  0  0  0  0  0  0  0  0  0
  146.7422  135.8039  163.1162 H   0  0  0  0  0  0  0  0  0  0  0  0
  148.4302  135.2874  162.9473 H   0  0  0  0  0  0  0  0  0  0  0  0
  144.4916  132.3941  154.2006 H   0  0  0  0  0  0  0  0  0  0  0  0
  1  2  1  0  0  0  0
  1 19  1  0  0  0  0
  1 20  1  0  0  0  0
  1 21  1  0  0  0  0
  2  3  1  0  0  0  0
  2  9  1  0  0  0  0
  2 22  1  0  0  0  0
  3  4  1  0  0  0  0
  3 23  1  0  0  0  0
  3 24  1  0  0  0  0
  4  8  1  0  0  0  0
  4  5  1  0  0  0  0
  5  6  2  0  0  0  0
  5 25  1  0  0  0  0
  6  7  1  0  0  0  0
  6 26  1  0  0  0  0
  7  8  2  0  0  0  0
  7 37  1  0  0  0  0
  8 27  1  0  0  0  0
  9 10  1  0  0  0  0
  9 28  1  0  0  0  0
 10 11  2  0  0  0  0
 10 12  1  0  0  0  0
 12 13  1  0  0  0  0
 12 29  1  0  0  0  0
 12 30  1  0  0  0  0
 13 17  1  0  0  0  0
 13 14  1  0  0  0  0
 14 15  1  0  0  0  0
 14 31  1  0  0  0  0
 14 32  1  0  0  0  0
 15 16  1  0  0  0  0
 15 33  1  0  0  0  0
 15 34  1  0  0  0  0
 16 17  1  0  0  0  0
 16 35  1  0  0  0  0
 16 36  1  0  0  0  0
 17 18  2  0  0  0  0
M  CHG  1   7   1
M  END
> <s_m_source_file>
AV-unprocessed.smi

> <i_m_source_file_index>
3301

> <i_lp_mmshare_version>
43012

> <i_f3d_flags>
0

> <s_epik_input>
W2NIXTFuW2NIXVtjSF1uMVtDSDJdW0NAQEhdKFtDSDNdKVtOSF1DKD1PKVtDSDJdTjJbQ0gyXVtDSDJdW0NIMl1DMj1P

> <s_epik_cmdline>
J2VwaWtfcHl0aG9uJywgJy1waCcsICc3LjAnLCAnLXRuJywgJzgnLCAnLW1hJywgJzIwMCcsICctbWV0YWxfYmluZGluZycsICctaW1hZScsICc8aW5maWxlLm1hZT4nLCAnLW9tYWUnLCAnPG91dGZpbGUubWFlPic=

> <r_lp_tautomer_probability>
1

> <r_epik_Ionization_Penalty>
0.254232

> <r_epik_Ionization_Penalty_Charging>
0

> <r_epik_Ionization_Penalty_Neutral>
0.254232

> <r_epik_State_Penalty>
0.245698

> <r_epik_Charging_Adjusted_Penalty>
0.245698

> <i_epik_Tot_Q>
1

> <i_epik_Tot_abs_Q>
1

> <r_epik_Metal_State_Penalty>
0.5358

> <b_epik_Metal_Only>
0

> <s_lp_Force_Field>
OPLS_2005

> <r_lp_Energy>
15.9577

> <b_lp_Chiralities_Consistent>
1

> <s_lp_Variant>
AV-unprocessed.smi:3301-2

> <Gold.Version>
5.8.1

> <Gold.Id.Protein>
6NUR|6NUR_protein|mol2

> <Gold.PLP.Fitness>
43.8569

> <Gold.PLP.PLP>
-26.8323

> <Gold.PLP.part.hbond>
-4.0000

> <Gold.PLP.part.metal>
0.0000

> <Gold.PLP.part.buried>
-2.3854

> <Gold.PLP.part.nonpolar>
-21.2196

> <Gold.PLP.part.repulsive>
0.0160

> <Gold.PLP.ligand.clash>
0.0000

> <Gold.PLP.ligand.torsion>
0.2683

> <Gold.PLP.Chemscore.Hbond>
4.8400

> <Gold.PLP.Chemscore.CHOScore>
1.0000

> <Gold.PLP.Chemscore.Metal>
0.0000

> <Gold.Chemscore.Hbonds>
donor molecule, donor type, donor heavy atom, donor atom, acceptor molecule, acceptor atom, score
      L1  H     7    37       P1 10957  2.00
      P1  H  6896  6909       L1    11  1.00
      P1  H  6931  6943       L1    18  0.90
      P1  H  6934  6947       L1    18  0.87
      L1  C     5    25       P1 10747  1.00

> <Gold.PLP.Chemscore.Internal.Correction>
0.0412

> <Gold.Rescore>
     Score         DG    S(hbond)    S(metal)    S(lipo)     H(rot)  DE(clash)    DE(int)     intcor
     15.30     -17.43       3.71        0.00      47.49       2.35       0.00       2.13       ----

> <Gold.Chemscore.Fitness>
15.3017

> <Gold.Chemscore.DG>
-17.4344

> <Gold.Chemscore.ZeroCoef>
-5.4800

> <Gold.Chemscore.Hbond>
3.7143

> <Gold.Chemscore.Metal>
0.0000

> <Gold.Chemscore.Lipo>
47.4949

> <Gold.Chemscore.Internal_Hbond>
0.0000

> <Gold.Chemscore.DEClash>
0.0009

> <Gold.Chemscore.DEInternal>
2.1318

> <Gold.Chemscore.Rot>
2.3470

> <Gold.Chemscore.Internal.Correction>
   9.000000E+99

> <Gold.Chemscore.Hbonds>
donor molecule, donor type, donor heavy atom, donor atom, acceptor molecule, acceptor atom, score
      L1  H     7    37       P1 10957  0.53
      P1  H  6896  6909       L1    11  0.95
      P1  H  6931  6943       L1    18  0.83
      P1  H  6934  6947       L1    18  0.80

> <Gold.Chemscore.Hbond.Weighted>
-12.4059

> <Gold.Chemscore.Metal.Weighted>
-0.0000

> <Gold.Chemscore.Lipo.Weighted>
-5.5569

> <Gold.Chemscore.Internal_Hbond.Weighted>
0.0000

> <Gold.Chemscore.DEClash.Weighted>
0.0009

> <Gold.Chemscore.DEInternal.Weighted>
2.1318

> <Gold.Chemscore.Rot.Weighted>
6.0083

> <Gold.Chemscore.Internal.Correction.Weighted>
   9.000000E+99

> <Gold.Protein.RotatedTorsions>
[ 6907 6896 6895 6894 ] final   18.72 input  -60.11 | X-H torsion
[ 7974 7965 7964 7962 ] final  174.12 input  175.53 | X-H torsion
[ 8008 7997 7996 7995 ] final -133.43 input   59.86 | X-H torsion
[ 10167 10162 10161 10158 ] final  141.36 input  -65.29 | X-H torsion
[ 10718 10713 10712 10709 ] final  -47.84 input   66.30 | X-H torsion
[ 10763 10752 10751 10750 ] final  -10.11 input  -60.55 | X-H torsion
[ 11005 11000 10999 10996 ] final  159.34 input  -57.11 | X-H torsion

> <Gold.Protein.ActiveResidues>
 VAL166  LYS551  ARG553  GLY616  TRP617  ASP618  TYR619  PRO620  LYS621  CYS622 
 ASP623  PHE694  ASN695  SER759  ASP760  ASP761  ALA762  ILE779  LEU786  VAL792 
 PHE793  MET794  SER795  GLU796  ALA797  LYS798  CYS799  TRP800  GLU811  SER814 

> <Gold.Protein.RotatedAtoms>
  151.8696  135.0494  160.0477 H   0  0  0  0  0  0  0  0  0  0  0  0  # atno 6907 bound_to 6896
  152.2598  133.5283  159.5383 H   0  0  0  0  0  0  0  0  0  0  0  0  # atno 6908 bound_to 6896
  150.7112  134.0761  159.3924 H   0  0  0  0  0  0  0  0  0  0  0  0  # atno 6909 bound_to 6896
  144.7228  139.9749  143.6438 H   0  0  0  0  0  0  0  0  0  0  0  0  # atno 7974 bound_to 7965
  155.3454  140.0474  157.3045 H   0  0  0  0  0  0  0  0  0  0  0  0  # atno 8008 bound_to 7997
  154.5255  140.2239  155.8863 H   0  0  0  0  0  0  0  0  0  0  0  0  # atno 8009 bound_to 7997
  156.1735  140.3090  155.9022 H   0  0  0  0  0  0  0  0  0  0  0  0  # atno 8010 bound_to 7997
  139.5023  144.6176  151.6126 H   0  0  0  0  0  0  0  0  0  0  0  0  # atno 10167 bound_to 10162
  156.2045  130.4157  149.9196 H   0  0  0  0  0  0  0  0  0  0  0  0  # atno 10718 bound_to 10713
  153.4645  135.7016  153.6030 H   0  0  0  0  0  0  0  0  0  0  0  0  # atno 10763 bound_to 10752
  153.4310  135.3802  155.2171 H   0  0  0  0  0  0  0  0  0  0  0  0  # atno 10764 bound_to 10752
  154.8726  135.3951  154.4075 H   0  0  0  0  0  0  0  0  0  0  0  0  # atno 10765 bound_to 10752
  140.1952  134.8378  157.2956 H   0  0  0  0  0  0  0  0  0  0  0  0  # atno 11005 bound_to 11000
  146.0534  139.3532  143.0626 LP  0  0  0  0  0  0  0  0  0  0  0  0  # atno 17320 bound_to 7965
  145.8186  140.9690  143.0911 LP  0  0  0  0  0  0  0  0  0  0  0  0  # atno 17321 bound_to 7965
  140.5869  143.9848  150.6301 LP  0  0  0  0  0  0  0  0  0  0  0  0  # atno 17342 bound_to 10162
  140.3016  143.3257  152.0966 LP  0  0  0  0  0  0  0  0  0  0  0  0  # atno 17343 bound_to 10162
  156.6895  130.8890  151.3586 LP  0  0  0  0  0  0  0  0  0  0  0  0  # atno 17370 bound_to 10713
  157.7004  130.9327  150.0769 LP  0  0  0  0  0  0  0  0  0  0  0  0  # atno 17371 bound_to 10713
  140.2115  134.4132  155.7610 LP  0  0  0  0  0  0  0  0  0  0  0  0  # atno 17394 bound_to 11000
  141.2227  133.7121  156.8346 LP  0  0  0  0  0  0  0  0  0  0  0  0  # atno 17395 bound_to 11000

$$$$
