AV-unprocessed.smi:1520|AV-procd|sdf|6129|dock2
  -GOLD-   22720 6273D 1   1.00000     0.00000
 Structure written by MMmdl.
 37 38  0  0  0  0  0  0  0  0  1 V2000
  150.6249  135.3489  156.1929 O   0  0  0  0  0  0  0  0  0  0  0  0
  149.6562  135.7849  155.5708 C   0  0  0  0  0  0  0  0  0  0  0  0
  148.3037  135.0625  155.6059 C   0  0  0  0  0  0  0  0  0  0  0  0
  148.3680  133.5496  155.3130 C   0  0  0  0  0  0  0  0  0  0  0  0
  149.3934  133.0204  155.9793 F   0  0  0  0  0  0  0  0  0  0  0  0
  147.2476  132.9413  155.7052 F   0  0  0  0  0  0  0  0  0  0  0  0
  148.5476  133.3269  154.0102 F   0  0  0  0  0  0  0  0  0  0  0  0
  149.7031  136.9036  154.8306 N   0  0  0  0  0  0  0  0  0  0  0  0
  150.8711  137.7636  154.6809 C   0  0  0  0  0  0  0  0  0  0  0  0
  150.5668  139.2124  155.0137 C   0  0  0  0  0  0  0  0  0  0  0  0
  149.5563  139.9139  154.3256 C   0  0  0  0  0  0  0  0  0  0  0  0
  149.3263  141.2614  154.6633 C   0  0  0  0  0  0  0  0  0  0  0  0
  150.0240  141.9155  155.6163 N   0  0  0  0  0  0  0  0  0  0  0  0
  150.9947  141.2406  156.2779 C   0  0  0  0  0  0  0  0  0  0  0  0
  151.7154  141.9142  157.2743 N   0  0  0  0  0  0  0  0  0  0  0  0
  151.4662  143.3503  157.3066 C   0  0  0  0  0  0  0  0  0  0  0  0
  152.3843  144.0202  158.3441 C   0  0  0  0  0  0  0  0  0  0  0  0
  152.1953  143.4082  159.6168 O   0  0  0  0  0  0  0  0  0  0  0  0
  152.5100  142.0186  159.5947 C   0  0  0  0  0  0  0  0  0  0  0  0
  151.5947  141.2982  158.5899 C   0  0  0  0  0  0  0  0  0  0  0  0
  151.3021  139.8905  156.0073 C   0  0  0  0  0  0  0  0  0  0  0  0
  147.8591  135.2190  156.5897 H   0  0  0  0  0  0  0  0  0  0  0  0
  147.6405  135.5437  154.8859 H   0  0  0  0  0  0  0  0  0  0  0  0
  148.8624  137.1920  154.3513 H   0  0  0  0  0  0  0  0  0  0  0  0
  151.6970  137.4087  155.2998 H   0  0  0  0  0  0  0  0  0  0  0  0
  151.2160  137.6964  153.6488 H   0  0  0  0  0  0  0  0  0  0  0  0
  148.9723  139.4342  153.5541 H   0  0  0  0  0  0  0  0  0  0  0  0
  148.5613  141.8290  154.1545 H   0  0  0  0  0  0  0  0  0  0  0  0
  151.6413  143.7786  156.3188 H   0  0  0  0  0  0  0  0  0  0  0  0
  150.4222  143.5395  157.5604 H   0  0  0  0  0  0  0  0  0  0  0  0
  153.4308  143.9442  158.0444 H   0  0  0  0  0  0  0  0  0  0  0  0
  152.1515  145.0822  158.4227 H   0  0  0  0  0  0  0  0  0  0  0  0
  153.5605  141.8766  159.3355 H   0  0  0  0  0  0  0  0  0  0  0  0
  152.3692  141.6062  160.5938 H   0  0  0  0  0  0  0  0  0  0  0  0
  150.5594  141.3516  158.9295 H   0  0  0  0  0  0  0  0  0  0  0  0
  151.8612  140.2423  158.5295 H   0  0  0  0  0  0  0  0  0  0  0  0
  152.0858  139.3854  156.5532 H   0  0  0  0  0  0  0  0  0  0  0  0
  1  2  2  0  0  0  0
  2  3  1  0  0  0  0
  2  8  1  0  0  0  0
  3  4  1  0  0  0  0
  3 22  1  0  0  0  0
  3 23  1  0  0  0  0
  4  5  1  0  0  0  0
  4  6  1  0  0  0  0
  4  7  1  0  0  0  0
  8  9  1  0  0  0  0
  8 24  1  0  0  0  0
  9 10  1  0  0  0  0
  9 25  1  0  0  0  0
  9 26  1  0  0  0  0
 10 21  1  0  0  0  0
 10 11  2  0  0  0  0
 11 12  1  0  0  0  0
 11 27  1  0  0  0  0
 12 13  2  0  0  0  0
 12 28  1  0  0  0  0
 13 14  1  0  0  0  0
 14 15  1  0  0  0  0
 14 21  2  0  0  0  0
 15 20  1  0  0  0  0
 15 16  1  0  0  0  0
 16 17  1  0  0  0  0
 16 29  1  0  0  0  0
 16 30  1  0  0  0  0
 17 18  1  0  0  0  0
 17 31  1  0  0  0  0
 17 32  1  0  0  0  0
 18 19  1  0  0  0  0
 19 20  1  0  0  0  0
 19 33  1  0  0  0  0
 19 34  1  0  0  0  0
 20 35  1  0  0  0  0
 20 36  1  0  0  0  0
 21 37  1  0  0  0  0
M  END
> <s_m_source_file>
AV-unprocessed.smi

> <i_m_source_file_index>
1520

> <i_lp_mmshare_version>
43012

> <i_f3d_flags>
0

> <s_epik_input>
RkMoRikoRilbQ0gyXUMoPU8pW05IXVtDSDJdYzFbY0hdW2NIXW5jKFtjSF0xKU4yW0NIMl1bQ0gyXU9bQ0gyXVtDSDJdMg==

> <s_epik_cmdline>
J2VwaWtfcHl0aG9uJywgJy1waCcsICc3LjAnLCAnLXRuJywgJzgnLCAnLW1hJywgJzIwMCcsICctbWV0YWxfYmluZGluZycsICctaW1hZScsICc8aW5maWxlLm1hZT4nLCAnLW9tYWUnLCAnPG91dGZpbGUubWFlPic=

> <r_lp_tautomer_probability>
1

> <r_epik_Ionization_Penalty>
0.00358568

> <r_epik_Ionization_Penalty_Charging>
0

> <r_epik_Ionization_Penalty_Neutral>
0.00358568

> <r_epik_State_Penalty>
0.00254794

> <r_epik_Charging_Adjusted_Penalty>
0.00254794

> <i_epik_Tot_Q>
0

> <i_epik_Tot_abs_Q>
0

> <r_epik_Metal_State_Penalty>
-0

> <b_epik_Metal_Only>
0

> <s_lp_Force_Field>
OPLS_2005

> <r_lp_Energy>
12.9291

> <b_lp_Chiralities_Consistent>
1

> <s_lp_Variant>
AV-unprocessed.smi:1520-1

> <Gold.Version>
5.8.1

> <Gold.Id.Protein>
6NUR|6NUR_protein|mol2

> <Gold.PLP.Fitness>
44.2669

> <Gold.PLP.PLP>
-41.9595

> <Gold.PLP.part.hbond>
-2.0000

> <Gold.PLP.part.metal>
0.0000

> <Gold.PLP.part.buried>
-3.2531

> <Gold.PLP.part.nonpolar>
-38.1543

> <Gold.PLP.part.repulsive>
0.7782

> <Gold.PLP.ligand.clash>
0.0000

> <Gold.PLP.ligand.torsion>
0.4065

> <Gold.PLP.Chemscore.Hbond>
1.0000

> <Gold.PLP.Chemscore.CHOScore>
0.0000

> <Gold.PLP.Chemscore.Metal>
0.0000

> <Gold.PLP.Chemscore.Internal.Correction>
0.1203

> <Gold.Rescore>
     Score         DG    S(hbond)    S(metal)    S(lipo)     H(rot)  DE(clash)    DE(int)     intcor
     12.85     -13.81       0.99        0.00      86.87       2.01       0.51       0.44       ----

> <Gold.Chemscore.Fitness>
12.8497

> <Gold.Chemscore.DG>
-13.8061

> <Gold.Chemscore.ZeroCoef>
-5.4800

> <Gold.Chemscore.Hbond>
0.9903

> <Gold.Chemscore.Metal>
0.0000

> <Gold.Chemscore.Lipo>
86.8742

> <Gold.Chemscore.Internal_Hbond>
0.0000

> <Gold.Chemscore.DEClash>
0.5139

> <Gold.Chemscore.DEInternal>
0.4425

> <Gold.Chemscore.Rot>
2.0101

> <Gold.Chemscore.Internal.Correction>
   9.000000E+99

> <Gold.Chemscore.Hbond.Weighted>
-3.3076

> <Gold.Chemscore.Metal.Weighted>
-0.0000

> <Gold.Chemscore.Lipo.Weighted>
-10.1643

> <Gold.Chemscore.Internal_Hbond.Weighted>
0.0000

> <Gold.Chemscore.DEClash.Weighted>
0.5139

> <Gold.Chemscore.DEInternal.Weighted>
0.4425

> <Gold.Chemscore.Rot.Weighted>
5.1458

> <Gold.Chemscore.Internal.Correction.Weighted>
   9.000000E+99

> <Gold.Protein.RotatedTorsions>
[ 6907 6896 6895 6894 ] final  166.28 input  -60.11 | X-H torsion
[ 7974 7965 7964 7962 ] final  -60.11 input  175.53 | X-H torsion
[ 8008 7997 7996 7995 ] final   23.03 input   59.86 | X-H torsion
[ 10167 10162 10161 10158 ] final  -78.99 input  -65.29 | X-H torsion
[ 10718 10713 10712 10709 ] final  166.05 input   66.30 | X-H torsion
[ 10763 10752 10751 10750 ] final   65.22 input  -60.55 | X-H torsion
[ 11005 11000 10999 10996 ] final   34.11 input  -57.11 | X-H torsion

> <Gold.Protein.ActiveResidues>
 VAL166  LYS551  ARG553  GLY616  TRP617  ASP618  TYR619  PRO620  LYS621  CYS622 
 ASP623  PHE694  ASN695  SER759  ASP760  ASP761  ALA762  ILE779  LEU786  VAL792 
 PHE793  MET794  SER795  GLU796  ALA797  LYS798  CYS799  TRP800  GLU811  SER814 

> <Gold.Protein.RotatedAtoms>
  151.8813  133.3496  159.3767 H   0  0  0  0  0  0  0  0  0  0  0  0  # atno 6907 bound_to 6896
  150.7127  134.5016  159.5573 H   0  0  0  0  0  0  0  0  0  0  0  0  # atno 6908 bound_to 6896
  152.2568  134.8076  160.0488 H   0  0  0  0  0  0  0  0  0  0  0  0  # atno 6909 bound_to 6896
  145.8194  140.8549  143.0140 H   0  0  0  0  0  0  0  0  0  0  0  0  # atno 7974 bound_to 7965
  154.9747  140.3094  155.4972 H   0  0  0  0  0  0  0  0  0  0  0  0  # atno 8008 bound_to 7997
  156.2961  140.2277  156.4781 H   0  0  0  0  0  0  0  0  0  0  0  0  # atno 8009 bound_to 7997
  154.7844  140.0444  157.1141 H   0  0  0  0  0  0  0  0  0  0  0  0  # atno 8010 bound_to 7997
  140.4633  143.2447  151.8315 H   0  0  0  0  0  0  0  0  0  0  0  0  # atno 10167 bound_to 10162
  157.0715  131.0367  151.2610 H   0  0  0  0  0  0  0  0  0  0  0  0  # atno 10718 bound_to 10713
  153.0087  135.5365  154.6632 H   0  0  0  0  0  0  0  0  0  0  0  0  # atno 10763 bound_to 10752
  154.5836  135.2852  155.0710 H   0  0  0  0  0  0  0  0  0  0  0  0  # atno 10764 bound_to 10752
  154.1830  135.6513  153.5092 H   0  0  0  0  0  0  0  0  0  0  0  0  # atno 10765 bound_to 10752
  140.2562  134.3245  155.7873 H   0  0  0  0  0  0  0  0  0  0  0  0  # atno 11005 bound_to 11000
  144.6749  140.0511  143.7478 LP  0  0  0  0  0  0  0  0  0  0  0  0  # atno 17320 bound_to 7965
  145.9691  139.2856  143.1109 LP  0  0  0  0  0  0  0  0  0  0  0  0  # atno 17321 bound_to 7965
  139.4809  144.4981  151.9097 LP  0  0  0  0  0  0  0  0  0  0  0  0  # atno 17342 bound_to 10162
  140.4066  144.2423  150.5890 LP  0  0  0  0  0  0  0  0  0  0  0  0  # atno 17343 bound_to 10162
  157.4874  130.7802  149.7474 LP  0  0  0  0  0  0  0  0  0  0  0  0  # atno 17370 bound_to 10713
  155.9949  130.3915  150.2840 LP  0  0  0  0  0  0  0  0  0  0  0  0  # atno 17371 bound_to 10713
  141.2196  133.7383  156.9116 LP  0  0  0  0  0  0  0  0  0  0  0  0  # atno 17394 bound_to 11000
  140.1509  134.9231  157.2591 LP  0  0  0  0  0  0  0  0  0  0  0  0  # atno 17395 bound_to 11000

$$$$
