AV-unprocessed.smi:305|AV-procd|sdf|2281|dock8
  -GOLD-   2262022183D 1   1.00000     0.00000
 Structure written by MMmdl.
 46 48  0  0  0  0  0  0  0  0  2 V2000
  146.7829  139.7597  153.6717 C   0  0  0  0  0  0  0  0  0  0  0  0
  146.8094  139.5105  155.1813 C   0  0  0  0  0  0  0  0  0  0  0  0
  148.0994  139.8252  155.6768 O   0  0  0  0  0  0  0  0  0  0  0  0
  148.2198  139.5939  157.0702 C   0  0  0  0  0  0  0  0  0  0  0  0
  148.4380  138.0940  157.3063 C   0  0  0  0  0  0  0  0  0  0  0  0
  149.5712  137.8442  158.1906 N   0  0  0  0  0  0  0  0  0  0  0  0
  149.5715  137.1617  159.3639 C   0  0  0  0  0  0  0  0  0  0  0  0
  148.3903  136.5906  159.8830 N   0  0  0  0  0  0  0  0  0  0  0  0
  147.8170  137.1095  160.9883 N   0  0  0  0  0  0  0  0  0  0  0  0
  146.7529  136.3558  161.2054 C   0  0  0  0  0  0  0  0  0  0  0  0
  145.8613  136.6672  162.3729 C   0  0  0  0  0  0  0  0  0  0  0  0
  146.6221  135.3105  160.2453 C   0  0  0  0  0  0  0  0  0  0  0  0
  145.5492  134.2589  160.1757 C   0  0  0  0  0  0  0  0  0  0  0  0
  147.6913  135.4954  159.4105 C   0  0  0  0  0  0  0  0  0  0  0  0
  148.1196  134.7361  158.1957 C   0  0  0  0  0  0  0  0  0  0  0  0
  150.7611  137.0660  159.9608 N   0  0  0  0  0  0  0  0  0  0  0  0
  151.5912  137.7640  159.0945 C   0  0  0  0  0  0  0  0  0  0  0  0
  150.8998  138.2425  158.0248 C   0  0  0  0  0  0  0  0  0  0  0  0
  151.5104  139.0280  156.9313 C   0  0  0  0  0  0  0  0  0  0  0  0
  150.8329  139.4390  155.9913 O   0  0  0  0  0  0  0  0  0  0  0  0
  152.8554  139.2145  157.1192 N   0  5  0  0  0  0  0  0  0  0  0  0
  153.5970  138.7492  158.1844 C   0  0  0  0  0  0  0  0  0  0  0  0
  154.8063  138.9639  158.2775 O   0  0  0  0  0  0  0  0  0  0  0  0
  152.9863  138.0262  159.1758 N   0  0  0  0  0  0  0  0  0  0  0  0
  153.7493  137.5221  160.3210 C   0  0  0  0  0  0  0  0  0  0  0  0
  145.8034  139.5240  153.2554 H   0  0  0  0  0  0  0  0  0  0  0  0
  147.5218  139.1427  153.1602 H   0  0  0  0  0  0  0  0  0  0  0  0
  147.0012  140.8033  153.4442 H   0  0  0  0  0  0  0  0  0  0  0  0
  146.0560  140.1275  155.6734 H   0  0  0  0  0  0  0  0  0  0  0  0
  146.5705  138.4666  155.3897 H   0  0  0  0  0  0  0  0  0  0  0  0
  149.0549  140.1678  157.4741 H   0  0  0  0  0  0  0  0  0  0  0  0
  147.3163  139.9290  157.5811 H   0  0  0  0  0  0  0  0  0  0  0  0
  147.5400  137.6493  157.7358 H   0  0  0  0  0  0  0  0  0  0  0  0
  148.5982  137.5731  156.3628 H   0  0  0  0  0  0  0  0  0  0  0  0
  144.8185  136.4513  162.1400 H   0  0  0  0  0  0  0  0  0  0  0  0
  145.9230  137.7190  162.6550 H   0  0  0  0  0  0  0  0  0  0  0  0
  146.1381  136.0719  163.2429 H   0  0  0  0  0  0  0  0  0  0  0  0
  145.9320  133.3121  159.7946 H   0  0  0  0  0  0  0  0  0  0  0  0
  144.7318  134.5635  159.5220 H   0  0  0  0  0  0  0  0  0  0  0  0
  145.1177  134.0533  161.1554 H   0  0  0  0  0  0  0  0  0  0  0  0
  147.3317  134.0669  157.8504 H   0  0  0  0  0  0  0  0  0  0  0  0
  149.0034  134.1347  158.4085 H   0  0  0  0  0  0  0  0  0  0  0  0
  148.3605  135.4143  157.3765 H   0  0  0  0  0  0  0  0  0  0  0  0
  154.1884  138.3499  160.8797 H   0  0  0  0  0  0  0  0  0  0  0  0
  154.5569  136.8695  159.9860 H   0  0  0  0  0  0  0  0  0  0  0  0
  153.1361  136.9487  161.0158 H   0  0  0  0  0  0  0  0  0  0  0  0
  1  2  1  0  0  0  0
  1 26  1  0  0  0  0
  1 27  1  0  0  0  0
  1 28  1  0  0  0  0
  2  3  1  0  0  0  0
  2 29  1  0  0  0  0
  2 30  1  0  0  0  0
  3  4  1  0  0  0  0
  4  5  1  0  0  0  0
  4 31  1  0  0  0  0
  4 32  1  0  0  0  0
  5  6  1  0  0  0  0
  5 33  1  0  0  0  0
  5 34  1  0  0  0  0
  6 18  1  0  0  0  0
  6  7  1  0  0  0  0
  7  8  1  0  0  0  0
  7 16  2  0  0  0  0
  8 14  1  0  0  0  0
  8  9  1  0  0  0  0
  9 10  2  0  0  0  0
 10 11  1  0  0  0  0
 10 12  1  0  0  0  0
 11 35  1  0  0  0  0
 11 36  1  0  0  0  0
 11 37  1  0  0  0  0
 12 13  1  0  0  0  0
 12 14  2  0  0  0  0
 13 38  1  0  0  0  0
 13 39  1  0  0  0  0
 13 40  1  0  0  0  0
 14 15  1  0  0  0  0
 15 41  1  0  0  0  0
 15 42  1  0  0  0  0
 15 43  1  0  0  0  0
 16 17  1  0  0  0  0
 17 24  1  0  0  0  0
 17 18  2  0  0  0  0
 18 19  1  0  0  0  0
 19 20  2  0  0  0  0
 19 21  1  0  0  0  0
 21 22  1  0  0  0  0
 22 23  2  0  0  0  0
 22 24  1  0  0  0  0
 24 25  1  0  0  0  0
 25 44  1  0  0  0  0
 25 45  1  0  0  0  0
 25 46  1  0  0  0  0
M  CHG  1  21  -1
M  END
> <s_m_source_file>
AV-unprocessed.smi

> <i_m_source_file_index>
305

> <i_lp_mmshare_version>
43012

> <i_f3d_flags>
0

> <s_epik_input>
W0NIM11uMWMoPU8pW25IXWMoPU8pYyhjMTIpbihbQ0gyXVtDSDJdT1tDSDJdW0NIM10pYyhuMiktbjNuYyhbQ0gzXSljKFtDSDNdKWMzW0NIM10=

> <s_epik_cmdline>
J2VwaWtfcHl0aG9uJywgJy1waCcsICc3LjAnLCAnLXRuJywgJzgnLCAnLW1hJywgJzIwMCcsICctbWV0YWxfYmluZGluZycsICctaW1hZScsICc8aW5maWxlLm1hZT4nLCAnLW9tYWUnLCAnPG91dGZpbGUubWFlPic=

> <r_lp_tautomer_probability>
1

> <r_epik_Ionization_Penalty>
4

> <r_epik_Ionization_Penalty_Charging>
0.0169474

> <r_epik_Ionization_Penalty_Neutral>
3.98305

> <r_epik_State_Penalty>
3.98062

> <r_epik_Charging_Adjusted_Penalty>
3.99756

> <i_epik_Tot_Q>
-1

> <i_epik_Tot_abs_Q>
1

> <r_epik_Metal_State_Penalty>
0.616488

> <b_epik_Metal_Only>
1

> <s_lp_Force_Field>
OPLS_2005

> <r_lp_Energy>
29.8012

> <b_lp_Chiralities_Consistent>
1

> <s_lp_Variant>
AV-unprocessed.smi:305-2

> <Gold.Version>
5.8.1

> <Gold.Id.Protein>
6NUR|6NUR_protein|mol2

> <Gold.PLP.Fitness>
38.3718

> <Gold.PLP.PLP>
-25.8845

> <Gold.PLP.part.hbond>
-5.5753

> <Gold.PLP.part.metal>
0.0000

> <Gold.PLP.part.buried>
-2.6088

> <Gold.PLP.part.nonpolar>
-17.9160

> <Gold.PLP.part.repulsive>
0.0195

> <Gold.PLP.ligand.clash>
0.0000

> <Gold.PLP.ligand.torsion>
1.7832

> <Gold.PLP.Chemscore.Hbond>
5.1600

> <Gold.PLP.Chemscore.CHOScore>
0.0000

> <Gold.PLP.Chemscore.Metal>
0.0000

> <Gold.Chemscore.Hbonds>
donor molecule, donor type, donor heavy atom, donor atom, acceptor molecule, acceptor atom, score
      P1  H  6896  6909       L1    16  1.00
      P1  H  6931  6943       L1     9  0.94
      P1  H  6934  6947       L1     9  0.85
      P1  H  7997  8008       L1    23  0.22
      P1  H  7997  8009       L1    21  1.00

> <Gold.PLP.Chemscore.Internal.Correction>
0.5737

> <Gold.Rescore>
     Score         DG    S(hbond)    S(metal)    S(lipo)     H(rot)  DE(clash)    DE(int)     intcor
     12.45     -14.32       2.57        0.00      37.67       1.62       0.00       1.86       ----

> <Gold.Chemscore.Fitness>
12.4548

> <Gold.Chemscore.DG>
-14.3164

> <Gold.Chemscore.ZeroCoef>
-5.4800

> <Gold.Chemscore.Hbond>
2.5682

> <Gold.Chemscore.Metal>
0.0000

> <Gold.Chemscore.Lipo>
37.6655

> <Gold.Chemscore.Internal_Hbond>
0.0000

> <Gold.Chemscore.DEClash>
0.0034

> <Gold.Chemscore.DEInternal>
1.8582

> <Gold.Chemscore.Rot>
1.6204

> <Gold.Chemscore.Internal.Correction>
   9.000000E+99

> <Gold.Chemscore.Hbonds>
donor molecule, donor type, donor heavy atom, donor atom, acceptor molecule, acceptor atom, score
      P1  H  6896  6909       L1    16  0.37
      P1  H  6931  6943       L1     9  0.71
      P1  H  6934  6947       L1     9  0.50
      P1  H  7997  8008       L1    23  0.22
      P1  H  7997  8009       L1    21  0.02

> <Gold.Chemscore.Hbond.Weighted>
-8.5776

> <Gold.Chemscore.Metal.Weighted>
-0.0000

> <Gold.Chemscore.Lipo.Weighted>
-4.4069

> <Gold.Chemscore.Internal_Hbond.Weighted>
0.0000

> <Gold.Chemscore.DEClash.Weighted>
0.0034

> <Gold.Chemscore.DEInternal.Weighted>
1.8582

> <Gold.Chemscore.Rot.Weighted>
4.1481

> <Gold.Chemscore.Internal.Correction.Weighted>
   9.000000E+99

> <Gold.Protein.RotatedTorsions>
[ 6907 6896 6895 6894 ] final   99.45 input  -60.11 | X-H torsion
[ 7974 7965 7964 7962 ] final  -44.07 input  175.53 | X-H torsion
[ 8008 7997 7996 7995 ] final -168.13 input   59.86 | X-H torsion
[ 10167 10162 10161 10158 ] final  162.54 input  -65.29 | X-H torsion
[ 10718 10713 10712 10709 ] final  159.36 input   66.30 | X-H torsion
[ 10763 10752 10751 10750 ] final  -42.11 input  -60.55 | X-H torsion
[ 11005 11000 10999 10996 ] final -144.76 input  -57.11 | X-H torsion

> <Gold.Protein.ActiveResidues>
 VAL166  LYS551  ARG553  GLY616  TRP617  ASP618  TYR619  PRO620  LYS621  CYS622 
 ASP623  PHE694  ASN695  SER759  ASP760  ASP761  ALA762  ILE779  LEU786  VAL792 
 PHE793  MET794  SER795  GLU796  ALA797  LYS798  CYS799  TRP800  GLU811  SER814 

> <Gold.Protein.RotatedAtoms>
  152.5391  134.0426  159.8074 H   0  0  0  0  0  0  0  0  0  0  0  0  # atno 6907 bound_to 6896
  151.0580  133.5561  159.2644 H   0  0  0  0  0  0  0  0  0  0  0  0  # atno 6908 bound_to 6896
  151.2470  135.0617  159.9101 H   0  0  0  0  0  0  0  0  0  0  0  0  # atno 6909 bound_to 6896
  145.9956  140.7132  142.9295 H   0  0  0  0  0  0  0  0  0  0  0  0  # atno 7974 bound_to 7965
  155.8872  140.1019  157.1444 H   0  0  0  0  0  0  0  0  0  0  0  0  # atno 8008 bound_to 7997
  154.4011  140.1317  156.4334 H   0  0  0  0  0  0  0  0  0  0  0  0  # atno 8009 bound_to 7997
  155.7575  140.3464  155.5183 H   0  0  0  0  0  0  0  0  0  0  0  0  # atno 8010 bound_to 7997
  139.4862  144.4427  151.8931 H   0  0  0  0  0  0  0  0  0  0  0  0  # atno 10167 bound_to 10162
  157.1653  131.0597  151.2211 H   0  0  0  0  0  0  0  0  0  0  0  0  # atno 10718 bound_to 10713
  153.9737  135.6725  153.4748 H   0  0  0  0  0  0  0  0  0  0  0  0  # atno 10763 bound_to 10752
  153.0781  135.4938  154.8443 H   0  0  0  0  0  0  0  0  0  0  0  0  # atno 10764 bound_to 10752
  154.7204  135.3116  154.9017 H   0  0  0  0  0  0  0  0  0  0  0  0  # atno 10765 bound_to 10752
  140.7992  134.2877  157.4985 H   0  0  0  0  0  0  0  0  0  0  0  0  # atno 11005 bound_to 11000
  144.6903  140.3145  143.7242 LP  0  0  0  0  0  0  0  0  0  0  0  0  # atno 17320 bound_to 7965
  145.7564  139.1810  143.2292 LP  0  0  0  0  0  0  0  0  0  0  0  0  # atno 17321 bound_to 7965
  140.3880  144.2652  150.5902 LP  0  0  0  0  0  0  0  0  0  0  0  0  # atno 17342 bound_to 10162
  140.5173  143.2275  151.8444 LP  0  0  0  0  0  0  0  0  0  0  0  0  # atno 17343 bound_to 10162
  157.4094  130.7377  149.6828 LP  0  0  0  0  0  0  0  0  0  0  0  0  # atno 17370 bound_to 10713
  155.9747  130.4099  150.3903 LP  0  0  0  0  0  0  0  0  0  0  0  0  # atno 17371 bound_to 10713
  139.8723  134.9419  156.3811 LP  0  0  0  0  0  0  0  0  0  0  0  0  # atno 17394 bound_to 11000
  140.9312  133.7578  156.0027 LP  0  0  0  0  0  0  0  0  0  0  0  0  # atno 17395 bound_to 11000

$$$$
