AV-unprocessed.smi:1103|AV-procd|sdf|4772|dock5
  -GOLD-   22720 3313D 1   1.00000     0.00000
 Structure written by MMmdl.
 44 45  0  0  0  0  0  0  0  0  2 V2000
  151.4855  138.1327  154.8905 C   0  0  0  0  0  0  0  0  0  0  0  0
  150.0480  137.9694  154.3773 C   0  0  0  0  0  0  0  0  0  0  0  0
  149.2079  139.1674  154.6325 N   0  3  2  0  0  0  0  0  0  0  0  0
  147.9467  139.1376  153.8465 C   0  0  0  0  0  0  0  0  0  0  0  0
  147.0317  140.3200  154.2032 C   0  0  0  0  0  0  0  0  0  0  0  0
  147.7661  141.6582  154.0360 C   0  0  0  0  0  0  0  0  0  0  0  0
  149.0860  141.6728  154.8298 C   0  0  1  0  0  0  0  0  0  0  0  0
  148.8428  141.8136  156.3513 C   0  0  0  0  0  0  0  0  0  0  0  0
  149.8316  142.6649  157.0057 N   0  0  0  0  0  0  0  0  0  0  0  0
  150.6068  142.3031  158.0398 C   0  0  0  0  0  0  0  0  0  0  0  0
  150.5933  141.1763  158.5350 O   0  0  0  0  0  0  0  0  0  0  0  0
  151.5402  143.3748  158.6042 C   0  0  0  0  0  0  0  0  0  0  0  0
  152.1288  142.9407  159.8577 N   0  0  0  0  0  0  0  0  0  0  0  0
  152.1345  143.5931  161.0728 C   0  0  0  0  0  0  0  0  0  0  0  0
  152.8175  142.8081  161.9581 C   0  0  0  0  0  0  0  0  0  0  0  0
  153.1074  143.0646  163.4089 C   0  0  0  0  0  0  0  0  0  0  0  0
  153.1942  141.6790  161.1761 C   0  0  0  0  0  0  0  0  0  0  0  0
  152.7829  141.7610  159.9210 N   0  0  0  0  0  0  0  0  0  0  0  0
  149.9424  140.4467  154.4342 C   0  0  0  0  0  0  0  0  0  0  0  0
  152.0550  137.2173  154.7297 H   0  0  0  0  0  0  0  0  0  0  0  0
  151.4985  138.3415  155.9603 H   0  0  0  0  0  0  0  0  0  0  0  0
  152.0171  138.9367  154.3823 H   0  0  0  0  0  0  0  0  0  0  0  0
  150.0438  137.7294  153.3130 H   0  0  0  0  0  0  0  0  0  0  0  0
  149.6137  137.1084  154.8875 H   0  0  0  0  0  0  0  0  0  0  0  0
  148.1826  139.1547  152.7811 H   0  0  0  0  0  0  0  0  0  0  0  0
  147.4137  138.2054  154.0377 H   0  0  0  0  0  0  0  0  0  0  0  0
  146.1444  140.3047  153.5693 H   0  0  0  0  0  0  0  0  0  0  0  0
  146.6729  140.2132  155.2273 H   0  0  0  0  0  0  0  0  0  0  0  0
  147.9805  141.8167  152.9782 H   0  0  0  0  0  0  0  0  0  0  0  0
  147.1235  142.4843  154.3424 H   0  0  0  0  0  0  0  0  0  0  0  0
  149.6346  142.5638  154.5203 H   0  0  0  0  0  0  0  0  0  0  0  0
  147.8677  142.2715  156.5204 H   0  0  0  0  0  0  0  0  0  0  0  0
  148.7984  140.8362  156.8334 H   0  0  0  0  0  0  0  0  0  0  0  0
  149.9090  143.6144  156.6691 H   0  0  0  0  0  0  0  0  0  0  0  0
  152.3406  143.5743  157.8905 H   0  0  0  0  0  0  0  0  0  0  0  0
  151.0068  144.3145  158.7588 H   0  0  0  0  0  0  0  0  0  0  0  0
  151.6596  144.5544  161.2041 H   0  0  0  0  0  0  0  0  0  0  0  0
  153.9555  142.4778  163.7623 H   0  0  0  0  0  0  0  0  0  0  0  0
  152.2552  142.8107  164.0392 H   0  0  0  0  0  0  0  0  0  0  0  0
  153.3439  144.1127  163.5941 H   0  0  0  0  0  0  0  0  0  0  0  0
  153.7538  140.8072  161.4822 H   0  0  0  0  0  0  0  0  0  0  0  0
  150.8769  140.4467  154.9923 H   0  0  0  0  0  0  0  0  0  0  0  0
  150.2251  140.5273  153.3832 H   0  0  0  0  0  0  0  0  0  0  0  0
  148.9393  139.1277  155.6057 H   0  0  0  0  0  0  0  0  0  0  0  0
  1  2  1  0  0  0  0
  1 20  1  0  0  0  0
  1 21  1  0  0  0  0
  1 22  1  0  0  0  0
  2  3  1  0  0  0  0
  2 23  1  0  0  0  0
  2 24  1  0  0  0  0
  3 19  1  0  0  0  0
  3  4  1  0  0  0  0
  3 44  1  0  0  0  0
  4  5  1  0  0  0  0
  4 25  1  0  0  0  0
  4 26  1  0  0  0  0
  5  6  1  0  0  0  0
  5 27  1  0  0  0  0
  5 28  1  0  0  0  0
  6  7  1  0  0  0  0
  6 29  1  0  0  0  0
  6 30  1  0  0  0  0
  7  8  1  0  0  0  0
  7 19  1  0  0  0  0
  7 31  1  0  0  0  0
  8  9  1  0  0  0  0
  8 32  1  0  0  0  0
  8 33  1  0  0  0  0
  9 10  1  0  0  0  0
  9 34  1  0  0  0  0
 10 11  2  0  0  0  0
 10 12  1  0  0  0  0
 12 13  1  0  0  0  0
 12 35  1  0  0  0  0
 12 36  1  0  0  0  0
 13 18  1  0  0  0  0
 13 14  1  0  0  0  0
 14 15  2  0  0  0  0
 14 37  1  0  0  0  0
 15 16  1  0  0  0  0
 15 17  1  0  0  0  0
 16 38  1  0  0  0  0
 16 39  1  0  0  0  0
 16 40  1  0  0  0  0
 17 18  2  0  0  0  0
 17 41  1  0  0  0  0
 19 42  1  0  0  0  0
 19 43  1  0  0  0  0
M  CHG  1   3   1
M  END
> <s_m_source_file>
AV-unprocessed.smi

> <i_m_source_file_index>
1103

> <i_lp_mmshare_version>
43012

> <i_f3d_flags>
0

> <s_epik_input>
W0NIM11bQ0gyXU4xW0NIMl1bQ0gyXVtDSDJdW0NASF0oW0NIMl0xKVtDSDJdW05IXUMoPU8pW0NIMl1uMltjSF1jKFtDSDNdKVtjSF1uMg==

> <s_epik_cmdline>
J2VwaWtfcHl0aG9uJywgJy1waCcsICc3LjAnLCAnLXRuJywgJzgnLCAnLW1hJywgJzIwMCcsICctbWV0YWxfYmluZGluZycsICctaW1hZScsICc8aW5maWxlLm1hZT4nLCAnLW9tYWUnLCAnPG91dGZpbGUubWFlPic=

> <r_lp_tautomer_probability>
1

> <r_epik_Ionization_Penalty>
0.000672456

> <r_epik_Ionization_Penalty_Charging>
0.000647327

> <r_epik_Ionization_Penalty_Neutral>
2.51297e-05

> <r_epik_State_Penalty>
0.000409793

> <r_epik_Charging_Adjusted_Penalty>
0.00105712

> <i_epik_Tot_Q>
1

> <i_epik_Tot_abs_Q>
1

> <r_epik_Metal_State_Penalty>
-0

> <b_epik_Metal_Only>
0

> <s_lp_Force_Field>
OPLS_2005

> <r_lp_Energy>
19.6745

> <b_lp_Chiralities_Consistent>
1

> <s_lp_Variant>
AV-unprocessed.smi:1103-2

> <Gold.Version>
5.8.1

> <Gold.Id.Protein>
6NUR|6NUR_protein|mol2

> <Gold.PLP.Fitness>
44.4676

> <Gold.PLP.PLP>
-43.1610

> <Gold.PLP.part.hbond>
-1.0000

> <Gold.PLP.part.metal>
0.0000

> <Gold.PLP.part.buried>
-2.2108

> <Gold.PLP.part.nonpolar>
-39.3472

> <Gold.PLP.part.repulsive>
0.0793

> <Gold.PLP.ligand.clash>
0.0000

> <Gold.PLP.ligand.torsion>
0.7900

> <Gold.PLP.Chemscore.Hbond>
0.9440

> <Gold.PLP.Chemscore.CHOScore>
0.0000

> <Gold.PLP.Chemscore.Metal>
0.0000

> <Gold.Chemscore.Hbonds>
donor molecule, donor type, donor heavy atom, donor atom, acceptor molecule, acceptor atom, score
      L1  H     9    34       P1  8028  0.74

> <Gold.PLP.Chemscore.Internal.Correction>
0.0546

> <Gold.Rescore>
     Score         DG    S(hbond)    S(metal)    S(lipo)     H(rot)  DE(clash)    DE(int)     intcor
     13.97     -17.21       0.97        0.00     109.43       1.68       0.62       2.61       ----

> <Gold.Chemscore.Fitness>
13.9740

> <Gold.Chemscore.DG>
-17.2072

> <Gold.Chemscore.ZeroCoef>
-5.4800

> <Gold.Chemscore.Hbond>
0.9673

> <Gold.Chemscore.Metal>
0.0000

> <Gold.Chemscore.Lipo>
109.4273

> <Gold.Chemscore.Internal_Hbond>
0.0000

> <Gold.Chemscore.DEClash>
0.6227

> <Gold.Chemscore.DEInternal>
2.6104

> <Gold.Chemscore.Rot>
1.6823

> <Gold.Chemscore.Internal.Correction>
   9.000000E+99

> <Gold.Chemscore.Hbonds>
donor molecule, donor type, donor heavy atom, donor atom, acceptor molecule, acceptor atom, score
      L1  H     9    34       P1  8028  0.74

> <Gold.Chemscore.Hbond.Weighted>
-3.2307

> <Gold.Chemscore.Metal.Weighted>
-0.0000

> <Gold.Chemscore.Lipo.Weighted>
-12.8030

> <Gold.Chemscore.Internal_Hbond.Weighted>
0.0000

> <Gold.Chemscore.DEClash.Weighted>
0.6227

> <Gold.Chemscore.DEInternal.Weighted>
2.6104

> <Gold.Chemscore.Rot.Weighted>
4.3066

> <Gold.Chemscore.Internal.Correction.Weighted>
   9.000000E+99

> <Gold.Protein.RotatedTorsions>
[ 6907 6896 6895 6894 ] final  154.35 input  -60.11 | X-H torsion
[ 7974 7965 7964 7962 ] final -113.75 input  175.53 | X-H torsion
[ 8008 7997 7996 7995 ] final -159.54 input   59.86 | X-H torsion
[ 10167 10162 10161 10158 ] final   98.31 input  -65.29 | X-H torsion
[ 10718 10713 10712 10709 ] final -110.39 input   66.30 | X-H torsion
[ 10763 10752 10751 10750 ] final   15.77 input  -60.55 | X-H torsion
[ 11005 11000 10999 10996 ] final -166.60 input  -57.11 | X-H torsion

> <Gold.Protein.ActiveResidues>
 VAL166  LYS551  ARG553  GLY616  TRP617  ASP618  TYR619  PRO620  LYS621  CYS622 
 ASP623  PHE694  ASN695  SER759  ASP760  ASP761  ALA762  ILE779  LEU786  VAL792 
 PHE793  MET794  SER795  GLU796  ALA797  LYS798  CYS799  TRP800  GLU811  SER814 

> <Gold.Protein.RotatedAtoms>
  152.0597  133.4056  159.4412 H   0  0  0  0  0  0  0  0  0  0  0  0  # atno 6907 bound_to 6896
  150.6866  134.3215  159.4797 H   0  0  0  0  0  0  0  0  0  0  0  0  # atno 6908 bound_to 6896
  152.1034  134.9325  160.0619 H   0  0  0  0  0  0  0  0  0  0  0  0  # atno 6909 bound_to 6896
  145.1283  140.8710  143.3773 H   0  0  0  0  0  0  0  0  0  0  0  0  # atno 7974 bound_to 7965
  155.7641  140.0843  157.2141 H   0  0  0  0  0  0  0  0  0  0  0  0  # atno 8008 bound_to 7997
  154.4001  140.1537  156.2923 H   0  0  0  0  0  0  0  0  0  0  0  0  # atno 8009 bound_to 7997
  155.8811  140.3420  155.5891 H   0  0  0  0  0  0  0  0  0  0  0  0  # atno 8010 bound_to 7997
  139.7721  144.6919  151.0142 H   0  0  0  0  0  0  0  0  0  0  0  0  # atno 10167 bound_to 10162
  156.0588  130.5813  150.8231 H   0  0  0  0  0  0  0  0  0  0  0  0  # atno 10718 bound_to 10713
  153.1493  135.6775  153.8906 H   0  0  0  0  0  0  0  0  0  0  0  0  # atno 10763 bound_to 10752
  153.8337  135.3114  155.3422 H   0  0  0  0  0  0  0  0  0  0  0  0  # atno 10764 bound_to 10752
  154.7850  135.4867  154.0012 H   0  0  0  0  0  0  0  0  0  0  0  0  # atno 10765 bound_to 10752
  140.5626  134.5318  157.5146 H   0  0  0  0  0  0  0  0  0  0  0  0  # atno 11005 bound_to 11000
  145.0663  139.3066  143.5855 LP  0  0  0  0  0  0  0  0  0  0  0  0  # atno 17320 bound_to 7965
  146.3516  140.0122  142.8666 LP  0  0  0  0  0  0  0  0  0  0  0  0  # atno 17321 bound_to 7965
  140.7814  143.4577  151.0322 LP  0  0  0  0  0  0  0  0  0  0  0  0  # atno 17342 bound_to 10162
  139.8261  143.7755  152.3178 LP  0  0  0  0  0  0  0  0  0  0  0  0  # atno 17343 bound_to 10162
  157.5581  131.0945  150.9600 LP  0  0  0  0  0  0  0  0  0  0  0  0  # atno 17370 bound_to 10713
  156.9844  130.5539  149.5298 LP  0  0  0  0  0  0  0  0  0  0  0  0  # atno 17371 bound_to 10713
  139.9400  134.7804  156.0702 LP  0  0  0  0  0  0  0  0  0  0  0  0  # atno 17394 bound_to 11000
  141.1105  133.6645  156.2967 LP  0  0  0  0  0  0  0  0  0  0  0  0  # atno 17395 bound_to 11000

$$$$
