AV-unprocessed.smi:2829|AV-procd|sdf|10902|dock5
  -GOLD-   2272015353D 1   1.00000     0.00000
 Structure written by MMmdl.
 50 53  0  0  0  0  0  0  0  0  1 V2000
  145.3918  131.1462  151.7066 C   0  0  0  0  0  0  0  0  0  0  0  0
  144.9994  132.2971  150.7526 C   0  0  0  0  0  0  0  0  0  0  0  0
  145.8267  132.1298  149.4608 C   0  0  0  0  0  0  0  0  0  0  0  0
  143.4967  132.1457  150.4364 C   0  0  0  0  0  0  0  0  0  0  0  0
  145.2655  133.6844  151.3646 C   0  0  0  0  0  0  0  0  0  0  0  0
  145.0342  134.8935  150.6702 C   0  0  0  0  0  0  0  0  0  0  0  0
  145.3164  136.0964  151.3388 C   0  0  0  0  0  0  0  0  0  0  0  0
  145.8099  136.0328  152.6572 C   0  0  0  0  0  0  0  0  0  0  0  0
  146.0699  137.2863  153.2695 N   0  0  0  0  0  0  0  0  0  0  0  0
  146.4883  138.4283  152.6889 C   0  0  0  0  0  0  0  0  0  0  0  0
  146.7072  138.5650  151.4869 O   0  0  0  0  0  0  0  0  0  0  0  0
  146.6315  139.4555  153.5449 N   0  0  0  0  0  0  0  0  0  0  0  0
  147.0666  140.8226  153.2392 C   0  0  2  0  0  0  0  0  0  0  0  0
  148.5195  141.1351  153.6846 C   0  0  2  0  0  0  0  0  0  0  0  0
  149.4947  140.0775  154.1448 C   0  0  0  0  0  0  0  0  0  0  0  0
  149.4139  140.1787  155.6703 C   0  0  0  0  0  0  0  0  0  0  0  0
  148.1577  140.8012  155.9282 O   0  0  0  0  0  0  0  0  0  0  0  0
  147.9554  141.8009  154.9341 C   0  0  2  0  0  0  0  0  0  0  0  0
  146.5613  141.8224  154.2933 C   0  0  0  0  0  0  0  0  0  0  0  0
  145.2921  141.6057  155.1348 C   0  0  0  0  0  0  0  0  0  0  0  0
  145.0774  143.1215  155.1091 C   0  0  0  0  0  0  0  0  0  0  0  0
  145.9631  143.1698  153.8607 C   0  0  0  0  0  0  0  0  0  0  0  0
  146.0091  134.8357  153.2639 N   0  0  0  0  0  0  0  0  0  0  0  0
  145.7443  133.6880  152.6328 N   0  0  0  0  0  0  0  0  0  0  0  0
  145.1996  130.1734  151.2523 H   0  0  0  0  0  0  0  0  0  0  0  0
  144.8224  131.1812  152.6364 H   0  0  0  0  0  0  0  0  0  0  0  0
  146.4527  131.1753  151.9588 H   0  0  0  0  0  0  0  0  0  0  0  0
  146.8937  132.2389  149.6581 H   0  0  0  0  0  0  0  0  0  0  0  0
  145.5550  132.8690  148.7064 H   0  0  0  0  0  0  0  0  0  0  0  0
  145.6737  131.1463  149.0150 H   0  0  0  0  0  0  0  0  0  0  0  0
  143.2750  131.1617  150.0220 H   0  0  0  0  0  0  0  0  0  0  0  0
  143.1592  132.8836  149.7082 H   0  0  0  0  0  0  0  0  0  0  0  0
  142.8891  132.2688  151.3339 H   0  0  0  0  0  0  0  0  0  0  0  0
  144.6547  134.9256  149.6607 H   0  0  0  0  0  0  0  0  0  0  0  0
  145.1562  137.0447  150.8468 H   0  0  0  0  0  0  0  0  0  0  0  0
  145.9222  137.3220  154.2672 H   0  0  0  0  0  0  0  0  0  0  0  0
  146.3731  139.2832  154.5060 H   0  0  0  0  0  0  0  0  0  0  0  0
  146.8464  141.1515  152.2221 H   0  0  0  0  0  0  0  0  0  0  0  0
  148.9671  141.8786  153.0231 H   0  0  0  0  0  0  0  0  0  0  0  0
  149.2197  139.0808  153.8032 H   0  0  0  0  0  0  0  0  0  0  0  0
  150.5083  140.2701  153.7927 H   0  0  0  0  0  0  0  0  0  0  0  0
  149.4882  139.2082  156.1611 H   0  0  0  0  0  0  0  0  0  0  0  0
  150.2106  140.8177  156.0542 H   0  0  0  0  0  0  0  0  0  0  0  0
  148.4025  142.7676  155.1700 H   0  0  0  0  0  0  0  0  0  0  0  0
  144.5115  141.0657  154.5965 H   0  0  0  0  0  0  0  0  0  0  0  0
  145.4612  141.1859  156.1267 H   0  0  0  0  0  0  0  0  0  0  0  0
  144.0454  143.4352  154.9500 H   0  0  0  0  0  0  0  0  0  0  0  0
  145.5278  143.6258  155.9655 H   0  0  0  0  0  0  0  0  0  0  0  0
  146.6678  144.0012  153.8332 H   0  0  0  0  0  0  0  0  0  0  0  0
  145.3871  143.0997  152.9366 H   0  0  0  0  0  0  0  0  0  0  0  0
  1  2  1  0  0  0  0
  1 25  1  0  0  0  0
  1 26  1  0  0  0  0
  1 27  1  0  0  0  0
  2  3  1  0  0  0  0
  2  4  1  0  0  0  0
  2  5  1  0  0  0  0
  3 28  1  0  0  0  0
  3 29  1  0  0  0  0
  3 30  1  0  0  0  0
  4 31  1  0  0  0  0
  4 32  1  0  0  0  0
  4 33  1  0  0  0  0
  5 24  1  0  0  0  0
  5  6  2  0  0  0  0
  6  7  1  0  0  0  0
  6 34  1  0  0  0  0
  7  8  2  0  0  0  0
  7 35  1  0  0  0  0
  8  9  1  0  0  0  0
  8 23  1  0  0  0  0
  9 10  1  0  0  0  0
  9 36  1  0  0  0  0
 10 11  2  0  0  0  0
 10 12  1  0  0  0  0
 12 13  1  0  0  0  0
 12 37  1  0  0  0  0
 13 19  1  0  0  0  0
 13 14  1  0  0  0  0
 13 38  1  0  0  0  0
 14 18  1  0  0  0  0
 14 15  1  0  0  0  0
 14 39  1  0  0  0  0
 15 16  1  0  0  0  0
 15 40  1  0  0  0  0
 15 41  1  0  0  0  0
 16 17  1  0  0  0  0
 16 42  1  0  0  0  0
 16 43  1  0  0  0  0
 17 18  1  0  0  0  0
 18 19  1  0  0  0  0
 18 44  1  0  0  0  0
 19 22  1  0  0  0  0
 19 20  1  0  0  0  0
 20 21  1  0  0  0  0
 20 45  1  0  0  0  0
 20 46  1  0  0  0  0
 21 22  1  0  0  0  0
 21 47  1  0  0  0  0
 21 48  1  0  0  0  0
 22 49  1  0  0  0  0
 22 50  1  0  0  0  0
 23 24  2  0  0  0  0
M  END
> <s_m_source_file>
AV-unprocessed.smi

> <i_m_source_file_index>
2829

> <i_lp_mmshare_version>
43012

> <i_f3d_flags>
0

> <s_epik_input>
W0NIM11DKFtDSDNdKShbQ0gzXSljMVtjSF1bY0hdYyhubjEpW05IXUMoPU8pW05IXVtDQEBIXTJbQ0BIXShbQ0gyXVtDSDJdTzMpW0NAQEhdM0MyNFtDSDJdW0NIMl1bQ0gyXTQ=

> <s_epik_cmdline>
J2VwaWtfcHl0aG9uJywgJy1waCcsICc3LjAnLCAnLXRuJywgJzgnLCAnLW1hJywgJzIwMCcsICctbWV0YWxfYmluZGluZycsICctaW1hZScsICc8aW5maWxlLm1hZT4nLCAnLW9tYWUnLCAnPG91dGZpbGUubWFlPic=

> <r_lp_tautomer_probability>
1

> <r_epik_Ionization_Penalty>
0.011915

> <r_epik_Ionization_Penalty_Charging>
0

> <r_epik_Ionization_Penalty_Neutral>
0.011915

> <r_epik_State_Penalty>
0.00486223

> <r_epik_Charging_Adjusted_Penalty>
0.00486223

> <i_epik_Tot_Q>
0

> <i_epik_Tot_abs_Q>
0

> <r_epik_Metal_State_Penalty>
-0

> <b_epik_Metal_Only>
0

> <s_lp_Force_Field>
OPLS_2005

> <r_lp_Energy>
61.2514

> <b_lp_Chiralities_Consistent>
1

> <s_lp_Variant>
AV-unprocessed.smi:2829-5

> <Gold.Version>
5.8.1

> <Gold.Id.Protein>
6NUR|6NUR_protein|mol2

> <Gold.PLP.Fitness>
44.5714

> <Gold.PLP.PLP>
-43.7376

> <Gold.PLP.part.hbond>
-0.5561

> <Gold.PLP.part.metal>
0.0000

> <Gold.PLP.part.buried>
-2.4350

> <Gold.PLP.part.nonpolar>
-41.5273

> <Gold.PLP.part.repulsive>
0.5690

> <Gold.PLP.ligand.clash>
0.0000

> <Gold.PLP.ligand.torsion>
0.4943

> <Gold.PLP.Chemscore.Hbond>
0.5363

> <Gold.PLP.Chemscore.CHOScore>
0.0000

> <Gold.PLP.Chemscore.Metal>
0.0000

> <Gold.Chemscore.Hbonds>
donor molecule, donor type, donor heavy atom, donor atom, acceptor molecule, acceptor atom, score
      P1  H  7954  7966       L1    11  0.41

> <Gold.PLP.Chemscore.Internal.Correction>
0.2137

> <Gold.Rescore>
     Score         DG    S(hbond)    S(metal)    S(lipo)     H(rot)  DE(clash)    DE(int)     intcor
     15.84     -18.01       0.66        0.00     113.64       1.16       0.35       1.82       ----

> <Gold.Chemscore.Fitness>
15.8378

> <Gold.Chemscore.DG>
-18.0050

> <Gold.Chemscore.ZeroCoef>
-5.4800

> <Gold.Chemscore.Hbond>
0.6595

> <Gold.Chemscore.Metal>
0.0000

> <Gold.Chemscore.Lipo>
113.6440

> <Gold.Chemscore.Internal_Hbond>
0.0000

> <Gold.Chemscore.DEClash>
0.3465

> <Gold.Chemscore.DEInternal>
1.8208

> <Gold.Chemscore.Rot>
1.1618

> <Gold.Chemscore.Internal.Correction>
   9.000000E+99

> <Gold.Chemscore.Hbonds>
donor molecule, donor type, donor heavy atom, donor atom, acceptor molecule, acceptor atom, score
      P1  H  7954  7966       L1    11  0.41

> <Gold.Chemscore.Hbond.Weighted>
-2.2028

> <Gold.Chemscore.Metal.Weighted>
-0.0000

> <Gold.Chemscore.Lipo.Weighted>
-13.2964

> <Gold.Chemscore.Internal_Hbond.Weighted>
0.0000

> <Gold.Chemscore.DEClash.Weighted>
0.3465

> <Gold.Chemscore.DEInternal.Weighted>
1.8208

> <Gold.Chemscore.Rot.Weighted>
2.9741

> <Gold.Chemscore.Internal.Correction.Weighted>
   9.000000E+99

> <Gold.Protein.RotatedTorsions>
[ 6907 6896 6895 6894 ] final   62.87 input  -60.11 | X-H torsion
[ 7974 7965 7964 7962 ] final -143.59 input  175.53 | X-H torsion
[ 8008 7997 7996 7995 ] final   53.07 input   59.86 | X-H torsion
[ 10167 10162 10161 10158 ] final  121.92 input  -65.29 | X-H torsion
[ 10718 10713 10712 10709 ] final  112.12 input   66.30 | X-H torsion
[ 10763 10752 10751 10750 ] final    4.58 input  -60.55 | X-H torsion
[ 11005 11000 10999 10996 ] final   -7.87 input  -57.11 | X-H torsion

> <Gold.Protein.ActiveResidues>
 VAL166  LYS551  ARG553  GLY616  TRP617  ASP618  TYR619  PRO620  LYS621  CYS622 
 ASP623  PHE694  ASN695  SER759  ASP760  ASP761  ALA762  ILE779  LEU786  VAL792 
 PHE793  MET794  SER795  GLU796  ALA797  LYS798  CYS799  TRP800  GLU811  SER814 

> <Gold.Protein.RotatedAtoms>
  152.4207  134.5960  159.9986 H   0  0  0  0  0  0  0  0  0  0  0  0  # atno 6907 bound_to 6896
  151.6111  133.3341  159.3075 H   0  0  0  0  0  0  0  0  0  0  0  0  # atno 6908 bound_to 6896
  150.8095  134.7279  159.6741 H   0  0  0  0  0  0  0  0  0  0  0  0  # atno 6909 bound_to 6896
  144.8358  140.5815  143.5485 H   0  0  0  0  0  0  0  0  0  0  0  0  # atno 7974 bound_to 7965
  155.4623  140.3462  155.4314 H   0  0  0  0  0  0  0  0  0  0  0  0  # atno 8008 bound_to 7997
  156.1153  140.1472  156.9311 H   0  0  0  0  0  0  0  0  0  0  0  0  # atno 8009 bound_to 7997
  154.4785  140.0877  156.7298 H   0  0  0  0  0  0  0  0  0  0  0  0  # atno 8010 bound_to 7997
  139.5890  144.7018  151.3337 H   0  0  0  0  0  0  0  0  0  0  0  0  # atno 10167 bound_to 10162
  157.6409  131.0962  150.6849 H   0  0  0  0  0  0  0  0  0  0  0  0  # atno 10718 bound_to 10713
  153.2695  135.6931  153.7495 H   0  0  0  0  0  0  0  0  0  0  0  0  # atno 10763 bound_to 10752
  153.6524  135.3374  155.3104 H   0  0  0  0  0  0  0  0  0  0  0  0  # atno 10764 bound_to 10752
  154.8459  135.4457  154.1713 H   0  0  0  0  0  0  0  0  0  0  0  0  # atno 10765 bound_to 10752
  140.7174  133.8857  155.8795 H   0  0  0  0  0  0  0  0  0  0  0  0  # atno 11005 bound_to 11000
  145.4798  139.1496  143.3768 LP  0  0  0  0  0  0  0  0  0  0  0  0  # atno 17320 bound_to 7965
  146.2657  140.4933  142.8835 LP  0  0  0  0  0  0  0  0  0  0  0  0  # atno 17321 bound_to 7965
  140.7156  143.7274  150.7649 LP  0  0  0  0  0  0  0  0  0  0  0  0  # atno 17342 bound_to 10162
  140.0825  143.4955  152.2522 LP  0  0  0  0  0  0  0  0  0  0  0  0  # atno 17343 bound_to 10162
  156.7173  130.4670  149.5532 LP  0  0  0  0  0  0  0  0  0  0  0  0  # atno 17370 bound_to 10713
  156.1689  130.6424  151.0813 LP  0  0  0  0  0  0  0  0  0  0  0  0  # atno 17371 bound_to 10713
  141.0032  134.1121  157.4296 LP  0  0  0  0  0  0  0  0  0  0  0  0  # atno 17394 bound_to 11000
  139.8856  135.0074  156.6447 LP  0  0  0  0  0  0  0  0  0  0  0  0  # atno 17395 bound_to 11000

$$$$
