AV-unprocessed.smi:2698|AV-procd|sdf|10419|dock5
  -GOLD-   2272014453D 1   1.00000     0.00000
 Structure written by MMmdl.
 33 33  0  0  0  0  0  0  0  0  2 V2000
  153.7759  141.4435  160.3001 C   0  0  0  0  0  0  0  0  0  0  0  0
  152.9222  142.1781  159.2497 C   0  0  0  0  0  0  0  0  0  0  0  0
  152.4001  143.5071  159.8160 C   0  0  0  0  0  0  0  0  0  0  0  0
  151.7531  141.3247  158.7062 C   0  0  0  0  0  0  0  0  0  0  0  0
  152.2111  140.0143  158.0624 C   0  0  0  0  0  0  0  0  0  0  0  0
  152.8508  139.1944  158.7211 O   0  0  0  0  0  0  0  0  0  0  0  0
  151.8782  139.8409  156.7744 N   0  0  0  0  0  0  0  0  0  0  0  0
  152.2204  138.6897  155.9400 C   0  0  2  0  0  0  0  0  0  0  0  0
  151.6006  138.8765  154.5372 C   0  0  0  0  0  0  0  0  0  0  0  0
  150.1333  139.2425  154.5165 C   0  0  0  0  0  0  0  0  0  0  0  0
  149.4364  140.3198  155.0233 C   0  0  0  0  0  0  0  0  0  0  0  0
  148.0779  140.1930  154.7232 N   0  0  0  0  0  0  0  0  0  0  0  0
  148.0040  139.0580  154.0385 C   0  0  0  0  0  0  0  0  0  0  0  0
  149.1867  138.4580  153.8808 N   0  0  0  0  0  0  0  0  0  0  0  0
  151.6861  137.4112  156.5997 C   0  0  0  0  0  0  0  0  0  0  0  0
  151.9510  136.3191  156.0482 O   0  0  0  0  0  0  0  0  0  0  0  0
  151.0193  137.5479  157.6486 O   0  5  0  0  0  0  0  0  0  0  0  0
  149.3586  137.5897  153.3943 H   0  0  0  0  0  0  0  0  0  0  0  0
  153.1711  141.1270  161.1503 H   0  0  0  0  0  0  0  0  0  0  0  0
  154.5694  142.0883  160.6786 H   0  0  0  0  0  0  0  0  0  0  0  0
  154.2569  140.5583  159.8843 H   0  0  0  0  0  0  0  0  0  0  0  0
  153.5769  142.4239  158.4119 H   0  0  0  0  0  0  0  0  0  0  0  0
  151.7337  143.3416  160.6631 H   0  0  0  0  0  0  0  0  0  0  0  0
  151.8466  144.0662  159.0609 H   0  0  0  0  0  0  0  0  0  0  0  0
  153.2201  144.1401  160.1560 H   0  0  0  0  0  0  0  0  0  0  0  0
  151.0515  141.0961  159.5098 H   0  0  0  0  0  0  0  0  0  0  0  0
  151.1889  141.8944  157.9662 H   0  0  0  0  0  0  0  0  0  0  0  0
  151.3323  140.5632  156.3277 H   0  0  0  0  0  0  0  0  0  0  0  0
  153.3027  138.5904  155.8359 H   0  0  0  0  0  0  0  0  0  0  0  0
  152.1379  139.6574  153.9970 H   0  0  0  0  0  0  0  0  0  0  0  0
  151.7255  137.9621  153.9546 H   0  0  0  0  0  0  0  0  0  0  0  0
  149.8031  141.1713  155.5773 H   0  0  0  0  0  0  0  0  0  0  0  0
  147.0796  138.6608  153.6460 H   0  0  0  0  0  0  0  0  0  0  0  0
  1  2  1  0  0  0  0
  1 19  1  0  0  0  0
  1 20  1  0  0  0  0
  1 21  1  0  0  0  0
  2  3  1  0  0  0  0
  2  4  1  0  0  0  0
  2 22  1  0  0  0  0
  3 23  1  0  0  0  0
  3 24  1  0  0  0  0
  3 25  1  0  0  0  0
  4  5  1  0  0  0  0
  4 26  1  0  0  0  0
  4 27  1  0  0  0  0
  5  6  2  0  0  0  0
  5  7  1  0  0  0  0
  7  8  1  0  0  0  0
  7 28  1  0  0  0  0
  8  9  1  0  0  0  0
  8 15  1  0  0  0  0
  8 29  1  0  0  0  0
  9 30  1  0  0  0  0
  9 31  1  0  0  0  0
  9 10  1  0  0  0  0
 10 11  2  0  0  0  0
 10 14  1  0  0  0  0
 11 32  1  0  0  0  0
 11 12  1  0  0  0  0
 12 13  2  0  0  0  0
 13 14  1  0  0  0  0
 13 33  1  0  0  0  0
 14 18  1  0  0  0  0
 15 16  2  0  0  0  0
 15 17  1  0  0  0  0
M  CHG  1  17  -1
M  END
> <s_m_source_file>
AV-unprocessed.smi

> <i_m_source_file_index>
2698

> <i_lp_mmshare_version>
43012

> <i_f3d_flags>
0

> <s_epik_input>
W0NIM11bQ0hdKFtDSDNdKVtDSDJdQyg9TylbTkhdW0NAQEhdKEMoPU8pW09IXSlbQ0gyXWMxW2NIXVtuSF1bY0hdbjE=

> <s_epik_cmdline>
J2VwaWtfcHl0aG9uJywgJy1waCcsICc3LjAnLCAnLXRuJywgJzgnLCAnLW1hJywgJzIwMCcsICctbWV0YWxfYmluZGluZycsICctaW1hZScsICc8aW5maWxlLm1hZT4nLCAnLW9tYWUnLCAnPG91dGZpbGUubWFlPic=

> <r_lp_tautomer_probability>
0.5

> <r_epik_Ionization_Penalty>
0.536153

> <r_epik_Ionization_Penalty_Charging>
0.536153

> <r_epik_Ionization_Penalty_Neutral>
4.95393e-08

> <r_epik_State_Penalty>
0.778213

> <r_epik_Charging_Adjusted_Penalty>
1.31437

> <i_epik_Tot_Q>
-1

> <i_epik_Tot_abs_Q>
1

> <r_epik_Metal_State_Penalty>
0.658344

> <b_epik_Metal_Only>
0

> <s_lp_Force_Field>
OPLS_2005

> <r_lp_Energy>
3.7745

> <b_lp_Chiralities_Consistent>
1

> <s_lp_Variant>
AV-unprocessed.smi:2698-3

> <Gold.Version>
5.8.1

> <Gold.Id.Protein>
6NUR|6NUR_protein|mol2

> <Gold.PLP.Fitness>
39.6802

> <Gold.PLP.PLP>
-30.8650

> <Gold.PLP.part.hbond>
-3.0000

> <Gold.PLP.part.metal>
0.0000

> <Gold.PLP.part.buried>
-2.4013

> <Gold.PLP.part.nonpolar>
-25.6219

> <Gold.PLP.part.repulsive>
0.2964

> <Gold.PLP.ligand.clash>
0.0000

> <Gold.PLP.ligand.torsion>
0.0873

> <Gold.PLP.Chemscore.Hbond>
2.9760

> <Gold.PLP.Chemscore.CHOScore>
0.0000

> <Gold.PLP.Chemscore.Metal>
0.0000

> <Gold.Chemscore.Hbonds>
donor molecule, donor type, donor heavy atom, donor atom, acceptor molecule, acceptor atom, score
      L1  H    14    18       P1  7948  0.93
      P1  H 10752 10765       L1    16  2.00

> <Gold.PLP.Chemscore.Internal.Correction>
0.0618

> <Gold.Rescore>
     Score         DG    S(hbond)    S(metal)    S(lipo)     H(rot)  DE(clash)    DE(int)     intcor
      9.63     -12.36       1.79        0.00      73.59       3.01       0.38       2.34       ----

> <Gold.Chemscore.Fitness>
9.6332

> <Gold.Chemscore.DG>
-12.3569

> <Gold.Chemscore.ZeroCoef>
-5.4800

> <Gold.Chemscore.Hbond>
1.7916

> <Gold.Chemscore.Metal>
0.0000

> <Gold.Chemscore.Lipo>
73.5900

> <Gold.Chemscore.Internal_Hbond>
0.0000

> <Gold.Chemscore.DEClash>
0.3818

> <Gold.Chemscore.DEInternal>
2.3418

> <Gold.Chemscore.Rot>
3.0145

> <Gold.Chemscore.Internal.Correction>
   9.000000E+99

> <Gold.Chemscore.Hbonds>
donor molecule, donor type, donor heavy atom, donor atom, acceptor molecule, acceptor atom, score
      L1  H    14    18       P1  7948  0.83
      P1  H 10752 10765       L1    16  0.98

> <Gold.Chemscore.Hbond.Weighted>
-5.9839

> <Gold.Chemscore.Metal.Weighted>
-0.0000

> <Gold.Chemscore.Lipo.Weighted>
-8.6100

> <Gold.Chemscore.Internal_Hbond.Weighted>
0.0000

> <Gold.Chemscore.DEClash.Weighted>
0.3818

> <Gold.Chemscore.DEInternal.Weighted>
2.3418

> <Gold.Chemscore.Rot.Weighted>
7.7171

> <Gold.Chemscore.Internal.Correction.Weighted>
   9.000000E+99

> <Gold.Protein.RotatedTorsions>
[ 6907 6896 6895 6894 ] final   51.06 input  -60.11 | X-H torsion
[ 7974 7965 7964 7962 ] final  103.80 input  175.53 | X-H torsion
[ 8008 7997 7996 7995 ] final   11.17 input   59.86 | X-H torsion
[ 10167 10162 10161 10158 ] final  -33.87 input  -65.29 | X-H torsion
[ 10718 10713 10712 10709 ] final  150.50 input   66.30 | X-H torsion
[ 10763 10752 10751 10750 ] final -137.40 input  -60.55 | X-H torsion
[ 11005 11000 10999 10996 ] final  -73.36 input  -57.11 | X-H torsion

> <Gold.Protein.ActiveResidues>
 VAL166  LYS551  ARG553  GLY616  TRP617  ASP618  TYR619  PRO620  LYS621  CYS622 
 ASP623  PHE694  ASN695  SER759  ASP760  ASP761  ALA762  ILE779  LEU786  VAL792 
 PHE793  MET794  SER795  GLU796  ALA797  LYS798  CYS799  TRP800  GLU811  SER814 

> <Gold.Protein.RotatedAtoms>
  152.3086  134.7525  160.0341 H   0  0  0  0  0  0  0  0  0  0  0  0  # atno 6907 bound_to 6896
  151.8013  133.3365  159.3536 H   0  0  0  0  0  0  0  0  0  0  0  0  # atno 6908 bound_to 6896
  150.7309  134.5681  159.5920 H   0  0  0  0  0  0  0  0  0  0  0  0  # atno 6909 bound_to 6896
  145.3411  139.2462  143.3609 H   0  0  0  0  0  0  0  0  0  0  0  0  # atno 7974 bound_to 7965
  154.8033  140.2855  155.5906 H   0  0  0  0  0  0  0  0  0  0  0  0  # atno 8008 bound_to 7997
  156.2980  140.2582  156.2835 H   0  0  0  0  0  0  0  0  0  0  0  0  # atno 8009 bound_to 7997
  154.9532  140.0379  157.2144 H   0  0  0  0  0  0  0  0  0  0  0  0  # atno 8010 bound_to 7997
  140.7196  143.3589  151.2004 H   0  0  0  0  0  0  0  0  0  0  0  0  # atno 10167 bound_to 10162
  157.2827  131.0838  151.1520 H   0  0  0  0  0  0  0  0  0  0  0  0  # atno 10718 bound_to 10713
  154.8662  135.3643  154.5217 H   0  0  0  0  0  0  0  0  0  0  0  0  # atno 10763 bound_to 10752
  153.5847  135.7017  153.5453 H   0  0  0  0  0  0  0  0  0  0  0  0  # atno 10764 bound_to 10752
  153.3426  135.4094  155.1546 H   0  0  0  0  0  0  0  0  0  0  0  0  # atno 10765 bound_to 10752
  141.1621  133.6876  156.7200 H   0  0  0  0  0  0  0  0  0  0  0  0  # atno 11005 bound_to 11000
  146.3007  140.4009  142.8705 LP  0  0  0  0  0  0  0  0  0  0  0  0  # atno 17320 bound_to 7965
  144.8789  140.7374  143.5999 LP  0  0  0  0  0  0  0  0  0  0  0  0  # atno 17321 bound_to 7965
  139.7136  143.9336  152.2957 LP  0  0  0  0  0  0  0  0  0  0  0  0  # atno 17342 bound_to 10162
  139.9070  144.6879  150.8603 LP  0  0  0  0  0  0  0  0  0  0  0  0  # atno 17343 bound_to 10162
  157.2948  130.6814  149.6133 LP  0  0  0  0  0  0  0  0  0  0  0  0  # atno 17370 bound_to 10713
  155.9665  130.4410  150.5322 LP  0  0  0  0  0  0  0  0  0  0  0  0  # atno 17371 bound_to 10713
  140.2823  134.8307  157.3944 LP  0  0  0  0  0  0  0  0  0  0  0  0  # atno 17394 bound_to 11000
  140.1422  134.4958  155.8023 LP  0  0  0  0  0  0  0  0  0  0  0  0  # atno 17395 bound_to 11000

$$$$
