#       Name:                AV-unprocessed.smi:404
#       Creating user name   scv26
#       Creation time:       Thu Mar 26 22:44:24 2020


#       File generated by GOLD software.
#

@<TRIPOS>MOLECULE
AV-unprocessed.smi:404
    47    48     1
SMALL
NO_CHARGES


@<TRIPOS>ATOM
      1 ****        -2.7656   2.4363  -1.3064 C.3            1 S1                 0.0000
      2 ****        -3.2914   1.0296  -1.2734 C.2            1 S1                 0.0000
      3 ****        -4.5735   0.8220  -1.0227 N.2            1 S1                 0.0000
      4 ****        -4.7183  -0.5179  -1.0565 N.pl3          1 S1                 0.0000
      5 ****        -6.0248  -1.0988  -0.8154 C.3            1 S1                 0.0000
      6 ****        -3.5247  -1.1582  -1.3261 C.2            1 S1                 0.0000
      7 ****        -3.4212  -2.6471  -1.4079 C.3            1 S1                 0.0000
      8 ****        -2.5725  -0.1852  -1.4755 C.2            1 S1                 0.0000
      9 ****        -1.1038  -0.3436  -1.7761 C.3            1 S1                 0.0000
     10 ****        -0.3280  -0.5043  -0.4691 C.2            1 S1                 0.0000
     11 ****        -0.2242  -1.6151   0.0510 O.2            1 S1                 0.0000
     12 ****         0.2082   0.6118   0.0491 N.am           1 S1                 0.0000
     13 ****         0.9587   0.6947   1.2987 C.3            1 S1                 0.0000
     14 ****         2.4840   0.7574   1.0716 C.3            1 S1                 0.0000
     15 ****         3.0492  -0.5246   0.4184 C.3            1 S1                 0.0000
     16 ****         4.5737  -0.4499   0.2327 C.3            1 S1                 0.0000
     17 ****         5.2869  -0.1580   1.5610 C.3            1 S1                 0.0000
     18 ****         4.7400   1.1226   2.2079 C.3            1 S1                 0.0000
     19 ****         3.2171   1.0405   2.3993 C.3            1 S1                 0.0000
     20 ****        -2.1219   2.6297  -0.4484 H              1 S1                 0.0000
     21 ****        -3.5719   3.1707  -1.2881 H              1 S1                 0.0000
     22 ****        -2.1798   2.6133  -2.2083 H              1 S1                 0.0000
     23 ****        -6.2765  -1.7869  -1.6229 H              1 S1                 0.0000
     24 ****        -6.7890  -0.3217  -0.7650 H              1 S1                 0.0000
     25 ****        -6.0128  -1.6451   0.1283 H              1 S1                 0.0000
     26 ****        -2.3855  -2.9665  -1.5224 H              1 S1                 0.0000
     27 ****        -3.9858  -3.0279  -2.2593 H              1 S1                 0.0000
     28 ****        -3.8139  -3.1132  -0.5040 H              1 S1                 0.0000
     29 ****        -0.9168  -1.2144  -2.4052 H              1 S1                 0.0000
     30 ****        -0.7147   0.5118  -2.3297 H              1 S1                 0.0000
     31 ****         0.0696   1.4767  -0.4533 H              1 S1                 0.0000
     32 ****         0.6290   1.6003   1.8087 H              1 S1                 0.0000
     33 ****         0.7062  -0.1328   1.9642 H              1 S1                 0.0000
     34 ****         2.6858   1.5929   0.3992 H              1 S1                 0.0000
     35 ****         2.7992  -1.3905   1.0329 H              1 S1                 0.0000
     36 ****         2.5866  -0.6935  -0.5538 H              1 S1                 0.0000
     37 ****         4.9422  -1.3857  -0.1883 H              1 S1                 0.0000
     38 ****         4.8151   0.3303  -0.4902 H              1 S1                 0.0000
     39 ****         5.1519  -0.9993   2.2420 H              1 S1                 0.0000
     40 ****         6.3603  -0.0626   1.3947 H              1 S1                 0.0000
     41 ****         5.2270   1.2904   3.1689 H              1 S1                 0.0000
     42 ****         4.9848   1.9822   1.5828 H              1 S1                 0.0000
     43 ****         2.8572   1.9744   2.8323 H              1 S1                 0.0000
     44 ****         2.9850   0.2571   3.1222 H              1 S1                 0.0000
     45 ****        -5.2797   1.5078  -0.8468 LP             1 S1                 0.0000
     46 ****        -0.6473  -2.4113  -0.3816 LP             1 S1                 0.0000
     47 ****         0.2832  -1.7214   0.9062 LP             1 S1                 0.0000
@<TRIPOS>BOND
    1    1    2 1     
    2    1   20 1     
    3    1   21 1     
    4    1   22 1     
    5    2    8 1     
    6    2    3 2     
    7    3    4 1     
    8    4    5 1     
    9    4    6 1     
   10    5   23 1     
   11    5   24 1     
   12    5   25 1     
   13    6    7 1     
   14    6    8 2     
   15    7   26 1     
   16    7   27 1     
   17    7   28 1     
   18    8    9 1     
   19    9   10 1     
   20    9   29 1     
   21    9   30 1     
   22   10   11 2     
   23   10   12 am    
   24   12   13 1     
   25   12   31 1     
   26   13   14 1     
   27   13   32 1     
   28   13   33 1     
   29   14   19 1     
   30   14   15 1     
   31   14   34 1     
   32   15   16 1     
   33   15   35 1     
   34   15   36 1     
   35   16   17 1     
   36   16   37 1     
   37   16   38 1     
   38   17   18 1     
   39   17   39 1     
   40   17   40 1     
   41   18   19 1     
   42   18   41 1     
   43   18   42 1     
   44   19   43 1     
   45   19   44 1     
   46    3   45 1     
   47   11   46 1     
   48   11   47 1     
@<TRIPOS>SUBSTRUCTURE
      1 S1             1
@<TRIPOS>SET
LONE_PAIRS      STATIC     ATOMS    <user>   **** ""
3 45 46 47
DONOR_HYDROGENS      STATIC     ATOMS    <user>   **** ""
1 31
ATOM$BLUE        STATIC     ATOMS    COLORGROUP SYSTEM
3 45 46 47
ATOM$RED        STATIC     ATOMS    COLORGROUP SYSTEM
1 31
