AV-unprocessed.smi:473|AV-procd|sdf|2662|dock8
  -GOLD-   2262023 73D 1   1.00000     0.00000
 Structure written by MMmdl.
 42 44  0  0  0  0  0  0  0  0  1 V2000
  153.3396  142.3724  162.1996 C   0  0  0  0  0  0  0  0  0  0  0  0
  152.8181  142.1717  160.7874 C   0  0  0  0  0  0  0  0  0  0  0  0
  153.1659  140.9946  160.0867 C   0  0  0  0  0  0  0  0  0  0  0  0
  152.6967  140.7677  158.7743 C   0  0  0  0  0  0  0  0  0  0  0  0
  152.9033  139.7005  157.9167 N   0  0  0  0  0  0  0  0  0  0  0  0
  152.2048  140.0753  156.8486 C   0  0  0  0  0  0  0  0  0  0  0  0
  151.5687  141.2607  156.9132 N   0  0  0  0  0  0  0  0  0  0  0  0
  150.7507  141.8735  155.8823 C   0  0  0  0  0  0  0  0  0  0  0  0
  149.4324  141.1095  155.6459 C   0  0  1  0  0  0  0  0  0  0  0  0
  148.4089  141.9681  155.1825 O   0  0  0  0  0  0  0  0  0  0  0  0
  149.5726  139.9253  154.6751 C   0  0  0  0  0  0  0  0  0  0  0  0
  150.2737  138.8645  155.3037 O   0  0  0  0  0  0  0  0  0  0  0  0
  150.7555  137.8970  154.3857 C   0  0  0  0  0  0  0  0  0  0  0  0
  150.6324  136.5525  155.0300 C   0  0  0  0  0  0  0  0  0  0  0  0
  149.5846  135.6861  155.1781 C   0  0  0  0  0  0  0  0  0  0  0  0
  150.0900  134.5562  155.8787 C   0  0  0  0  0  0  0  0  0  0  0  0
  151.4123  134.8128  156.1028 C   0  0  0  0  0  0  0  0  0  0  0  0
  151.7600  136.0245  155.5908 O   0  0  0  0  0  0  0  0  0  0  0  0
  151.8665  141.7602  158.1764 C   0  0  0  0  0  0  0  0  0  0  0  0
  151.5152  142.9360  158.8622 C   0  0  0  0  0  0  0  0  0  0  0  0
  151.9902  143.1456  160.1736 C   0  0  0  0  0  0  0  0  0  0  0  0
  151.6003  144.4165  160.9071 C   0  0  0  0  0  0  0  0  0  0  0  0
  153.9628  141.5360  162.5170 H   0  0  0  0  0  0  0  0  0  0  0  0
  152.5111  142.4578  162.9032 H   0  0  0  0  0  0  0  0  0  0  0  0
  153.9409  143.2797  162.2607 H   0  0  0  0  0  0  0  0  0  0  0  0
  153.7960  140.2521  160.5539 H   0  0  0  0  0  0  0  0  0  0  0  0
  152.1494  139.4513  155.9687 H   0  0  0  0  0  0  0  0  0  0  0  0
  150.5538  142.9068  156.1707 H   0  0  0  0  0  0  0  0  0  0  0  0
  151.3321  141.9143  154.9604 H   0  0  0  0  0  0  0  0  0  0  0  0
  149.0849  140.7161  156.6019 H   0  0  0  0  0  0  0  0  0  0  0  0
  148.7217  142.8587  155.2283 H   0  0  0  0  0  0  0  0  0  0  0  0
  148.5795  139.5720  154.3941 H   0  0  0  0  0  0  0  0  0  0  0  0
  150.0755  140.2354  153.7573 H   0  0  0  0  0  0  0  0  0  0  0  0
  150.1743  137.9242  153.4628 H   0  0  0  0  0  0  0  0  0  0  0  0
  151.7978  138.0965  154.1335 H   0  0  0  0  0  0  0  0  0  0  0  0
  148.5765  135.8474  154.8260 H   0  0  0  0  0  0  0  0  0  0  0  0
  149.5544  133.6678  156.1795 H   0  0  0  0  0  0  0  0  0  0  0  0
  152.2111  134.2697  156.5861 H   0  0  0  0  0  0  0  0  0  0  0  0
  150.8813  143.6677  158.3830 H   0  0  0  0  0  0  0  0  0  0  0  0
  150.9725  145.0568  160.2866 H   0  0  0  0  0  0  0  0  0  0  0  0
  152.4875  144.9866  161.1840 H   0  0  0  0  0  0  0  0  0  0  0  0
  151.0428  144.1782  161.8131 H   0  0  0  0  0  0  0  0  0  0  0  0
  1  2  1  0  0  0  0
  1 23  1  0  0  0  0
  1 24  1  0  0  0  0
  1 25  1  0  0  0  0
  2 21  1  0  0  0  0
  2  3  2  0  0  0  0
  3  4  1  0  0  0  0
  3 26  1  0  0  0  0
  4 19  2  0  0  0  0
  4  5  1  0  0  0  0
  5  6  2  0  0  0  0
  6  7  1  0  0  0  0
  6 27  1  0  0  0  0
  7  8  1  0  0  0  0
  7 19  1  0  0  0  0
  8  9  1  0  0  0  0
  8 28  1  0  0  0  0
  8 29  1  0  0  0  0
  9 10  1  0  0  0  0
  9 11  1  0  0  0  0
  9 30  1  0  0  0  0
 10 31  1  0  0  0  0
 11 12  1  0  0  0  0
 11 32  1  0  0  0  0
 11 33  1  0  0  0  0
 12 13  1  0  0  0  0
 13 14  1  0  0  0  0
 13 34  1  0  0  0  0
 13 35  1  0  0  0  0
 14 18  1  0  0  0  0
 14 15  2  0  0  0  0
 15 16  1  0  0  0  0
 15 36  1  0  0  0  0
 16 17  2  0  0  0  0
 16 37  1  0  0  0  0
 17 18  1  0  0  0  0
 17 38  1  0  0  0  0
 19 20  1  0  0  0  0
 20 21  2  0  0  0  0
 20 39  1  0  0  0  0
 21 22  1  0  0  0  0
 22 40  1  0  0  0  0
 22 41  1  0  0  0  0
 22 42  1  0  0  0  0
M  END
> <s_m_source_file>
AV-unprocessed.smi

> <i_m_source_file_index>
473

> <i_lp_mmshare_version>
43012

> <i_f3d_flags>
0

> <s_epik_input>
W0NIM11jKFtjSF0xKWMoW0NIM10pW2NIXWMoYzEyKW4oW2NIXW4yKVtDSDJdW0NASF0oW09IXSlbQ0gyXU9bQ0gyXWMzW2NIXVtjSF1bY0hdbzM=

> <s_epik_cmdline>
J2VwaWtfcHl0aG9uJywgJy1waCcsICc3LjAnLCAnLXRuJywgJzgnLCAnLW1hJywgJzIwMCcsICctbWV0YWxfYmluZGluZycsICctaW1hZScsICc8aW5maWxlLm1hZT4nLCAnLW9tYWUnLCAnPG91dGZpbGUubWFlPic=

> <r_epik_Ionization_Penalty>
0.112477

> <r_epik_Ionization_Penalty_Charging>
0

> <r_epik_Ionization_Penalty_Neutral>
0.112477

> <r_epik_State_Penalty>
0.102177

> <r_epik_Charging_Adjusted_Penalty>
0.102177

> <i_epik_Tot_Q>
0

> <i_epik_Tot_abs_Q>
0

> <r_epik_Metal_State_Penalty>
0.000111506

> <b_epik_Metal_Only>
0

> <s_lp_Force_Field>
OPLS_2005

> <r_lp_Energy>
9.30743

> <b_lp_Chiralities_Consistent>
1

> <s_lp_Variant>
AV-unprocessed.smi:473-2

> <Gold.Version>
5.8.1

> <Gold.Id.Protein>
6NUR|6NUR_protein|mol2

> <Gold.PLP.Fitness>
51.0028

> <Gold.PLP.PLP>
-44.5892

> <Gold.PLP.part.hbond>
-3.0000

> <Gold.PLP.part.metal>
0.0000

> <Gold.PLP.part.buried>
-5.7430

> <Gold.PLP.part.nonpolar>
-35.3318

> <Gold.PLP.part.repulsive>
0.1241

> <Gold.PLP.ligand.clash>
0.0000

> <Gold.PLP.ligand.torsion>
1.1000

> <Gold.PLP.Chemscore.Hbond>
2.8500

> <Gold.PLP.Chemscore.CHOScore>
0.0000

> <Gold.PLP.Chemscore.Metal>
0.0000

> <Gold.Chemscore.Hbonds>
donor molecule, donor type, donor heavy atom, donor atom, acceptor molecule, acceptor atom, score
      L1  H    10    31       P1  8028  1.00
      P1  H  7997  8009       L1     5  0.70
      P1  H 10752 10765       L1    18  0.95

> <Gold.PLP.Chemscore.Internal.Correction>
0.0636

> <Gold.Rescore>
     Score         DG    S(hbond)    S(metal)    S(lipo)     H(rot)  DE(clash)    DE(int)     intcor
     17.15     -19.89       1.81        0.00     124.24       2.41       0.20       2.54       ----

> <Gold.Chemscore.Fitness>
17.1497

> <Gold.Chemscore.DG>
-19.8858

> <Gold.Chemscore.ZeroCoef>
-5.4800

> <Gold.Chemscore.Hbond>
1.8069

> <Gold.Chemscore.Metal>
0.0000

> <Gold.Chemscore.Lipo>
124.2407

> <Gold.Chemscore.Internal_Hbond>
0.0000

> <Gold.Chemscore.DEClash>
0.1958

> <Gold.Chemscore.DEInternal>
2.5403

> <Gold.Chemscore.Rot>
2.4083

> <Gold.Chemscore.Internal.Correction>
   9.000000E+99

> <Gold.Chemscore.Hbonds>
donor molecule, donor type, donor heavy atom, donor atom, acceptor molecule, acceptor atom, score
      L1  H    10    31       P1  8028  1.00
      P1  H  7997  8009       L1     5  0.04
      P1  H 10752 10765       L1    18  0.20

> <Gold.Chemscore.Hbond.Weighted>
-6.0349

> <Gold.Chemscore.Metal.Weighted>
-0.0000

> <Gold.Chemscore.Lipo.Weighted>
-14.5362

> <Gold.Chemscore.Internal_Hbond.Weighted>
0.0000

> <Gold.Chemscore.DEClash.Weighted>
0.1958

> <Gold.Chemscore.DEInternal.Weighted>
2.5403

> <Gold.Chemscore.Rot.Weighted>
6.1653

> <Gold.Chemscore.Internal.Correction.Weighted>
   9.000000E+99

> <Gold.Protein.RotatedTorsions>
[ 6907 6896 6895 6894 ] final -119.61 input  -60.11 | X-H torsion
[ 7974 7965 7964 7962 ] final  -57.53 input  175.53 | X-H torsion
[ 8008 7997 7996 7995 ] final  149.25 input   59.86 | X-H torsion
[ 10167 10162 10161 10158 ] final   87.54 input  -65.29 | X-H torsion
[ 10718 10713 10712 10709 ] final   34.11 input   66.30 | X-H torsion
[ 10763 10752 10751 10750 ] final -177.70 input  -60.55 | X-H torsion
[ 11005 11000 10999 10996 ] final  153.85 input  -57.11 | X-H torsion

> <Gold.Protein.ActiveResidues>
 VAL166  LYS551  ARG553  GLY616  TRP617  ASP618  TYR619  PRO620  LYS621  CYS622 
 ASP623  PHE694  ASN695  SER759  ASP760  ASP761  ALA762  ILE779  LEU786  VAL792 
 PHE793  MET794  SER795  GLU796  ALA797  LYS798  CYS799  TRP800  GLU811  SER814 

> <Gold.Protein.RotatedAtoms>
  150.8320  133.8075  159.3094 H   0  0  0  0  0  0  0  0  0  0  0  0  # atno 6907 bound_to 6896
  151.5802  135.1057  160.0025 H   0  0  0  0  0  0  0  0  0  0  0  0  # atno 6908 bound_to 6896
  152.4398  133.7386  159.6684 H   0  0  0  0  0  0  0  0  0  0  0  0  # atno 6909 bound_to 6896
  145.8500  140.8359  142.9991 H   0  0  0  0  0  0  0  0  0  0  0  0  # atno 7974 bound_to 7965
  156.2762  140.2107  156.5827 H   0  0  0  0  0  0  0  0  0  0  0  0  # atno 8008 bound_to 7997
  154.7045  140.0518  157.0514 H   0  0  0  0  0  0  0  0  0  0  0  0  # atno 8009 bound_to 7997
  155.0689  140.3174  155.4640 H   0  0  0  0  0  0  0  0  0  0  0  0  # atno 8010 bound_to 7997
  139.8763  144.6465  150.8893 H   0  0  0  0  0  0  0  0  0  0  0  0  # atno 10167 bound_to 10162
  157.3062  130.7376  149.6697 H   0  0  0  0  0  0  0  0  0  0  0  0  # atno 10718 bound_to 10713
  154.5568  135.2817  155.0957 H   0  0  0  0  0  0  0  0  0  0  0  0  # atno 10763 bound_to 10752
  154.2381  135.6362  153.5201 H   0  0  0  0  0  0  0  0  0  0  0  0  # atno 10764 bound_to 10752
  153.0018  135.5553  154.6150 H   0  0  0  0  0  0  0  0  0  0  0  0  # atno 10765 bound_to 10752
  140.1435  134.8723  157.2362 H   0  0  0  0  0  0  0  0  0  0  0  0  # atno 11005 bound_to 11000
  144.6729  140.0939  143.7464 LP  0  0  0  0  0  0  0  0  0  0  0  0  # atno 17320 bound_to 7965
  145.9369  139.2643  143.1292 LP  0  0  0  0  0  0  0  0  0  0  0  0  # atno 17321 bound_to 7965
  140.7752  143.3622  151.1807 LP  0  0  0  0  0  0  0  0  0  0  0  0  # atno 17342 bound_to 10162
  139.7237  143.9183  152.2995 LP  0  0  0  0  0  0  0  0  0  0  0  0  # atno 17343 bound_to 10162
  155.9674  130.4265  150.4702 LP  0  0  0  0  0  0  0  0  0  0  0  0  # atno 17370 bound_to 10713
  157.2692  131.0583  151.2271 LP  0  0  0  0  0  0  0  0  0  0  0  0  # atno 17371 bound_to 10713
  140.2692  134.3480  155.7379 LP  0  0  0  0  0  0  0  0  0  0  0  0  # atno 17394 bound_to 11000
  141.2189  133.7414  156.9198 LP  0  0  0  0  0  0  0  0  0  0  0  0  # atno 17395 bound_to 11000

$$$$
