AV-unprocessed.smi:3300|AV-procd|sdf|12650|dock1
  -GOLD-   2272018583D 1   1.00000     0.00000
 Structure written by MMmdl.
 36 37  0  0  0  0  0  0  0  0  1 V2000
  148.9516  140.9921  153.9589 C   0  0  0  0  0  0  0  0  0  0  0  0
  149.2372  141.6075  155.3336 C   0  0  0  0  0  0  0  0  0  0  0  0
  150.4389  140.9737  156.0095 C   0  0  0  0  0  0  0  0  0  0  0  0
  151.1384  140.0735  155.2831 N   0  0  0  0  0  0  0  0  0  0  0  0
  152.2031  139.5231  155.8710 C   0  0  0  0  0  0  0  0  0  0  0  0
  152.6514  139.7699  157.1041 N   0  0  0  0  0  0  0  0  0  0  0  0
  151.9575  140.6649  157.8501 C   0  0  0  0  0  0  0  0  0  0  0  0
  152.4081  140.9707  159.1483 N   0  0  0  0  0  0  0  0  0  0  0  0
  152.9027  142.3435  159.1786 C   0  0  0  0  0  0  0  0  0  0  0  0
  153.2573  142.7611  160.6113 C   0  0  0  0  0  0  0  0  0  0  0  0
  154.2079  141.8446  161.1341 O   0  0  0  0  0  0  0  0  0  0  0  0
  153.6792  140.5261  161.2087 C   0  0  0  0  0  0  0  0  0  0  0  0
  153.3018  140.0021  159.8012 C   0  0  1  0  0  0  0  0  0  0  0  0
  152.6670  138.5896  159.8962 C   0  0  0  0  0  0  0  0  0  0  0  0
  153.4650  137.6070  160.7681 C   0  0  0  0  0  0  0  0  0  0  0  0
  152.9048  136.3156  160.6668 O   0  0  0  0  0  0  0  0  0  0  0  0
  150.8189  141.3173  157.3252 C   0  0  0  0  0  0  0  0  0  0  0  0
  150.1251  142.2285  158.0507 F   0  0  0  0  0  0  0  0  0  0  0  0
  148.0828  141.4611  153.4969 H   0  0  0  0  0  0  0  0  0  0  0  0
  148.7499  139.9234  154.0386 H   0  0  0  0  0  0  0  0  0  0  0  0
  149.7993  141.1245  153.2861 H   0  0  0  0  0  0  0  0  0  0  0  0
  149.3984  142.6811  155.2318 H   0  0  0  0  0  0  0  0  0  0  0  0
  148.3647  141.4908  155.9778 H   0  0  0  0  0  0  0  0  0  0  0  0
  152.7616  138.8061  155.2878 H   0  0  0  0  0  0  0  0  0  0  0  0
  153.7841  142.4244  158.5405 H   0  0  0  0  0  0  0  0  0  0  0  0
  152.1522  143.0252  158.7761 H   0  0  0  0  0  0  0  0  0  0  0  0
  153.6884  143.7623  160.6158 H   0  0  0  0  0  0  0  0  0  0  0  0
  152.3686  142.7916  161.2439 H   0  0  0  0  0  0  0  0  0  0  0  0
  154.4402  139.8946  161.6655 H   0  0  0  0  0  0  0  0  0  0  0  0
  152.8155  140.5126  161.8760 H   0  0  0  0  0  0  0  0  0  0  0  0
  154.2157  139.9385  159.2085 H   0  0  0  0  0  0  0  0  0  0  0  0
  151.6462  138.6710  160.2731 H   0  0  0  0  0  0  0  0  0  0  0  0
  152.5808  138.1436  158.9056 H   0  0  0  0  0  0  0  0  0  0  0  0
  154.5058  137.5666  160.4459 H   0  0  0  0  0  0  0  0  0  0  0  0
  153.4549  137.9041  161.8162 H   0  0  0  0  0  0  0  0  0  0  0  0
  153.5230  135.7531  160.2255 H   0  0  0  0  0  0  0  0  0  0  0  0
  1  2  1  0  0  0  0
  1 19  1  0  0  0  0
  1 20  1  0  0  0  0
  1 21  1  0  0  0  0
  2  3  1  0  0  0  0
  2 22  1  0  0  0  0
  2 23  1  0  0  0  0
  3 17  1  0  0  0  0
  3  4  2  0  0  0  0
  4  5  1  0  0  0  0
  5  6  2  0  0  0  0
  5 24  1  0  0  0  0
  6  7  1  0  0  0  0
  7  8  1  0  0  0  0
  7 17  2  0  0  0  0
  8 13  1  0  0  0  0
  8  9  1  0  0  0  0
  9 10  1  0  0  0  0
  9 25  1  0  0  0  0
  9 26  1  0  0  0  0
 10 11  1  0  0  0  0
 10 27  1  0  0  0  0
 10 28  1  0  0  0  0
 11 12  1  0  0  0  0
 12 13  1  0  0  0  0
 12 29  1  0  0  0  0
 12 30  1  0  0  0  0
 13 14  1  0  0  0  0
 13 31  1  0  0  0  0
 14 15  1  0  0  0  0
 14 32  1  0  0  0  0
 14 33  1  0  0  0  0
 15 16  1  0  0  0  0
 15 34  1  0  0  0  0
 15 35  1  0  0  0  0
 16 36  1  0  0  0  0
 17 18  1  0  0  0  0
M  END
> <s_m_source_file>
AV-unprocessed.smi

> <i_m_source_file_index>
3300

> <i_lp_mmshare_version>
43012

> <i_f3d_flags>
0

> <s_epik_input>
W0NIM11bQ0gyXWMxbltjSF1uYyhjMUYpTjJbQ0gyXVtDSDJdT1tDSDJdW0NASF0yW0NIMl1bQ0gyXVtPSF0=

> <s_epik_cmdline>
J2VwaWtfcHl0aG9uJywgJy1waCcsICc3LjAnLCAnLXRuJywgJzgnLCAnLW1hJywgJzIwMCcsICctbWV0YWxfYmluZGluZycsICctaW1hZScsICc8aW5maWxlLm1hZT4nLCAnLW9tYWUnLCAnPG91dGZpbGUubWFlPic=

> <r_lp_tautomer_probability>
1

> <r_epik_Ionization_Penalty>
2.51351e-05

> <r_epik_Ionization_Penalty_Charging>
0

> <r_epik_Ionization_Penalty_Neutral>
2.51351e-05

> <r_epik_State_Penalty>
-0

> <r_epik_Charging_Adjusted_Penalty>
0

> <i_epik_Tot_Q>
0

> <i_epik_Tot_abs_Q>
0

> <r_epik_Metal_State_Penalty>
-0

> <b_epik_Metal_Only>
0

> <s_lp_Force_Field>
OPLS_2005

> <r_lp_Energy>
16.6738

> <b_lp_Chiralities_Consistent>
1

> <s_lp_Variant>
AV-unprocessed.smi:3300-1

> <Gold.Version>
5.8.1

> <Gold.Id.Protein>
6NUR|6NUR_protein|mol2

> <Gold.PLP.Fitness>
42.3955

> <Gold.PLP.PLP>
-34.0534

> <Gold.PLP.part.hbond>
-3.8657

> <Gold.PLP.part.metal>
0.0000

> <Gold.PLP.part.buried>
-2.2890

> <Gold.PLP.part.nonpolar>
-27.7855

> <Gold.PLP.part.repulsive>
0.0379

> <Gold.PLP.ligand.clash>
0.0000

> <Gold.PLP.ligand.torsion>
0.4310

> <Gold.PLP.Chemscore.Hbond>
3.0000

> <Gold.PLP.Chemscore.CHOScore>
0.0000

> <Gold.PLP.Chemscore.Metal>
0.0000

> <Gold.Chemscore.Hbonds>
donor molecule, donor type, donor heavy atom, donor atom, acceptor molecule, acceptor atom, score
      P1  H  7989  7998       L1     4  1.00
      P1  H  7997  8009       L1     6  0.80

> <Gold.PLP.Chemscore.Internal.Correction>
0.2041

> <Gold.Rescore>
     Score         DG    S(hbond)    S(metal)    S(lipo)     H(rot)  DE(clash)    DE(int)     intcor
     12.09     -12.98       1.70        0.00      67.00       2.35       0.28       0.61       ----

> <Gold.Chemscore.Fitness>
12.0919

> <Gold.Chemscore.DG>
-12.9819

> <Gold.Chemscore.ZeroCoef>
-5.4800

> <Gold.Chemscore.Hbond>
1.6972

> <Gold.Chemscore.Metal>
0.0000

> <Gold.Chemscore.Lipo>
66.9956

> <Gold.Chemscore.Internal_Hbond>
0.0000

> <Gold.Chemscore.DEClash>
0.2753

> <Gold.Chemscore.DEInternal>
0.6147

> <Gold.Chemscore.Rot>
2.3458

> <Gold.Chemscore.Internal.Correction>
   9.000000E+99

> <Gold.Chemscore.Hbonds>
donor molecule, donor type, donor heavy atom, donor atom, acceptor molecule, acceptor atom, score
      P1  H  7989  7998       L1     4  0.55
      P1  H  7997  8009       L1     6  0.12

> <Gold.Chemscore.Hbond.Weighted>
-5.6686

> <Gold.Chemscore.Metal.Weighted>
-0.0000

> <Gold.Chemscore.Lipo.Weighted>
-7.8385

> <Gold.Chemscore.Internal_Hbond.Weighted>
0.0000

> <Gold.Chemscore.DEClash.Weighted>
0.2753

> <Gold.Chemscore.DEInternal.Weighted>
0.6147

> <Gold.Chemscore.Rot.Weighted>
6.0051

> <Gold.Chemscore.Internal.Correction.Weighted>
   9.000000E+99

> <Gold.Protein.RotatedTorsions>
[ 6907 6896 6895 6894 ] final  145.35 input  -60.11 | X-H torsion
[ 7974 7965 7964 7962 ] final   27.07 input  175.53 | X-H torsion
[ 8008 7997 7996 7995 ] final -179.22 input   59.86 | X-H torsion
[ 10167 10162 10161 10158 ] final  -91.82 input  -65.29 | X-H torsion
[ 10718 10713 10712 10709 ] final -146.36 input   66.30 | X-H torsion
[ 10763 10752 10751 10750 ] final   22.73 input  -60.55 | X-H torsion
[ 11005 11000 10999 10996 ] final  158.25 input  -57.11 | X-H torsion

> <Gold.Protein.ActiveResidues>
 VAL166  LYS551  ARG553  GLY616  TRP617  ASP618  TYR619  PRO620  LYS621  CYS622 
 ASP623  PHE694  ASN695  SER759  ASP760  ASP761  ALA762  ILE779  LEU786  VAL792 
 PHE793  MET794  SER795  GLU796  ALA797  LYS798  CYS799  TRP800  GLU811  SER814 

> <Gold.Protein.RotatedAtoms>
  152.1820  133.4714  159.4962 H   0  0  0  0  0  0  0  0  0  0  0  0  # atno 6907 bound_to 6896
  150.6936  134.1821  159.4262 H   0  0  0  0  0  0  0  0  0  0  0  0  # atno 6908 bound_to 6896
  151.9733  135.0065  160.0604 H   0  0  0  0  0  0  0  0  0  0  0  0  # atno 6909 bound_to 6896
  146.1804  139.7241  142.8904 H   0  0  0  0  0  0  0  0  0  0  0  0  # atno 7974 bound_to 7965
  156.0280  140.1276  157.0288 H   0  0  0  0  0  0  0  0  0  0  0  0  # atno 8008 bound_to 7997
  154.4338  140.1055  156.6129 H   0  0  0  0  0  0  0  0  0  0  0  0  # atno 8009 bound_to 7997
  155.5848  140.3468  155.4552 H   0  0  0  0  0  0  0  0  0  0  0  0  # atno 8010 bound_to 7997
  140.3411  143.2942  151.9834 H   0  0  0  0  0  0  0  0  0  0  0  0  # atno 10167 bound_to 10162
  156.3939  130.7900  151.2104 H   0  0  0  0  0  0  0  0  0  0  0  0  # atno 10718 bound_to 10713
  153.0892  135.6642  153.9887 H   0  0  0  0  0  0  0  0  0  0  0  0  # atno 10763 bound_to 10752
  153.9488  135.2986  155.3441 H   0  0  0  0  0  0  0  0  0  0  0  0  # atno 10764 bound_to 10752
  154.7305  135.5125  153.9028 H   0  0  0  0  0  0  0  0  0  0  0  0  # atno 10765 bound_to 10752
  140.1847  134.8450  157.2844 H   0  0  0  0  0  0  0  0  0  0  0  0  # atno 11005 bound_to 11000
  145.4093  141.0394  143.3026 LP  0  0  0  0  0  0  0  0  0  0  0  0  # atno 17320 bound_to 7965
  144.8305  139.5636  143.6946 LP  0  0  0  0  0  0  0  0  0  0  0  0  # atno 17321 bound_to 7965
  139.4840  144.6156  151.7352 LP  0  0  0  0  0  0  0  0  0  0  0  0  # atno 17342 bound_to 10162
  140.5308  144.0733  150.6053 LP  0  0  0  0  0  0  0  0  0  0  0  0  # atno 17343 bound_to 10162
  157.7500  131.0307  150.4149 LP  0  0  0  0  0  0  0  0  0  0  0  0  # atno 17370 bound_to 10713
  156.4416  130.3993  149.6693 LP  0  0  0  0  0  0  0  0  0  0  0  0  # atno 17371 bound_to 10713
  140.2227  134.4004  155.7558 LP  0  0  0  0  0  0  0  0  0  0  0  0  # atno 17394 bound_to 11000
  141.2224  133.7174  156.8515 LP  0  0  0  0  0  0  0  0  0  0  0  0  # atno 17395 bound_to 11000

$$$$
