AV-unprocessed.smi:249|AV-procd|sdf|1903|dock3
  -GOLD-   2262020583D 1   1.00000     0.00000
 Structure written by MMmdl.
 64 67  0  0  0  0  0  0  0  0  2 V2000
  145.7940  129.7741  151.4923 C   0  0  0  0  0  0  0  0  0  0  0  0
  146.4506  130.9117  152.2889 C   0  0  0  0  0  0  0  0  0  0  0  0
  146.9612  132.0155  151.4228 N   0  3  1  0  0  0  0  0  0  0  0  0
  145.9355  132.6054  150.5171 C   0  0  0  0  0  0  0  0  0  0  0  0
  144.9225  133.4739  151.2864 C   0  0  0  0  0  0  0  0  0  0  0  0
  145.6385  134.5895  152.0786 C   0  0  1  0  0  0  0  0  0  0  0  0
  144.7239  135.4769  152.8089 N   0  0  0  0  0  0  0  0  0  0  0  0
  143.6762  136.1407  152.0419 C   0  0  0  0  0  0  0  0  0  0  0  0
  145.2493  136.2405  153.7966 C   0  0  0  0  0  0  0  0  0  0  0  0
  145.0503  135.8327  155.0750 N   0  0  0  0  0  0  0  0  0  0  0  0
  145.5427  136.5474  156.0911 C   0  0  0  0  0  0  0  0  0  0  0  0
  146.2458  137.6811  156.0508 N   0  0  0  0  0  0  0  0  0  0  0  0
  146.4391  138.0994  154.7673 C   0  0  0  0  0  0  0  0  0  0  0  0
  145.9808  137.4449  153.5896 C   0  0  0  0  0  0  0  0  0  0  0  0
  146.3811  138.1591  152.4660 N   0  0  0  0  0  0  0  0  0  0  0  0
  147.0358  139.1781  152.9515 C   0  0  0  0  0  0  0  0  0  0  0  0
  147.1024  139.2307  154.3254 N   0  0  0  0  0  0  0  0  0  0  0  0
  147.7665  140.2458  155.1232 C   0  0  0  0  0  0  0  0  0  0  0  0
  148.9681  139.7293  155.9575 C   0  0  1  0  0  0  0  0  0  0  0  0
  150.0517  139.1802  155.0008 C   0  0  0  0  0  0  0  0  0  0  0  0
  150.3383  140.0917  153.9588 O   0  0  0  0  0  0  0  0  0  0  0  0
  149.5378  140.7621  156.9743 C   0  0  2  0  0  0  0  0  0  0  0  0
  150.3026  141.9169  156.3462 C   0  0  0  0  0  0  0  0  0  0  0  0
  151.0951  142.4565  157.5270 C   0  0  0  0  0  0  0  0  0  0  0  0
  151.4937  141.2958  158.2389 O   0  0  0  0  0  0  0  0  0  0  0  0
  150.5961  140.2264  157.9539 C   0  0  0  0  0  0  0  0  0  0  0  0
  146.7417  133.9771  152.9705 C   0  0  0  0  0  0  0  0  0  0  0  0
  147.7006  133.0975  152.1420 C   0  0  1  0  0  0  0  0  0  0  0  0
  148.8925  132.5853  152.9706 C   0  0  0  0  0  0  0  0  0  0  0  0
  145.5748  128.9298  152.1463 H   0  0  0  0  0  0  0  0  0  0  0  0
  146.4519  129.4142  150.7006 H   0  0  0  0  0  0  0  0  0  0  0  0
  144.8498  130.0773  151.0412 H   0  0  0  0  0  0  0  0  0  0  0  0
  145.7587  131.2904  153.0407 H   0  0  0  0  0  0  0  0  0  0  0  0
  147.2762  130.4629  152.8376 H   0  0  0  0  0  0  0  0  0  0  0  0
  146.4454  133.2222  149.7759 H   0  0  0  0  0  0  0  0  0  0  0  0
  145.4207  131.8356  149.9444 H   0  0  0  0  0  0  0  0  0  0  0  0
  144.2162  133.9175  150.5838 H   0  0  0  0  0  0  0  0  0  0  0  0
  144.3348  132.8383  151.9481 H   0  0  0  0  0  0  0  0  0  0  0  0
  146.1363  135.2239  151.3436 H   0  0  0  0  0  0  0  0  0  0  0  0
  143.0313  136.7346  152.6911 H   0  0  0  0  0  0  0  0  0  0  0  0
  143.0513  135.3994  151.5439 H   0  0  0  0  0  0  0  0  0  0  0  0
  144.0918  136.7983  151.2787 H   0  0  0  0  0  0  0  0  0  0  0  0
  145.3435  136.1559  157.0778 H   0  0  0  0  0  0  0  0  0  0  0  0
  147.4787  139.9317  152.3165 H   0  0  0  0  0  0  0  0  0  0  0  0
  148.0985  141.0266  154.4378 H   0  0  0  0  0  0  0  0  0  0  0  0
  147.0265  140.7089  155.7771 H   0  0  0  0  0  0  0  0  0  0  0  0
  148.6216  138.8700  156.5325 H   0  0  0  0  0  0  0  0  0  0  0  0
  150.9737  138.9554  155.5365 H   0  0  0  0  0  0  0  0  0  0  0  0
  149.7237  138.2393  154.5577 H   0  0  0  0  0  0  0  0  0  0  0  0
  149.8649  139.8236  153.1858 H   0  0  0  0  0  0  0  0  0  0  0  0
  148.7158  141.1842  157.5545 H   0  0  0  0  0  0  0  0  0  0  0  0
  150.9836  141.5525  155.5756 H   0  0  0  0  0  0  0  0  0  0  0  0
  149.6540  142.6732  155.9033 H   0  0  0  0  0  0  0  0  0  0  0  0
  151.9530  143.0565  157.2234 H   0  0  0  0  0  0  0  0  0  0  0  0
  150.4584  143.0668  158.1691 H   0  0  0  0  0  0  0  0  0  0  0  0
  150.1497  139.8632  158.8785 H   0  0  0  0  0  0  0  0  0  0  0  0
  151.1727  139.4126  157.5130 H   0  0  0  0  0  0  0  0  0  0  0  0
  147.3107  134.7703  153.4557 H   0  0  0  0  0  0  0  0  0  0  0  0
  146.3017  133.3824  153.7709 H   0  0  0  0  0  0  0  0  0  0  0  0
  148.1329  133.7312  151.3658 H   0  0  0  0  0  0  0  0  0  0  0  0
  149.5183  133.4178  153.2937 H   0  0  0  0  0  0  0  0  0  0  0  0
  149.5216  131.9117  152.3879 H   0  0  0  0  0  0  0  0  0  0  0  0
  148.5750  132.0626  153.8729 H   0  0  0  0  0  0  0  0  0  0  0  0
  147.6435  131.5788  150.8194 H   0  0  0  0  0  0  0  0  0  0  0  0
  1  2  1  0  0  0  0
  1 30  1  0  0  0  0
  1 31  1  0  0  0  0
  1 32  1  0  0  0  0
  2  3  1  0  0  0  0
  2 33  1  0  0  0  0
  2 34  1  0  0  0  0
  3 28  1  0  0  0  0
  3  4  1  0  0  0  0
  3 64  1  0  0  0  0
  4  5  1  0  0  0  0
  4 35  1  0  0  0  0
  4 36  1  0  0  0  0
  5  6  1  0  0  0  0
  5 37  1  0  0  0  0
  5 38  1  0  0  0  0
  6  7  1  0  0  0  0
  6 27  1  0  0  0  0
  6 39  1  0  0  0  0
  7  8  1  0  0  0  0
  7  9  1  0  0  0  0
  8 40  1  0  0  0  0
  8 41  1  0  0  0  0
  8 42  1  0  0  0  0
  9 14  1  0  0  0  0
  9 10  2  0  0  0  0
 10 11  1  0  0  0  0
 11 12  2  0  0  0  0
 11 43  1  0  0  0  0
 12 13  1  0  0  0  0
 13 17  1  0  0  0  0
 13 14  2  0  0  0  0
 14 15  1  0  0  0  0
 15 16  2  0  0  0  0
 16 17  1  0  0  0  0
 16 44  1  0  0  0  0
 17 18  1  0  0  0  0
 18 19  1  0  0  0  0
 18 45  1  0  0  0  0
 18 46  1  0  0  0  0
 19 20  1  0  0  0  0
 19 22  1  0  0  0  0
 19 47  1  0  0  0  0
 20 21  1  0  0  0  0
 20 48  1  0  0  0  0
 20 49  1  0  0  0  0
 21 50  1  0  0  0  0
 22 26  1  0  0  0  0
 22 23  1  0  0  0  0
 22 51  1  0  0  0  0
 23 24  1  0  0  0  0
 23 52  1  0  0  0  0
 23 53  1  0  0  0  0
 24 25  1  0  0  0  0
 24 54  1  0  0  0  0
 24 55  1  0  0  0  0
 25 26  1  0  0  0  0
 26 56  1  0  0  0  0
 26 57  1  0  0  0  0
 27 28  1  0  0  0  0
 27 58  1  0  0  0  0
 27 59  1  0  0  0  0
 28 29  1  0  0  0  0
 28 60  1  0  0  0  0
 29 61  1  0  0  0  0
 29 62  1  0  0  0  0
 29 63  1  0  0  0  0
M  CHG  1   3   1
M  END
> <s_m_source_file>
AV-unprocessed.smi

> <i_m_source_file_index>
249

> <i_lp_mmshare_version>
43012

> <i_f3d_flags>
0

> <s_epik_input>
W0NIM11bQ0gyXU4xW0NIMl1bQ0gyXVtDQEhdKFtDSDJdW0NASF0xW0NIM10pTihbQ0gzXSljKG5bY0hdbjIpYyhjMjMpbltjSF1uM1tDSDJdW0NASF0oW0NIMl1bT0hdKVtDQEBIXTRbQ0gyXVtDSDJdT1tDSDJdNA==

> <s_epik_cmdline>
J2VwaWtfcHl0aG9uJywgJy1waCcsICc3LjAnLCAnLXRuJywgJzgnLCAnLW1hJywgJzIwMCcsICctbWV0YWxfYmluZGluZycsICctaW1hZScsICc8aW5maWxlLm1hZT4nLCAnLW9tYWUnLCAnPG91dGZpbGUubWFlPic=

> <r_lp_tautomer_probability>
1

> <r_epik_Ionization_Penalty>
0.00294688

> <r_epik_Ionization_Penalty_Charging>
0.00169971

> <r_epik_Ionization_Penalty_Neutral>
0.00124717

> <r_epik_State_Penalty>
-0

> <r_epik_Charging_Adjusted_Penalty>
0.00169971

> <i_epik_Tot_Q>
1

> <i_epik_Tot_abs_Q>
1

> <r_epik_Metal_State_Penalty>
-0

> <b_epik_Metal_Only>
0

> <s_lp_Force_Field>
OPLS_2005

> <r_lp_Energy>
55.2795

> <b_lp_Chiralities_Consistent>
1

> <s_lp_Variant>
AV-unprocessed.smi:249-6

> <Gold.Version>
5.8.1

> <Gold.Id.Protein>
6NUR|6NUR_protein|mol2

> <Gold.PLP.Fitness>
49.3882

> <Gold.PLP.PLP>
-38.1360

> <Gold.PLP.part.hbond>
-2.8177

> <Gold.PLP.part.metal>
0.0000

> <Gold.PLP.part.buried>
-5.4912

> <Gold.PLP.part.nonpolar>
-29.8137

> <Gold.PLP.part.repulsive>
0.3897

> <Gold.PLP.ligand.clash>
0.0000

> <Gold.PLP.ligand.torsion>
0.7068

> <Gold.PLP.Chemscore.Hbond>
2.9040

> <Gold.PLP.Chemscore.CHOScore>
1.0000

> <Gold.PLP.Chemscore.Metal>
0.0000

> <Gold.Chemscore.Hbonds>
donor molecule, donor type, donor heavy atom, donor atom, acceptor molecule, acceptor atom, score
      L1  H     3    64       P1 10747  1.00
      L1  H    21    50       P1  7957  0.89
      P1  H  7989  7998       L1    21  0.98
      L1  C    16    44       P1  7957  1.00

> <Gold.PLP.Chemscore.Internal.Correction>
0.9539

> <Gold.Rescore>
     Score         DG    S(hbond)    S(metal)    S(lipo)     H(rot)  DE(clash)    DE(int)     intcor
     16.76     -17.62       2.53        0.00      94.95       2.90       0.08       0.78       ----

> <Gold.Chemscore.Fitness>
16.7587

> <Gold.Chemscore.DG>
-17.6178

> <Gold.Chemscore.ZeroCoef>
-5.4800

> <Gold.Chemscore.Hbond>
2.5312

> <Gold.Chemscore.Metal>
0.0000

> <Gold.Chemscore.Lipo>
94.9497

> <Gold.Chemscore.Internal_Hbond>
0.0000

> <Gold.Chemscore.DEClash>
0.0762

> <Gold.Chemscore.DEInternal>
0.7829

> <Gold.Chemscore.Rot>
2.9006

> <Gold.Chemscore.Internal.Correction>
   9.000000E+99

> <Gold.Chemscore.Hbonds>
donor molecule, donor type, donor heavy atom, donor atom, acceptor molecule, acceptor atom, score
      L1  H     3    64       P1 10747  0.99
      L1  H    21    50       P1  7957  0.82
      P1  H  7989  7998       L1    21  0.55

> <Gold.Chemscore.Hbond.Weighted>
-8.4543

> <Gold.Chemscore.Metal.Weighted>
-0.0000

> <Gold.Chemscore.Lipo.Weighted>
-11.1091

> <Gold.Chemscore.Internal_Hbond.Weighted>
0.0000

> <Gold.Chemscore.DEClash.Weighted>
0.0762

> <Gold.Chemscore.DEInternal.Weighted>
0.7829

> <Gold.Chemscore.Rot.Weighted>
7.4256

> <Gold.Chemscore.Internal.Correction.Weighted>
   9.000000E+99

> <Gold.Protein.RotatedTorsions>
[ 6907 6896 6895 6894 ] final  113.31 input  -60.11 | X-H torsion
[ 7974 7965 7964 7962 ] final   83.45 input  175.53 | X-H torsion
[ 8008 7997 7996 7995 ] final  -57.32 input   59.86 | X-H torsion
[ 10167 10162 10161 10158 ] final  -30.76 input  -65.29 | X-H torsion
[ 10718 10713 10712 10709 ] final  159.98 input   66.30 | X-H torsion
[ 10763 10752 10751 10750 ] final  -78.03 input  -60.55 | X-H torsion
[ 11005 11000 10999 10996 ] final   73.58 input  -57.11 | X-H torsion

> <Gold.Protein.ActiveResidues>
 VAL166  LYS551  ARG553  GLY616  TRP617  ASP618  TYR619  PRO620  LYS621  CYS622 
 ASP623  PHE694  ASN695  SER759  ASP760  ASP761  ALA762  ILE779  LEU786  VAL792 
 PHE793  MET794  SER795  GLU796  ALA797  LYS798  CYS799  TRP800  GLU811  SER814 

> <Gold.Protein.RotatedAtoms>
  152.4868  133.8394  159.7144 H   0  0  0  0  0  0  0  0  0  0  0  0  # atno 6907 bound_to 6896
  150.8962  133.7169  159.2898 H   0  0  0  0  0  0  0  0  0  0  0  0  # atno 6908 bound_to 6896
  151.4626  135.1043  159.9781 H   0  0  0  0  0  0  0  0  0  0  0  0  # atno 6909 bound_to 6896
  145.6118  139.2369  143.2188 H   0  0  0  0  0  0  0  0  0  0  0  0  # atno 7974 bound_to 7965
  154.4264  140.1109  156.5779 H   0  0  0  0  0  0  0  0  0  0  0  0  # atno 8008 bound_to 7997
  155.6143  140.3494  155.4613 H   0  0  0  0  0  0  0  0  0  0  0  0  # atno 8009 bound_to 7997
  156.0075  140.1212  157.0477 H   0  0  0  0  0  0  0  0  0  0  0  0  # atno 8010 bound_to 7997
  140.7245  143.3823  151.1578 H   0  0  0  0  0  0  0  0  0  0  0  0  # atno 10167 bound_to 10162
  157.1567  131.0577  151.2253 H   0  0  0  0  0  0  0  0  0  0  0  0  # atno 10718 bound_to 10713
  154.5206  135.5744  153.6678 H   0  0  0  0  0  0  0  0  0  0  0  0  # atno 10763 bound_to 10752
  152.9916  135.6181  154.2759 H   0  0  0  0  0  0  0  0  0  0  0  0  # atno 10764 bound_to 10752
  154.2680  135.2854  155.2730 H   0  0  0  0  0  0  0  0  0  0  0  0  # atno 10765 bound_to 10752
  139.9433  134.7359  156.1044 H   0  0  0  0  0  0  0  0  0  0  0  0  # atno 11005 bound_to 11000
  146.1498  140.6941  142.9327 LP  0  0  0  0  0  0  0  0  0  0  0  0  # atno 17320 bound_to 7965
  144.7267  140.4546  143.6968 LP  0  0  0  0  0  0  0  0  0  0  0  0  # atno 17321 bound_to 7965
  139.7414  143.8918  152.3051 LP  0  0  0  0  0  0  0  0  0  0  0  0  # atno 17342 bound_to 10162
  139.8740  144.7053  150.8954 LP  0  0  0  0  0  0  0  0  0  0  0  0  # atno 17343 bound_to 10162
  157.4170  130.7416  149.6883 LP  0  0  0  0  0  0  0  0  0  0  0  0  # atno 17370 bound_to 10713
  155.9761  130.4080  150.3804 LP  0  0  0  0  0  0  0  0  0  0  0  0  # atno 17371 bound_to 10713
  141.1075  133.6655  156.2898 LP  0  0  0  0  0  0  0  0  0  0  0  0  # atno 17394 bound_to 11000
  140.5898  134.5662  157.5497 LP  0  0  0  0  0  0  0  0  0  0  0  0  # atno 17395 bound_to 11000

$$$$
