AV-unprocessed.smi:3293|AV-procd|sdf|12630|dock1
  -GOLD-   2272018563D 1   1.00000     0.00000
 Structure written by MMmdl.
 44 45  0  0  0  0  0  0  0  0  2 V2000
  151.8183  145.4220  159.8124 C   0  0  0  0  0  0  0  0  0  0  0  0
  152.1311  143.9445  159.9836 C   0  0  0  0  0  0  0  0  0  0  0  0
  152.7216  143.5138  161.1149 C   0  0  0  0  0  0  0  0  0  0  0  0
  153.1465  142.0852  161.3645 C   0  0  0  0  0  0  0  0  0  0  0  0
  153.2946  141.3186  160.0484 C   0  0  0  0  0  0  0  0  0  0  0  0
  152.0572  141.4958  159.1531 C   0  0  2  0  0  0  0  0  0  0  0  0
  152.2147  140.6312  157.8872 C   0  0  0  0  0  0  0  0  0  0  0  0
  151.7732  142.9939  158.8223 C   0  0  1  0  0  0  0  0  0  0  0  0
  150.3092  143.1632  158.3360 C   0  0  0  0  0  0  0  0  0  0  0  0
  150.0904  142.6387  156.9721 N   0  3  0  0  0  0  0  0  0  0  0  0
  149.4481  141.3111  156.9331 C   0  0  0  0  0  0  0  0  0  0  0  0
  149.3549  140.7858  155.4947 C   0  0  0  0  0  0  0  0  0  0  0  0
  148.1910  141.3923  154.7627 C   0  0  0  0  0  0  0  0  0  0  0  0
  147.6191  140.9707  153.5283 C   0  0  0  0  0  0  0  0  0  0  0  0
  146.6010  141.7252  153.1489 N   0  0  0  0  0  0  0  0  0  0  0  0
  146.4848  142.6491  154.1245 N   0  0  0  0  0  0  0  0  0  0  0  0
  145.4492  143.6560  154.0336 C   0  0  0  0  0  0  0  0  0  0  0  0
  147.4304  142.4730  155.1117 C   0  0  0  0  0  0  0  0  0  0  0  0
  152.2121  145.7892  158.8643 H   0  0  0  0  0  0  0  0  0  0  0  0
  152.2689  146.0167  160.6078 H   0  0  0  0  0  0  0  0  0  0  0  0
  150.7435  145.5993  159.8450 H   0  0  0  0  0  0  0  0  0  0  0  0
  152.9338  144.2118  161.9120 H   0  0  0  0  0  0  0  0  0  0  0  0
  154.0957  142.0826  161.9011 H   0  0  0  0  0  0  0  0  0  0  0  0
  152.4098  141.6086  162.0120 H   0  0  0  0  0  0  0  0  0  0  0  0
  154.1812  141.6712  159.5194 H   0  0  0  0  0  0  0  0  0  0  0  0
  153.4637  140.2626  160.2631 H   0  0  0  0  0  0  0  0  0  0  0  0
  151.2059  141.1070  159.7143 H   0  0  0  0  0  0  0  0  0  0  0  0
  153.0466  140.9774  157.2732 H   0  0  0  0  0  0  0  0  0  0  0  0
  151.3212  140.6342  157.2650 H   0  0  0  0  0  0  0  0  0  0  0  0
  152.4122  139.5911  158.1487 H   0  0  0  0  0  0  0  0  0  0  0  0
  152.4392  143.2739  158.0044 H   0  0  0  0  0  0  0  0  0  0  0  0
  149.6160  142.6381  158.9911 H   0  0  0  0  0  0  0  0  0  0  0  0
  150.0267  144.2165  158.3742 H   0  0  0  0  0  0  0  0  0  0  0  0
  149.5060  143.2923  156.4701 H   0  0  0  0  0  0  0  0  0  0  0  0
  150.0226  140.6166  157.5477 H   0  0  0  0  0  0  0  0  0  0  0  0
  148.4512  141.3826  157.3703 H   0  0  0  0  0  0  0  0  0  0  0  0
  150.2870  141.0010  154.9707 H   0  0  0  0  0  0  0  0  0  0  0  0
  149.2685  139.6987  155.5121 H   0  0  0  0  0  0  0  0  0  0  0  0
  147.9139  140.1440  152.8986 H   0  0  0  0  0  0  0  0  0  0  0  0
  145.5157  144.3394  154.8805 H   0  0  0  0  0  0  0  0  0  0  0  0
  144.4689  143.1784  154.0398 H   0  0  0  0  0  0  0  0  0  0  0  0
  145.5653  144.2241  153.1104 H   0  0  0  0  0  0  0  0  0  0  0  0
  147.4840  143.1248  155.9716 H   0  0  0  0  0  0  0  0  0  0  0  0
  150.9835  142.5786  156.5040 H   0  0  0  0  0  0  0  0  0  0  0  0
  1  2  1  0  0  0  0
  1 19  1  0  0  0  0
  1 20  1  0  0  0  0
  1 21  1  0  0  0  0
  2  8  1  0  0  0  0
  2  3  2  0  0  0  0
  3  4  1  0  0  0  0
  3 22  1  0  0  0  0
  4  5  1  0  0  0  0
  4 23  1  0  0  0  0
  4 24  1  0  0  0  0
  5  6  1  0  0  0  0
  5 25  1  0  0  0  0
  5 26  1  0  0  0  0
  6  7  1  0  0  0  0
  6  8  1  0  0  0  0
  6 27  1  0  0  0  0
  7 28  1  0  0  0  0
  7 29  1  0  0  0  0
  7 30  1  0  0  0  0
  8  9  1  0  0  0  0
  8 31  1  0  0  0  0
  9 10  1  0  0  0  0
  9 32  1  0  0  0  0
  9 33  1  0  0  0  0
 10 11  1  0  0  0  0
 10 34  1  0  0  0  0
 10 44  1  0  0  0  0
 11 12  1  0  0  0  0
 11 35  1  0  0  0  0
 11 36  1  0  0  0  0
 12 13  1  0  0  0  0
 12 37  1  0  0  0  0
 12 38  1  0  0  0  0
 13 18  2  0  0  0  0
 13 14  1  0  0  0  0
 14 15  2  0  0  0  0
 14 39  1  0  0  0  0
 15 16  1  0  0  0  0
 16 17  1  0  0  0  0
 16 18  1  0  0  0  0
 17 40  1  0  0  0  0
 17 41  1  0  0  0  0
 17 42  1  0  0  0  0
 18 43  1  0  0  0  0
M  CHG  1  10   1
M  END
> <s_m_source_file>
AV-unprocessed.smi

> <i_m_source_file_index>
3293

> <i_lp_mmshare_version>
43012

> <i_f3d_flags>
0

> <s_epik_input>
W0NIM11DMT1bQ0hdW0NIMl1bQ0gyXVtDQEBIXShbQ0gzXSlbQ0BIXTFbQ0gyXVtOSF1bQ0gyXVtDSDJdYzJbY0hdbm4oW0NIM10pW2NIXTI=

> <s_epik_cmdline>
J2VwaWtfcHl0aG9uJywgJy1waCcsICc3LjAnLCAnLXRuJywgJzgnLCAnLW1hJywgJzIwMCcsICctbWV0YWxfYmluZGluZycsICctaW1hZScsICc8aW5maWxlLm1hZT4nLCAnLW9tYWUnLCAnPG91dGZpbGUubWFlPic=

> <r_lp_tautomer_probability>
1

> <r_epik_Ionization_Penalty>
0.000598621

> <r_epik_Ionization_Penalty_Charging>
0.000582095

> <r_epik_Ionization_Penalty_Neutral>
1.65262e-05

> <r_epik_State_Penalty>
-0

> <r_epik_Charging_Adjusted_Penalty>
0.000582095

> <i_epik_Tot_Q>
1

> <i_epik_Tot_abs_Q>
1

> <r_epik_Metal_State_Penalty>
-0

> <b_epik_Metal_Only>
0

> <s_lp_Force_Field>
OPLS_2005

> <r_lp_Energy>
11.6167

> <b_lp_Chiralities_Consistent>
1

> <s_lp_Variant>
AV-unprocessed.smi:3293-2

> <Gold.Version>
5.8.1

> <Gold.Id.Protein>
6NUR|6NUR_protein|mol2

> <Gold.PLP.Fitness>
51.7589

> <Gold.PLP.PLP>
-42.0713

> <Gold.PLP.part.hbond>
-1.0000

> <Gold.PLP.part.metal>
0.0000

> <Gold.PLP.part.buried>
-0.5151

> <Gold.PLP.part.nonpolar>
-40.3977

> <Gold.PLP.part.repulsive>
0.2359

> <Gold.PLP.ligand.clash>
0.0000

> <Gold.PLP.ligand.torsion>
0.6910

> <Gold.PLP.Chemscore.Hbond>
2.0000

> <Gold.PLP.Chemscore.CHOScore>
1.6023

> <Gold.PLP.Chemscore.Metal>
0.0000

> <Gold.Chemscore.Hbonds>
donor molecule, donor type, donor heavy atom, donor atom, acceptor molecule, acceptor atom, score
      L1  H    10    34       P1  8028  2.00
      L1  C    14    39       P1  7957  1.00
      L1  C    18    43       P1  8028  0.46

> <Gold.PLP.Chemscore.Internal.Correction>
0.2628

> <Gold.Rescore>
     Score         DG    S(hbond)    S(metal)    S(lipo)     H(rot)  DE(clash)    DE(int)     intcor
     17.91     -19.45       0.99        0.00     123.55       1.48       0.06       1.49       ----

> <Gold.Chemscore.Fitness>
17.9071

> <Gold.Chemscore.DG>
-19.4538

> <Gold.Chemscore.ZeroCoef>
-5.4800

> <Gold.Chemscore.Hbond>
0.9936

> <Gold.Chemscore.Metal>
0.0000

> <Gold.Chemscore.Lipo>
123.5545

> <Gold.Chemscore.Internal_Hbond>
0.0000

> <Gold.Chemscore.DEClash>
0.0562

> <Gold.Chemscore.DEInternal>
1.4905

> <Gold.Chemscore.Rot>
1.4847

> <Gold.Chemscore.Internal.Correction>
   9.000000E+99

> <Gold.Chemscore.Hbonds>
donor molecule, donor type, donor heavy atom, donor atom, acceptor molecule, acceptor atom, score
      L1  H    10    34       P1  8028  1.00

> <Gold.Chemscore.Hbond.Weighted>
-3.3187

> <Gold.Chemscore.Metal.Weighted>
-0.0000

> <Gold.Chemscore.Lipo.Weighted>
-14.4559

> <Gold.Chemscore.Internal_Hbond.Weighted>
0.0000

> <Gold.Chemscore.DEClash.Weighted>
0.0562

> <Gold.Chemscore.DEInternal.Weighted>
1.4905

> <Gold.Chemscore.Rot.Weighted>
3.8008

> <Gold.Chemscore.Internal.Correction.Weighted>
   9.000000E+99

> <Gold.Protein.RotatedTorsions>
[ 6907 6896 6895 6894 ] final -121.21 input  -60.11 | X-H torsion
[ 7974 7965 7964 7962 ] final -115.29 input  175.53 | X-H torsion
[ 8008 7997 7996 7995 ] final   -8.77 input   59.86 | X-H torsion
[ 10167 10162 10161 10158 ] final   67.21 input  -65.29 | X-H torsion
[ 10718 10713 10712 10709 ] final  116.95 input   66.30 | X-H torsion
[ 10763 10752 10751 10750 ] final -110.42 input  -60.55 | X-H torsion
[ 11005 11000 10999 10996 ] final  -32.65 input  -57.11 | X-H torsion

> <Gold.Protein.ActiveResidues>
 VAL166  LYS551  ARG553  GLY616  TRP617  ASP618  TYR619  PRO620  LYS621  CYS622 
 ASP623  PHE694  ASN695  SER759  ASP760  ASP761  ALA762  ILE779  LEU786  VAL792 
 PHE793  MET794  SER795  GLU796  ALA797  LYS798  CYS799  TRP800  GLU811  SER814 

> <Gold.Protein.RotatedAtoms>
  150.8463  133.7856  159.3041 H   0  0  0  0  0  0  0  0  0  0  0  0  # atno 6907 bound_to 6896
  151.5542  135.1065  159.9966 H   0  0  0  0  0  0  0  0  0  0  0  0  # atno 6908 bound_to 6896
  152.4516  133.7598  159.6796 H   0  0  0  0  0  0  0  0  0  0  0  0  # atno 6909 bound_to 6896
  145.1101  140.8606  143.3875 H   0  0  0  0  0  0  0  0  0  0  0  0  # atno 7974 bound_to 7965
  154.5709  140.2372  155.8193 H   0  0  0  0  0  0  0  0  0  0  0  0  # atno 8008 bound_to 7997
  156.2106  140.3027  155.9682 H   0  0  0  0  0  0  0  0  0  0  0  0  # atno 8009 bound_to 7997
  155.2714  140.0418  157.2998 H   0  0  0  0  0  0  0  0  0  0  0  0  # atno 8010 bound_to 7997
  140.0920  144.4980  150.7093 H   0  0  0  0  0  0  0  0  0  0  0  0  # atno 10167 bound_to 10162
  157.6128  131.1031  150.7546 H   0  0  0  0  0  0  0  0  0  0  0  0  # atno 10718 bound_to 10713
  154.8247  135.4565  154.0882 H   0  0  0  0  0  0  0  0  0  0  0  0  # atno 10763 bound_to 10752
  153.2207  135.6893  153.8010 H   0  0  0  0  0  0  0  0  0  0  0  0  # atno 10764 bound_to 10752
  153.7429  135.3310  155.3284 H   0  0  0  0  0  0  0  0  0  0  0  0  # atno 10765 bound_to 10752
  140.9570  133.7187  156.1309 H   0  0  0  0  0  0  0  0  0  0  0  0  # atno 11005 bound_to 11000
  145.0857  139.2927  143.5761 LP  0  0  0  0  0  0  0  0  0  0  0  0  # atno 17320 bound_to 7965
  146.3526  140.0377  142.8645 LP  0  0  0  0  0  0  0  0  0  0  0  0  # atno 17321 bound_to 7965
  140.7024  143.2444  151.4827 LP  0  0  0  0  0  0  0  0  0  0  0  0  # atno 17342 bound_to 10162
  139.5719  144.1907  152.1849 LP  0  0  0  0  0  0  0  0  0  0  0  0  # atno 17343 bound_to 10162
  156.7920  130.4893  149.5383 LP  0  0  0  0  0  0  0  0  0  0  0  0  # atno 17370 bound_to 10713
  156.1237  130.6128  151.0232 LP  0  0  0  0  0  0  0  0  0  0  0  0  # atno 17371 bound_to 10713
  140.7522  134.4033  157.5539 LP  0  0  0  0  0  0  0  0  0  0  0  0  # atno 17394 bound_to 11000
  139.8865  134.8907  156.2579 LP  0  0  0  0  0  0  0  0  0  0  0  0  # atno 17395 bound_to 11000

$$$$
