AV-unprocessed.smi:1374|AV-procd|sdf|5587|dock2
  -GOLD-   22720 5183D 1   1.00000     0.00000
 Structure written by MMmdl.
 43 44  0  0  0  0  0  0  0  0  1 V2000
  151.4312  145.3256  160.1608 C   0  0  0  0  0  0  0  0  0  0  0  0
  151.5248  144.3902  158.9506 C   0  0  0  0  0  0  0  0  0  0  0  0
  151.7267  142.9238  159.3545 C   0  0  0  0  0  0  0  0  0  0  0  0
  151.8201  141.9886  158.1373 C   0  0  0  0  0  0  0  0  0  0  0  0
  151.8914  140.5916  158.5162 N   0  0  0  0  0  0  0  0  0  0  0  0
  150.9991  139.6190  158.0549 C   0  0  0  0  0  0  0  0  0  0  0  0
  149.9807  140.0238  157.2042 N   0  0  0  0  0  0  0  0  0  0  0  0
  151.0814  138.3168  158.4632 C   0  0  0  0  0  0  0  0  0  0  0  0
  150.1876  137.3338  157.9863 N   0  0  0  0  0  0  0  0  0  0  0  0
  150.3369  136.9472  156.5784 C   0  0  0  0  0  0  0  0  0  0  0  0
  149.2535  136.6947  158.7504 C   0  0  0  0  0  0  0  0  0  0  0  0
  148.9661  137.1109  159.8751 O   0  0  0  0  0  0  0  0  0  0  0  0
  148.6482  135.4804  158.1928 C   0  0  0  0  0  0  0  0  0  0  0  0
  147.3141  135.2993  158.3261 C   0  0  0  0  0  0  0  0  0  0  0  0
  146.6469  134.1793  157.8962 O   0  0  0  0  0  0  0  0  0  0  0  0
  147.4855  133.0941  157.5178 C   0  0  0  0  0  0  0  0  0  0  0  0
  148.7118  133.6072  156.7506 C   0  0  0  0  0  0  0  0  0  0  0  0
  149.4248  134.5415  157.5506 O   0  0  0  0  0  0  0  0  0  0  0  0
  152.1506  137.8894  159.3787 C   0  0  0  0  0  0  0  0  0  0  0  0
  152.3458  136.7394  159.7701 O   0  0  0  0  0  0  0  0  0  0  0  0
  152.9874  138.9104  159.8203 N   0  0  0  0  0  0  0  0  0  0  0  0
  152.8985  140.2468  159.4491 C   0  0  0  0  0  0  0  0  0  0  0  0
  153.6833  141.0616  159.9358 O   0  0  0  0  0  0  0  0  0  0  0  0
  153.7191  138.6596  160.4692 H   0  0  0  0  0  0  0  0  0  0  0  0
  151.2888  146.3587  159.8432 H   0  0  0  0  0  0  0  0  0  0  0  0
  152.3401  145.2847  160.7615 H   0  0  0  0  0  0  0  0  0  0  0  0
  150.5920  145.0565  160.8027 H   0  0  0  0  0  0  0  0  0  0  0  0
  150.6167  144.4837  158.3537 H   0  0  0  0  0  0  0  0  0  0  0  0
  152.3488  144.7101  158.3119 H   0  0  0  0  0  0  0  0  0  0  0  0
  152.6328  142.8362  159.9555 H   0  0  0  0  0  0  0  0  0  0  0  0
  150.9014  142.6073  159.9940 H   0  0  0  0  0  0  0  0  0  0  0  0
  150.9565  142.0963  157.4816 H   0  0  0  0  0  0  0  0  0  0  0  0
  152.6820  142.2162  157.5074 H   0  0  0  0  0  0  0  0  0  0  0  0
  149.8777  140.9879  156.9208 H   0  0  0  0  0  0  0  0  0  0  0  0
  149.3527  139.3611  156.7727 H   0  0  0  0  0  0  0  0  0  0  0  0
  149.4063  137.1081  156.0324 H   0  0  0  0  0  0  0  0  0  0  0  0
  150.6088  135.8941  156.4921 H   0  0  0  0  0  0  0  0  0  0  0  0
  151.1168  137.5220  156.0767 H   0  0  0  0  0  0  0  0  0  0  0  0
  146.6453  135.9965  158.8104 H   0  0  0  0  0  0  0  0  0  0  0  0
  147.7962  132.5528  158.4124 H   0  0  0  0  0  0  0  0  0  0  0  0
  146.9138  132.3987  156.9033 H   0  0  0  0  0  0  0  0  0  0  0  0
  149.3756  132.7832  156.4885 H   0  0  0  0  0  0  0  0  0  0  0  0
  148.4102  134.0870  155.8184 H   0  0  0  0  0  0  0  0  0  0  0  0
  1  2  1  0  0  0  0
  1 25  1  0  0  0  0
  1 26  1  0  0  0  0
  1 27  1  0  0  0  0
  2  3  1  0  0  0  0
  2 28  1  0  0  0  0
  2 29  1  0  0  0  0
  3  4  1  0  0  0  0
  3 30  1  0  0  0  0
  3 31  1  0  0  0  0
  4  5  1  0  0  0  0
  4 32  1  0  0  0  0
  4 33  1  0  0  0  0
  5 22  1  0  0  0  0
  5  6  1  0  0  0  0
  6  7  1  0  0  0  0
  6  8  2  0  0  0  0
  7 34  1  0  0  0  0
  7 35  1  0  0  0  0
  8  9  1  0  0  0  0
  8 19  1  0  0  0  0
  9 10  1  0  0  0  0
  9 11  1  0  0  0  0
 10 36  1  0  0  0  0
 10 37  1  0  0  0  0
 10 38  1  0  0  0  0
 11 12  2  0  0  0  0
 11 13  1  0  0  0  0
 13 18  1  0  0  0  0
 13 14  2  0  0  0  0
 14 15  1  0  0  0  0
 14 39  1  0  0  0  0
 15 16  1  0  0  0  0
 16 17  1  0  0  0  0
 16 40  1  0  0  0  0
 16 41  1  0  0  0  0
 17 18  1  0  0  0  0
 17 42  1  0  0  0  0
 17 43  1  0  0  0  0
 19 20  2  0  0  0  0
 19 21  1  0  0  0  0
 21 24  1  0  0  0  0
 21 22  1  0  0  0  0
 22 23  2  0  0  0  0
M  END
> <s_m_source_file>
AV-unprocessed.smi

> <i_m_source_file_index>
1374

> <i_lp_mmshare_version>
43012

> <i_f3d_flags>
0

> <s_epik_input>
W0NIM11bQ0gyXVtDSDJdW0NIMl1uMWMoW05IMl0pYyhjKD1PKVtuSF1jMT1PKU4oW0NIM10pQyg9TylDMj1bQ0hdT1tDSDJdW0NIMl1PMg==

> <s_epik_cmdline>
J2VwaWtfcHl0aG9uJywgJy1waCcsICc3LjAnLCAnLXRuJywgJzgnLCAnLW1hJywgJzIwMCcsICctbWV0YWxfYmluZGluZycsICctaW1hZScsICc8aW5maWxlLm1hZT4nLCAnLW9tYWUnLCAnPG91dGZpbGUubWFlPic=

> <r_lp_tautomer_probability>
1

> <r_epik_Ionization_Penalty>
3.28524e-05

> <r_epik_Ionization_Penalty_Charging>
2.39265e-05

> <r_epik_Ionization_Penalty_Neutral>
8.92594e-06

> <r_epik_State_Penalty>
-0

> <r_epik_Charging_Adjusted_Penalty>
2.39265e-05

> <i_epik_Tot_Q>
0

> <i_epik_Tot_abs_Q>
0

> <r_epik_Metal_State_Penalty>
0.0232519

> <b_epik_Metal_Only>
0

> <s_epik_Chemistry_Notes>
This compound has an imine and may undergo hydrolysis.

> <s_lp_Force_Field>
OPLS_2005

> <r_lp_Energy>
27.3757

> <b_lp_Chiralities_Consistent>
1

> <s_lp_Variant>
AV-unprocessed.smi:1374-1

> <Gold.Version>
5.8.1

> <Gold.Id.Protein>
6NUR|6NUR_protein|mol2

> <Gold.PLP.Fitness>
39.2954

> <Gold.PLP.PLP>
-32.5025

> <Gold.PLP.part.hbond>
-3.1103

> <Gold.PLP.part.metal>
0.0000

> <Gold.PLP.part.buried>
-6.1504

> <Gold.PLP.part.nonpolar>
-23.7609

> <Gold.PLP.part.repulsive>
0.1634

> <Gold.PLP.ligand.clash>
0.0000

> <Gold.PLP.ligand.torsion>
2.1491

> <Gold.PLP.Chemscore.Hbond>
2.5280

> <Gold.PLP.Chemscore.CHOScore>
0.0000

> <Gold.PLP.Chemscore.Metal>
0.0000

> <Gold.Chemscore.Hbonds>
donor molecule, donor type, donor heavy atom, donor atom, acceptor molecule, acceptor atom, score
      P1  H  6896  6907       L1    18  0.40
      P1  H  6896  6908       L1    20  1.00
      P1  H  6931  6943       L1    12  0.15

> <Gold.PLP.Chemscore.Internal.Correction>
3.5072

> <Gold.Rescore>
     Score         DG    S(hbond)    S(metal)    S(lipo)     H(rot)  DE(clash)    DE(int)     intcor
     11.91     -17.23       2.46        0.00      62.76       1.49       0.29       5.03       ----

> <Gold.Chemscore.Fitness>
11.9117

> <Gold.Chemscore.DG>
-17.2283

> <Gold.Chemscore.ZeroCoef>
-5.4800

> <Gold.Chemscore.Hbond>
2.4593

> <Gold.Chemscore.Metal>
0.0000

> <Gold.Chemscore.Lipo>
62.7559

> <Gold.Chemscore.Internal_Hbond>
0.0000

> <Gold.Chemscore.DEClash>
0.2894

> <Gold.Chemscore.DEInternal>
5.0272

> <Gold.Chemscore.Rot>
1.4875

> <Gold.Chemscore.Internal.Correction>
   9.000000E+99

> <Gold.Chemscore.Hbonds>
donor molecule, donor type, donor heavy atom, donor atom, acceptor molecule, acceptor atom, score
      P1  H  6896  6907       L1    18  0.07
      P1  H  6896  6908       L1    20  1.00
      P1  H  6931  6943       L1    12  0.15

> <Gold.Chemscore.Hbond.Weighted>
-8.2139

> <Gold.Chemscore.Metal.Weighted>
-0.0000

> <Gold.Chemscore.Lipo.Weighted>
-7.3424

> <Gold.Chemscore.Internal_Hbond.Weighted>
0.0000

> <Gold.Chemscore.DEClash.Weighted>
0.2894

> <Gold.Chemscore.DEInternal.Weighted>
5.0272

> <Gold.Chemscore.Rot.Weighted>
3.8081

> <Gold.Chemscore.Internal.Correction.Weighted>
   9.000000E+99

> <Gold.Protein.RotatedTorsions>
[ 6907 6896 6895 6894 ] final -108.04 input  -60.11 | X-H torsion
[ 7974 7965 7964 7962 ] final -163.04 input  175.53 | X-H torsion
[ 8008 7997 7996 7995 ] final    5.19 input   59.86 | X-H torsion
[ 10167 10162 10161 10158 ] final -138.20 input  -65.29 | X-H torsion
[ 10718 10713 10712 10709 ] final  112.98 input   66.30 | X-H torsion
[ 10763 10752 10751 10750 ] final -127.84 input  -60.55 | X-H torsion
[ 11005 11000 10999 10996 ] final  -44.24 input  -57.11 | X-H torsion

> <Gold.Protein.ActiveResidues>
 VAL166  LYS551  ARG553  GLY616  TRP617  ASP618  TYR619  PRO620  LYS621  CYS622 
 ASP623  PHE694  ASN695  SER759  ASP760  ASP761  ALA762  ILE779  LEU786  VAL792 
 PHE793  MET794  SER795  GLU796  ALA797  LYS798  CYS799  TRP800  GLU811  SER814 

> <Gold.Protein.RotatedAtoms>
  150.7478  133.9737  159.3553 H   0  0  0  0  0  0  0  0  0  0  0  0  # atno 6907 bound_to 6896
  151.7673  135.0793  160.0364 H   0  0  0  0  0  0  0  0  0  0  0  0  # atno 6908 bound_to 6896
  152.3363  133.5978  159.5881 H   0  0  0  0  0  0  0  0  0  0  0  0  # atno 6909 bound_to 6896
  144.7338  140.3164  143.6178 H   0  0  0  0  0  0  0  0  0  0  0  0  # atno 7974 bound_to 7965
  154.7252  140.2719  155.6505 H   0  0  0  0  0  0  0  0  0  0  0  0  # atno 8008 bound_to 7997
  156.2835  140.2726  156.1861 H   0  0  0  0  0  0  0  0  0  0  0  0  # atno 8009 bound_to 7997
  155.0454  140.0371  157.2514 H   0  0  0  0  0  0  0  0  0  0  0  0  # atno 8010 bound_to 7997
  139.8501  143.7209  152.2658 H   0  0  0  0  0  0  0  0  0  0  0  0  # atno 10167 bound_to 10162
  157.6363  131.0976  150.6975 H   0  0  0  0  0  0  0  0  0  0  0  0  # atno 10718 bound_to 10713
  154.8754  135.3948  154.3659 H   0  0  0  0  0  0  0  0  0  0  0  0  # atno 10763 bound_to 10752
  153.4425  135.7027  153.6165 H   0  0  0  0  0  0  0  0  0  0  0  0  # atno 10764 bound_to 10752
  153.4739  135.3784  155.2375 H   0  0  0  0  0  0  0  0  0  0  0  0  # atno 10765 bound_to 10752
  141.0437  133.6770  156.2844 H   0  0  0  0  0  0  0  0  0  0  0  0  # atno 11005 bound_to 11000
  145.7613  139.1825  143.2265 LP  0  0  0  0  0  0  0  0  0  0  0  0  # atno 17320 bound_to 7965
  146.0984  140.7573  142.9561 LP  0  0  0  0  0  0  0  0  0  0  0  0  # atno 17321 bound_to 7965
  139.7473  144.7543  151.0559 LP  0  0  0  0  0  0  0  0  0  0  0  0  # atno 17342 bound_to 10162
  140.7788  143.4901  150.9905 LP  0  0  0  0  0  0  0  0  0  0  0  0  # atno 17343 bound_to 10162
  156.7306  130.4708  149.5500 LP  0  0  0  0  0  0  0  0  0  0  0  0  # atno 17370 bound_to 10713
  156.1605  130.6370  151.0712 LP  0  0  0  0  0  0  0  0  0  0  0  0  # atno 17371 bound_to 10713
  140.6186  134.5384  157.5544 LP  0  0  0  0  0  0  0  0  0  0  0  0  # atno 17394 bound_to 11000
  139.9295  134.7991  156.0971 LP  0  0  0  0  0  0  0  0  0  0  0  0  # atno 17395 bound_to 11000

$$$$
