AV-unprocessed.smi:1893|AV-procd|sdf|7675|dock3
  -GOLD-   22720 9413D 1   1.00000     0.00000
 Structure written by MMmdl.
 43 44  0  0  0  0  0  0  0  0  2 V2000
  148.3934  132.7637  152.9047 C   0  0  0  0  0  0  0  0  0  0  0  0
  147.0764  133.5317  152.6630 C   0  0  2  0  0  0  0  0  0  0  0  0
  146.7712  133.5089  151.1480 C   0  0  0  0  0  0  0  0  0  0  0  0
  145.4779  134.2519  150.8066 C   0  0  0  0  0  0  0  0  0  0  0  0
  145.5618  135.6802  151.3429 C   0  0  0  0  0  0  0  0  0  0  0  0
  145.8465  135.6701  152.8508 C   0  0  0  0  0  0  0  0  0  0  0  0
  147.1056  134.9405  153.1803 N   0  3  1  0  0  0  0  0  0  0  0  0
  147.4353  135.0528  154.6305 C   0  0  0  0  0  0  0  0  0  0  0  0
  148.9494  134.9564  154.9161 C   0  0  0  0  0  0  0  0  0  0  0  0
  149.6136  136.2351  154.6950 N   0  0  0  0  0  0  0  0  0  0  0  0
  150.2311  136.9579  155.6431 C   0  0  0  0  0  0  0  0  0  0  0  0
  150.2779  136.6117  156.8241 O   0  0  0  0  0  0  0  0  0  0  0  0
  150.9033  138.2578  155.1735 C   0  0  1  0  0  0  0  0  0  0  0  0
  151.9223  138.0349  154.0406 C   0  0  0  0  0  0  0  0  0  0  0  0
  149.8937  139.2316  154.7812 N   0  0  0  0  0  0  0  0  0  0  0  0
  148.9092  139.1594  153.8808 C   0  0  0  0  0  0  0  0  0  0  0  0
  148.1690  140.2565  153.8058 N   0  0  0  0  0  0  0  0  0  0  0  0
  148.7980  141.0211  154.7470 C   0  0  0  0  0  0  0  0  0  0  0  0
  149.8345  140.4531  155.3635 N   0  0  0  0  0  0  0  0  0  0  0  0
  148.3988  131.8206  152.3571 H   0  0  0  0  0  0  0  0  0  0  0  0
  148.5382  132.4982  153.9511 H   0  0  0  0  0  0  0  0  0  0  0  0
  149.2581  133.3386  152.5720 H   0  0  0  0  0  0  0  0  0  0  0  0
  146.2749  133.0011  153.1799 H   0  0  0  0  0  0  0  0  0  0  0  0
  147.6003  133.9578  150.5986 H   0  0  0  0  0  0  0  0  0  0  0  0
  146.6939  132.4791  150.7965 H   0  0  0  0  0  0  0  0  0  0  0  0
  145.3197  134.2613  149.7278 H   0  0  0  0  0  0  0  0  0  0  0  0
  144.6230  133.7365  151.2464 H   0  0  0  0  0  0  0  0  0  0  0  0
  146.3475  136.2288  150.8214 H   0  0  0  0  0  0  0  0  0  0  0  0
  144.6286  136.2079  151.1424 H   0  0  0  0  0  0  0  0  0  0  0  0
  145.8968  136.7043  153.1854 H   0  0  0  0  0  0  0  0  0  0  0  0
  145.0118  135.2107  153.3830 H   0  0  0  0  0  0  0  0  0  0  0  0
  147.0199  135.9824  155.0222 H   0  0  0  0  0  0  0  0  0  0  0  0
  146.9716  134.2517  155.2004 H   0  0  0  0  0  0  0  0  0  0  0  0
  149.1136  134.6657  155.9542 H   0  0  0  0  0  0  0  0  0  0  0  0
  149.4393  134.2031  154.3000 H   0  0  0  0  0  0  0  0  0  0  0  0
  149.6193  136.5918  153.7498 H   0  0  0  0  0  0  0  0  0  0  0  0
  151.4483  138.6620  156.0287 H   0  0  0  0  0  0  0  0  0  0  0  0
  152.7029  137.3359  154.3427 H   0  0  0  0  0  0  0  0  0  0  0  0
  152.4108  138.9711  153.7691 H   0  0  0  0  0  0  0  0  0  0  0  0
  151.4490  137.6386  153.1414 H   0  0  0  0  0  0  0  0  0  0  0  0
  148.7281  138.2859  153.2715 H   0  0  0  0  0  0  0  0  0  0  0  0
  148.4804  142.0251  154.9879 H   0  0  0  0  0  0  0  0  0  0  0  0
  147.8518  135.4040  152.6818 H   0  0  0  0  0  0  0  0  0  0  0  0
  1  2  1  0  0  0  0
  1 20  1  0  0  0  0
  1 21  1  0  0  0  0
  1 22  1  0  0  0  0
  2  7  1  0  0  0  0
  2  3  1  0  0  0  0
  2 23  1  0  0  0  0
  3  4  1  0  0  0  0
  3 24  1  0  0  0  0
  3 25  1  0  0  0  0
  4  5  1  0  0  0  0
  4 26  1  0  0  0  0
  4 27  1  0  0  0  0
  5  6  1  0  0  0  0
  5 28  1  0  0  0  0
  5 29  1  0  0  0  0
  6  7  1  0  0  0  0
  6 30  1  0  0  0  0
  6 31  1  0  0  0  0
  7  8  1  0  0  0  0
  7 43  1  0  0  0  0
  8  9  1  0  0  0  0
  8 32  1  0  0  0  0
  8 33  1  0  0  0  0
  9 10  1  0  0  0  0
  9 34  1  0  0  0  0
  9 35  1  0  0  0  0
 10 11  1  0  0  0  0
 10 36  1  0  0  0  0
 11 12  2  0  0  0  0
 11 13  1  0  0  0  0
 13 14  1  0  0  0  0
 13 15  1  0  0  0  0
 13 37  1  0  0  0  0
 14 38  1  0  0  0  0
 14 39  1  0  0  0  0
 14 40  1  0  0  0  0
 15 19  1  0  0  0  0
 15 16  1  0  0  0  0
 16 17  2  0  0  0  0
 16 41  1  0  0  0  0
 17 18  1  0  0  0  0
 18 19  2  0  0  0  0
 18 42  1  0  0  0  0
M  CHG  1   7   1
M  END
> <s_m_source_file>
AV-unprocessed.smi

> <i_m_source_file_index>
1893

> <i_lp_mmshare_version>
43012

> <i_f3d_flags>
0

> <s_epik_input>
W0NIM11bQ0BASF0xW0NIMl1bQ0gyXVtDSDJdW0NIMl1OMVtDSDJdW0NIMl1bTkhdQyg9TylbQ0BIXShbQ0gzXSluMltjSF1uW2NIXW4y

> <s_epik_cmdline>
J2VwaWtfcHl0aG9uJywgJy1waCcsICc3LjAnLCAnLXRuJywgJzgnLCAnLW1hJywgJzIwMCcsICctbWV0YWxfYmluZGluZycsICctaW1hZScsICc8aW5maWxlLm1hZT4nLCAnLW9tYWUnLCAnPG91dGZpbGUubWFlPic=

> <r_lp_tautomer_probability>
1

> <r_epik_Ionization_Penalty>
0.00266409

> <r_epik_Ionization_Penalty_Charging>
0.00265606

> <r_epik_Ionization_Penalty_Neutral>
8.02794e-06

> <r_epik_State_Penalty>
0.00184955

> <r_epik_Charging_Adjusted_Penalty>
0.00450561

> <i_epik_Tot_Q>
1

> <i_epik_Tot_abs_Q>
1

> <r_epik_Metal_State_Penalty>
-0

> <b_epik_Metal_Only>
0

> <s_lp_Force_Field>
OPLS_2005

> <r_lp_Energy>
24.8268

> <b_lp_Chiralities_Consistent>
1

> <s_lp_Variant>
AV-unprocessed.smi:1893-5

> <Gold.Version>
5.8.1

> <Gold.Id.Protein>
6NUR|6NUR_protein|mol2

> <Gold.PLP.Fitness>
41.3731

> <Gold.PLP.PLP>
-29.1497

> <Gold.PLP.part.hbond>
-2.0000

> <Gold.PLP.part.metal>
0.0000

> <Gold.PLP.part.buried>
-2.9253

> <Gold.PLP.part.nonpolar>
-24.4783

> <Gold.PLP.part.repulsive>
1.1150

> <Gold.PLP.ligand.clash>
0.0000

> <Gold.PLP.ligand.torsion>
0.5561

> <Gold.PLP.Chemscore.Hbond>
2.8564

> <Gold.PLP.Chemscore.CHOScore>
1.5613

> <Gold.PLP.Chemscore.Metal>
0.0000

> <Gold.Chemscore.Hbonds>
donor molecule, donor type, donor heavy atom, donor atom, acceptor molecule, acceptor atom, score
      L1  H     7    43       P1  7948  2.00
      L1  H    10    36       P1  7948  0.88
      L1  C    16    41       P1  7948  1.00
      L1  C    16    41       P1  7957  0.01
      L1  C    18    42       P1  8028  0.35

> <Gold.PLP.Chemscore.Internal.Correction>
0.0824

> <Gold.Rescore>
     Score         DG    S(hbond)    S(metal)    S(lipo)     H(rot)  DE(clash)    DE(int)     intcor
      9.58     -11.10       1.75        0.00      53.62       2.54       0.05       1.47       ----

> <Gold.Chemscore.Fitness>
9.5825

> <Gold.Chemscore.DG>
-11.0980

> <Gold.Chemscore.ZeroCoef>
-5.4800

> <Gold.Chemscore.Hbond>
1.7487

> <Gold.Chemscore.Metal>
0.0000

> <Gold.Chemscore.Lipo>
53.6223

> <Gold.Chemscore.Internal_Hbond>
0.0000

> <Gold.Chemscore.DEClash>
0.0484

> <Gold.Chemscore.DEInternal>
1.4672

> <Gold.Chemscore.Rot>
2.5377

> <Gold.Chemscore.Internal.Correction>
   9.000000E+99

> <Gold.Chemscore.Hbonds>
donor molecule, donor type, donor heavy atom, donor atom, acceptor molecule, acceptor atom, score
      L1  H     7    43       P1  7948  0.98
      L1  H    10    36       P1  7948  0.58

> <Gold.Chemscore.Hbond.Weighted>
-5.8408

> <Gold.Chemscore.Metal.Weighted>
-0.0000

> <Gold.Chemscore.Lipo.Weighted>
-6.2738

> <Gold.Chemscore.Internal_Hbond.Weighted>
0.0000

> <Gold.Chemscore.DEClash.Weighted>
0.0484

> <Gold.Chemscore.DEInternal.Weighted>
1.4672

> <Gold.Chemscore.Rot.Weighted>
6.4966

> <Gold.Chemscore.Internal.Correction.Weighted>
   9.000000E+99

> <Gold.Protein.RotatedTorsions>
[ 6907 6896 6895 6894 ] final   91.46 input  -60.11 | X-H torsion
[ 7974 7965 7964 7962 ] final  -87.11 input  175.53 | X-H torsion
[ 8008 7997 7996 7995 ] final  -50.39 input   59.86 | X-H torsion
[ 10167 10162 10161 10158 ] final  -95.60 input  -65.29 | X-H torsion
[ 10718 10713 10712 10709 ] final   42.33 input   66.30 | X-H torsion
[ 10763 10752 10751 10750 ] final  164.97 input  -60.55 | X-H torsion
[ 11005 11000 10999 10996 ] final   74.76 input  -57.11 | X-H torsion

> <Gold.Protein.ActiveResidues>
 VAL166  LYS551  ARG553  GLY616  TRP617  ASP618  TYR619  PRO620  LYS621  CYS622 
 ASP623  PHE694  ASN695  SER759  ASP760  ASP761  ALA762  ILE779  LEU786  VAL792 
 PHE793  MET794  SER795  GLU796  ALA797  LYS798  CYS799  TRP800  GLU811  SER814 

> <Gold.Protein.RotatedAtoms>
  152.5450  134.1654  159.8574 H   0  0  0  0  0  0  0  0  0  0  0  0  # atno 6907 bound_to 6896
  151.1668  133.4802  159.2601 H   0  0  0  0  0  0  0  0  0  0  0  0  # atno 6908 bound_to 6896
  151.1316  135.0144  159.8640 H   0  0  0  0  0  0  0  0  0  0  0  0  # atno 6909 bound_to 6896
  145.4709  140.9559  143.1917 H   0  0  0  0  0  0  0  0  0  0  0  0  # atno 7974 bound_to 7965
  154.4061  140.1273  156.4659 H   0  0  0  0  0  0  0  0  0  0  0  0  # atno 8008 bound_to 7997
  155.7227  140.3492  155.5004 H   0  0  0  0  0  0  0  0  0  0  0  0  # atno 8009 bound_to 7997
  155.9199  140.1051  157.1205 H   0  0  0  0  0  0  0  0  0  0  0  0  # atno 8010 bound_to 7997
  140.3025  143.3154  152.0233 H   0  0  0  0  0  0  0  0  0  0  0  0  # atno 10167 bound_to 10162
  157.4036  130.7874  149.7370 H   0  0  0  0  0  0  0  0  0  0  0  0  # atno 10718 bound_to 10713
  154.3170  135.2756  155.2538 H   0  0  0  0  0  0  0  0  0  0  0  0  # atno 10763 bound_to 10752
  154.4908  135.5834  153.6461 H   0  0  0  0  0  0  0  0  0  0  0  0  # atno 10764 bound_to 10752
  152.9881  135.6134  154.3351 H   0  0  0  0  0  0  0  0  0  0  0  0  # atno 10765 bound_to 10752
  139.9376  134.7460  156.1187 H   0  0  0  0  0  0  0  0  0  0  0  0  # atno 11005 bound_to 11000
  144.7946  139.6260  143.7098 LP  0  0  0  0  0  0  0  0  0  0  0  0  # atno 17320 bound_to 7965
  146.2397  139.5977  142.9499 LP  0  0  0  0  0  0  0  0  0  0  0  0  # atno 17321 bound_to 7965
  139.4912  144.6445  151.6807 LP  0  0  0  0  0  0  0  0  0  0  0  0  # atno 17342 bound_to 10162
  140.5639  144.0223  150.6183 LP  0  0  0  0  0  0  0  0  0  0  0  0  # atno 17343 bound_to 10162
  155.9830  130.4004  150.3386 LP  0  0  0  0  0  0  0  0  0  0  0  0  # atno 17370 bound_to 10713
  157.1516  131.0322  151.2882 LP  0  0  0  0  0  0  0  0  0  0  0  0  # atno 17371 bound_to 10713
  141.0996  133.6682  156.2724 LP  0  0  0  0  0  0  0  0  0  0  0  0  # atno 17394 bound_to 11000
  140.6036  134.5530  157.5522 LP  0  0  0  0  0  0  0  0  0  0  0  0  # atno 17395 bound_to 11000

$$$$
