#       Name:                AV-unprocessed.smi:260
#       Creating user name   scv26
#       Creation time:       Thu Mar 26 21:15:22 2020


#       File generated by GOLD software.
#

@<TRIPOS>MOLECULE
AV-unprocessed.smi:260
    62    65     1
SMALL
NO_CHARGES


@<TRIPOS>ATOM
      1 ****        -6.3925   1.6123   2.4878 C.3            1 S1                 0.0000
      2 ****        -5.7167   1.5358   1.2020 N.am           1 S1                 0.0000
      3 ****        -5.0470   2.5513   0.6335 C.2            1 S1                 0.0000
      4 ****        -4.9654   3.6589   1.1667 O.2            1 S1                 0.0000
      5 ****        -4.3657   2.3125  -0.7400 C.3            1 S1                 0.0000
      6 ****        -5.0385   3.2122  -1.7949 C.3            1 S1                 0.0000
      7 ****        -4.3268   0.8307  -1.1788 C.3            1 S1                 0.0000
      8 ****        -3.1170   0.2353  -0.4463 C.3            1 S1                 0.0000
      9 ****        -2.2593   1.3689  -0.1319 N.pl3          1 S1                 0.0000
     10 ****        -0.9147   1.2213  -0.0136 C.ar           1 S1                 0.0000
     11 ****        -0.1104   2.2746  -0.3174 N.ar           1 S1                 0.0000
     12 ****         1.2174   2.1669  -0.2152 C.ar           1 S1                 0.0000
     13 ****         1.9415   1.1155   0.1713 N.ar           1 S1                 0.0000
     14 ****         1.1423   0.0586   0.4922 C.ar           1 S1                 0.0000
     15 ****        -0.2805   0.0239   0.4313 C.ar           1 S1                 0.0000
     16 ****        -0.7347  -1.2233   0.8488 N.2            1 S1                 0.0000
     17 ****         0.3533  -1.8871   1.1281 C.2            1 S1                 0.0000
     18 ****         1.5257  -1.1926   0.9399 N.pl3          1 S1                 0.0000
     19 ****         2.8753  -1.6793   1.1656 C.3            1 S1                 0.0000
     20 ****         3.5722  -2.1000  -0.1434 C.3            1 S1                 0.0000
     21 ****         2.8300  -3.1419  -0.7491 O.3            1 S1                 0.0000
     22 ****         5.0152  -2.5853   0.0897 C.3            1 S1                 0.0000
     23 ****         5.7604  -2.9842  -1.1865 C.3            1 S1                 0.0000
     24 ****         7.2013  -2.7881  -0.7769 C.3            1 S1                 0.0000
     25 ****         7.1077  -1.5247   0.0715 C.3            1 S1                 0.0000
     26 ****         5.8081  -1.5429   0.6565 O.3            1 S1                 0.0000
     27 ****        -2.8556   2.6008  -0.6337 C.3            1 S1                 0.0000
     28 ****        -6.9078   0.6742   2.6926 H              1 S1                 0.0000
     29 ****        -7.1309   2.4152   2.4943 H              1 S1                 0.0000
     30 ****        -5.6756   1.7908   3.2900 H              1 S1                 0.0000
     31 ****        -5.7505   0.6525   0.7141 H              1 S1                 0.0000
     32 ****        -4.5535   3.1161  -2.7667 H              1 S1                 0.0000
     33 ****        -4.9928   4.2659  -1.5155 H              1 S1                 0.0000
     34 ****        -6.0885   2.9486  -1.9270 H              1 S1                 0.0000
     35 ****        -5.2465   0.2735  -0.9986 H              1 S1                 0.0000
     36 ****        -4.1437   0.7769  -2.2530 H              1 S1                 0.0000
     37 ****        -3.4249  -0.2433   0.4837 H              1 S1                 0.0000
     38 ****        -2.6109  -0.5068  -1.0649 H              1 S1                 0.0000
     39 ****         1.7795   3.0498  -0.4818 H              1 S1                 0.0000
     40 ****         0.3300  -2.9088   1.4779 H              1 S1                 0.0000
     41 ****         3.4403  -0.8883   1.6598 H              1 S1                 0.0000
     42 ****         2.8342  -2.5155   1.8651 H              1 S1                 0.0000
     43 ****         3.5857  -1.2533  -0.8312 H              1 S1                 0.0000
     44 ****         2.8275  -3.8861  -0.1669 H              1 S1                 0.0000
     45 ****         5.0260  -3.4242   0.7877 H              1 S1                 0.0000
     46 ****         5.5421  -4.0034  -1.5063 H              1 S1                 0.0000
     47 ****         5.5118  -2.3085  -2.0063 H              1 S1                 0.0000
     48 ****         7.5356  -3.6286  -0.1672 H              1 S1                 0.0000
     49 ****         7.8804  -2.6858  -1.6239 H              1 S1                 0.0000
     50 ****         7.8878  -1.4755   0.8316 H              1 S1                 0.0000
     51 ****         7.1903  -0.6371  -0.5567 H              1 S1                 0.0000
     52 ****        -2.4367   2.8331  -1.6141 H              1 S1                 0.0000
     53 ****        -2.6328   3.4392   0.0280 H              1 S1                 0.0000
     54 ****        -5.4058   3.8225   2.0495 LP             1 S1                 0.0000
     55 ****        -4.4589   4.3943   0.7167 LP             1 S1                 0.0000
     56 ****        -0.5161   3.1371  -0.6199 LP             1 S1                 0.0000
     57 ****         2.9402   1.1040   0.2194 LP             1 S1                 0.0000
     58 ****        -1.6809  -1.5394   0.9189 LP             1 S1                 0.0000
     59 ****         3.2529  -3.3957  -1.6190 LP             1 S1                 0.0000
     60 ****         1.8914  -2.8373  -0.9112 LP             1 S1                 0.0000
     61 ****         5.8933  -1.6937   1.6413 LP             1 S1                 0.0000
     62 ****         5.3613  -0.6637   0.4913 LP             1 S1                 0.0000
@<TRIPOS>BOND
    1    1    2 1     
    2    1   28 1     
    3    1   29 1     
    4    1   30 1     
    5    2    3 am    
    6    2   31 1     
    7    3    4 2     
    8    3    5 1     
    9    5   27 1     
   10    5    6 1     
   11    5    7 1     
   12    6   32 1     
   13    6   33 1     
   14    6   34 1     
   15    7    8 1     
   16    7   35 1     
   17    7   36 1     
   18    8    9 1     
   19    8   37 1     
   20    8   38 1     
   21    9   10 1     
   22    9   27 1     
   23   10   15 ar    
   24   10   11 ar    
   25   11   12 ar    
   26   12   13 ar    
   27   12   39 1     
   28   13   14 ar    
   29   14   18 1     
   30   14   15 ar    
   31   15   16 1     
   32   16   17 2     
   33   17   18 1     
   34   17   40 1     
   35   18   19 1     
   36   19   20 1     
   37   19   41 1     
   38   19   42 1     
   39   20   21 1     
   40   20   22 1     
   41   20   43 1     
   42   21   44 1     
   43   22   26 1     
   44   22   23 1     
   45   22   45 1     
   46   23   24 1     
   47   23   46 1     
   48   23   47 1     
   49   24   25 1     
   50   24   48 1     
   51   24   49 1     
   52   25   26 1     
   53   25   50 1     
   54   25   51 1     
   55   27   52 1     
   56   27   53 1     
   57    4   54 1     
   58    4   55 1     
   59   11   56 1     
   60   13   57 1     
   61   16   58 1     
   62   21   59 1     
   63   21   60 1     
   64   26   61 1     
   65   26   62 1     
@<TRIPOS>SUBSTRUCTURE
      1 S1             1
@<TRIPOS>SET
LONE_PAIRS      STATIC     ATOMS    <user>   **** ""
9 54 55 56 57 58 59 60 61 62
DONOR_HYDROGENS      STATIC     ATOMS    <user>   **** ""
2 31 44
ATOM$BLUE        STATIC     ATOMS    COLORGROUP SYSTEM
9 54 55 56 57 58 59 60 61 62
ATOM$RED        STATIC     ATOMS    COLORGROUP SYSTEM
2 31 44
