#       Name:                AV-unprocessed.smi:2204
#       Creating user name   scv26
#       Creation time:       Fri Mar 27 12:15:37 2020


#       File generated by GOLD software.
#

@<TRIPOS>MOLECULE
AV-unprocessed.smi:2204
    44    45     1
SMALL
NO_CHARGES


@<TRIPOS>ATOM
      1 ****        -2.4278   4.4183  -2.2630 C.3            1 S1                 0.0000
      2 ****        -2.4663   3.0436  -1.6637 C.2            1 S1                 0.0000
      3 ****        -3.0908   2.6256  -0.4557 C.2            1 S1                 0.0000
      4 ****        -2.8229   1.2877  -0.3823 C.2            1 S1                 0.0000
      5 ****        -3.2105   0.2856   0.6552 C.3            1 S1                 0.0000
      6 ****        -2.0754   0.9658  -1.5021 N.pl3          1 S1                 0.0000
      7 ****        -1.5243  -0.3214  -1.9043 C.3            1 S1                 0.0000
      8 ****        -0.0519  -0.4750  -1.5082 C.2            1 S1                 0.0000
      9 ****         0.7653  -0.8691  -2.3398 O.2            1 S1                 0.0000
     10 ****         0.2691  -0.1835  -0.2365 N.am           1 S1                 0.0000
     11 ****         1.6010  -0.2743   0.3545 C.3            1 S1                 0.0000
     12 ****         1.8335   0.9745   1.2191 C.3            1 S1                 0.0000
     13 ****         1.7263  -1.5835   1.1619 C.3            1 S1                 0.0000
     14 ****         3.1021  -1.8102   1.7944 C.3            1 S1                 0.0000
     15 ****         3.1595  -3.3172   1.8901 C.3            1 S1                 0.0000
     16 ****         2.4919  -3.7255   0.5830 C.3            1 S1                 0.0000
     17 ****         1.5199  -2.7184   0.3195 O.3            1 S1                 0.0000
     18 ****        -1.8606   2.0456  -2.2852 N.2            1 S1                 0.0000
     19 ****        -3.0882   5.1005  -1.7274 H              1 S1                 0.0000
     20 ****        -2.7436   4.4028  -3.3064 H              1 S1                 0.0000
     21 ****        -1.4206   4.8335  -2.2246 H              1 S1                 0.0000
     22 ****        -3.6517   3.2192   0.2509 H              1 S1                 0.0000
     23 ****        -3.7574   0.7602   1.4699 H              1 S1                 0.0000
     24 ****        -2.3307  -0.1971   1.0803 H              1 S1                 0.0000
     25 ****        -3.8502  -0.4873   0.2290 H              1 S1                 0.0000
     26 ****        -2.1061  -1.1241  -1.4511 H              1 S1                 0.0000
     27 ****        -1.6307  -0.4279  -2.9852 H              1 S1                 0.0000
     28 ****        -0.4729   0.1303   0.3718 H              1 S1                 0.0000
     29 ****         2.3557  -0.2754  -0.4340 H              1 S1                 0.0000
     30 ****         2.8386   0.9868   1.6405 H              1 S1                 0.0000
     31 ****         1.1245   1.0235   2.0462 H              1 S1                 0.0000
     32 ****         1.7192   1.8846   0.6290 H              1 S1                 0.0000
     33 ****         0.9664  -1.6172   1.9446 H              1 S1                 0.0000
     34 ****         3.8936  -1.4515   1.1345 H              1 S1                 0.0000
     35 ****         3.2130  -1.3175   2.7609 H              1 S1                 0.0000
     36 ****         4.1735  -3.7048   1.9914 H              1 S1                 0.0000
     37 ****         2.5709  -3.6636   2.7406 H              1 S1                 0.0000
     38 ****         3.2183  -3.7257  -0.2306 H              1 S1                 0.0000
     39 ****         2.0397  -4.7161   0.6344 H              1 S1                 0.0000
     40 ****         0.4674  -1.0875  -3.2691 LP             1 S1                 0.0000
     41 ****         1.7272  -0.9710  -2.0863 LP             1 S1                 0.0000
     42 ****         1.5923  -2.4348  -0.6367 LP             1 S1                 0.0000
     43 ****         0.6074  -3.0909   0.4885 LP             1 S1                 0.0000
     44 ****        -1.3542   2.0822  -3.1467 LP             1 S1                 0.0000
@<TRIPOS>BOND
    1    1    2 1     
    2    1   19 1     
    3    1   20 1     
    4    1   21 1     
    5    2   18 2     
    6    2    3 1     
    7    3    4 2     
    8    3   22 1     
    9    4    5 1     
   10    4    6 1     
   11    5   23 1     
   12    5   24 1     
   13    5   25 1     
   14    6    7 1     
   15    6   18 1     
   16    7    8 1     
   17    7   26 1     
   18    7   27 1     
   19    8    9 2     
   20    8   10 am    
   21   10   11 1     
   22   10   28 1     
   23   11   12 1     
   24   11   13 1     
   25   11   29 1     
   26   12   30 1     
   27   12   31 1     
   28   12   32 1     
   29   13   17 1     
   30   13   14 1     
   31   13   33 1     
   32   14   15 1     
   33   14   34 1     
   34   14   35 1     
   35   15   16 1     
   36   15   36 1     
   37   15   37 1     
   38   16   17 1     
   39   16   38 1     
   40   16   39 1     
   41    9   40 1     
   42    9   41 1     
   43   17   42 1     
   44   17   43 1     
   45   18   44 1     
@<TRIPOS>SUBSTRUCTURE
      1 S1             1
@<TRIPOS>SET
LONE_PAIRS      STATIC     ATOMS    <user>   **** ""
5 40 41 42 43 44
DONOR_HYDROGENS      STATIC     ATOMS    <user>   **** ""
1 28
ATOM$BLUE        STATIC     ATOMS    COLORGROUP SYSTEM
5 40 41 42 43 44
ATOM$RED        STATIC     ATOMS    COLORGROUP SYSTEM
1 28
