AV-unprocessed.smi:54|AV-procd|sdf|558|dock9
  -GOLD-   2262016463D 1   1.00000     0.00000
 Structure written by MMmdl.
 43 45  0  0  0  0  0  0  0  0  2 V2000
  145.6773  136.8662  161.4142 C   0  0  0  0  0  0  0  0  0  0  0  0
  146.7300  135.7598  161.2360 C   0  0  0  0  0  0  0  0  0  0  0  0
  147.3457  135.3542  162.5856 C   0  0  0  0  0  0  0  0  0  0  0  0
  147.8203  136.2022  160.2492 C   0  0  0  0  0  0  0  0  0  0  0  0
  148.4751  137.2169  160.4970 O   0  0  0  0  0  0  0  0  0  0  0  0
  147.9618  135.4170  159.1577 N   0  0  0  0  0  0  0  0  0  0  0  0
  148.8369  135.5470  158.0716 C   0  0  0  0  0  0  0  0  0  0  0  0
  148.6881  136.6807  157.4296 N   0  0  0  0  0  0  0  0  0  0  0  0
  149.5484  136.8000  156.3546 C   0  0  0  0  0  0  0  0  0  0  0  0
  150.4836  135.8996  155.9253 C   0  0  0  0  0  0  0  0  0  0  0  0
  151.1702  136.3721  154.8134 N   0  0  0  0  0  0  0  0  0  0  0  0
  150.6028  137.5619  154.6199 C   0  0  0  0  0  0  0  0  0  0  0  0
  149.6192  137.8839  155.4866 N   0  0  0  0  0  0  0  0  0  0  0  0
  148.7986  139.1373  155.5490 C   0  0  1  0  0  0  0  0  0  0  0  0
  149.1676  139.8535  156.6903 O   0  0  0  0  0  0  0  0  0  0  0  0
  150.1429  140.8303  156.3420 C   0  0  2  0  0  0  0  0  0  0  0  0
  150.2793  141.9008  157.4387 C   0  0  0  0  0  0  0  0  0  0  0  0
  150.9290  143.0411  156.9190 O   0  0  0  0  0  0  0  0  0  0  0  0
  149.6181  141.3254  154.9890 C   0  0  2  0  0  0  0  0  0  0  0  0
  148.5825  142.2771  155.1756 O   0  0  0  0  0  0  0  0  0  0  0  0
  149.1206  140.0343  154.3380 C   0  0  2  0  0  0  0  0  0  0  0  0
  148.0108  140.2415  153.4844 O   0  0  0  0  0  0  0  0  0  0  0  0
  150.5967  134.6365  156.6914 C   0  0  0  0  0  0  0  0  0  0  0  0
  151.4240  133.7962  156.3429 O   0  0  0  0  0  0  0  0  0  0  0  0
  149.7417  134.5150  157.7508 N   0  5  0  0  0  0  0  0  0  0  0  0
  147.7658  138.7913  155.6083 H   0  0  0  0  0  0  0  0  0  0  0  0
  151.1041  140.3395  156.1775 H   0  0  0  0  0  0  0  0  0  0  0  0
  150.4054  141.7935  154.3973 H   0  0  0  0  0  0  0  0  0  0  0  0
  149.9312  139.5885  153.7586 H   0  0  0  0  0  0  0  0  0  0  0  0
  145.2442  137.1588  160.4570 H   0  0  0  0  0  0  0  0  0  0  0  0
  146.1057  137.7585  161.8727 H   0  0  0  0  0  0  0  0  0  0  0  0
  144.8608  136.5273  162.0521 H   0  0  0  0  0  0  0  0  0  0  0  0
  146.2265  134.8837  160.8237 H   0  0  0  0  0  0  0  0  0  0  0  0
  148.1003  134.5769  162.4596 H   0  0  0  0  0  0  0  0  0  0  0  0
  146.5829  134.9629  163.2591 H   0  0  0  0  0  0  0  0  0  0  0  0
  147.8200  136.2018  163.0822 H   0  0  0  0  0  0  0  0  0  0  0  0
  147.3107  134.6478  159.1083 H   0  0  0  0  0  0  0  0  0  0  0  0
  150.9154  138.2157  153.8192 H   0  0  0  0  0  0  0  0  0  0  0  0
  149.2930  142.2136  157.7826 H   0  0  0  0  0  0  0  0  0  0  0  0
  150.8219  141.5203  158.3046 H   0  0  0  0  0  0  0  0  0  0  0  0
  150.3027  143.5346  156.4117 H   0  0  0  0  0  0  0  0  0  0  0  0
  148.9765  143.1341  155.2362 H   0  0  0  0  0  0  0  0  0  0  0  0
  148.3311  140.3367  152.6001 H   0  0  0  0  0  0  0  0  0  0  0  0
  1  2  1  0  0  0  0
  1 30  1  0  0  0  0
  1 31  1  0  0  0  0
  1 32  1  0  0  0  0
  2  3  1  0  0  0  0
  2  4  1  0  0  0  0
  2 33  1  0  0  0  0
  3 34  1  0  0  0  0
  3 35  1  0  0  0  0
  3 36  1  0  0  0  0
  4  5  2  0  0  0  0
  4  6  1  0  0  0  0
  6 37  1  0  0  0  0
  6  7  1  0  0  0  0
  7 25  1  0  0  0  0
  7  8  2  0  0  0  0
  8  9  1  0  0  0  0
  9 13  1  0  0  0  0
  9 10  2  0  0  0  0
 10 11  1  0  0  0  0
 10 23  1  0  0  0  0
 11 12  2  0  0  0  0
 12 13  1  0  0  0  0
 12 38  1  0  0  0  0
 13 14  1  0  0  0  0
 14 26  1  0  0  0  0
 14 21  1  0  0  0  0
 14 15  1  0  0  0  0
 15 16  1  0  0  0  0
 16 27  1  0  0  0  0
 16 17  1  0  0  0  0
 16 19  1  0  0  0  0
 17 18  1  0  0  0  0
 17 39  1  0  0  0  0
 17 40  1  0  0  0  0
 18 41  1  0  0  0  0
 19 28  1  0  0  0  0
 19 20  1  0  0  0  0
 19 21  1  0  0  0  0
 20 42  1  0  0  0  0
 21 29  1  0  0  0  0
 21 22  1  0  0  0  0
 22 43  1  0  0  0  0
 23 24  2  0  0  0  0
 23 25  1  0  0  0  0
M  CHG  1  25  -1
M  END
> <s_m_source_file>
AV-unprocessed.smi

> <i_m_source_file_index>
54

> <i_lp_mmshare_version>
43012

> <i_f3d_flags>
0

> <s_epik_input>
W0NIM11bQ0hdKFtDSDNdKUMoPU8pW05IXWMobjEpW25IXWMoPU8pYyhjMTIpbltjSF1uMltDQEBIXTNPW0NASF0oW0NIMl1bT0hdKVtDQEBIXShbT0hdKVtDQEhdM1tPSF0=

> <s_epik_cmdline>
J2VwaWtfcHl0aG9uJywgJy1waCcsICc3LjAnLCAnLXRuJywgJzgnLCAnLW1hJywgJzIwMCcsICctbWV0YWxfYmluZGluZycsICctaW1hZScsICc8aW5maWxlLm1hZT4nLCAnLW9tYWUnLCAnPG91dGZpbGUubWFlPic=

> <r_lp_tautomer_probability>
0.85571

> <r_epik_Ionization_Penalty>
1.75936

> <r_epik_Ionization_Penalty_Charging>
4.55893e-11

> <r_epik_Ionization_Penalty_Neutral>
1.75936

> <r_epik_State_Penalty>
1.72072

> <r_epik_Charging_Adjusted_Penalty>
1.72072

> <i_epik_Tot_Q>
-1

> <i_epik_Tot_abs_Q>
1

> <r_epik_Metal_State_Penalty>
0.400338

> <b_epik_Metal_Only>
1

> <s_epik_Chemistry_Notes>
This compound contains an acetal/aminal-like group ( X-CH(R)-Y where X, Y are N, S, or O) that may be acid/base labile, releasing an aldehyde.

> <s_lp_Force_Field>
OPLS_2005

> <r_lp_Energy>
63.0293

> <b_lp_Chiralities_Consistent>
1

> <s_lp_Variant>
AV-unprocessed.smi:54-30

> <Gold.Version>
5.8.1

> <Gold.Id.Protein>
6NUR|6NUR_protein|mol2

> <Gold.PLP.Fitness>
53.4669

> <Gold.PLP.PLP>
-34.0890

> <Gold.PLP.part.hbond>
-6.8592

> <Gold.PLP.part.metal>
0.0000

> <Gold.PLP.part.buried>
-5.4957

> <Gold.PLP.part.nonpolar>
-22.8683

> <Gold.PLP.part.repulsive>
0.2242

> <Gold.PLP.ligand.clash>
0.0000

> <Gold.PLP.ligand.torsion>
0.7810

> <Gold.PLP.Chemscore.Hbond>
6.9608

> <Gold.PLP.Chemscore.CHOScore>
0.0000

> <Gold.PLP.Chemscore.Metal>
0.0000

> <Gold.Chemscore.Hbonds>
donor molecule, donor type, donor heavy atom, donor atom, acceptor molecule, acceptor atom, score
      L1  H    18    41       P1  8028  1.00
      L1  H    20    42       P1  8028  0.99
      L1  H    22    43       P1  7957  1.00
      P1  H  6896  6909       L1    25  2.00
      P1  H  6931  6943       L1     5  0.72
      P1  H  6934  6947       L1     5  0.25
      P1  H 10752 10763       L1    11  1.00

> <Gold.PLP.Chemscore.Internal.Correction>
0.0575

> <Gold.Rescore>
     Score         DG    S(hbond)    S(metal)    S(lipo)     H(rot)  DE(clash)    DE(int)     intcor
     19.51     -20.24       5.80        0.00      48.56       4.02       0.00       0.72       ----

> <Gold.Chemscore.Fitness>
19.5125

> <Gold.Chemscore.DG>
-20.2355

> <Gold.Chemscore.ZeroCoef>
-5.4800

> <Gold.Chemscore.Hbond>
5.7973

> <Gold.Chemscore.Metal>
0.0000

> <Gold.Chemscore.Lipo>
48.5629

> <Gold.Chemscore.Internal_Hbond>
0.0000

> <Gold.Chemscore.DEClash>
0.0000

> <Gold.Chemscore.DEInternal>
0.7230

> <Gold.Chemscore.Rot>
4.0192

> <Gold.Chemscore.Internal.Correction>
   9.000000E+99

> <Gold.Chemscore.Hbonds>
donor molecule, donor type, donor heavy atom, donor atom, acceptor molecule, acceptor atom, score
      L1  H    18    41       P1  8028  0.97
      L1  H    20    42       P1  8028  0.94
      L1  H    22    43       P1  7957  0.97
      P1  H  6896  6909       L1    25  0.49
      P1  H  6931  6943       L1     5  0.72
      P1  H  6934  6947       L1     5  0.22
      P1  H 10752 10763       L1    11  0.96

> <Gold.Chemscore.Hbond.Weighted>
-19.3629

> <Gold.Chemscore.Metal.Weighted>
-0.0000

> <Gold.Chemscore.Lipo.Weighted>
-5.6819

> <Gold.Chemscore.Internal_Hbond.Weighted>
0.0000

> <Gold.Chemscore.DEClash.Weighted>
0.0000

> <Gold.Chemscore.DEInternal.Weighted>
0.7230

> <Gold.Chemscore.Rot.Weighted>
10.2893

> <Gold.Chemscore.Internal.Correction.Weighted>
   9.000000E+99

> <Gold.Protein.RotatedTorsions>
[ 6907 6896 6895 6894 ] final   16.75 input  -60.11 | X-H torsion
[ 7974 7965 7964 7962 ] final -154.32 input  175.53 | X-H torsion
[ 8008 7997 7996 7995 ] final -165.99 input   59.86 | X-H torsion
[ 10167 10162 10161 10158 ] final  127.77 input  -65.29 | X-H torsion
[ 10718 10713 10712 10709 ] final  178.51 input   66.30 | X-H torsion
[ 10763 10752 10751 10750 ] final   40.66 input  -60.55 | X-H torsion
[ 11005 11000 10999 10996 ] final   72.78 input  -57.11 | X-H torsion

> <Gold.Protein.ActiveResidues>
 VAL166  LYS551  ARG553  GLY616  TRP617  ASP618  TYR619  PRO620  LYS621  CYS622 
 ASP623  PHE694  ASN695  SER759  ASP760  ASP761  ALA762  ILE779  LEU786  VAL792 
 PHE793  MET794  SER795  GLU796  ALA797  LYS798  CYS799  TRP800  GLU811  SER814 

> <Gold.Protein.RotatedAtoms>
  151.8387  135.0597  160.0445 H   0  0  0  0  0  0  0  0  0  0  0  0  # atno 6907 bound_to 6896
  152.2825  133.5479  159.5515 H   0  0  0  0  0  0  0  0  0  0  0  0  # atno 6908 bound_to 6896
  150.7195  134.0460  159.3824 H   0  0  0  0  0  0  0  0  0  0  0  0  # atno 6909 bound_to 6896
  144.7695  140.4405  143.5917 H   0  0  0  0  0  0  0  0  0  0  0  0  # atno 7974 bound_to 7965
  155.8575  140.0973  157.1635 H   0  0  0  0  0  0  0  0  0  0  0  0  # atno 8008 bound_to 7997
  154.3988  140.1371  156.3982 H   0  0  0  0  0  0  0  0  0  0  0  0  # atno 8009 bound_to 7997
  155.7893  140.3456  155.5343 H   0  0  0  0  0  0  0  0  0  0  0  0  # atno 8010 bound_to 7997
  139.5561  144.6849  151.4178 H   0  0  0  0  0  0  0  0  0  0  0  0  # atno 10167 bound_to 10162
  156.8895  130.9842  151.3051 H   0  0  0  0  0  0  0  0  0  0  0  0  # atno 10718 bound_to 10713
  152.9930  135.6185  154.2661 H   0  0  0  0  0  0  0  0  0  0  0  0  # atno 10763 bound_to 10752
  154.2396  135.2789  155.2861 H   0  0  0  0  0  0  0  0  0  0  0  0  # atno 10764 bound_to 10752
  154.5381  135.5769  153.6873 H   0  0  0  0  0  0  0  0  0  0  0  0  # atno 10765 bound_to 10752
  139.9473  134.7289  156.0947 H   0  0  0  0  0  0  0  0  0  0  0  0  # atno 11005 bound_to 11000
  145.6366  139.1544  143.2939 LP  0  0  0  0  0  0  0  0  0  0  0  0  # atno 17320 bound_to 7965
  146.1831  140.6465  142.9180 LP  0  0  0  0  0  0  0  0  0  0  0  0  # atno 17321 bound_to 7965
  140.6834  143.8029  150.7152 LP  0  0  0  0  0  0  0  0  0  0  0  0  # atno 17342 bound_to 10162
  140.1490  143.4374  152.2144 LP  0  0  0  0  0  0  0  0  0  0  0  0  # atno 17343 bound_to 10162
  157.6092  130.8570  149.8925 LP  0  0  0  0  0  0  0  0  0  0  0  0  # atno 17370 bound_to 10713
  156.0636  130.3696  150.0927 LP  0  0  0  0  0  0  0  0  0  0  0  0  # atno 17371 bound_to 10713
  141.1127  133.6638  156.3018 LP  0  0  0  0  0  0  0  0  0  0  0  0  # atno 17394 bound_to 11000
  140.5803  134.5752  157.5478 LP  0  0  0  0  0  0  0  0  0  0  0  0  # atno 17395 bound_to 11000

$$$$
