AV-unprocessed.smi:2822|AV-procd|sdf|10869|dock9
  -GOLD-   2272015313D 1   1.00000     0.00000
 Structure written by MMmdl.
 40 42  0  0  0  0  0  0  0  0  2 V2000
  153.6975  140.9771  159.9366 Cl  0  0  0  0  0  0  0  0  0  0  0  0
  152.9362  142.5298  159.9491 C   0  0  0  0  0  0  0  0  0  0  0  0
  153.1510  143.4053  161.0334 C   0  0  0  0  0  0  0  0  0  0  0  0
  152.5983  144.6337  161.1179 N   0  0  0  0  0  0  0  0  0  0  0  0
  151.7986  145.0338  160.1077 C   0  0  0  0  0  0  0  0  0  0  0  0
  151.5172  144.2384  158.9788 C   0  0  0  0  0  0  0  0  0  0  0  0
  152.0995  142.9520  158.8905 C   0  0  0  0  0  0  0  0  0  0  0  0
  151.8758  142.0954  157.8022 N   0  0  0  0  0  0  0  0  0  0  0  0
  150.7459  142.2951  156.9085 C   0  0  0  0  0  0  0  0  0  0  0  0
  149.7771  141.0967  156.9514 C   0  0  1  0  0  0  0  0  0  0  0  0
  148.3675  141.4739  157.4442 C   0  0  0  0  0  0  0  0  0  0  0  0
  147.6328  142.2644  156.4288 N   0  3  2  0  0  0  0  0  0  0  0  0
  146.2845  142.6679  156.9032 C   0  0  0  0  0  0  0  0  0  0  0  0
  145.5742  143.5576  155.8711 C   0  0  0  0  0  0  0  0  0  0  0  0
  145.4896  142.8533  154.5116 C   0  0  0  0  0  0  0  0  0  0  0  0
  146.8907  142.4268  154.0546 C   0  0  0  0  0  0  0  0  0  0  0  0
  147.5905  141.5579  155.1197 C   0  0  1  0  0  0  0  0  0  0  0  0
  149.0173  141.1828  154.6762 C   0  0  0  0  0  0  0  0  0  0  0  0
  149.6737  140.4316  155.6920 O   0  0  0  0  0  0  0  0  0  0  0  0
  153.7862  143.1114  161.8560 H   0  0  0  0  0  0  0  0  0  0  0  0
  151.3679  146.0198  160.2010 H   0  0  0  0  0  0  0  0  0  0  0  0
  150.8639  144.6246  158.2110 H   0  0  0  0  0  0  0  0  0  0  0  0
  152.6091  141.4594  157.5203 H   0  0  0  0  0  0  0  0  0  0  0  0
  150.2184  143.1963  157.2235 H   0  0  0  0  0  0  0  0  0  0  0  0
  151.0991  142.4785  155.8942 H   0  0  0  0  0  0  0  0  0  0  0  0
  150.1869  140.3708  157.6551 H   0  0  0  0  0  0  0  0  0  0  0  0
  147.8043  140.5650  157.6631 H   0  0  0  0  0  0  0  0  0  0  0  0
  148.4337  142.0353  158.3770 H   0  0  0  0  0  0  0  0  0  0  0  0
  145.6859  141.7777  157.1036 H   0  0  0  0  0  0  0  0  0  0  0  0
  146.3763  143.2070  157.8468 H   0  0  0  0  0  0  0  0  0  0  0  0
  144.5733  143.8097  156.2227 H   0  0  0  0  0  0  0  0  0  0  0  0
  146.1122  144.5005  155.7648 H   0  0  0  0  0  0  0  0  0  0  0  0
  144.8430  141.9781  154.5876 H   0  0  0  0  0  0  0  0  0  0  0  0
  145.0364  143.5144  153.7721 H   0  0  0  0  0  0  0  0  0  0  0  0
  146.8192  141.8806  153.1131 H   0  0  0  0  0  0  0  0  0  0  0  0
  147.4892  143.3159  153.8502 H   0  0  0  0  0  0  0  0  0  0  0  0
  147.0180  140.6376  155.2513 H   0  0  0  0  0  0  0  0  0  0  0  0
  148.9772  140.5723  153.7738 H   0  0  0  0  0  0  0  0  0  0  0  0
  149.5972  142.0693  154.4184 H   0  0  0  0  0  0  0  0  0  0  0  0
  148.1579  143.1149  156.2837 H   0  0  0  0  0  0  0  0  0  0  0  0
  1  2  1  0  0  0  0
  2  7  1  0  0  0  0
  2  3  2  0  0  0  0
  3  4  1  0  0  0  0
  3 20  1  0  0  0  0
  4  5  2  0  0  0  0
  5  6  1  0  0  0  0
  5 21  1  0  0  0  0
  6  7  2  0  0  0  0
  6 22  1  0  0  0  0
  7  8  1  0  0  0  0
  8  9  1  0  0  0  0
  8 23  1  0  0  0  0
  9 10  1  0  0  0  0
  9 24  1  0  0  0  0
  9 25  1  0  0  0  0
 10 19  1  0  0  0  0
 10 11  1  0  0  0  0
 10 26  1  0  0  0  0
 11 12  1  0  0  0  0
 11 27  1  0  0  0  0
 11 28  1  0  0  0  0
 12 17  1  0  0  0  0
 12 13  1  0  0  0  0
 12 40  1  0  0  0  0
 13 14  1  0  0  0  0
 13 29  1  0  0  0  0
 13 30  1  0  0  0  0
 14 15  1  0  0  0  0
 14 31  1  0  0  0  0
 14 32  1  0  0  0  0
 15 16  1  0  0  0  0
 15 33  1  0  0  0  0
 15 34  1  0  0  0  0
 16 17  1  0  0  0  0
 16 35  1  0  0  0  0
 16 36  1  0  0  0  0
 17 18  1  0  0  0  0
 17 37  1  0  0  0  0
 18 19  1  0  0  0  0
 18 38  1  0  0  0  0
 18 39  1  0  0  0  0
M  CHG  1  12   1
M  END
> <s_m_source_file>
AV-unprocessed.smi

> <i_m_source_file_index>
2822

> <i_lp_mmshare_version>
43012

> <i_f3d_flags>
0

> <s_epik_input>
Q2xjMVtjSF1uW2NIXVtjSF1jMVtOSF1bQ0gyXVtDQEhdKFtDSDJdMilPW0NIMl1bQ0BASF0oTjIzKVtDSDJdW0NIMl1bQ0gyXVtDSDJdMw==

> <s_epik_cmdline>
J2VwaWtfcHl0aG9uJywgJy1waCcsICc3LjAnLCAnLXRuJywgJzgnLCAnLW1hJywgJzIwMCcsICctbWV0YWxfYmluZGluZycsICctaW1hZScsICc8aW5maWxlLm1hZT4nLCAnLW9tYWUnLCAnPG91dGZpbGUubWFlPic=

> <r_lp_tautomer_probability>
0.999999

> <r_epik_Ionization_Penalty>
0.88937

> <r_epik_Ionization_Penalty_Charging>
0.0803403

> <r_epik_Ionization_Penalty_Neutral>
0.80903

> <r_epik_State_Penalty>
0.931884

> <r_epik_Charging_Adjusted_Penalty>
1.01222

> <i_epik_Tot_Q>
1

> <i_epik_Tot_abs_Q>
1

> <r_epik_Metal_State_Penalty>
0.0782275

> <b_epik_Metal_Only>
0

> <s_lp_Force_Field>
OPLS_2005

> <r_lp_Energy>
31.9591

> <b_lp_Chiralities_Consistent>
1

> <s_lp_Variant>
AV-unprocessed.smi:2822-10

> <Gold.Version>
5.8.1

> <Gold.Id.Protein>
6NUR|6NUR_protein|mol2

> <Gold.PLP.Fitness>
45.8458

> <Gold.PLP.PLP>
-41.4947

> <Gold.PLP.part.hbond>
-1.0000

> <Gold.PLP.part.metal>
0.0000

> <Gold.PLP.part.buried>
-6.5454

> <Gold.PLP.part.nonpolar>
-33.9104

> <Gold.PLP.part.repulsive>
0.3155

> <Gold.PLP.ligand.clash>
0.0000

> <Gold.PLP.ligand.torsion>
0.8273

> <Gold.PLP.Chemscore.Hbond>
2.0000

> <Gold.PLP.Chemscore.CHOScore>
0.0000

> <Gold.PLP.Chemscore.Metal>
0.0000

> <Gold.Chemscore.Hbonds>
donor molecule, donor type, donor heavy atom, donor atom, acceptor molecule, acceptor atom, score
      L1  H    12    40       P1  8028  2.00

> <Gold.PLP.Chemscore.Internal.Correction>
0.0057

> <Gold.Rescore>
     Score         DG    S(hbond)    S(metal)    S(lipo)     H(rot)  DE(clash)    DE(int)     intcor
     15.70     -16.84       0.45        0.00     109.93       1.17       0.33       0.81       ----

> <Gold.Chemscore.Fitness>
15.7017

> <Gold.Chemscore.DG>
-16.8405

> <Gold.Chemscore.ZeroCoef>
-5.4800

> <Gold.Chemscore.Hbond>
0.4468

> <Gold.Chemscore.Metal>
0.0000

> <Gold.Chemscore.Lipo>
109.9291

> <Gold.Chemscore.Internal_Hbond>
0.0000

> <Gold.Chemscore.DEClash>
0.3283

> <Gold.Chemscore.DEInternal>
0.8105

> <Gold.Chemscore.Rot>
1.1693

> <Gold.Chemscore.Internal.Correction>
   9.000000E+99

> <Gold.Chemscore.Hbonds>
donor molecule, donor type, donor heavy atom, donor atom, acceptor molecule, acceptor atom, score
      L1  H    12    40       P1  8028  0.55

> <Gold.Chemscore.Hbond.Weighted>
-1.4922

> <Gold.Chemscore.Metal.Weighted>
-0.0000

> <Gold.Chemscore.Lipo.Weighted>
-12.8617

> <Gold.Chemscore.Internal_Hbond.Weighted>
0.0000

> <Gold.Chemscore.DEClash.Weighted>
0.3283

> <Gold.Chemscore.DEInternal.Weighted>
0.8105

> <Gold.Chemscore.Rot.Weighted>
2.9934

> <Gold.Chemscore.Internal.Correction.Weighted>
   9.000000E+99

> <Gold.Protein.RotatedTorsions>
[ 6907 6896 6895 6894 ] final   50.89 input  -60.11 | X-H torsion
[ 7974 7965 7964 7962 ] final  -48.41 input  175.53 | X-H torsion
[ 8008 7997 7996 7995 ] final   90.12 input   59.86 | X-H torsion
[ 10167 10162 10161 10158 ] final  152.38 input  -65.29 | X-H torsion
[ 10718 10713 10712 10709 ] final  109.16 input   66.30 | X-H torsion
[ 10763 10752 10751 10750 ] final   24.00 input  -60.55 | X-H torsion
[ 11005 11000 10999 10996 ] final -170.63 input  -57.11 | X-H torsion

> <Gold.Protein.ActiveResidues>
 VAL166  LYS551  ARG553  GLY616  TRP617  ASP618  TYR619  PRO620  LYS621  CYS622 
 ASP623  PHE694  ASN695  SER759  ASP760  ASP761  ALA762  ILE779  LEU786  VAL792 
 PHE793  MET794  SER795  GLU796  ALA797  LYS798  CYS799  TRP800  GLU811  SER814 

> <Gold.Protein.RotatedAtoms>
  152.3068  134.7546  160.0345 H   0  0  0  0  0  0  0  0  0  0  0  0  # atno 6907 bound_to 6896
  151.8040  133.3368  159.3543 H   0  0  0  0  0  0  0  0  0  0  0  0  # atno 6908 bound_to 6896
  150.7300  134.5656  159.5909 H   0  0  0  0  0  0  0  0  0  0  0  0  # atno 6909 bound_to 6896
  145.9514  140.7568  142.9503 H   0  0  0  0  0  0  0  0  0  0  0  0  # atno 7974 bound_to 7965
  156.0081  140.3353  155.6913 H   0  0  0  0  0  0  0  0  0  0  0  0  # atno 8008 bound_to 7997
  155.6196  140.0673  157.2700 H   0  0  0  0  0  0  0  0  0  0  0  0  # atno 8009 bound_to 7997
  154.4272  140.1779  156.1345 H   0  0  0  0  0  0  0  0  0  0  0  0  # atno 8010 bound_to 7997
  139.4833  144.5362  151.7641 H   0  0  0  0  0  0  0  0  0  0  0  0  # atno 10167 bound_to 10162
  157.6554  131.0908  150.6412 H   0  0  0  0  0  0  0  0  0  0  0  0  # atno 10718 bound_to 10713
  153.0796  135.6615  154.0072 H   0  0  0  0  0  0  0  0  0  0  0  0  # atno 10763 bound_to 10752
  153.9697  135.2966  155.3429 H   0  0  0  0  0  0  0  0  0  0  0  0  # atno 10764 bound_to 10752
  154.7193  135.5172  153.8858 H   0  0  0  0  0  0  0  0  0  0  0  0  # atno 10765 bound_to 10752
  140.5173  134.5743  157.5037 H   0  0  0  0  0  0  0  0  0  0  0  0  # atno 11005 bound_to 11000
  144.6796  140.2441  143.7340 LP  0  0  0  0  0  0  0  0  0  0  0  0  # atno 17320 bound_to 7965
  145.8166  139.2025  143.1962 LP  0  0  0  0  0  0  0  0  0  0  0  0  # atno 17321 bound_to 7965
  140.4895  144.1331  150.5947 LP  0  0  0  0  0  0  0  0  0  0  0  0  # atno 17342 bound_to 10162
  140.4187  143.2622  151.9742 LP  0  0  0  0  0  0  0  0  0  0  0  0  # atno 17343 bound_to 10162
  156.6719  130.4542  149.5654 LP  0  0  0  0  0  0  0  0  0  0  0  0  # atno 17370 bound_to 10713
  156.1991  130.6608  151.1147 LP  0  0  0  0  0  0  0  0  0  0  0  0  # atno 17371 bound_to 10713
  139.9625  134.7428  156.0207 LP  0  0  0  0  0  0  0  0  0  0  0  0  # atno 17394 bound_to 11000
  141.1353  133.6576  156.3576 LP  0  0  0  0  0  0  0  0  0  0  0  0  # atno 17395 bound_to 11000

$$$$
