AV-unprocessed.smi:2020|AV-procd|sdf|8174|dock3
  -GOLD-   2272010423D 1   1.00000     0.00000
 Structure written by MMmdl.
 40 41  0  0  0  0  0  0  0  0  1 V2000
  152.2128  138.9716  155.2701 C   0  0  0  0  0  0  0  0  0  0  0  0
  150.9647  139.7692  155.1079 C   0  0  0  0  0  0  0  0  0  0  0  0
  149.9122  139.3514  154.4006 N   0  0  0  0  0  0  0  0  0  0  0  0
  148.8608  140.2734  154.4029 C   0  0  0  0  0  0  0  0  0  0  0  0
  147.5950  139.9667  153.6617 C   0  0  0  0  0  0  0  0  0  0  0  0
  146.8306  138.7849  154.2820 C   0  0  0  0  0  0  0  0  0  0  0  0
  146.9967  137.5651  153.5003 N   0  0  0  0  0  0  0  0  0  0  0  0
  146.0521  136.6305  153.3251 C   0  0  0  0  0  0  0  0  0  0  0  0
  144.9215  136.6930  153.8088 O   0  0  0  0  0  0  0  0  0  0  0  0
  146.4898  135.6180  152.5634 N   0  0  0  0  0  0  0  0  0  0  0  0
  145.7055  134.4448  152.1901 C   0  0  2  0  0  0  0  0  0  0  0  0
  146.5084  133.1513  152.4368 C   0  0  0  0  0  0  0  0  0  0  0  0
  145.7220  131.9063  151.9912 C   0  0  0  0  0  0  0  0  0  0  0  0
  145.2586  132.0019  150.5254 C   0  0  2  0  0  0  0  0  0  0  0  0
  146.3708  131.9016  149.6580 O   0  0  0  0  0  0  0  0  0  0  0  0
  144.4970  133.3134  150.2561 C   0  0  0  0  0  0  0  0  0  0  0  0
  145.2881  134.5521  150.7120 C   0  0  0  0  0  0  0  0  0  0  0  0
  149.1362  141.4056  155.1285 C   0  0  0  0  0  0  0  0  0  0  0  0
  150.7268  141.3526  155.8377 S   0  0  0  0  0  0  0  0  0  0  0  0
  152.4456  138.4406  154.3466 H   0  0  0  0  0  0  0  0  0  0  0  0
  152.0873  138.2445  156.0723 H   0  0  0  0  0  0  0  0  0  0  0  0
  153.0497  139.6253  155.5166 H   0  0  0  0  0  0  0  0  0  0  0  0
  146.9512  140.8471  153.6483 H   0  0  0  0  0  0  0  0  0  0  0  0
  147.8249  139.7502  152.6177 H   0  0  0  0  0  0  0  0  0  0  0  0
  147.1537  138.6157  155.3107 H   0  0  0  0  0  0  0  0  0  0  0  0
  145.7657  139.0146  154.3252 H   0  0  0  0  0  0  0  0  0  0  0  0
  147.8951  137.4234  153.0620 H   0  0  0  0  0  0  0  0  0  0  0  0
  147.4360  135.6609  152.2145 H   0  0  0  0  0  0  0  0  0  0  0  0
  144.7984  134.4193  152.7971 H   0  0  0  0  0  0  0  0  0  0  0  0
  147.4561  133.1965  151.8985 H   0  0  0  0  0  0  0  0  0  0  0  0
  146.7611  133.0602  153.4938 H   0  0  0  0  0  0  0  0  0  0  0  0
  146.3232  131.0089  152.1411 H   0  0  0  0  0  0  0  0  0  0  0  0
  144.8473  131.7951  152.6333 H   0  0  0  0  0  0  0  0  0  0  0  0
  144.6046  131.1585  150.3023 H   0  0  0  0  0  0  0  0  0  0  0  0
  147.1026  131.5561  150.1461 H   0  0  0  0  0  0  0  0  0  0  0  0
  144.2485  133.3957  149.1973 H   0  0  0  0  0  0  0  0  0  0  0  0
  143.5459  133.2872  150.7896 H   0  0  0  0  0  0  0  0  0  0  0  0
  144.6832  135.4468  150.5593 H   0  0  0  0  0  0  0  0  0  0  0  0
  146.1729  134.6690  150.0845 H   0  0  0  0  0  0  0  0  0  0  0  0
  148.5012  142.2642  155.2898 H   0  0  0  0  0  0  0  0  0  0  0  0
  1  2  1  0  0  0  0
  1 20  1  0  0  0  0
  1 21  1  0  0  0  0
  1 22  1  0  0  0  0
  2 19  1  0  0  0  0
  2  3  2  0  0  0  0
  3  4  1  0  0  0  0
  4  5  1  0  0  0  0
  4 18  2  0  0  0  0
  5  6  1  0  0  0  0
  5 23  1  0  0  0  0
  5 24  1  0  0  0  0
  6  7  1  0  0  0  0
  6 25  1  0  0  0  0
  6 26  1  0  0  0  0
  7  8  1  0  0  0  0
  7 27  1  0  0  0  0
  8  9  2  0  0  0  0
  8 10  1  0  0  0  0
 10 11  1  0  0  0  0
 10 28  1  0  0  0  0
 11 17  1  0  0  0  0
 11 12  1  0  0  0  0
 11 29  1  0  0  0  0
 12 13  1  0  0  0  0
 12 30  1  0  0  0  0
 12 31  1  0  0  0  0
 13 14  1  0  0  0  0
 13 32  1  0  0  0  0
 13 33  1  0  0  0  0
 14 15  1  0  0  0  0
 14 16  1  0  0  0  0
 14 34  1  0  0  0  0
 15 35  1  0  0  0  0
 16 17  1  0  0  0  0
 16 36  1  0  0  0  0
 16 37  1  0  0  0  0
 17 38  1  0  0  0  0
 17 39  1  0  0  0  0
 18 19  1  0  0  0  0
 18 40  1  0  0  0  0
M  END
> <s_m_source_file>
AV-unprocessed.smi

> <i_m_source_file_index>
2020

> <i_lp_mmshare_version>
43012

> <i_f3d_flags>
0

> <s_epik_input>
W0NIM11jMW5jKFtjSF1zMSlbQ0gyXVtDSDJdW05IXUMoPU8pW05IXVtDQEBIXTJbQ0gyXVtDSDJdW0NAQEhdKFtPSF0pW0NIMl1bQ0gyXTI=

> <s_epik_cmdline>
J2VwaWtfcHl0aG9uJywgJy1waCcsICc3LjAnLCAnLXRuJywgJzgnLCAnLW1hJywgJzIwMCcsICctbWV0YWxfYmluZGluZycsICctaW1hZScsICc8aW5maWxlLm1hZT4nLCAnLW9tYWUnLCAnPG91dGZpbGUubWFlPic=

> <r_epik_Ionization_Penalty>
0.00202099

> <r_epik_Ionization_Penalty_Charging>
0

> <r_epik_Ionization_Penalty_Neutral>
0.00202099

> <r_epik_State_Penalty>
0.00133629

> <r_epik_Charging_Adjusted_Penalty>
0.00133629

> <i_epik_Tot_Q>
0

> <i_epik_Tot_abs_Q>
0

> <r_epik_Metal_State_Penalty>
-0

> <b_epik_Metal_Only>
0

> <s_lp_Force_Field>
OPLS_2005

> <r_lp_Energy>
2.55027

> <b_lp_Chiralities_Consistent>
1

> <s_lp_Variant>
AV-unprocessed.smi:2020-2

> <Gold.Version>
5.8.1

> <Gold.Id.Protein>
6NUR|6NUR_protein|mol2

> <Gold.PLP.Fitness>
44.1297

> <Gold.PLP.PLP>
-33.7215

> <Gold.PLP.part.hbond>
-3.0000

> <Gold.PLP.part.metal>
0.0000

> <Gold.PLP.part.buried>
-4.3711

> <Gold.PLP.part.nonpolar>
-27.2165

> <Gold.PLP.part.repulsive>
0.2551

> <Gold.PLP.ligand.clash>
0.0000

> <Gold.PLP.ligand.torsion>
0.6723

> <Gold.PLP.Chemscore.Hbond>
2.9120

> <Gold.PLP.Chemscore.CHOScore>
1.0000

> <Gold.PLP.Chemscore.Metal>
0.0000

> <Gold.Chemscore.Hbonds>
donor molecule, donor type, donor heavy atom, donor atom, acceptor molecule, acceptor atom, score
      L1  H     7    27       P1  7948  0.91
      L1  H    10    28       P1  7948  1.00
      L1  H    15    35       P1 10747  1.00
      L1  C    18    40       P1  8028  1.00

> <Gold.PLP.Chemscore.Internal.Correction>
0.0168

> <Gold.Rescore>
     Score         DG    S(hbond)    S(metal)    S(lipo)     H(rot)  DE(clash)    DE(int)     intcor
     18.90     -19.78       2.85        0.00      86.77       2.10       0.27       0.61       ----

> <Gold.Chemscore.Fitness>
18.9016

> <Gold.Chemscore.DG>
-19.7808

> <Gold.Chemscore.ZeroCoef>
-5.4800

> <Gold.Chemscore.Hbond>
2.8513

> <Gold.Chemscore.Metal>
0.0000

> <Gold.Chemscore.Lipo>
86.7731

> <Gold.Chemscore.Internal_Hbond>
0.0000

> <Gold.Chemscore.DEClash>
0.2716

> <Gold.Chemscore.DEInternal>
0.6076

> <Gold.Chemscore.Rot>
2.0997

> <Gold.Chemscore.Internal.Correction>
   9.000000E+99

> <Gold.Chemscore.Hbonds>
donor molecule, donor type, donor heavy atom, donor atom, acceptor molecule, acceptor atom, score
      L1  H     7    27       P1  7948  0.85
      L1  H    10    28       P1  7948  0.99
      L1  H    15    35       P1 10747  0.92

> <Gold.Chemscore.Hbond.Weighted>
-9.5235

> <Gold.Chemscore.Metal.Weighted>
-0.0000

> <Gold.Chemscore.Lipo.Weighted>
-10.1525

> <Gold.Chemscore.Internal_Hbond.Weighted>
0.0000

> <Gold.Chemscore.DEClash.Weighted>
0.2716

> <Gold.Chemscore.DEInternal.Weighted>
0.6076

> <Gold.Chemscore.Rot.Weighted>
5.3752

> <Gold.Chemscore.Internal.Correction.Weighted>
   9.000000E+99

> <Gold.Protein.RotatedTorsions>
[ 6907 6896 6895 6894 ] final  -52.27 input  -60.11 | X-H torsion
[ 7974 7965 7964 7962 ] final  146.48 input  175.53 | X-H torsion
[ 8008 7997 7996 7995 ] final  -88.00 input   59.86 | X-H torsion
[ 10167 10162 10161 10158 ] final  105.48 input  -65.29 | X-H torsion
[ 10718 10713 10712 10709 ] final   69.78 input   66.30 | X-H torsion
[ 10763 10752 10751 10750 ] final  107.40 input  -60.55 | X-H torsion
[ 11005 11000 10999 10996 ] final   62.95 input  -57.11 | X-H torsion

> <Gold.Protein.ActiveResidues>
 VAL166  LYS551  ARG553  GLY616  TRP617  ASP618  TYR619  PRO620  LYS621  CYS622 
 ASP623  PHE694  ASN695  SER759  ASP760  ASP761  ALA762  ILE779  LEU786  VAL792 
 PHE793  MET794  SER795  GLU796  ALA797  LYS798  CYS799  TRP800  GLU811  SER814 

> <Gold.Protein.RotatedAtoms>
  150.8533  134.7865  159.7025 H   0  0  0  0  0  0  0  0  0  0  0  0  # atno 6907 bound_to 6896
  152.4592  134.5220  159.9795 H   0  0  0  0  0  0  0  0  0  0  0  0  # atno 6908 bound_to 6896
  151.5337  133.3406  159.2958 H   0  0  0  0  0  0  0  0  0  0  0  0  # atno 6909 bound_to 6896
  144.8668  139.5910  143.5905 H   0  0  0  0  0  0  0  0  0  0  0  0  # atno 7974 bound_to 7965
  154.6697  140.0559  157.0152 H   0  0  0  0  0  0  0  0  0  0  0  0  # atno 8008 bound_to 7997
  155.1106  140.3238  155.4504 H   0  0  0  0  0  0  0  0  0  0  0  0  # atno 8009 bound_to 7997
  156.2652  140.2015  156.6231 H   0  0  0  0  0  0  0  0  0  0  0  0  # atno 8010 bound_to 7997
  139.7089  144.7081  151.1060 H   0  0  0  0  0  0  0  0  0  0  0  0  # atno 10167 bound_to 10162
  157.6364  130.9443  150.0561 H   0  0  0  0  0  0  0  0  0  0  0  0  # atno 10718 bound_to 10713
  153.4063  135.3845  155.2020 H   0  0  0  0  0  0  0  0  0  0  0  0  # atno 10763 bound_to 10752
  154.8734  135.3783  154.4557 H   0  0  0  0  0  0  0  0  0  0  0  0  # atno 10764 bound_to 10752
  153.5060  135.7088  153.5868 H   0  0  0  0  0  0  0  0  0  0  0  0  # atno 10765 bound_to 10752
  140.0057  134.6373  155.9859 H   0  0  0  0  0  0  0  0  0  0  0  0  # atno 11005 bound_to 11000
  146.2901  139.7115  142.9167 LP  0  0  0  0  0  0  0  0  0  0  0  0  # atno 17320 bound_to 7965
  145.4207  141.0406  143.2965 LP  0  0  0  0  0  0  0  0  0  0  0  0  # atno 17321 bound_to 7965
  140.7728  143.5320  150.9412 LP  0  0  0  0  0  0  0  0  0  0  0  0  # atno 17342 bound_to 10162
  139.9004  143.6843  152.3132 LP  0  0  0  0  0  0  0  0  0  0  0  0  # atno 17343 bound_to 10162
  156.1608  130.3644  149.9303 LP  0  0  0  0  0  0  0  0  0  0  0  0  # atno 17370 bound_to 10713
  156.7301  130.9040  151.3625 LP  0  0  0  0  0  0  0  0  0  0  0  0  # atno 17371 bound_to 10713
  141.1675  133.6537  156.4532 LP  0  0  0  0  0  0  0  0  0  0  0  0  # atno 17394 bound_to 11000
  140.4645  134.6810  157.5101 LP  0  0  0  0  0  0  0  0  0  0  0  0  # atno 17395 bound_to 11000

$$$$
