AV-unprocessed.smi:879|AV-procd|sdf|4033|dock8
  -GOLD-   22720 1523D 1   1.00000     0.00000
 Structure written by MMmdl.
 39 40  0  0  0  0  0  0  0  0  1 V2000
  146.5601  138.6466  152.0231 C   0  0  0  0  0  0  0  0  0  0  0  0
  147.1948  139.7641  152.7053 N   0  0  0  0  0  0  0  0  0  0  0  0
  148.0960  139.6341  153.6896 C   0  0  0  0  0  0  0  0  0  0  0  0
  148.4743  138.5392  154.1099 O   0  0  0  0  0  0  0  0  0  0  0  0
  148.6494  140.9435  154.2677 C   0  0  0  0  0  0  0  0  0  0  0  0
  149.9143  140.7383  155.0427 C   0  0  0  0  0  0  0  0  0  0  0  0
  150.9085  140.0024  154.5583 N   0  0  0  0  0  0  0  0  0  0  0  0
  151.8749  140.0560  155.5725 O   0  0  0  0  0  0  0  0  0  0  0  0
  151.3433  140.8289  156.5503 C   0  0  0  0  0  0  0  0  0  0  0  0
  152.1251  141.0525  157.8044 C   0  0  0  0  0  0  0  0  0  0  0  0
  151.4244  141.9759  158.8264 C   0  0  0  0  0  0  0  0  0  0  0  0
  150.7891  143.1983  158.1255 C   0  0  0  0  0  0  0  0  0  0  0  0
  151.7186  144.4076  157.9232 C   0  0  0  0  0  0  0  0  0  0  0  0
  151.7073  145.3740  159.1198 C   0  0  0  0  0  0  0  0  0  0  0  0
  152.4187  144.8514  160.3769 C   0  0  0  0  0  0  0  0  0  0  0  0
  151.9013  143.4996  160.8992 C   0  0  0  0  0  0  0  0  0  0  0  0
  152.3431  142.3131  160.0255 C   0  0  0  0  0  0  0  0  0  0  0  0
  150.1153  141.2655  156.2828 N   0  0  0  0  0  0  0  0  0  0  0  0
  145.8992  139.0165  151.2393 H   0  0  0  0  0  0  0  0  0  0  0  0
  145.9655  138.0553  152.7202 H   0  0  0  0  0  0  0  0  0  0  0  0
  147.3053  137.9967  151.5622 H   0  0  0  0  0  0  0  0  0  0  0  0
  146.9332  140.6940  152.4110 H   0  0  0  0  0  0  0  0  0  0  0  0
  148.8350  141.6420  153.4511 H   0  0  0  0  0  0  0  0  0  0  0  0
  147.9011  141.4041  154.9147 H   0  0  0  0  0  0  0  0  0  0  0  0
  152.3333  140.0831  158.2586 H   0  0  0  0  0  0  0  0  0  0  0  0
  153.0923  141.4707  157.5233 H   0  0  0  0  0  0  0  0  0  0  0  0
  150.5863  141.4041  159.2284 H   0  0  0  0  0  0  0  0  0  0  0  0
  150.4001  142.8868  157.1553 H   0  0  0  0  0  0  0  0  0  0  0  0
  149.9072  143.5169  158.6830 H   0  0  0  0  0  0  0  0  0  0  0  0
  152.7336  144.0898  157.6827 H   0  0  0  0  0  0  0  0  0  0  0  0
  151.3662  144.9604  157.0518 H   0  0  0  0  0  0  0  0  0  0  0  0
  152.1883  146.3054  158.8196 H   0  0  0  0  0  0  0  0  0  0  0  0
  150.6792  145.6418  159.3656 H   0  0  0  0  0  0  0  0  0  0  0  0
  153.4914  144.7873  160.1909 H   0  0  0  0  0  0  0  0  0  0  0  0
  152.3025  145.5961  161.1648 H   0  0  0  0  0  0  0  0  0  0  0  0
  152.3189  143.3536  161.8959 H   0  0  0  0  0  0  0  0  0  0  0  0
  150.8188  143.5128  161.0310 H   0  0  0  0  0  0  0  0  0  0  0  0
  152.4075  141.4285  160.6606 H   0  0  0  0  0  0  0  0  0  0  0  0
  153.3615  142.4886  159.6766 H   0  0  0  0  0  0  0  0  0  0  0  0
  1  2  1  0  0  0  0
  1 19  1  0  0  0  0
  1 20  1  0  0  0  0
  1 21  1  0  0  0  0
  2  3  1  0  0  0  0
  2 22  1  0  0  0  0
  3  4  2  0  0  0  0
  3  5  1  0  0  0  0
  5  6  1  0  0  0  0
  5 23  1  0  0  0  0
  5 24  1  0  0  0  0
  6 18  1  0  0  0  0
  6  7  2  0  0  0  0
  7  8  1  0  0  0  0
  8  9  1  0  0  0  0
  9 10  1  0  0  0  0
  9 18  2  0  0  0  0
 10 11  1  0  0  0  0
 10 25  1  0  0  0  0
 10 26  1  0  0  0  0
 11 17  1  0  0  0  0
 11 12  1  0  0  0  0
 11 27  1  0  0  0  0
 12 13  1  0  0  0  0
 12 28  1  0  0  0  0
 12 29  1  0  0  0  0
 13 14  1  0  0  0  0
 13 30  1  0  0  0  0
 13 31  1  0  0  0  0
 14 15  1  0  0  0  0
 14 32  1  0  0  0  0
 14 33  1  0  0  0  0
 15 16  1  0  0  0  0
 15 34  1  0  0  0  0
 15 35  1  0  0  0  0
 16 17  1  0  0  0  0
 16 36  1  0  0  0  0
 16 37  1  0  0  0  0
 17 38  1  0  0  0  0
 17 39  1  0  0  0  0
M  END
> <s_m_source_file>
AV-unprocessed.smi

> <i_m_source_file_index>
879

> <i_lp_mmshare_version>
43012

> <i_f3d_flags>
0

> <s_epik_input>
W0NIM11bTkhdQyg9TylbQ0gyXWMxbm9jKG4xKVtDSDJdW0NIXTJbQ0gyXVtDSDJdW0NIMl1bQ0gyXVtDSDJdW0NIMl0y

> <s_epik_cmdline>
J2VwaWtfcHl0aG9uJywgJy1waCcsICc3LjAnLCAnLXRuJywgJzgnLCAnLW1hJywgJzIwMCcsICctbWV0YWxfYmluZGluZycsICctaW1hZScsICc8aW5maWxlLm1hZT4nLCAnLW9tYWUnLCAnPG91dGZpbGUubWFlPic=

> <r_lp_tautomer_probability>
1

> <r_epik_Ionization_Penalty>
1.02915e-07

> <r_epik_Ionization_Penalty_Charging>
0

> <r_epik_Ionization_Penalty_Neutral>
1.02915e-07

> <r_epik_State_Penalty>
-0

> <r_epik_Charging_Adjusted_Penalty>
0

> <i_epik_Tot_Q>
0

> <i_epik_Tot_abs_Q>
0

> <r_epik_Metal_State_Penalty>
-0

> <b_epik_Metal_Only>
0

> <s_lp_Force_Field>
OPLS_2005

> <r_lp_Energy>
15.7019

> <b_lp_Chiralities_Consistent>
1

> <s_lp_Variant>
AV-unprocessed.smi:879-1

> <Gold.Version>
5.8.1

> <Gold.Id.Protein>
6NUR|6NUR_protein|mol2

> <Gold.PLP.Fitness>
42.5051

> <Gold.PLP.PLP>
-40.3813

> <Gold.PLP.part.hbond>
-2.7312

> <Gold.PLP.part.metal>
0.0000

> <Gold.PLP.part.buried>
-4.4572

> <Gold.PLP.part.nonpolar>
-33.9062

> <Gold.PLP.part.repulsive>
0.4039

> <Gold.PLP.ligand.clash>
0.0000

> <Gold.PLP.ligand.torsion>
0.4569

> <Gold.PLP.Chemscore.Hbond>
1.0000

> <Gold.PLP.Chemscore.CHOScore>
0.0000

> <Gold.PLP.Chemscore.Metal>
0.0000

> <Gold.Chemscore.Hbonds>
donor molecule, donor type, donor heavy atom, donor atom, acceptor molecule, acceptor atom, score
      P1  H  7989  7998       L1     7  0.95

> <Gold.PLP.Chemscore.Internal.Correction>
0.0375

> <Gold.Rescore>
     Score         DG    S(hbond)    S(metal)    S(lipo)     H(rot)  DE(clash)    DE(int)     intcor
     10.15     -15.20       0.63        0.00     105.27       1.84       1.82       3.23       ----

> <Gold.Chemscore.Fitness>
10.1546

> <Gold.Chemscore.DG>
-15.2017

> <Gold.Chemscore.ZeroCoef>
-5.4800

> <Gold.Chemscore.Hbond>
0.6334

> <Gold.Chemscore.Metal>
0.0000

> <Gold.Chemscore.Lipo>
105.2675

> <Gold.Chemscore.Internal_Hbond>
0.0000

> <Gold.Chemscore.DEClash>
1.8162

> <Gold.Chemscore.DEInternal>
3.2309

> <Gold.Chemscore.Rot>
1.8399

> <Gold.Chemscore.Internal.Correction>
   9.000000E+99

> <Gold.Chemscore.Hbonds>
donor molecule, donor type, donor heavy atom, donor atom, acceptor molecule, acceptor atom, score
      P1  H  7989  7998       L1     7  0.12

> <Gold.Chemscore.Hbond.Weighted>
-2.1155

> <Gold.Chemscore.Metal.Weighted>
-0.0000

> <Gold.Chemscore.Lipo.Weighted>
-12.3163

> <Gold.Chemscore.Internal_Hbond.Weighted>
0.0000

> <Gold.Chemscore.DEClash.Weighted>
1.8162

> <Gold.Chemscore.DEInternal.Weighted>
3.2309

> <Gold.Chemscore.Rot.Weighted>
4.7101

> <Gold.Chemscore.Internal.Correction.Weighted>
   9.000000E+99

> <Gold.Protein.RotatedTorsions>
[ 6907 6896 6895 6894 ] final -100.05 input  -60.11 | X-H torsion
[ 7974 7965 7964 7962 ] final  124.96 input  175.53 | X-H torsion
[ 8008 7997 7996 7995 ] final   19.28 input   59.86 | X-H torsion
[ 10167 10162 10161 10158 ] final  -88.32 input  -65.29 | X-H torsion
[ 10718 10713 10712 10709 ] final -137.89 input   66.30 | X-H torsion
[ 10763 10752 10751 10750 ] final  174.60 input  -60.55 | X-H torsion
[ 11005 11000 10999 10996 ] final  124.96 input  -57.11 | X-H torsion

> <Gold.Protein.ActiveResidues>
 VAL166  LYS551  ARG553  GLY616  TRP617  ASP618  TYR619  PRO620  LYS621  CYS622 
 ASP623  PHE694  ASN695  SER759  ASP760  ASP761  ALA762  ILE779  LEU786  VAL792 
 PHE793  MET794  SER795  GLU796  ALA797  LYS798  CYS799  TRP800  GLU811  SER814 

> <Gold.Protein.RotatedAtoms>
  150.7102  134.0947  159.3943 H   0  0  0  0  0  0  0  0  0  0  0  0  # atno 6907 bound_to 6896
  151.8933  135.0405  160.0509 H   0  0  0  0  0  0  0  0  0  0  0  0  # atno 6908 bound_to 6896
  152.2474  133.5150  159.5342 H   0  0  0  0  0  0  0  0  0  0  0  0  # atno 6909 bound_to 6896
  145.0784  139.3676  143.4922 H   0  0  0  0  0  0  0  0  0  0  0  0  # atno 7974 bound_to 7965
  154.9184  140.3024  155.5229 H   0  0  0  0  0  0  0  0  0  0  0  0  # atno 8008 bound_to 7997
  156.3011  140.2376  156.4167 H   0  0  0  0  0  0  0  0  0  0  0  0  # atno 8009 bound_to 7997
  154.8356  140.0416  157.1495 H   0  0  0  0  0  0  0  0  0  0  0  0  # atno 8010 bound_to 7997
  140.3759  143.2772  151.9444 H   0  0  0  0  0  0  0  0  0  0  0  0  # atno 10167 bound_to 10162
  156.2931  130.7386  151.1418 H   0  0  0  0  0  0  0  0  0  0  0  0  # atno 10718 bound_to 10713
  154.4562  135.2766  155.1746 H   0  0  0  0  0  0  0  0  0  0  0  0  # atno 10763 bound_to 10752
  154.3552  135.6141  153.5666 H   0  0  0  0  0  0  0  0  0  0  0  0  # atno 10764 bound_to 10752
  152.9851  135.5821  154.4916 H   0  0  0  0  0  0  0  0  0  0  0  0  # atno 10765 bound_to 10752
  139.9384  134.9638  156.8488 H   0  0  0  0  0  0  0  0  0  0  0  0  # atno 11005 bound_to 11000
  146.3530  140.0562  142.8632 LP  0  0  0  0  0  0  0  0  0  0  0  0  # atno 17320 bound_to 7965
  145.1208  140.9461  143.4601 LP  0  0  0  0  0  0  0  0  0  0  0  0  # atno 17321 bound_to 7965
  139.4799  144.5864  151.7846 LP  0  0  0  0  0  0  0  0  0  0  0  0  # atno 17342 bound_to 10162
  140.4987  144.1202  150.5966 LP  0  0  0  0  0  0  0  0  0  0  0  0  # atno 17343 bound_to 10162
  157.7348  131.0578  150.5505 LP  0  0  0  0  0  0  0  0  0  0  0  0  # atno 17370 bound_to 10713
  156.5623  130.4259  149.6057 LP  0  0  0  0  0  0  0  0  0  0  0  0  # atno 17371 bound_to 10713
  140.6016  134.0166  155.7540 LP  0  0  0  0  0  0  0  0  0  0  0  0  # atno 17394 bound_to 11000
  141.1007  133.9772  157.3083 LP  0  0  0  0  0  0  0  0  0  0  0  0  # atno 17395 bound_to 11000

$$$$
