AV-unprocessed.smi:1762|AV-procd|sdf|7116|dock4
  -GOLD-   22720 8343D 1   1.00000     0.00000
 Structure written by MMmdl.
 53 54  0  0  0  0  0  0  0  0  2 V2000
  142.8887  135.0529  152.8907 C   0  0  0  0  0  0  0  0  0  0  0  0
  144.2457  134.9253  152.1750 C   0  0  1  0  0  0  0  0  0  0  0  0
  145.3289  134.2385  153.0311 C   0  0  0  0  0  0  0  0  0  0  0  0
  145.0927  132.7719  153.1452 N   0  3  2  0  0  0  0  0  0  0  0  0
  146.0682  132.0295  154.0162 C   0  0  2  0  0  0  0  0  0  0  0  0
  146.2849  132.7670  155.3553 C   0  0  0  0  0  0  0  0  0  0  0  0
  147.3885  133.2398  155.6305 O   0  0  0  0  0  0  0  0  0  0  0  0
  145.2259  132.8594  156.1732 N   0  0  0  0  0  0  0  0  0  0  0  0
  145.2454  133.5222  157.4699 C   0  0  0  0  0  0  0  0  0  0  0  0
  146.1739  132.7829  158.4430 C   0  0  0  0  0  0  0  0  0  0  0  0
  146.6044  133.6601  159.6037 C   0  0  0  0  0  0  0  0  0  0  0  0
  146.3604  133.2637  160.9360 C   0  0  0  0  0  0  0  0  0  0  0  0
  146.7878  134.1109  161.9766 C   0  0  0  0  0  0  0  0  0  0  0  0
  147.4393  135.3150  161.6471 C   0  0  0  0  0  0  0  0  0  0  0  0
  147.6358  135.6197  160.2853 C   0  0  0  0  0  0  0  0  0  0  0  0
  147.2302  134.8143  159.2796 N   0  0  0  0  0  0  0  0  0  0  0  0
  147.4420  131.7216  153.3288 C   0  0  0  0  0  0  0  0  0  0  0  0
  148.3912  130.8885  154.2129 C   0  0  0  0  0  0  0  0  0  0  0  0
  148.1741  132.9726  152.7988 C   0  0  0  0  0  0  0  0  0  0  0  0
  144.9808  132.1975  151.7742 C   0  0  0  0  0  0  0  0  0  0  0  0
  143.8633  132.8884  150.9751 C   0  0  2  0  0  0  0  0  0  0  0  0
  143.7730  132.3581  149.5399 C   0  0  0  0  0  0  0  0  0  0  0  0
  144.1296  134.2842  150.9075 O   0  0  0  0  0  0  0  0  0  0  0  0
  142.9804  135.6712  153.7841 H   0  0  0  0  0  0  0  0  0  0  0  0
  142.4934  134.0878  153.2066 H   0  0  0  0  0  0  0  0  0  0  0  0
  142.1492  135.5222  152.2414 H   0  0  0  0  0  0  0  0  0  0  0  0
  144.5848  135.9404  151.9657 H   0  0  0  0  0  0  0  0  0  0  0  0
  146.3123  134.4061  152.5890 H   0  0  0  0  0  0  0  0  0  0  0  0
  145.3308  134.7284  154.0025 H   0  0  0  0  0  0  0  0  0  0  0  0
  145.6033  131.0672  154.2402 H   0  0  0  0  0  0  0  0  0  0  0  0
  144.3522  132.4455  155.8811 H   0  0  0  0  0  0  0  0  0  0  0  0
  145.5796  134.5527  157.3404 H   0  0  0  0  0  0  0  0  0  0  0  0
  144.2335  133.5589  157.8770 H   0  0  0  0  0  0  0  0  0  0  0  0
  145.6735  131.8971  158.8375 H   0  0  0  0  0  0  0  0  0  0  0  0
  147.0599  132.4257  157.9160 H   0  0  0  0  0  0  0  0  0  0  0  0
  145.8599  132.3324  161.1579 H   0  0  0  0  0  0  0  0  0  0  0  0
  146.6199  133.8416  163.0090 H   0  0  0  0  0  0  0  0  0  0  0  0
  147.7812  135.9883  162.4191 H   0  0  0  0  0  0  0  0  0  0  0  0
  148.1327  136.5341  159.9966 H   0  0  0  0  0  0  0  0  0  0  0  0
  147.2488  131.0718  152.4763 H   0  0  0  0  0  0  0  0  0  0  0  0
  148.7594  131.4544  155.0691 H   0  0  0  0  0  0  0  0  0  0  0  0
  149.2631  130.5616  153.6452 H   0  0  0  0  0  0  0  0  0  0  0  0
  147.8953  129.9939  154.5903 H   0  0  0  0  0  0  0  0  0  0  0  0
  148.5145  133.6151  153.6110 H   0  0  0  0  0  0  0  0  0  0  0  0
  147.5407  133.5746  152.1477 H   0  0  0  0  0  0  0  0  0  0  0  0
  149.0547  132.6902  152.2210 H   0  0  0  0  0  0  0  0  0  0  0  0
  145.9359  132.3061  151.2575 H   0  0  0  0  0  0  0  0  0  0  0  0
  144.7626  131.1304  151.8042 H   0  0  0  0  0  0  0  0  0  0  0  0
  142.9025  132.7145  151.4598 H   0  0  0  0  0  0  0  0  0  0  0  0
  143.5606  131.2887  149.5284 H   0  0  0  0  0  0  0  0  0  0  0  0
  144.7059  132.5200  148.9989 H   0  0  0  0  0  0  0  0  0  0  0  0
  142.9772  132.8598  148.9886 H   0  0  0  0  0  0  0  0  0  0  0  0
  144.1893  132.6603  153.5836 H   0  0  0  0  0  0  0  0  0  0  0  0
  1  2  1  0  0  0  0
  1 24  1  0  0  0  0
  1 25  1  0  0  0  0
  1 26  1  0  0  0  0
  2 23  1  0  0  0  0
  2  3  1  0  0  0  0
  2 27  1  0  0  0  0
  3  4  1  0  0  0  0
  3 28  1  0  0  0  0
  3 29  1  0  0  0  0
  4  5  1  0  0  0  0
  4 20  1  0  0  0  0
  4 53  1  0  0  0  0
  5  6  1  0  0  0  0
  5 17  1  0  0  0  0
  5 30  1  0  0  0  0
  6  7  2  0  0  0  0
  6  8  1  0  0  0  0
  8  9  1  0  0  0  0
  8 31  1  0  0  0  0
  9 10  1  0  0  0  0
  9 32  1  0  0  0  0
  9 33  1  0  0  0  0
 10 11  1  0  0  0  0
 10 34  1  0  0  0  0
 10 35  1  0  0  0  0
 11 16  1  0  0  0  0
 11 12  2  0  0  0  0
 12 13  1  0  0  0  0
 12 36  1  0  0  0  0
 13 14  2  0  0  0  0
 13 37  1  0  0  0  0
 14 15  1  0  0  0  0
 14 38  1  0  0  0  0
 15 16  2  0  0  0  0
 15 39  1  0  0  0  0
 17 18  1  0  0  0  0
 17 19  1  0  0  0  0
 17 40  1  0  0  0  0
 18 41  1  0  0  0  0
 18 42  1  0  0  0  0
 18 43  1  0  0  0  0
 19 44  1  0  0  0  0
 19 45  1  0  0  0  0
 19 46  1  0  0  0  0
 20 21  1  0  0  0  0
 20 47  1  0  0  0  0
 20 48  1  0  0  0  0
 21 22  1  0  0  0  0
 21 23  1  0  0  0  0
 21 49  1  0  0  0  0
 22 50  1  0  0  0  0
 22 51  1  0  0  0  0
 22 52  1  0  0  0  0
M  CHG  1   4   1
M  END
> <s_m_source_file>
AV-unprocessed.smi

> <i_m_source_file_index>
1762

> <i_lp_mmshare_version>
43012

> <i_f3d_flags>
0

> <s_epik_input>
W0NIM11bQ0BASF0xW0NIMl1OKFtDSDJdW0NASF0oTzEpW0NIM10pW0NAQEhdKFtDSF0oW0NIM10pW0NIM10pQyg9TylbTkhdW0NIMl1bQ0gyXWMyW2NIXVtjSF1bY0hdW2NIXW4y

> <s_epik_cmdline>
J2VwaWtfcHl0aG9uJywgJy1waCcsICc3LjAnLCAnLXRuJywgJzgnLCAnLW1hJywgJzIwMCcsICctbWV0YWxfYmluZGluZycsICctaW1hZScsICc8aW5maWxlLm1hZT4nLCAnLW9tYWUnLCAnPG91dGZpbGUubWFlPic=

> <r_epik_Ionization_Penalty>
2.27005

> <r_epik_Ionization_Penalty_Charging>
2.24983

> <r_epik_Ionization_Penalty_Neutral>
0.0202209

> <r_epik_State_Penalty>
2.40228

> <r_epik_Charging_Adjusted_Penalty>
4.65211

> <i_epik_Tot_Q>
1

> <i_epik_Tot_abs_Q>
1

> <r_epik_Metal_State_Penalty>
2.40762

> <b_epik_Metal_Only>
0

> <s_lp_Force_Field>
OPLS_2005

> <r_lp_Energy>
24.3613

> <b_lp_Chiralities_Consistent>
1

> <s_lp_Variant>
AV-unprocessed.smi:1762-18

> <Gold.Version>
5.8.1

> <Gold.Id.Protein>
6NUR|6NUR_protein|mol2

> <Gold.PLP.Fitness>
41.9949

> <Gold.PLP.PLP>
-33.6611

> <Gold.PLP.part.hbond>
-2.0000

> <Gold.PLP.part.metal>
0.0000

> <Gold.PLP.part.buried>
-5.5716

> <Gold.PLP.part.nonpolar>
-27.5303

> <Gold.PLP.part.repulsive>
0.1806

> <Gold.PLP.ligand.clash>
0.0000

> <Gold.PLP.ligand.torsion>
0.5002

> <Gold.PLP.Chemscore.Hbond>
3.0000

> <Gold.PLP.Chemscore.CHOScore>
0.0000

> <Gold.PLP.Chemscore.Metal>
0.0000

> <Gold.Chemscore.Hbonds>
donor molecule, donor type, donor heavy atom, donor atom, acceptor molecule, acceptor atom, score
      L1  H     4    53       P1 10957  1.53
      L1  H     8    31       P1 10957  0.84

> <Gold.PLP.Chemscore.Internal.Correction>
0.3342

> <Gold.Rescore>
     Score         DG    S(hbond)    S(metal)    S(lipo)     H(rot)  DE(clash)    DE(int)     intcor
     14.98     -16.93       1.69        0.00      85.93       1.66       0.06       1.90       ----

> <Gold.Chemscore.Fitness>
14.9759

> <Gold.Chemscore.DG>
-16.9345

> <Gold.Chemscore.ZeroCoef>
-5.4800

> <Gold.Chemscore.Hbond>
1.6944

> <Gold.Chemscore.Metal>
0.0000

> <Gold.Chemscore.Lipo>
85.9302

> <Gold.Chemscore.Internal_Hbond>
0.0000

> <Gold.Chemscore.DEClash>
0.0609

> <Gold.Chemscore.DEInternal>
1.8978

> <Gold.Chemscore.Rot>
1.6635

> <Gold.Chemscore.Internal.Correction>
   9.000000E+99

> <Gold.Chemscore.Hbonds>
donor molecule, donor type, donor heavy atom, donor atom, acceptor molecule, acceptor atom, score
      L1  H     4    53       P1 10957  0.38
      L1  H     8    31       P1 10957  0.83

> <Gold.Chemscore.Hbond.Weighted>
-5.6593

> <Gold.Chemscore.Metal.Weighted>
-0.0000

> <Gold.Chemscore.Lipo.Weighted>
-10.0538

> <Gold.Chemscore.Internal_Hbond.Weighted>
0.0000

> <Gold.Chemscore.DEClash.Weighted>
0.0609

> <Gold.Chemscore.DEInternal.Weighted>
1.8978

> <Gold.Chemscore.Rot.Weighted>
4.2586

> <Gold.Chemscore.Internal.Correction.Weighted>
   9.000000E+99

> <Gold.Protein.RotatedTorsions>
[ 6907 6896 6895 6894 ] final  125.60 input  -60.11 | X-H torsion
[ 7974 7965 7964 7962 ] final -133.97 input  175.53 | X-H torsion
[ 8008 7997 7996 7995 ] final -107.40 input   59.86 | X-H torsion
[ 10167 10162 10161 10158 ] final   74.55 input  -65.29 | X-H torsion
[ 10718 10713 10712 10709 ] final   97.49 input   66.30 | X-H torsion
[ 10763 10752 10751 10750 ] final   65.35 input  -60.55 | X-H torsion
[ 11005 11000 10999 10996 ] final  -22.37 input  -57.11 | X-H torsion

> <Gold.Protein.ActiveResidues>
 VAL166  LYS551  ARG553  GLY616  TRP617  ASP618  TYR619  PRO620  LYS621  CYS622 
 ASP623  PHE694  ASN695  SER759  ASP760  ASP761  ALA762  ILE779  LEU786  VAL792 
 PHE793  MET794  SER795  GLU796  ALA797  LYS798  CYS799  TRP800  GLU811  SER814 

> <Gold.Protein.RotatedAtoms>
  152.3977  133.6771  159.6289 H   0  0  0  0  0  0  0  0  0  0  0  0  # atno 6907 bound_to 6896
  150.7873  133.8845  159.3304 H   0  0  0  0  0  0  0  0  0  0  0  0  # atno 6908 bound_to 6896
  151.6618  135.0990  160.0232 H   0  0  0  0  0  0  0  0  0  0  0  0  # atno 6909 bound_to 6896
  144.9145  140.6937  143.5004 H   0  0  0  0  0  0  0  0  0  0  0  0  # atno 7974 bound_to 7965
  154.9287  140.0405  157.2036 H   0  0  0  0  0  0  0  0  0  0  0  0  # atno 8008 bound_to 7997
  154.8182  140.2879  155.5784 H   0  0  0  0  0  0  0  0  0  0  0  0  # atno 8009 bound_to 7997
  156.2977  140.2524  156.3084 H   0  0  0  0  0  0  0  0  0  0  0  0  # atno 8010 bound_to 7997
  140.0126  144.5603  150.7646 H   0  0  0  0  0  0  0  0  0  0  0  0  # atno 10167 bound_to 10162
  157.6911  131.0611  150.4651 H   0  0  0  0  0  0  0  0  0  0  0  0  # atno 10718 bound_to 10713
  153.0093  135.5360  154.6653 H   0  0  0  0  0  0  0  0  0  0  0  0  # atno 10763 bound_to 10752
  154.5851  135.2853  155.0695 H   0  0  0  0  0  0  0  0  0  0  0  0  # atno 10764 bound_to 10752
  154.1809  135.6516  153.5086 H   0  0  0  0  0  0  0  0  0  0  0  0  # atno 10765 bound_to 10752
  140.8650  133.7761  156.0119 H   0  0  0  0  0  0  0  0  0  0  0  0  # atno 11005 bound_to 11000
  145.3399  139.1735  143.4491 LP  0  0  0  0  0  0  0  0  0  0  0  0  # atno 17320 bound_to 7965
  146.3175  140.3439  142.8650 LP  0  0  0  0  0  0  0  0  0  0  0  0  # atno 17321 bound_to 7965
  140.7375  143.2767  151.3722 LP  0  0  0  0  0  0  0  0  0  0  0  0  # atno 17342 bound_to 10162
  139.6195  144.0936  152.2377 LP  0  0  0  0  0  0  0  0  0  0  0  0  # atno 17343 bound_to 10162
  156.4993  130.4113  149.6362 LP  0  0  0  0  0  0  0  0  0  0  0  0  # atno 17370 bound_to 10713
  156.3343  130.7348  151.2283 LP  0  0  0  0  0  0  0  0  0  0  0  0  # atno 17371 bound_to 10713
  140.8639  134.2808  157.5222 LP  0  0  0  0  0  0  0  0  0  0  0  0  # atno 17394 bound_to 11000
  139.8709  134.9532  156.4139 LP  0  0  0  0  0  0  0  0  0  0  0  0  # atno 17395 bound_to 11000

$$$$
