AV-unprocessed.smi:69|AV-procd|sdf|644|dock3
  -GOLD-   2262016533D 1   1.00000     0.00000
 Structure written by MMmdl.
 32 34  0  0  0  0  0  0  0  0  1 V2000
  150.3140  132.7072  154.8713 N   0  0  0  0  0  0  0  0  0  0  0  0
  149.4991  133.7700  154.9197 C   0  0  0  0  0  0  0  0  0  0  0  0
  148.1975  133.6003  154.5868 N   0  0  0  0  0  0  0  0  0  0  0  0
  147.3653  134.6468  154.6262 C   0  0  0  0  0  0  0  0  0  0  0  0
  147.6285  135.9133  154.9621 N   0  0  0  0  0  0  0  0  0  0  0  0
  148.9414  136.0778  155.2984 C   0  0  0  0  0  0  0  0  0  0  0  0
  149.9367  135.0630  155.3021 C   0  0  0  0  0  0  0  0  0  0  0  0
  151.1558  135.5996  155.6943 N   0  0  0  0  0  0  0  0  0  0  0  0
  150.8908  136.8615  155.9072 C   0  0  0  0  0  0  0  0  0  0  0  0
  149.5800  137.2340  155.6891 N   0  0  0  0  0  0  0  0  0  0  0  0
  148.9348  138.5798  155.8360 C   0  0  1  0  0  0  0  0  0  0  0  0
  149.8591  139.4494  156.4195 O   0  0  0  0  0  0  0  0  0  0  0  0
  150.4057  140.3101  155.4260 C   0  0  2  0  0  0  0  0  0  0  0  0
  150.9851  141.5687  156.0886 C   0  0  0  0  0  0  0  0  0  0  0  0
  149.9825  142.2203  156.8388 O   0  0  0  0  0  0  0  0  0  0  0  0
  149.1757  140.5762  154.5587 C   0  0  1  0  0  0  0  0  0  0  0  0
  149.4963  141.1304  153.2961 O   0  0  0  0  0  0  0  0  0  0  0  0
  148.5268  139.1964  154.4754 C   0  0  1  0  0  0  0  0  0  0  0  0
  148.9789  138.4575  153.3495 O   0  0  0  0  0  0  0  0  0  0  0  0
  148.0977  138.4144  156.5155 H   0  0  0  0  0  0  0  0  0  0  0  0
  151.1636  139.7829  154.8429 H   0  0  0  0  0  0  0  0  0  0  0  0
  148.5020  141.2565  155.0821 H   0  0  0  0  0  0  0  0  0  0  0  0
  147.4403  139.2732  154.4224 H   0  0  0  0  0  0  0  0  0  0  0  0
  151.2885  132.8119  155.1148 H   0  0  0  0  0  0  0  0  0  0  0  0
  149.9527  131.8061  154.5936 H   0  0  0  0  0  0  0  0  0  0  0  0
  146.3424  134.4395  154.3485 H   0  0  0  0  0  0  0  0  0  0  0  0
  151.6532  137.5543  156.2318 H   0  0  0  0  0  0  0  0  0  0  0  0
  151.7850  141.2972  156.7782 H   0  0  0  0  0  0  0  0  0  0  0  0
  151.4103  142.2486  155.3496 H   0  0  0  0  0  0  0  0  0  0  0  0
  149.7318  143.0095  156.3835 H   0  0  0  0  0  0  0  0  0  0  0  0
  149.3781  140.4633  152.6373 H   0  0  0  0  0  0  0  0  0  0  0  0
  149.0956  139.0560  152.6273 H   0  0  0  0  0  0  0  0  0  0  0  0
  1  2  1  0  0  0  0
  1 24  1  0  0  0  0
  1 25  1  0  0  0  0
  2  7  1  0  0  0  0
  2  3  2  0  0  0  0
  3  4  1  0  0  0  0
  4  5  2  0  0  0  0
  4 26  1  0  0  0  0
  5  6  1  0  0  0  0
  6 10  1  0  0  0  0
  6  7  2  0  0  0  0
  7  8  1  0  0  0  0
  8  9  2  0  0  0  0
  9 10  1  0  0  0  0
  9 27  1  0  0  0  0
 10 11  1  0  0  0  0
 11 20  1  0  0  0  0
 11 18  1  0  0  0  0
 11 12  1  0  0  0  0
 12 13  1  0  0  0  0
 13 21  1  0  0  0  0
 13 14  1  0  0  0  0
 13 16  1  0  0  0  0
 14 15  1  0  0  0  0
 14 28  1  0  0  0  0
 14 29  1  0  0  0  0
 15 30  1  0  0  0  0
 16 22  1  0  0  0  0
 16 17  1  0  0  0  0
 16 18  1  0  0  0  0
 17 31  1  0  0  0  0
 18 23  1  0  0  0  0
 18 19  1  0  0  0  0
 19 32  1  0  0  0  0
M  END
> <s_m_source_file>
AV-unprocessed.smi

> <i_m_source_file_index>
69

> <i_lp_mmshare_version>
43012

> <i_f3d_flags>
0

> <s_epik_input>
bjFbY0hdbmMoW05IMl0pYyhjMTIpbltjSF1uMltDQEBIXTNPW0NASF0oW0NIMl1bT0hdKVtDQEBIXShbT0hdKVtDQEhdM1tPSF0=

> <s_epik_cmdline>
J2VwaWtfcHl0aG9uJywgJy1waCcsICc3LjAnLCAnLXRuJywgJzgnLCAnLW1hJywgJzIwMCcsICctbWV0YWxfYmluZGluZycsICctaW1hZScsICc8aW5maWxlLm1hZT4nLCAnLW9tYWUnLCAnPG91dGZpbGUubWFlPic=

> <r_lp_tautomer_probability>
1

> <r_epik_Ionization_Penalty>
0.000428445

> <r_epik_Ionization_Penalty_Charging>
0

> <r_epik_Ionization_Penalty_Neutral>
0.000428445

> <r_epik_State_Penalty>
-0

> <r_epik_Charging_Adjusted_Penalty>
0

> <i_epik_Tot_Q>
0

> <i_epik_Tot_abs_Q>
0

> <r_epik_Metal_State_Penalty>
-0

> <b_epik_Metal_Only>
0

> <s_epik_Chemistry_Notes>
This compound contains an acetal/aminal-like group ( X-CH(R)-Y where X, Y are N, S, or O) that may be acid/base labile, releasing an aldehyde.

> <s_lp_Force_Field>
OPLS_2005

> <r_lp_Energy>
41.389

> <b_lp_Chiralities_Consistent>
1

> <s_lp_Variant>
AV-unprocessed.smi:69-2

> <Gold.Version>
5.8.1

> <Gold.Id.Protein>
6NUR|6NUR_protein|mol2

> <Gold.PLP.Fitness>
39.1509

> <Gold.PLP.PLP>
-24.4572

> <Gold.PLP.part.hbond>
-6.4544

> <Gold.PLP.part.metal>
0.0000

> <Gold.PLP.part.buried>
-3.6617

> <Gold.PLP.part.nonpolar>
-13.8422

> <Gold.PLP.part.repulsive>
0.2447

> <Gold.PLP.ligand.clash>
0.0000

> <Gold.PLP.ligand.torsion>
0.1482

> <Gold.PLP.Chemscore.Hbond>
4.9740

> <Gold.PLP.Chemscore.CHOScore>
0.0000

> <Gold.PLP.Chemscore.Metal>
0.0000

> <Gold.Chemscore.Hbonds>
donor molecule, donor type, donor heavy atom, donor atom, acceptor molecule, acceptor atom, score
      L1  H    15    30       P1  8028  0.98
      L1  H    17    31       P1  7957  0.93
      L1  H    19    32       P1  7957  1.00
      P1  H  7989  7998       L1    17  0.08
      P1  H  8011  8017       L1    17  0.95
      P1  H 10752 10764       L1     8  0.98

> <Gold.PLP.Chemscore.Internal.Correction>
0.0682

> <Gold.Rescore>
     Score         DG    S(hbond)    S(metal)    S(lipo)     H(rot)  DE(clash)    DE(int)     intcor
     12.24     -12.99       4.24        0.00      31.26       4.03       0.40       0.36       ----

> <Gold.Chemscore.Fitness>
12.2357

> <Gold.Chemscore.DG>
-12.9948

> <Gold.Chemscore.ZeroCoef>
-5.4800

> <Gold.Chemscore.Hbond>
4.2420

> <Gold.Chemscore.Metal>
0.0000

> <Gold.Chemscore.Lipo>
31.2608

> <Gold.Chemscore.Internal_Hbond>
0.0000

> <Gold.Chemscore.DEClash>
0.4034

> <Gold.Chemscore.DEInternal>
0.3556

> <Gold.Chemscore.Rot>
4.0277

> <Gold.Chemscore.Internal.Correction>
   9.000000E+99

> <Gold.Chemscore.Hbonds>
donor molecule, donor type, donor heavy atom, donor atom, acceptor molecule, acceptor atom, score
      L1  H    15    30       P1  8028  0.91
      L1  H    17    31       P1  7957  0.85
      L1  H    19    32       P1  7957  1.00
      P1  H  8011  8017       L1    17  0.21
      P1  H 10752 10764       L1     8  0.55

> <Gold.Chemscore.Hbond.Weighted>
-14.1682

> <Gold.Chemscore.Metal.Weighted>
-0.0000

> <Gold.Chemscore.Lipo.Weighted>
-3.6575

> <Gold.Chemscore.Internal_Hbond.Weighted>
0.0000

> <Gold.Chemscore.DEClash.Weighted>
0.4034

> <Gold.Chemscore.DEInternal.Weighted>
0.3556

> <Gold.Chemscore.Rot.Weighted>
10.3110

> <Gold.Chemscore.Internal.Correction.Weighted>
   9.000000E+99

> <Gold.Protein.RotatedTorsions>
[ 6907 6896 6895 6894 ] final  -51.52 input  -60.11 | X-H torsion
[ 7974 7965 7964 7962 ] final  133.34 input  175.53 | X-H torsion
[ 8008 7997 7996 7995 ] final -162.32 input   59.86 | X-H torsion
[ 10167 10162 10161 10158 ] final  162.58 input  -65.29 | X-H torsion
[ 10718 10713 10712 10709 ] final   84.43 input   66.30 | X-H torsion
[ 10763 10752 10751 10750 ] final  -50.90 input  -60.55 | X-H torsion
[ 11005 11000 10999 10996 ] final   89.68 input  -57.11 | X-H torsion

> <Gold.Protein.ActiveResidues>
 VAL166  LYS551  ARG553  GLY616  TRP617  ASP618  TYR619  PRO620  LYS621  CYS622 
 ASP623  PHE694  ASN695  SER759  ASP760  ASP761  ALA762  ILE779  LEU786  VAL792 
 PHE793  MET794  SER795  GLU796  ALA797  LYS798  CYS799  TRP800  GLU811  SER814 

> <Gold.Protein.RotatedAtoms>
  150.8603  134.7953  159.7077 H   0  0  0  0  0  0  0  0  0  0  0  0  # atno 6907 bound_to 6896
  152.4642  134.5110  159.9764 H   0  0  0  0  0  0  0  0  0  0  0  0  # atno 6908 bound_to 6896
  151.5216  133.3427  159.2938 H   0  0  0  0  0  0  0  0  0  0  0  0  # atno 6909 bound_to 6896
  144.9875  139.4440  143.5355 H   0  0  0  0  0  0  0  0  0  0  0  0  # atno 7974 bound_to 7965
  155.8051  140.0897  157.1935 H   0  0  0  0  0  0  0  0  0  0  0  0  # atno 8008 bound_to 7997
  154.3981  140.1465  156.3379 H   0  0  0  0  0  0  0  0  0  0  0  0  # atno 8009 bound_to 7997
  155.8423  140.3438  155.5642 H   0  0  0  0  0  0  0  0  0  0  0  0  # atno 8010 bound_to 7997
  139.4862  144.4423  151.8936 H   0  0  0  0  0  0  0  0  0  0  0  0  # atno 10167 bound_to 10162
  157.6898  131.0133  150.2671 H   0  0  0  0  0  0  0  0  0  0  0  0  # atno 10718 bound_to 10713
  154.1178  135.6539  153.4897 H   0  0  0  0  0  0  0  0  0  0  0  0  # atno 10763 bound_to 10752
  153.0235  135.5263  154.7127 H   0  0  0  0  0  0  0  0  0  0  0  0  # atno 10764 bound_to 10752
  154.6326  135.2978  155.0168 H   0  0  0  0  0  0  0  0  0  0  0  0  # atno 10765 bound_to 10752
  139.8870  134.8567  156.3177 H   0  0  0  0  0  0  0  0  0  0  0  0  # atno 11005 bound_to 11000
  146.3423  139.9186  142.8770 LP  0  0  0  0  0  0  0  0  0  0  0  0  # atno 17320 bound_to 7965
  145.2332  140.9981  143.3978 LP  0  0  0  0  0  0  0  0  0  0  0  0  # atno 17321 bound_to 7965
  140.3876  144.2657  150.5902 LP  0  0  0  0  0  0  0  0  0  0  0  0  # atno 17342 bound_to 10162
  140.5176  143.2274  151.8439 LP  0  0  0  0  0  0  0  0  0  0  0  0  # atno 17343 bound_to 10162
  156.3240  130.3790  149.7549 LP  0  0  0  0  0  0  0  0  0  0  0  0  # atno 17370 bound_to 10713
  156.5110  130.8172  151.3169 LP  0  0  0  0  0  0  0  0  0  0  0  0  # atno 17371 bound_to 10713
  140.9808  133.7269  156.0669 LP  0  0  0  0  0  0  0  0  0  0  0  0  # atno 17394 bound_to 11000
  140.7752  134.3788  157.5499 LP  0  0  0  0  0  0  0  0  0  0  0  0  # atno 17395 bound_to 11000

$$$$
