#       Name:                AV-unprocessed.smi:374
#       Creating user name   scv26
#       Creation time:       Thu Mar 26 22:39:08 2020


#       File generated by GOLD software.
#

@<TRIPOS>MOLECULE
AV-unprocessed.smi:374
    41    42     1
SMALL
NO_CHARGES


@<TRIPOS>ATOM
      1 ****        -3.2171  -2.7293  -2.0191 C.3            1 S1                 0.0000
      2 ****        -2.5045  -1.7236  -1.0961 C.3            1 S1                 0.0000
      3 ****        -1.0076  -1.5794  -1.4109 C.2            1 S1                 0.0000
      4 ****        -0.4007  -2.4639  -2.0160 O.2            1 S1                 0.0000
      5 ****        -0.4215  -0.4518  -0.9834 N.am           1 S1                 0.0000
      6 ****         0.9902  -0.1367  -1.1555 C.3            1 S1                 0.0000
      7 ****         1.3583   1.1981  -0.4799 C.3            1 S1                 0.0000
      8 ****         2.8285   1.5684  -0.7628 C.3            1 S1                 0.0000
      9 ****         3.2166   2.9041  -0.1083 C.3            1 S1                 0.0000
     10 ****         2.9500   2.8801   1.4042 C.3            1 S1                 0.0000
     11 ****         1.4872   2.5175   1.7008 C.3            1 S1                 0.0000
     12 ****         1.0970   1.1834   1.0435 C.3            1 S1                 0.0000
     13 ****        -2.6926  -2.0754   0.3046 N.pl3          1 S1                 0.0000
     14 ****        -2.3146  -3.1548   0.9956 C.2            1 S1                 0.0000
     15 ****        -2.6634  -3.1234   2.2741 N.2            1 S1                 0.0000
     16 ****        -3.2967  -1.9133   2.3075 C.2            1 S1                 0.0000
     17 ****        -3.3418  -1.2446   1.1551 N.2            1 S1                 0.0000
     18 ****        -3.0848  -2.4653  -3.0688 H              1 S1                 0.0000
     19 ****        -4.2889  -2.7455  -1.8194 H              1 S1                 0.0000
     20 ****        -2.8410  -3.7438  -1.8804 H              1 S1                 0.0000
     21 ****        -2.9633  -0.7471  -1.2635 H              1 S1                 0.0000
     22 ****        -0.9872   0.2244  -0.4908 H              1 S1                 0.0000
     23 ****         1.5959  -0.9454  -0.7429 H              1 S1                 0.0000
     24 ****         1.2098  -0.0870  -2.2232 H              1 S1                 0.0000
     25 ****         0.7316   1.9757  -0.9197 H              1 S1                 0.0000
     26 ****         3.4847   0.7797  -0.3925 H              1 S1                 0.0000
     27 ****         2.9977   1.6291  -1.8385 H              1 S1                 0.0000
     28 ****         4.2689   3.1179  -0.2964 H              1 S1                 0.0000
     29 ****         2.6495   3.7150  -0.5673 H              1 S1                 0.0000
     30 ****         3.6106   2.1545   1.8805 H              1 S1                 0.0000
     31 ****         3.1897   3.8504   1.8402 H              1 S1                 0.0000
     32 ****         1.3300   2.4605   2.7783 H              1 S1                 0.0000
     33 ****         0.8333   3.3101   1.3347 H              1 S1                 0.0000
     34 ****         0.0455   0.9812   1.2496 H              1 S1                 0.0000
     35 ****         1.6614   0.3723   1.5056 H              1 S1                 0.0000
     36 ****        -1.7724  -3.9784   0.5540 H              1 S1                 0.0000
     37 ****        -3.7368  -1.5124   3.2085 H              1 S1                 0.0000
     38 ****        -0.8823  -3.2898  -2.3095 LP             1 S1                 0.0000
     39 ****         0.5736  -2.3563  -2.2139 LP             1 S1                 0.0000
     40 ****        -2.5082  -3.7911   3.0021 LP             1 S1                 0.0000
     41 ****        -3.7523  -0.3526   0.9658 LP             1 S1                 0.0000
@<TRIPOS>BOND
    1    1    2 1     
    2    1   18 1     
    3    1   19 1     
    4    1   20 1     
    5    2    3 1     
    6    2   13 1     
    7    2   21 1     
    8    3    4 2     
    9    3    5 am    
   10    5    6 1     
   11    5   22 1     
   12    6    7 1     
   13    6   23 1     
   14    6   24 1     
   15    7   12 1     
   16    7    8 1     
   17    7   25 1     
   18    8    9 1     
   19    8   26 1     
   20    8   27 1     
   21    9   10 1     
   22    9   28 1     
   23    9   29 1     
   24   10   11 1     
   25   10   30 1     
   26   10   31 1     
   27   11   12 1     
   28   11   32 1     
   29   11   33 1     
   30   12   34 1     
   31   12   35 1     
   32   13   17 1     
   33   13   14 1     
   34   14   15 2     
   35   14   36 1     
   36   15   16 1     
   37   16   17 2     
   38   16   37 1     
   39    4   38 1     
   40    4   39 1     
   41   15   40 1     
   42   17   41 1     
@<TRIPOS>SUBSTRUCTURE
      1 S1             1
@<TRIPOS>SET
LONE_PAIRS      STATIC     ATOMS    <user>   **** ""
4 38 39 40 41
DONOR_HYDROGENS      STATIC     ATOMS    <user>   **** ""
1 22
ATOM$BLUE        STATIC     ATOMS    COLORGROUP SYSTEM
4 38 39 40 41
ATOM$RED        STATIC     ATOMS    COLORGROUP SYSTEM
1 22
