AV-unprocessed.smi:265|AV-procd|sdf|2018|dock9
  -GOLD-   2262021223D 1   1.00000     0.00000
 Structure written by MMmdl.
 52 56  0  0  0  0  0  0  0  0  1 V2000
  153.0974  141.7223  159.6716 C   0  0  0  0  0  0  0  0  0  0  0  0
  152.0436  142.8408  159.6773 C   0  0  1  0  0  0  0  0  0  0  0  0
  152.7347  144.0798  159.8196 O   0  0  0  0  0  0  0  0  0  0  0  0
  152.0221  145.0906  159.1285 C   0  0  0  0  0  0  0  0  0  0  0  0
  151.5592  144.3666  157.8741 C   0  0  0  0  0  0  0  0  0  0  0  0
  151.1717  142.9868  158.3981 C   0  0  2  0  0  0  0  0  0  0  0  0
  149.8151  143.0419  158.8084 O   0  0  0  0  0  0  0  0  0  0  0  0
  151.3049  141.8597  157.3406 C   0  0  0  0  0  0  0  0  0  0  0  0
  150.5263  140.6721  157.6586 N   0  0  0  0  0  0  0  0  0  0  0  0
  149.2045  140.4490  157.3460 C   0  0  0  0  0  0  0  0  0  0  0  0
  148.7255  139.3010  157.7397 N   0  0  0  0  0  0  0  0  0  0  0  0
  149.7954  138.6885  158.3814 C   0  0  0  0  0  0  0  0  0  0  0  0
  149.9733  137.4365  159.0352 C   0  0  0  0  0  0  0  0  0  0  0  0
  148.9708  136.5320  159.1699 N   0  0  0  0  0  0  0  0  0  0  0  0
  148.9497  135.3924  158.2461 C   0  0  0  0  0  0  0  0  0  0  0  0
  147.5923  134.6647  158.2866 C   0  0  0  0  0  0  0  0  0  0  0  0
  147.2466  134.2834  159.7321 C   0  0  2  0  0  0  0  0  0  0  0  0
  145.9567  133.6999  159.8371 O   0  0  0  0  0  0  0  0  0  0  0  0
  145.6689  133.1908  161.1443 C   0  0  0  0  0  0  0  0  0  0  0  0
  146.0268  134.1878  162.2674 C   0  0  0  0  0  0  0  0  0  0  0  0
  145.6153  133.9970  163.4094 O   0  0  0  0  0  0  0  0  0  0  0  0
  146.8240  135.2252  161.9643 N   0  0  0  0  0  0  0  0  0  0  0  0
  147.2288  135.5491  160.6032 C   0  0  1  0  0  0  0  0  0  0  0  0
  148.6017  136.2359  160.5560 C   0  0  0  0  0  0  0  0  0  0  0  0
  151.2063  137.1640  159.5405 N   0  0  0  0  0  0  0  0  0  0  0  0
  152.1935  138.0577  159.4295 C   0  0  0  0  0  0  0  0  0  0  0  0
  152.1670  139.2634  158.8587 N   0  0  0  0  0  0  0  0  0  0  0  0
  150.9372  139.5375  158.3369 C   0  0  0  0  0  0  0  0  0  0  0  0
  147.9946  133.5753  160.0961 H   0  0  0  0  0  0  0  0  0  0  0  0
  146.4818  136.2418  160.2107 H   0  0  0  0  0  0  0  0  0  0  0  0
  152.6356  140.7391  159.5813 H   0  0  0  0  0  0  0  0  0  0  0  0
  153.6679  141.7285  160.6005 H   0  0  0  0  0  0  0  0  0  0  0  0
  153.8063  141.8443  158.8524 H   0  0  0  0  0  0  0  0  0  0  0  0
  151.4107  142.7112  160.5573 H   0  0  0  0  0  0  0  0  0  0  0  0
  151.1742  145.4236  159.7288 H   0  0  0  0  0  0  0  0  0  0  0  0
  152.6539  145.9519  158.9106 H   0  0  0  0  0  0  0  0  0  0  0  0
  150.7553  144.8837  157.3484 H   0  0  0  0  0  0  0  0  0  0  0  0
  152.4047  144.2839  157.1906 H   0  0  0  0  0  0  0  0  0  0  0  0
  149.7503  143.6274  159.5473 H   0  0  0  0  0  0  0  0  0  0  0  0
  150.9850  142.2129  156.3601 H   0  0  0  0  0  0  0  0  0  0  0  0
  152.3485  141.5598  157.2363 H   0  0  0  0  0  0  0  0  0  0  0  0
  148.6048  141.1680  156.8069 H   0  0  0  0  0  0  0  0  0  0  0  0
  149.1477  135.7327  157.2287 H   0  0  0  0  0  0  0  0  0  0  0  0
  149.7478  134.6989  158.5150 H   0  0  0  0  0  0  0  0  0  0  0  0
  146.8154  135.3119  157.8773 H   0  0  0  0  0  0  0  0  0  0  0  0
  147.6232  133.7751  157.6572 H   0  0  0  0  0  0  0  0  0  0  0  0
  144.6107  132.9345  161.2015 H   0  0  0  0  0  0  0  0  0  0  0  0
  146.2323  132.2707  161.3031 H   0  0  0  0  0  0  0  0  0  0  0  0
  147.0917  135.8635  162.6995 H   0  0  0  0  0  0  0  0  0  0  0  0
  149.3630  135.5870  160.9914 H   0  0  0  0  0  0  0  0  0  0  0  0
  148.5752  137.1396  161.1638 H   0  0  0  0  0  0  0  0  0  0  0  0
  153.1391  137.7654  159.8617 H   0  0  0  0  0  0  0  0  0  0  0  0
  1  2  1  0  0  0  0
  1 31  1  0  0  0  0
  1 32  1  0  0  0  0
  1 33  1  0  0  0  0
  2  6  1  0  0  0  0
  2  3  1  0  0  0  0
  2 34  1  0  0  0  0
  3  4  1  0  0  0  0
  4  5  1  0  0  0  0
  4 35  1  0  0  0  0
  4 36  1  0  0  0  0
  5  6  1  0  0  0  0
  5 37  1  0  0  0  0
  5 38  1  0  0  0  0
  6  7  1  0  0  0  0
  6  8  1  0  0  0  0
  7 39  1  0  0  0  0
  8  9  1  0  0  0  0
  8 40  1  0  0  0  0
  8 41  1  0  0  0  0
  9 28  1  0  0  0  0
  9 10  1  0  0  0  0
 10 11  2  0  0  0  0
 10 42  1  0  0  0  0
 11 12  1  0  0  0  0
 12 28  2  0  0  0  0
 12 13  1  0  0  0  0
 13 14  1  0  0  0  0
 13 25  2  0  0  0  0
 14 24  1  0  0  0  0
 14 15  1  0  0  0  0
 15 16  1  0  0  0  0
 15 43  1  0  0  0  0
 15 44  1  0  0  0  0
 16 17  1  0  0  0  0
 16 45  1  0  0  0  0
 16 46  1  0  0  0  0
 17 29  1  0  0  0  0
 17 23  1  0  0  0  0
 17 18  1  0  0  0  0
 18 19  1  0  0  0  0
 19 20  1  0  0  0  0
 19 47  1  0  0  0  0
 19 48  1  0  0  0  0
 20 21  2  0  0  0  0
 20 22  1  0  0  0  0
 22 23  1  0  0  0  0
 22 49  1  0  0  0  0
 23 30  1  0  0  0  0
 23 24  1  0  0  0  0
 24 50  1  0  0  0  0
 24 51  1  0  0  0  0
 25 26  1  0  0  0  0
 26 27  2  0  0  0  0
 26 52  1  0  0  0  0
 27 28  1  0  0  0  0
M  END
> <s_m_source_file>
AV-unprocessed.smi

> <i_m_source_file_index>
265

> <i_lp_mmshare_version>
43012

> <i_f3d_flags>
0

> <s_epik_input>
W0NIMl0xW0NIMl1PW0NAQEhdKFtDSDNdKVtDQEBdMShbT0hdKVtDSDJdbihbY0hdbjIpYyhjMjMpbltjSF1uYzNOKFtDSDJdW0NIMl00KVtDSDJdW0NAQEhdKFtDQEhdNDUpW05IXUMoPU8pW0NIMl1PNQ==

> <s_epik_cmdline>
J2VwaWtfcHl0aG9uJywgJy1waCcsICc3LjAnLCAnLXRuJywgJzgnLCAnLW1hJywgJzIwMCcsICctbWV0YWxfYmluZGluZycsICctaW1hZScsICc8aW5maWxlLm1hZT4nLCAnLW9tYWUnLCAnPG91dGZpbGUubWFlPic=

> <r_lp_tautomer_probability>
1

> <r_epik_Ionization_Penalty>
0.00221504

> <r_epik_Ionization_Penalty_Charging>
0

> <r_epik_Ionization_Penalty_Neutral>
0.00221504

> <r_epik_State_Penalty>
-0

> <r_epik_Charging_Adjusted_Penalty>
0

> <i_epik_Tot_Q>
0

> <i_epik_Tot_abs_Q>
0

> <r_epik_Metal_State_Penalty>
-0

> <b_epik_Metal_Only>
0

> <s_lp_Force_Field>
OPLS_2005

> <r_lp_Energy>
44.0648

> <b_lp_Chiralities_Consistent>
1

> <s_lp_Variant>
AV-unprocessed.smi:265-4

> <Gold.Version>
5.8.1

> <Gold.Id.Protein>
6NUR|6NUR_protein|mol2

> <Gold.PLP.Fitness>
44.1176

> <Gold.PLP.PLP>
-42.5388

> <Gold.PLP.part.hbond>
-2.0428

> <Gold.PLP.part.metal>
0.0000

> <Gold.PLP.part.buried>
-8.1215

> <Gold.PLP.part.nonpolar>
-33.2720

> <Gold.PLP.part.repulsive>
0.1209

> <Gold.PLP.ligand.clash>
0.0000

> <Gold.PLP.ligand.torsion>
0.9221

> <Gold.PLP.Chemscore.Hbond>
1.0000

> <Gold.PLP.Chemscore.CHOScore>
0.0000

> <Gold.PLP.Chemscore.Metal>
0.0000

> <Gold.Chemscore.Hbonds>
donor molecule, donor type, donor heavy atom, donor atom, acceptor molecule, acceptor atom, score
      P1  H  6896  6908       L1    25  0.94

> <Gold.PLP.Chemscore.Internal.Correction>
0.4231

> <Gold.Rescore>
     Score         DG    S(hbond)    S(metal)    S(lipo)     H(rot)  DE(clash)    DE(int)     intcor
     10.48     -12.97       0.93        0.00      86.68       2.25       0.01       2.48       ----

> <Gold.Chemscore.Fitness>
10.4790

> <Gold.Chemscore.DG>
-12.9679

> <Gold.Chemscore.ZeroCoef>
-5.4800

> <Gold.Chemscore.Hbond>
0.9264

> <Gold.Chemscore.Metal>
0.0000

> <Gold.Chemscore.Lipo>
86.6794

> <Gold.Chemscore.Internal_Hbond>
0.0000

> <Gold.Chemscore.DEClash>
0.0093

> <Gold.Chemscore.DEInternal>
2.4795

> <Gold.Chemscore.Rot>
2.2453

> <Gold.Chemscore.Internal.Correction>
   9.000000E+99

> <Gold.Chemscore.Hbonds>
donor molecule, donor type, donor heavy atom, donor atom, acceptor molecule, acceptor atom, score
      P1  H  6896  6908       L1    25  0.59

> <Gold.Chemscore.Hbond.Weighted>
-3.0943

> <Gold.Chemscore.Metal.Weighted>
-0.0000

> <Gold.Chemscore.Lipo.Weighted>
-10.1415

> <Gold.Chemscore.Internal_Hbond.Weighted>
0.0000

> <Gold.Chemscore.DEClash.Weighted>
0.0093

> <Gold.Chemscore.DEInternal.Weighted>
2.4795

> <Gold.Chemscore.Rot.Weighted>
5.7479

> <Gold.Chemscore.Internal.Correction.Weighted>
   9.000000E+99

> <Gold.Protein.RotatedTorsions>
[ 6907 6896 6895 6894 ] final -135.63 input  -60.11 | X-H torsion
[ 7974 7965 7964 7962 ] final   29.35 input  175.53 | X-H torsion
[ 8008 7997 7996 7995 ] final  171.71 input   59.86 | X-H torsion
[ 10167 10162 10161 10158 ] final  101.81 input  -65.29 | X-H torsion
[ 10718 10713 10712 10709 ] final -100.96 input   66.30 | X-H torsion
[ 10763 10752 10751 10750 ] final -151.19 input  -60.55 | X-H torsion
[ 11005 11000 10999 10996 ] final   77.56 input  -57.11 | X-H torsion

> <Gold.Protein.ActiveResidues>
 VAL166  LYS551  ARG553  GLY616  TRP617  ASP618  TYR619  PRO620  LYS621  CYS622 
 ASP623  PHE694  ASN695  SER759  ASP760  ASP761  ALA762  ILE779  LEU786  VAL792 
 PHE793  MET794  SER795  GLU796  ALA797  LYS798  CYS799  TRP800  GLU811  SER814 

> <Gold.Protein.RotatedAtoms>
  151.0002  133.6063  159.2695 H   0  0  0  0  0  0  0  0  0  0  0  0  # atno 6907 bound_to 6896
  151.3252  135.0827  159.9329 H   0  0  0  0  0  0  0  0  0  0  0  0  # atno 6908 bound_to 6896
  152.5271  133.9642  159.7785 H   0  0  0  0  0  0  0  0  0  0  0  0  # atno 6909 bound_to 6896
  146.1676  139.6933  142.8990 H   0  0  0  0  0  0  0  0  0  0  0  0  # atno 7974 bound_to 7965
  156.1245  140.1505  156.9157 H   0  0  0  0  0  0  0  0  0  0  0  0  # atno 8008 bound_to 7997
  154.4861  140.0865  156.7529 H   0  0  0  0  0  0  0  0  0  0  0  0  # atno 8009 bound_to 7997
  155.4369  140.3429  155.4288 H   0  0  0  0  0  0  0  0  0  0  0  0  # atno 8010 bound_to 7997
  139.7405  144.7012  151.0583 H   0  0  0  0  0  0  0  0  0  0  0  0  # atno 10167 bound_to 10162
  156.0179  130.5351  150.6893 H   0  0  0  0  0  0  0  0  0  0  0  0  # atno 10718 bound_to 10713
  154.8073  135.3266  154.7398 H   0  0  0  0  0  0  0  0  0  0  0  0  # atno 10763 bound_to 10752
  153.8054  135.6900  153.4853 H   0  0  0  0  0  0  0  0  0  0  0  0  # atno 10764 bound_to 10752
  153.1827  135.4580  154.9993 H   0  0  0  0  0  0  0  0  0  0  0  0  # atno 10765 bound_to 10752
  139.9249  134.7693  156.1538 H   0  0  0  0  0  0  0  0  0  0  0  0  # atno 11005 bound_to 11000
  145.4426  141.0423  143.2849 LP  0  0  0  0  0  0  0  0  0  0  0  0  # atno 17320 bound_to 7965
  144.8115  139.5953  143.7027 LP  0  0  0  0  0  0  0  0  0  0  0  0  # atno 17321 bound_to 7965
  140.7785  143.4930  150.9868 LP  0  0  0  0  0  0  0  0  0  0  0  0  # atno 17342 bound_to 10162
  139.8619  143.7304  152.3173 LP  0  0  0  0  0  0  0  0  0  0  0  0  # atno 17343 bound_to 10162
  157.4578  131.0880  151.0778 LP  0  0  0  0  0  0  0  0  0  0  0  0  # atno 17370 bound_to 10713
  157.1275  130.6088  149.5521 LP  0  0  0  0  0  0  0  0  0  0  0  0  # atno 17371 bound_to 10713
  141.0799  133.6759  156.2314 LP  0  0  0  0  0  0  0  0  0  0  0  0  # atno 17394 bound_to 11000
  140.6365  134.5210  157.5565 LP  0  0  0  0  0  0  0  0  0  0  0  0  # atno 17395 bound_to 11000

$$$$
