AV-unprocessed.smi:1762|AV-procd|sdf|7101|dock1
  -GOLD-   22720 8323D 1   1.00000     0.00000
 Structure written by MMmdl.
 52 53  0  0  0  0  0  0  0  0  1 V2000
  151.5168  137.8550  154.3902 C   0  0  0  0  0  0  0  0  0  0  0  0
  150.5522  138.8652  155.0217 C   0  0  2  0  0  0  0  0  0  0  0  0
  149.2653  139.0363  154.1943 C   0  0  0  0  0  0  0  0  0  0  0  0
  148.3706  140.0680  154.7447 N   0  0  0  0  0  0  0  0  0  0  0  0
  147.0845  140.2285  154.0096 C   0  0  1  0  0  0  0  0  0  0  0  0
  146.2694  138.9178  153.9014 C   0  0  0  0  0  0  0  0  0  0  0  0
  145.9042  138.3247  154.9173 O   0  0  0  0  0  0  0  0  0  0  0  0
  146.0035  138.4755  152.6621 N   0  0  0  0  0  0  0  0  0  0  0  0
  145.2403  137.2740  152.3476 C   0  0  0  0  0  0  0  0  0  0  0  0
  145.8453  136.5177  151.1528 C   0  0  0  0  0  0  0  0  0  0  0  0
  145.3828  135.0743  151.0940 C   0  0  0  0  0  0  0  0  0  0  0  0
  144.0081  134.7610  151.0378 C   0  0  0  0  0  0  0  0  0  0  0  0
  143.6301  133.4051  150.9935 C   0  0  0  0  0  0  0  0  0  0  0  0
  144.6360  132.4197  151.0082 C   0  0  0  0  0  0  0  0  0  0  0  0
  145.9809  132.8361  151.0680 C   0  0  0  0  0  0  0  0  0  0  0  0
  146.3541  134.1335  151.1119 N   0  0  0  0  0  0  0  0  0  0  0  0
  146.1763  141.3986  154.5192 C   0  0  0  0  0  0  0  0  0  0  0  0
  146.6295  142.7908  154.0371 C   0  0  0  0  0  0  0  0  0  0  0  0
  145.9715  141.4029  156.0483 C   0  0  0  0  0  0  0  0  0  0  0  0
  149.1256  141.3225  154.8575 C   0  0  0  0  0  0  0  0  0  0  0  0
  150.4401  141.1793  155.6508 C   0  0  1  0  0  0  0  0  0  0  0  0
  150.2239  141.0359  157.1678 C   0  0  0  0  0  0  0  0  0  0  0  0
  151.2270  140.1146  155.1215 O   0  0  0  0  0  0  0  0  0  0  0  0
  151.0539  136.8718  154.3038 H   0  0  0  0  0  0  0  0  0  0  0  0
  152.4171  137.7456  154.9953 H   0  0  0  0  0  0  0  0  0  0  0  0
  151.8224  138.1705  153.3923 H   0  0  0  0  0  0  0  0  0  0  0  0
  150.2963  138.5098  156.0202 H   0  0  0  0  0  0  0  0  0  0  0  0
  149.5202  139.2838  153.1623 H   0  0  0  0  0  0  0  0  0  0  0  0
  148.7833  138.0599  154.1690 H   0  0  0  0  0  0  0  0  0  0  0  0
  147.3479  140.4893  152.9821 H   0  0  0  0  0  0  0  0  0  0  0  0
  146.3445  139.0174  151.8814 H   0  0  0  0  0  0  0  0  0  0  0  0
  145.2386  136.6350  153.2311 H   0  0  0  0  0  0  0  0  0  0  0  0
  144.1990  137.5338  152.1496 H   0  0  0  0  0  0  0  0  0  0  0  0
  145.5799  137.0128  150.2176 H   0  0  0  0  0  0  0  0  0  0  0  0
  146.9346  136.5395  151.2100 H   0  0  0  0  0  0  0  0  0  0  0  0
  143.2600  135.5402  151.0312 H   0  0  0  0  0  0  0  0  0  0  0  0
  142.5877  133.1259  150.9509 H   0  0  0  0  0  0  0  0  0  0  0  0
  144.3835  131.3703  150.9750 H   0  0  0  0  0  0  0  0  0  0  0  0
  146.7780  132.1077  151.0822 H   0  0  0  0  0  0  0  0  0  0  0  0
  145.1749  141.2370  154.1237 H   0  0  0  0  0  0  0  0  0  0  0  0
  147.5960  143.0717  154.4546 H   0  0  0  0  0  0  0  0  0  0  0  0
  145.9129  143.5565  154.3351 H   0  0  0  0  0  0  0  0  0  0  0  0
  146.7117  142.8324  152.9508 H   0  0  0  0  0  0  0  0  0  0  0  0
  146.8807  141.6772  156.5841 H   0  0  0  0  0  0  0  0  0  0  0  0
  145.6532  140.4237  156.4063 H   0  0  0  0  0  0  0  0  0  0  0  0
  145.2019  142.1203  156.3345 H   0  0  0  0  0  0  0  0  0  0  0  0
  149.3552  141.6999  153.8595 H   0  0  0  0  0  0  0  0  0  0  0  0
  148.5374  142.0942  155.3495 H   0  0  0  0  0  0  0  0  0  0  0  0
  151.0218  142.0890  155.5001 H   0  0  0  0  0  0  0  0  0  0  0  0
  149.7332  141.9206  157.5741 H   0  0  0  0  0  0  0  0  0  0  0  0
  151.1750  140.9187  157.6873 H   0  0  0  0  0  0  0  0  0  0  0  0
  149.5988  140.1778  157.4145 H   0  0  0  0  0  0  0  0  0  0  0  0
  1  2  1  0  0  0  0
  1 24  1  0  0  0  0
  1 25  1  0  0  0  0
  1 26  1  0  0  0  0
  2 23  1  0  0  0  0
  2  3  1  0  0  0  0
  2 27  1  0  0  0  0
  3  4  1  0  0  0  0
  3 28  1  0  0  0  0
  3 29  1  0  0  0  0
  4  5  1  0  0  0  0
  4 20  1  0  0  0  0
  5  6  1  0  0  0  0
  5 17  1  0  0  0  0
  5 30  1  0  0  0  0
  6  7  2  0  0  0  0
  6  8  1  0  0  0  0
  8  9  1  0  0  0  0
  8 31  1  0  0  0  0
  9 10  1  0  0  0  0
  9 32  1  0  0  0  0
  9 33  1  0  0  0  0
 10 11  1  0  0  0  0
 10 34  1  0  0  0  0
 10 35  1  0  0  0  0
 11 16  1  0  0  0  0
 11 12  2  0  0  0  0
 12 13  1  0  0  0  0
 12 36  1  0  0  0  0
 13 14  2  0  0  0  0
 13 37  1  0  0  0  0
 14 15  1  0  0  0  0
 14 38  1  0  0  0  0
 15 16  2  0  0  0  0
 15 39  1  0  0  0  0
 17 18  1  0  0  0  0
 17 19  1  0  0  0  0
 17 40  1  0  0  0  0
 18 41  1  0  0  0  0
 18 42  1  0  0  0  0
 18 43  1  0  0  0  0
 19 44  1  0  0  0  0
 19 45  1  0  0  0  0
 19 46  1  0  0  0  0
 20 21  1  0  0  0  0
 20 47  1  0  0  0  0
 20 48  1  0  0  0  0
 21 22  1  0  0  0  0
 21 23  1  0  0  0  0
 21 49  1  0  0  0  0
 22 50  1  0  0  0  0
 22 51  1  0  0  0  0
 22 52  1  0  0  0  0
M  END
> <s_m_source_file>
AV-unprocessed.smi

> <i_m_source_file_index>
1762

> <i_lp_mmshare_version>
43012

> <i_f3d_flags>
0

> <s_epik_input>
W0NIM11bQ0BASF0xW0NIMl1OKFtDSDJdW0NASF0oTzEpW0NIM10pW0NAQEhdKFtDSF0oW0NIM10pW0NIM10pQyg9TylbTkhdW0NIMl1bQ0gyXWMyW2NIXVtjSF1bY0hdW2NIXW4y

> <s_epik_cmdline>
J2VwaWtfcHl0aG9uJywgJy1waCcsICc3LjAnLCAnLXRuJywgJzgnLCAnLW1hJywgJzIwMCcsICctbWV0YWxfYmluZGluZycsICctaW1hZScsICc8aW5maWxlLm1hZT4nLCAnLW9tYWUnLCAnPG91dGZpbGUubWFlPic=

> <r_epik_Ionization_Penalty>
0.0399736

> <r_epik_Ionization_Penalty_Charging>
0

> <r_epik_Ionization_Penalty_Neutral>
0.0399736

> <r_epik_State_Penalty>
0.0317634

> <r_epik_Charging_Adjusted_Penalty>
0.0317634

> <i_epik_Tot_Q>
0

> <i_epik_Tot_abs_Q>
0

> <r_epik_Metal_State_Penalty>
0.0307795

> <b_epik_Metal_Only>
0

> <s_lp_Force_Field>
OPLS_2005

> <r_lp_Energy>
29.8059

> <b_lp_Chiralities_Consistent>
1

> <s_lp_Variant>
AV-unprocessed.smi:1762-3

> <Gold.Version>
5.8.1

> <Gold.Id.Protein>
6NUR|6NUR_protein|mol2

> <Gold.PLP.Fitness>
46.8689

> <Gold.PLP.PLP>
-41.7731

> <Gold.PLP.part.hbond>
-1.7468

> <Gold.PLP.part.metal>
0.0000

> <Gold.PLP.part.buried>
-4.5316

> <Gold.PLP.part.nonpolar>
-35.8608

> <Gold.PLP.part.repulsive>
0.4180

> <Gold.PLP.ligand.clash>
0.0000

> <Gold.PLP.ligand.torsion>
0.7611

> <Gold.PLP.Chemscore.Hbond>
1.0000

> <Gold.PLP.Chemscore.CHOScore>
1.0000

> <Gold.PLP.Chemscore.Metal>
0.0000

> <Gold.Chemscore.Hbonds>
donor molecule, donor type, donor heavy atom, donor atom, acceptor molecule, acceptor atom, score
      P1  H  7989  7998       L1    23  0.90
      L1  C    15    39       P1 10747  0.69

> <Gold.PLP.Chemscore.Internal.Correction>
0.6180

> <Gold.Rescore>
     Score         DG    S(hbond)    S(metal)    S(lipo)     H(rot)  DE(clash)    DE(int)     intcor
     15.23     -16.31       0.67        0.00     108.41       1.60       0.15       0.93       ----

> <Gold.Chemscore.Fitness>
15.2289

> <Gold.Chemscore.DG>
-16.3139

> <Gold.Chemscore.ZeroCoef>
-5.4800

> <Gold.Chemscore.Hbond>
0.6718

> <Gold.Chemscore.Metal>
0.0000

> <Gold.Chemscore.Lipo>
108.4124

> <Gold.Chemscore.Internal_Hbond>
0.0000

> <Gold.Chemscore.DEClash>
0.1533

> <Gold.Chemscore.DEInternal>
0.9317

> <Gold.Chemscore.Rot>
1.5993

> <Gold.Chemscore.Internal.Correction>
   9.000000E+99

> <Gold.Chemscore.Hbonds>
donor molecule, donor type, donor heavy atom, donor atom, acceptor molecule, acceptor atom, score
      P1  H  7989  7998       L1    23  0.16

> <Gold.Chemscore.Hbond.Weighted>
-2.2438

> <Gold.Chemscore.Metal.Weighted>
-0.0000

> <Gold.Chemscore.Lipo.Weighted>
-12.6843

> <Gold.Chemscore.Internal_Hbond.Weighted>
0.0000

> <Gold.Chemscore.DEClash.Weighted>
0.1533

> <Gold.Chemscore.DEInternal.Weighted>
0.9317

> <Gold.Chemscore.Rot.Weighted>
4.0941

> <Gold.Chemscore.Internal.Correction.Weighted>
   9.000000E+99

> <Gold.Protein.RotatedTorsions>
[ 6907 6896 6895 6894 ] final   73.93 input  -60.11 | X-H torsion
[ 7974 7965 7964 7962 ] final -143.51 input  175.53 | X-H torsion
[ 8008 7997 7996 7995 ] final   54.45 input   59.86 | X-H torsion
[ 10167 10162 10161 10158 ] final  -12.62 input  -65.29 | X-H torsion
[ 10718 10713 10712 10709 ] final    5.02 input   66.30 | X-H torsion
[ 10763 10752 10751 10750 ] final   52.48 input  -60.55 | X-H torsion
[ 11005 11000 10999 10996 ] final   97.59 input  -57.11 | X-H torsion

> <Gold.Protein.ActiveResidues>
 VAL166  LYS551  ARG553  GLY616  TRP617  ASP618  TYR619  PRO620  LYS621  CYS622 
 ASP623  PHE694  ASN695  SER759  ASP760  ASP761  ALA762  ILE779  LEU786  VAL792 
 PHE793  MET794  SER795  GLU796  ALA797  LYS798  CYS799  TRP800  GLU811  SER814 

> <Gold.Protein.RotatedAtoms>
  152.4949  134.4348  159.9523 H   0  0  0  0  0  0  0  0  0  0  0  0  # atno 6907 bound_to 6896
  151.4328  133.3659  159.2779 H   0  0  0  0  0  0  0  0  0  0  0  0  # atno 6908 bound_to 6896
  150.9142  134.8583  159.7506 H   0  0  0  0  0  0  0  0  0  0  0  0  # atno 6909 bound_to 6896
  144.8364  140.5825  143.5481 H   0  0  0  0  0  0  0  0  0  0  0  0  # atno 7974 bound_to 7965
  155.4848  140.3469  155.4345 H   0  0  0  0  0  0  0  0  0  0  0  0  # atno 8008 bound_to 7997
  156.1015  140.1437  156.9489 H   0  0  0  0  0  0  0  0  0  0  0  0  # atno 8009 bound_to 7997
  154.4697  140.0905  156.7090 H   0  0  0  0  0  0  0  0  0  0  0  0  # atno 8010 bound_to 7997
  140.7165  143.5513  150.9298 H   0  0  0  0  0  0  0  0  0  0  0  0  # atno 10167 bound_to 10162
  156.9012  130.5722  149.5648 H   0  0  0  0  0  0  0  0  0  0  0  0  # atno 10718 bound_to 10713
  152.9789  135.5811  154.4585 H   0  0  0  0  0  0  0  0  0  0  0  0  # atno 10763 bound_to 10752
  154.4164  135.2771  155.2005 H   0  0  0  0  0  0  0  0  0  0  0  0  # atno 10764 bound_to 10752
  154.3773  135.6154  153.5826 H   0  0  0  0  0  0  0  0  0  0  0  0  # atno 10765 bound_to 10752
  139.8775  134.9008  156.4330 H   0  0  0  0  0  0  0  0  0  0  0  0  # atno 11005 bound_to 11000
  145.4786  139.1497  143.3775 LP  0  0  0  0  0  0  0  0  0  0  0  0  # atno 17320 bound_to 7965
  146.2662  140.4921  142.8833 LP  0  0  0  0  0  0  0  0  0  0  0  0  # atno 17321 bound_to 7965
  139.9237  143.6575  152.3091 LP  0  0  0  0  0  0  0  0  0  0  0  0  # atno 17342 bound_to 10162
  139.7001  144.7636  151.1287 LP  0  0  0  0  0  0  0  0  0  0  0  0  # atno 17343 bound_to 10162
  156.0581  130.5639  150.9134 LP  0  0  0  0  0  0  0  0  0  0  0  0  # atno 17370 bound_to 10713
  157.6025  131.0940  150.8936 LP  0  0  0  0  0  0  0  0  0  0  0  0  # atno 17371 bound_to 10713
  140.9053  133.7750  155.9728 LP  0  0  0  0  0  0  0  0  0  0  0  0  # atno 17394 bound_to 11000
  140.8606  134.2845  157.5236 LP  0  0  0  0  0  0  0  0  0  0  0  0  # atno 17395 bound_to 11000

$$$$
