AV-unprocessed.smi:2154|AV-procd|sdf|8774|dock1
  -GOLD-   2272011553D 1   1.00000     0.00000
 Structure written by MMmdl.
 31 32  0  0  0  0  0  0  0  0  2 V2000
  152.2985  143.6824  161.5709 C   0  0  0  0  0  0  0  0  0  0  0  0
  152.0939  144.4233  160.2675 C   0  0  2  0  0  0  0  0  0  0  0  0
  150.7443  145.0032  159.9081 C   0  0  0  0  0  0  0  0  0  0  0  0
  151.2760  143.8064  159.1561 C   0  0  1  0  0  0  0  0  0  0  0  0
  151.7125  143.9279  157.7122 C   0  0  0  0  0  0  0  0  0  0  0  0
  150.9371  143.0933  156.8058 N   0  0  0  0  0  0  0  0  0  0  0  0
  151.0216  141.7583  156.6835 C   0  0  0  0  0  0  0  0  0  0  0  0
  151.7703  141.0684  157.3748 O   0  0  0  0  0  0  0  0  0  0  0  0
  150.1329  141.0722  155.6304 C   0  0  0  0  0  0  0  0  0  0  0  0
  150.3111  139.6119  155.5240 N   0  0  0  0  0  0  0  0  0  0  0  0
  149.1948  138.8002  155.7923 C   0  0  0  0  0  0  0  0  0  0  0  0
  149.2551  137.4577  155.7071 C   0  0  0  0  0  0  0  0  0  0  0  0
  150.5218  136.8464  155.3244 C   0  0  0  0  0  0  0  0  0  0  0  0
  150.5948  135.6221  155.2400 O   0  0  0  0  0  0  0  0  0  0  0  0
  151.5764  137.6763  155.0739 N   0  5  0  0  0  0  0  0  0  0  0  0
  151.5003  139.0403  155.1636 C   0  0  0  0  0  0  0  0  0  0  0  0
  152.4616  139.7711  154.9233 O   0  0  0  0  0  0  0  0  0  0  0  0
  151.4058  143.1173  161.8401 H   0  0  0  0  0  0  0  0  0  0  0  0
  152.5191  144.3871  162.3724 H   0  0  0  0  0  0  0  0  0  0  0  0
  153.1333  142.9876  161.4769 H   0  0  0  0  0  0  0  0  0  0  0  0
  152.9594  145.0073  159.9596 H   0  0  0  0  0  0  0  0  0  0  0  0
  149.9184  144.8344  160.5961 H   0  0  0  0  0  0  0  0  0  0  0  0
  150.7323  145.9620  159.3937 H   0  0  0  0  0  0  0  0  0  0  0  0
  150.7924  142.8577  159.3832 H   0  0  0  0  0  0  0  0  0  0  0  0
  151.6475  144.9796  157.4301 H   0  0  0  0  0  0  0  0  0  0  0  0
  152.7626  143.6461  157.6256 H   0  0  0  0  0  0  0  0  0  0  0  0
  150.2955  143.5733  156.1905 H   0  0  0  0  0  0  0  0  0  0  0  0
  149.0908  141.3089  155.8510 H   0  0  0  0  0  0  0  0  0  0  0  0
  150.3291  141.5427  154.6661 H   0  0  0  0  0  0  0  0  0  0  0  0
  148.2944  139.3318  156.0628 H   0  0  0  0  0  0  0  0  0  0  0  0
  148.3872  136.8489  155.9138 H   0  0  0  0  0  0  0  0  0  0  0  0
  1  2  1  0  0  0  0
  1 18  1  0  0  0  0
  1 19  1  0  0  0  0
  1 20  1  0  0  0  0
  2  4  1  0  0  0  0
  2  3  1  0  0  0  0
  2 21  1  0  0  0  0
  3  4  1  0  0  0  0
  3 22  1  0  0  0  0
  3 23  1  0  0  0  0
  4  5  1  0  0  0  0
  4 24  1  0  0  0  0
  5  6  1  0  0  0  0
  5 25  1  0  0  0  0
  5 26  1  0  0  0  0
  6  7  1  0  0  0  0
  6 27  1  0  0  0  0
  7  8  2  0  0  0  0
  7  9  1  0  0  0  0
  9 10  1  0  0  0  0
  9 28  1  0  0  0  0
  9 29  1  0  0  0  0
 10 16  1  0  0  0  0
 10 11  1  0  0  0  0
 11 12  2  0  0  0  0
 11 30  1  0  0  0  0
 12 13  1  0  0  0  0
 12 31  1  0  0  0  0
 13 14  2  0  0  0  0
 13 15  1  0  0  0  0
 15 16  1  0  0  0  0
 16 17  2  0  0  0  0
M  CHG  1  15  -1
M  END
> <s_m_source_file>
AV-unprocessed.smi

> <i_m_source_file_index>
2154

> <i_lp_mmshare_version>
43012

> <i_f3d_flags>
0

> <s_epik_input>
W0NIM11bQ0BASF0xW0NIMl1bQ0BIXTFbQ0gyXVtOSF1DKD1PKVtDSDJdbjJbY0hdW2NIXWMoPU8pW25IXWMyPU8=

> <s_epik_cmdline>
J2VwaWtfcHl0aG9uJywgJy1waCcsICc3LjAnLCAnLXRuJywgJzgnLCAnLW1hJywgJzIwMCcsICctbWV0YWxfYmluZGluZycsICctaW1hZScsICc8aW5maWxlLm1hZT4nLCAnLW9tYWUnLCAnPG91dGZpbGUubWFlPic=

> <r_lp_tautomer_probability>
0.999537

> <r_epik_Ionization_Penalty>
3.12283

> <r_epik_Ionization_Penalty_Charging>
2.83566e-08

> <r_epik_Ionization_Penalty_Neutral>
3.12283

> <r_epik_State_Penalty>
3.12192

> <r_epik_Charging_Adjusted_Penalty>
3.12192

> <i_epik_Tot_Q>
-1

> <i_epik_Tot_abs_Q>
1

> <r_epik_Metal_State_Penalty>
0.463748

> <b_epik_Metal_Only>
1

> <s_lp_Force_Field>
OPLS_2005

> <r_lp_Energy>
23.7869

> <b_lp_Chiralities_Consistent>
1

> <s_lp_Variant>
AV-unprocessed.smi:2154-5

> <Gold.Version>
5.8.1

> <Gold.Id.Protein>
6NUR|6NUR_protein|mol2

> <Gold.PLP.Fitness>
45.8998

> <Gold.PLP.PLP>
-36.3573

> <Gold.PLP.part.hbond>
-4.1805

> <Gold.PLP.part.metal>
0.0000

> <Gold.PLP.part.buried>
-4.4599

> <Gold.PLP.part.nonpolar>
-27.9657

> <Gold.PLP.part.repulsive>
0.2532

> <Gold.PLP.ligand.clash>
0.0000

> <Gold.PLP.ligand.torsion>
0.4838

> <Gold.PLP.Chemscore.Hbond>
3.3224

> <Gold.PLP.Chemscore.CHOScore>
0.0000

> <Gold.PLP.Chemscore.Metal>
0.0000

> <Gold.Chemscore.Hbonds>
donor molecule, donor type, donor heavy atom, donor atom, acceptor molecule, acceptor atom, score
      L1  H     6    27       P1  8028  1.00
      P1  H  7989  7998       L1    17  0.64
      P1  H  7997  8010       L1    17  0.41
      P1  H 10752 10765       L1    14  0.03

> <Gold.PLP.Chemscore.Internal.Correction>
0.5429

> <Gold.Rescore>
     Score         DG    S(hbond)    S(metal)    S(lipo)     H(rot)  DE(clash)    DE(int)     intcor
     14.07     -16.86       2.65        0.00      64.49       1.96       0.32       2.47       ----

> <Gold.Chemscore.Fitness>
14.0674

> <Gold.Chemscore.DG>
-16.8583

> <Gold.Chemscore.ZeroCoef>
-5.4800

> <Gold.Chemscore.Hbond>
2.6505

> <Gold.Chemscore.Metal>
0.0000

> <Gold.Chemscore.Lipo>
64.4917

> <Gold.Chemscore.Internal_Hbond>
0.0000

> <Gold.Chemscore.DEClash>
0.3223

> <Gold.Chemscore.DEInternal>
2.4685

> <Gold.Chemscore.Rot>
1.9609

> <Gold.Chemscore.Internal.Correction>
   9.000000E+99

> <Gold.Chemscore.Hbonds>
donor molecule, donor type, donor heavy atom, donor atom, acceptor molecule, acceptor atom, score
      L1  H     6    27       P1  8028  0.99
      P1  H  7989  7998       L1    17  0.16
      P1  H  7997  8010       L1    17  0.41
      P1  H 10752 10765       L1    14  0.01

> <Gold.Chemscore.Hbond.Weighted>
-8.8527

> <Gold.Chemscore.Metal.Weighted>
-0.0000

> <Gold.Chemscore.Lipo.Weighted>
-7.5455

> <Gold.Chemscore.Internal_Hbond.Weighted>
0.0000

> <Gold.Chemscore.DEClash.Weighted>
0.3223

> <Gold.Chemscore.DEInternal.Weighted>
2.4685

> <Gold.Chemscore.Rot.Weighted>
5.0200

> <Gold.Chemscore.Internal.Correction.Weighted>
   9.000000E+99

> <Gold.Protein.RotatedTorsions>
[ 6907 6896 6895 6894 ] final  124.72 input  -60.11 | X-H torsion
[ 7974 7965 7964 7962 ] final    4.08 input  175.53 | X-H torsion
[ 8008 7997 7996 7995 ] final  110.48 input   59.86 | X-H torsion
[ 10167 10162 10161 10158 ] final -144.36 input  -65.29 | X-H torsion
[ 10718 10713 10712 10709 ] final -145.55 input   66.30 | X-H torsion
[ 10763 10752 10751 10750 ] final -174.95 input  -60.55 | X-H torsion
[ 11005 11000 10999 10996 ] final   99.86 input  -57.11 | X-H torsion

> <Gold.Protein.ActiveResidues>
 VAL166  LYS551  ARG553  GLY616  TRP617  ASP618  TYR619  PRO620  LYS621  CYS622 
 ASP623  PHE694  ASN695  SER759  ASP760  ASP761  ALA762  ILE779  LEU786  VAL792 
 PHE793  MET794  SER795  GLU796  ALA797  LYS798  CYS799  TRP800  GLU811  SER814 

> <Gold.Protein.RotatedAtoms>
  152.4054  133.6880  159.6351 H   0  0  0  0  0  0  0  0  0  0  0  0  # atno 6907 bound_to 6896
  150.7939  133.8719  159.3270 H   0  0  0  0  0  0  0  0  0  0  0  0  # atno 6908 bound_to 6896
  151.6474  135.1007  160.0205 H   0  0  0  0  0  0  0  0  0  0  0  0  # atno 6909 bound_to 6896
  146.2444  140.0588  142.8370 H   0  0  0  0  0  0  0  0  0  0  0  0  # atno 7974 bound_to 7965
  156.2055  140.3038  155.9619 H   0  0  0  0  0  0  0  0  0  0  0  0  # atno 8008 bound_to 7997
  155.2850  140.0439  157.3035 H   0  0  0  0  0  0  0  0  0  0  0  0  # atno 8009 bound_to 7997
  154.5628  140.2325  155.8318 H   0  0  0  0  0  0  0  0  0  0  0  0  # atno 8010 bound_to 7997
  139.7906  143.7972  152.2649 H   0  0  0  0  0  0  0  0  0  0  0  0  # atno 10167 bound_to 10162
  156.3839  130.7851  151.2046 H   0  0  0  0  0  0  0  0  0  0  0  0  # atno 10718 bound_to 10713
  154.5901  135.2844  155.0644 H   0  0  0  0  0  0  0  0  0  0  0  0  # atno 10763 bound_to 10752
  154.1948  135.6434  153.5074 H   0  0  0  0  0  0  0  0  0  0  0  0  # atno 10764 bound_to 10752
  153.0118  135.5455  154.6584 H   0  0  0  0  0  0  0  0  0  0  0  0  # atno 10765 bound_to 10752
  139.8770  134.9114  156.4669 H   0  0  0  0  0  0  0  0  0  0  0  0  # atno 11005 bound_to 11000
  145.0918  140.9289  143.4764 LP  0  0  0  0  0  0  0  0  0  0  0  0  # atno 17320 bound_to 7965
  145.0763  139.2993  143.5806 LP  0  0  0  0  0  0  0  0  0  0  0  0  # atno 17321 bound_to 7965
  139.8062  144.7354  150.9759 LP  0  0  0  0  0  0  0  0  0  0  0  0  # atno 17342 bound_to 10162
  140.7820  143.4296  151.0715 LP  0  0  0  0  0  0  0  0  0  0  0  0  # atno 17343 bound_to 10162
  157.7494  131.0336  150.4278 LP  0  0  0  0  0  0  0  0  0  0  0  0  # atno 17370 bound_to 10713
  156.4527  130.4015  149.6625 LP  0  0  0  0  0  0  0  0  0  0  0  0  # atno 17371 bound_to 10713
  140.8823  133.7908  155.9481 LP  0  0  0  0  0  0  0  0  0  0  0  0  # atno 17394 bound_to 11000
  140.8840  134.2576  157.5129 LP  0  0  0  0  0  0  0  0  0  0  0  0  # atno 17395 bound_to 11000

$$$$
