AV-unprocessed.smi:2034|AV-procd|sdf|8263|dock1
  -GOLD-   2272010533D 1   1.00000     0.00000
 Structure written by MMmdl.
 50 52  0  0  0  0  0  0  0  0  1 V2000
  153.5633  141.8631  160.6895 C   0  0  0  0  0  0  0  0  0  0  0  0
  152.4097  142.0964  159.7086 C   0  0  2  0  0  0  0  0  0  0  0  0
  152.2523  140.9281  158.7195 C   0  0  0  0  0  0  0  0  0  0  0  0
  151.2175  141.2391  157.7436 N   0  0  0  0  0  0  0  0  0  0  0  0
  150.8928  140.1690  156.8997 C   0  0  0  0  0  0  0  0  0  0  0  0
  151.0874  140.2417  155.5012 C   0  0  0  0  0  0  0  0  0  0  0  0
  150.7439  139.1295  154.7093 C   0  0  0  0  0  0  0  0  0  0  0  0
  150.2238  137.9746  155.3408 C   0  0  0  0  0  0  0  0  0  0  0  0
  149.8280  136.7937  154.6563 N   0  0  0  0  0  0  0  0  0  0  0  0
  149.6593  135.5543  155.1480 C   0  0  0  0  0  0  0  0  0  0  0  0
  149.8100  135.2278  156.3250 O   0  0  0  0  0  0  0  0  0  0  0  0
  149.2834  134.7012  154.1853 N   0  0  0  0  0  0  0  0  0  0  0  0
  149.0350  133.2768  154.3760 C   0  0  0  0  0  0  0  0  0  0  0  0
  148.3568  132.6566  153.1436 C   0  0  2  0  0  0  0  0  0  0  0  0
  147.3019  133.5544  152.5023 C   0  0  0  0  0  0  0  0  0  0  0  0
  146.4085  132.5714  151.7631 C   0  0  0  0  0  0  0  0  0  0  0  0
  146.7278  131.2189  152.4080 C   0  0  0  0  0  0  0  0  0  0  0  0
  147.5936  131.5135  153.4955 O   0  0  0  0  0  0  0  0  0  0  0  0
  150.0530  138.0138  156.7400 C   0  0  0  0  0  0  0  0  0  0  0  0
  150.3790  139.0770  157.5050 N   0  0  0  0  0  0  0  0  0  0  0  0
  151.4807  142.4784  157.0249 C   0  0  0  0  0  0  0  0  0  0  0  0
  151.6914  143.6464  158.0094 C   0  0  1  0  0  0  0  0  0  0  0  0
  150.3882  144.1442  158.6595 C   0  0  0  0  0  0  0  0  0  0  0  0
  152.6790  143.2973  158.9838 O   0  0  0  0  0  0  0  0  0  0  0  0
  153.4036  140.9571  161.2746 H   0  0  0  0  0  0  0  0  0  0  0  0
  153.6569  142.6963  161.3863 H   0  0  0  0  0  0  0  0  0  0  0  0
  154.5131  141.7600  160.1641 H   0  0  0  0  0  0  0  0  0  0  0  0
  151.4925  142.2140  160.2865 H   0  0  0  0  0  0  0  0  0  0  0  0
  153.1988  140.7431  158.2097 H   0  0  0  0  0  0  0  0  0  0  0  0
  151.9890  140.0149  159.2550 H   0  0  0  0  0  0  0  0  0  0  0  0
  151.4863  141.1321  155.0376 H   0  0  0  0  0  0  0  0  0  0  0  0
  150.8750  139.1927  153.6405 H   0  0  0  0  0  0  0  0  0  0  0  0
  149.5935  136.9185  153.6825 H   0  0  0  0  0  0  0  0  0  0  0  0
  149.1776  135.0588  153.2475 H   0  0  0  0  0  0  0  0  0  0  0  0
  149.9577  132.7470  154.6199 H   0  0  0  0  0  0  0  0  0  0  0  0
  148.3816  133.1714  155.2420 H   0  0  0  0  0  0  0  0  0  0  0  0
  149.1024  132.3738  152.3979 H   0  0  0  0  0  0  0  0  0  0  0  0
  146.7228  134.0652  153.2730 H   0  0  0  0  0  0  0  0  0  0  0  0
  147.7338  134.3119  151.8477 H   0  0  0  0  0  0  0  0  0  0  0  0
  145.3567  132.8373  151.8706 H   0  0  0  0  0  0  0  0  0  0  0  0
  146.6429  132.5487  150.6984 H   0  0  0  0  0  0  0  0  0  0  0  0
  145.8341  130.6997  152.7545 H   0  0  0  0  0  0  0  0  0  0  0  0
  147.2455  130.5696  151.7009 H   0  0  0  0  0  0  0  0  0  0  0  0
  149.6464  137.1624  157.2661 H   0  0  0  0  0  0  0  0  0  0  0  0
  152.3750  142.3530  156.4130 H   0  0  0  0  0  0  0  0  0  0  0  0
  150.6577  142.6993  156.3438 H   0  0  0  0  0  0  0  0  0  0  0  0
  152.1023  144.4849  157.4465 H   0  0  0  0  0  0  0  0  0  0  0  0
  149.7048  144.5330  157.9044 H   0  0  0  0  0  0  0  0  0  0  0  0
  150.5895  144.9486  159.3671 H   0  0  0  0  0  0  0  0  0  0  0  0
  149.8628  143.3524  159.1929 H   0  0  0  0  0  0  0  0  0  0  0  0
  1  2  1  0  0  0  0
  1 25  1  0  0  0  0
  1 26  1  0  0  0  0
  1 27  1  0  0  0  0
  2 24  1  0  0  0  0
  2  3  1  0  0  0  0
  2 28  1  0  0  0  0
  3  4  1  0  0  0  0
  3 29  1  0  0  0  0
  3 30  1  0  0  0  0
  4  5  1  0  0  0  0
  4 21  1  0  0  0  0
  5 20  1  0  0  0  0
  5  6  2  0  0  0  0
  6  7  1  0  0  0  0
  6 31  1  0  0  0  0
  7  8  2  0  0  0  0
  7 32  1  0  0  0  0
  8  9  1  0  0  0  0
  8 19  1  0  0  0  0
  9 10  1  0  0  0  0
  9 33  1  0  0  0  0
 10 11  2  0  0  0  0
 10 12  1  0  0  0  0
 12 13  1  0  0  0  0
 12 34  1  0  0  0  0
 13 14  1  0  0  0  0
 13 35  1  0  0  0  0
 13 36  1  0  0  0  0
 14 18  1  0  0  0  0
 14 15  1  0  0  0  0
 14 37  1  0  0  0  0
 15 16  1  0  0  0  0
 15 38  1  0  0  0  0
 15 39  1  0  0  0  0
 16 17  1  0  0  0  0
 16 40  1  0  0  0  0
 16 41  1  0  0  0  0
 17 18  1  0  0  0  0
 17 42  1  0  0  0  0
 17 43  1  0  0  0  0
 19 20  2  0  0  0  0
 19 44  1  0  0  0  0
 21 22  1  0  0  0  0
 21 45  1  0  0  0  0
 21 46  1  0  0  0  0
 22 23  1  0  0  0  0
 22 24  1  0  0  0  0
 22 47  1  0  0  0  0
 23 48  1  0  0  0  0
 23 49  1  0  0  0  0
 23 50  1  0  0  0  0
M  END
> <s_m_source_file>
AV-unprocessed.smi

> <i_m_source_file_index>
2034

> <i_lp_mmshare_version>
43012

> <i_f3d_flags>
0

> <s_epik_input>
W0NIM11bQ0BASF0xW0NIMl1OKFtDSDJdW0NASF0oTzEpW0NIM10pYzJbY0hdW2NIXWMoW2NIXW4yKVtOSF1DKD1PKVtOSF1bQ0gyXVtDQEBIXTNbQ0gyXVtDSDJdW0NIMl1PMw==

> <s_epik_cmdline>
J2VwaWtfcHl0aG9uJywgJy1waCcsICc3LjAnLCAnLXRuJywgJzgnLCAnLW1hJywgJzIwMCcsICctbWV0YWxfYmluZGluZycsICctaW1hZScsICc8aW5maWxlLm1hZT4nLCAnLW9tYWUnLCAnPG91dGZpbGUubWFlPic=

> <r_lp_tautomer_probability>
1

> <r_epik_Ionization_Penalty>
0.00268225

> <r_epik_Ionization_Penalty_Charging>
0

> <r_epik_Ionization_Penalty_Neutral>
0.00268225

> <r_epik_State_Penalty>
0.00184408

> <r_epik_Charging_Adjusted_Penalty>
0.00184408

> <i_epik_Tot_Q>
0

> <i_epik_Tot_abs_Q>
0

> <r_epik_Metal_State_Penalty>
-0

> <b_epik_Metal_Only>
0

> <s_lp_Force_Field>
OPLS_2005

> <r_lp_Energy>
37.5885

> <b_lp_Chiralities_Consistent>
1

> <s_lp_Variant>
AV-unprocessed.smi:2034-1

> <Gold.Version>
5.8.1

> <Gold.Id.Protein>
6NUR|6NUR_protein|mol2

> <Gold.PLP.Fitness>
45.6256

> <Gold.PLP.PLP>
-41.1543

> <Gold.PLP.part.hbond>
-2.0000

> <Gold.PLP.part.metal>
0.0000

> <Gold.PLP.part.buried>
-5.4031

> <Gold.PLP.part.nonpolar>
-33.7413

> <Gold.PLP.part.repulsive>
0.1600

> <Gold.PLP.ligand.clash>
0.5540

> <Gold.PLP.ligand.torsion>
0.5466

> <Gold.PLP.Chemscore.Hbond>
1.9833

> <Gold.PLP.Chemscore.CHOScore>
0.0000

> <Gold.PLP.Chemscore.Metal>
0.0000

> <Gold.Chemscore.Hbonds>
donor molecule, donor type, donor heavy atom, donor atom, acceptor molecule, acceptor atom, score
      L1  H     9    33       P1  7948  1.00
      L1  H    12    34       P1  7948  0.80

> <Gold.PLP.Chemscore.Internal.Correction>
0.1684

> <Gold.Rescore>
     Score         DG    S(hbond)    S(metal)    S(lipo)     H(rot)  DE(clash)    DE(int)     intcor
     18.07     -19.91       1.64        0.00     106.36       1.37       0.21       1.63       ----

> <Gold.Chemscore.Fitness>
18.0704

> <Gold.Chemscore.DG>
-19.9130

> <Gold.Chemscore.ZeroCoef>
-5.4800

> <Gold.Chemscore.Hbond>
1.6427

> <Gold.Chemscore.Metal>
0.0000

> <Gold.Chemscore.Lipo>
106.3607

> <Gold.Chemscore.Internal_Hbond>
0.0000

> <Gold.Chemscore.DEClash>
0.2083

> <Gold.Chemscore.DEInternal>
1.6343

> <Gold.Chemscore.Rot>
1.3663

> <Gold.Chemscore.Internal.Correction>
   9.000000E+99

> <Gold.Chemscore.Hbonds>
donor molecule, donor type, donor heavy atom, donor atom, acceptor molecule, acceptor atom, score
      L1  H     9    33       P1  7948  0.72
      L1  H    12    34       P1  7948  0.12

> <Gold.Chemscore.Hbond.Weighted>
-5.4865

> <Gold.Chemscore.Metal.Weighted>
-0.0000

> <Gold.Chemscore.Lipo.Weighted>
-12.4442

> <Gold.Chemscore.Internal_Hbond.Weighted>
0.0000

> <Gold.Chemscore.DEClash.Weighted>
0.2083

> <Gold.Chemscore.DEInternal.Weighted>
1.6343

> <Gold.Chemscore.Rot.Weighted>
3.4977

> <Gold.Chemscore.Internal.Correction.Weighted>
   9.000000E+99

> <Gold.Protein.RotatedTorsions>
[ 6907 6896 6895 6894 ] final  109.71 input  -60.11 | X-H torsion
[ 7974 7965 7964 7962 ] final  143.10 input  175.53 | X-H torsion
[ 8008 7997 7996 7995 ] final  162.69 input   59.86 | X-H torsion
[ 10167 10162 10161 10158 ] final  -61.86 input  -65.29 | X-H torsion
[ 10718 10713 10712 10709 ] final   73.18 input   66.30 | X-H torsion
[ 10763 10752 10751 10750 ] final -158.25 input  -60.55 | X-H torsion
[ 11005 11000 10999 10996 ] final  -25.52 input  -57.11 | X-H torsion

> <Gold.Protein.ActiveResidues>
 VAL166  LYS551  ARG553  GLY616  TRP617  ASP618  TYR619  PRO620  LYS621  CYS622 
 ASP623  PHE694  ASN695  SER759  ASP760  ASP761  ALA762  ILE779  LEU786  VAL792 
 PHE793  MET794  SER795  GLU796  ALA797  LYS798  CYS799  TRP800  GLU811  SER814 

> <Gold.Protein.RotatedAtoms>
  152.5054  133.8905  159.7391 H   0  0  0  0  0  0  0  0  0  0  0  0  # atno 6907 bound_to 6896
  150.9345  133.6719  159.2810 H   0  0  0  0  0  0  0  0  0  0  0  0  # atno 6908 bound_to 6896
  151.4052  135.0982  159.9621 H   0  0  0  0  0  0  0  0  0  0  0  0  # atno 6909 bound_to 6896
  144.8950  139.5503  143.5780 H   0  0  0  0  0  0  0  0  0  0  0  0  # atno 7974 bound_to 7965
  156.2013  140.1743  156.7894 H   0  0  0  0  0  0  0  0  0  0  0  0  # atno 8008 bound_to 7997
  154.5595  140.0702  156.8827 H   0  0  0  0  0  0  0  0  0  0  0  0  # atno 8009 bound_to 7997
  155.2875  140.3353  155.4257 H   0  0  0  0  0  0  0  0  0  0  0  0  # atno 8010 bound_to 7997
  140.5977  143.2354  151.5998 H   0  0  0  0  0  0  0  0  0  0  0  0  # atno 10167 bound_to 10162
  157.6536  130.9616  150.1033 H   0  0  0  0  0  0  0  0  0  0  0  0  # atno 10718 bound_to 10713
  154.7571  135.3108  154.8449 H   0  0  0  0  0  0  0  0  0  0  0  0  # atno 10763 bound_to 10752
  153.9220  135.6794  153.4751 H   0  0  0  0  0  0  0  0  0  0  0  0  # atno 10764 bound_to 10752
  153.1169  135.4840  154.9061 H   0  0  0  0  0  0  0  0  0  0  0  0  # atno 10765 bound_to 10752
  140.8946  133.7565  156.0464 H   0  0  0  0  0  0  0  0  0  0  0  0  # atno 11005 bound_to 11000
  146.3076  139.7634  142.9044 LP  0  0  0  0  0  0  0  0  0  0  0  0  # atno 17320 bound_to 7965
  145.3715  141.0343  143.3228 LP  0  0  0  0  0  0  0  0  0  0  0  0  # atno 17321 bound_to 7965
  139.5270  144.3030  152.1057 LP  0  0  0  0  0  0  0  0  0  0  0  0  # atno 17342 bound_to 10162
  140.2205  144.4471  150.6344 LP  0  0  0  0  0  0  0  0  0  0  0  0  # atno 17343 bound_to 10162
  156.1950  130.3657  149.8861 LP  0  0  0  0  0  0  0  0  0  0  0  0  # atno 17370 bound_to 10713
  156.6780  130.8847  151.3572 LP  0  0  0  0  0  0  0  0  0  0  0  0  # atno 17371 bound_to 10713
  140.8305  134.3183  157.5350 LP  0  0  0  0  0  0  0  0  0  0  0  0  # atno 17394 bound_to 11000
  139.8734  134.9361  156.3650 LP  0  0  0  0  0  0  0  0  0  0  0  0  # atno 17395 bound_to 11000

$$$$
