AV-unprocessed.smi:2202|AV-procd|sdf|8932|dock1
  -GOLD-   2272012143D 1   1.00000     0.00000
 Structure written by MMmdl.
 43 45  0  0  0  0  0  0  0  0  2 V2000
  152.7200  139.5070  155.2237 O   0  0  0  0  0  0  0  0  0  0  0  0
  151.5287  139.2121  155.3350 C   0  0  0  0  0  0  0  0  0  0  0  0
  150.8524  138.2508  154.3467 C   0  0  0  0  0  0  0  0  0  0  0  0
  150.0996  137.1710  155.0018 N   0  0  0  0  0  0  0  0  0  0  0  0
  150.6572  136.2389  155.7853 C   0  0  0  0  0  0  0  0  0  0  0  0
  151.8553  136.1487  156.0560 O   0  0  0  0  0  0  0  0  0  0  0  0
  149.6084  135.2739  156.3427 C   0  0  2  0  0  0  0  0  0  0  0  0
  149.9504  133.7996  156.0011 C   0  0  0  0  0  0  0  0  0  0  0  0
  149.5057  133.4027  154.6086 C   0  0  0  0  0  0  0  0  0  0  0  0
  148.3671  133.8742  154.0838 C   0  0  0  0  0  0  0  0  0  0  0  0
  147.4795  134.8231  154.8622 C   0  0  0  0  0  0  0  0  0  0  0  0
  148.2875  135.8218  155.7324 C   0  0  2  0  0  0  0  0  0  0  0  0
  148.7718  137.0199  154.9124 C   0  0  0  0  0  0  0  0  0  0  0  0
  148.0061  137.7416  154.2727 O   0  0  0  0  0  0  0  0  0  0  0  0
  150.7447  139.6964  156.3099 N   0  0  0  0  0  0  0  0  0  0  0  0
  151.1839  140.6206  157.3485 C   0  0  0  0  0  0  0  0  0  0  0  0
  150.6772  142.0491  157.0864 C   0  0  0  0  0  0  0  0  0  0  0  0
  151.2580  143.0519  158.0637 C   0  0  0  0  0  0  0  0  0  0  0  0
  152.1355  142.6716  159.1023 C   0  0  0  0  0  0  0  0  0  0  0  0
  152.6420  143.6600  159.9721 C   0  0  0  0  0  0  0  0  0  0  0  0
  152.2619  145.0052  159.7847 C   0  0  0  0  0  0  0  0  0  0  0  0
  151.3831  145.3289  158.7307 C   0  0  0  0  0  0  0  0  0  0  0  0
  150.9193  144.3538  157.9186 N   0  3  0  0  0  0  0  0  0  0  0  0
  150.1941  138.8282  153.6954 H   0  0  0  0  0  0  0  0  0  0  0  0
  151.6144  137.8254  153.6909 H   0  0  0  0  0  0  0  0  0  0  0  0
  149.5980  135.3966  157.4265 H   0  0  0  0  0  0  0  0  0  0  0  0
  151.0212  133.6143  156.0954 H   0  0  0  0  0  0  0  0  0  0  0  0
  149.4656  133.1301  156.7121 H   0  0  0  0  0  0  0  0  0  0  0  0
  150.1071  132.6845  154.0708 H   0  0  0  0  0  0  0  0  0  0  0  0
  148.0276  133.5458  153.1125 H   0  0  0  0  0  0  0  0  0  0  0  0
  146.8291  135.3506  154.1631 H   0  0  0  0  0  0  0  0  0  0  0  0
  146.8214  134.2256  155.4938 H   0  0  0  0  0  0  0  0  0  0  0  0
  147.6438  136.2090  156.5233 H   0  0  0  0  0  0  0  0  0  0  0  0
  149.7792  139.4012  156.3351 H   0  0  0  0  0  0  0  0  0  0  0  0
  150.8067  140.2621  158.3066 H   0  0  0  0  0  0  0  0  0  0  0  0
  152.2730  140.6053  157.4185 H   0  0  0  0  0  0  0  0  0  0  0  0
  150.9343  142.3646  156.0742 H   0  0  0  0  0  0  0  0  0  0  0  0
  149.5885  142.0756  157.1484 H   0  0  0  0  0  0  0  0  0  0  0  0
  152.4197  141.6372  159.2316 H   0  0  0  0  0  0  0  0  0  0  0  0
  153.3150  143.3893  160.7728 H   0  0  0  0  0  0  0  0  0  0  0  0
  152.6387  145.7772  160.4398 H   0  0  0  0  0  0  0  0  0  0  0  0
  151.0400  146.3300  158.5138 H   0  0  0  0  0  0  0  0  0  0  0  0
  150.2847  144.6103  157.1618 H   0  0  0  0  0  0  0  0  0  0  0  0
  1  2  2  0  0  0  0
  2  3  1  0  0  0  0
  2 15  1  0  0  0  0
  3  4  1  0  0  0  0
  3 24  1  0  0  0  0
  3 25  1  0  0  0  0
  4 13  1  0  0  0  0
  4  5  1  0  0  0  0
  5  6  2  0  0  0  0
  5  7  1  0  0  0  0
  7 12  1  0  0  0  0
  7  8  1  0  0  0  0
  7 26  1  0  0  0  0
  8  9  1  0  0  0  0
  8 27  1  0  0  0  0
  8 28  1  0  0  0  0
  9 10  2  0  0  0  0
  9 29  1  0  0  0  0
 10 11  1  0  0  0  0
 10 30  1  0  0  0  0
 11 12  1  0  0  0  0
 11 31  1  0  0  0  0
 11 32  1  0  0  0  0
 12 13  1  0  0  0  0
 12 33  1  0  0  0  0
 13 14  2  0  0  0  0
 15 16  1  0  0  0  0
 15 34  1  0  0  0  0
 16 17  1  0  0  0  0
 16 35  1  0  0  0  0
 16 36  1  0  0  0  0
 17 18  1  0  0  0  0
 17 37  1  0  0  0  0
 17 38  1  0  0  0  0
 18 23  1  0  0  0  0
 18 19  2  0  0  0  0
 19 20  1  0  0  0  0
 19 39  1  0  0  0  0
 20 21  2  0  0  0  0
 20 40  1  0  0  0  0
 21 22  1  0  0  0  0
 21 41  1  0  0  0  0
 22 23  2  0  0  0  0
 22 42  1  0  0  0  0
 23 43  1  0  0  0  0
M  CHG  1  23   1
M  END
> <s_m_source_file>
AV-unprocessed.smi

> <i_m_source_file_index>
2202

> <i_lp_mmshare_version>
43012

> <i_f3d_flags>
0

> <s_epik_input>
W0NIMl0xW0NIXT1bQ0hdW0NIMl1bQ0BIXShbQ0BIXTEyKUMoPU8pTihDMj1PKVtDSDJdQyg9TylbTkhdW0NIMl1bQ0gyXWMzW2NIXVtjSF1bY0hdW2NIXW4z

> <s_epik_cmdline>
J2VwaWtfcHl0aG9uJywgJy1waCcsICc3LjAnLCAnLXRuJywgJzgnLCAnLW1hJywgJzIwMCcsICctbWV0YWxfYmluZGluZycsICctaW1hZScsICc8aW5maWxlLm1hZT4nLCAnLW9tYWUnLCAnPG91dGZpbGUubWFlPic=

> <r_lp_tautomer_probability>
1

> <r_epik_Ionization_Penalty>
1.90039

> <r_epik_Ionization_Penalty_Charging>
1.90039

> <r_epik_Ionization_Penalty_Neutral>
1.50224e-07

> <r_epik_State_Penalty>
2.02162

> <r_epik_Charging_Adjusted_Penalty>
3.922

> <i_epik_Tot_Q>
1

> <i_epik_Tot_abs_Q>
1

> <r_epik_Metal_State_Penalty>
2.04542

> <b_epik_Metal_Only>
0

> <s_lp_Force_Field>
OPLS_2005

> <r_lp_Energy>
20.8283

> <b_lp_Chiralities_Consistent>
1

> <s_lp_Variant>
AV-unprocessed.smi:2202-4

> <Gold.Version>
5.8.1

> <Gold.Id.Protein>
6NUR|6NUR_protein|mol2

> <Gold.PLP.Fitness>
54.8941

> <Gold.PLP.PLP>
-43.0976

> <Gold.PLP.part.hbond>
-3.9018

> <Gold.PLP.part.metal>
0.0000

> <Gold.PLP.part.buried>
-6.4706

> <Gold.PLP.part.nonpolar>
-33.9833

> <Gold.PLP.part.repulsive>
0.7502

> <Gold.PLP.ligand.clash>
0.0000

> <Gold.PLP.ligand.torsion>
0.2211

> <Gold.PLP.Chemscore.Hbond>
4.0505

> <Gold.PLP.Chemscore.CHOScore>
0.0000

> <Gold.PLP.Chemscore.Metal>
0.0000

> <Gold.Chemscore.Hbonds>
donor molecule, donor type, donor heavy atom, donor atom, acceptor molecule, acceptor atom, score
      L1  H    23    43       P1  8028  2.00
      P1  H  7997  8009       L1     1  1.00
      P1  H 10752 10764       L1     6  1.00

> <Gold.PLP.Chemscore.Internal.Correction>
0.0871

> <Gold.Rescore>
     Score         DG    S(hbond)    S(metal)    S(lipo)     H(rot)  DE(clash)    DE(int)     intcor
     20.99     -21.70       2.81        0.00     101.48       1.96       0.46       0.25       ----

> <Gold.Chemscore.Fitness>
20.9874

> <Gold.Chemscore.DG>
-21.6986

> <Gold.Chemscore.ZeroCoef>
-5.4800

> <Gold.Chemscore.Hbond>
2.8051

> <Gold.Chemscore.Metal>
0.0000

> <Gold.Chemscore.Lipo>
101.4819

> <Gold.Chemscore.Internal_Hbond>
0.0000

> <Gold.Chemscore.DEClash>
0.4609

> <Gold.Chemscore.DEInternal>
0.2503

> <Gold.Chemscore.Rot>
1.9625

> <Gold.Chemscore.Internal.Correction>
   9.000000E+99

> <Gold.Chemscore.Hbonds>
donor molecule, donor type, donor heavy atom, donor atom, acceptor molecule, acceptor atom, score
      L1  H    23    43       P1  8028  0.52
      P1  H  7997  8009       L1     1  0.98
      P1  H 10752 10764       L1     6  1.00

> <Gold.Chemscore.Hbond.Weighted>
-9.3691

> <Gold.Chemscore.Metal.Weighted>
-0.0000

> <Gold.Chemscore.Lipo.Weighted>
-11.8734

> <Gold.Chemscore.Internal_Hbond.Weighted>
0.0000

> <Gold.Chemscore.DEClash.Weighted>
0.4609

> <Gold.Chemscore.DEInternal.Weighted>
0.2503

> <Gold.Chemscore.Rot.Weighted>
5.0240

> <Gold.Chemscore.Internal.Correction.Weighted>
   9.000000E+99

> <Gold.Protein.RotatedTorsions>
[ 6907 6896 6895 6894 ] final   18.77 input  -60.11 | X-H torsion
[ 7974 7965 7964 7962 ] final  150.33 input  175.53 | X-H torsion
[ 8008 7997 7996 7995 ] final -141.28 input   59.86 | X-H torsion
[ 10167 10162 10161 10158 ] final   36.25 input  -65.29 | X-H torsion
[ 10718 10713 10712 10709 ] final  109.52 input   66.30 | X-H torsion
[ 10763 10752 10751 10750 ] final  -21.54 input  -60.55 | X-H torsion
[ 11005 11000 10999 10996 ] final   57.17 input  -57.11 | X-H torsion

> <Gold.Protein.ActiveResidues>
 VAL166  LYS551  ARG553  GLY616  TRP617  ASP618  TYR619  PRO620  LYS621  CYS622 
 ASP623  PHE694  ASN695  SER759  ASP760  ASP761  ALA762  ILE779  LEU786  VAL792 
 PHE793  MET794  SER795  GLU796  ALA797  LYS798  CYS799  TRP800  GLU811  SER814 

> <Gold.Protein.RotatedAtoms>
  151.8705  135.0491  160.0478 H   0  0  0  0  0  0  0  0  0  0  0  0  # atno 6907 bound_to 6896
  152.2592  133.5277  159.5379 H   0  0  0  0  0  0  0  0  0  0  0  0  # atno 6908 bound_to 6896
  150.7110  134.0770  159.3927 H   0  0  0  0  0  0  0  0  0  0  0  0  # atno 6909 bound_to 6896
  144.8372  139.6394  143.6032 H   0  0  0  0  0  0  0  0  0  0  0  0  # atno 7974 bound_to 7965
  155.4751  140.0556  157.2974 H   0  0  0  0  0  0  0  0  0  0  0  0  # atno 8008 bound_to 7997
  154.4682  140.2028  156.0015 H   0  0  0  0  0  0  0  0  0  0  0  0  # atno 8009 bound_to 7997
  156.1011  140.3219  155.7948 H   0  0  0  0  0  0  0  0  0  0  0  0  # atno 8010 bound_to 7997
  140.4145  144.1546  150.6142 H   0  0  0  0  0  0  0  0  0  0  0  0  # atno 10167 bound_to 10162
  157.6537  131.0915  150.6466 H   0  0  0  0  0  0  0  0  0  0  0  0  # atno 10718 bound_to 10713
  153.6378  135.6986  153.5252 H   0  0  0  0  0  0  0  0  0  0  0  0  # atno 10763 bound_to 10752
  153.2807  135.4186  155.1075 H   0  0  0  0  0  0  0  0  0  0  0  0  # atno 10764 bound_to 10752
  154.8507  135.3601  154.5921 H   0  0  0  0  0  0  0  0  0  0  0  0  # atno 10765 bound_to 10752
  140.0473  134.5787  155.9307 H   0  0  0  0  0  0  0  0  0  0  0  0  # atno 11005 bound_to 11000
  146.2669  139.6542  142.9323 LP  0  0  0  0  0  0  0  0  0  0  0  0  # atno 17320 bound_to 7965
  145.4769  141.0437  143.2667 LP  0  0  0  0  0  0  0  0  0  0  0  0  # atno 17321 bound_to 7965
  140.4601  143.2452  151.9231 LP  0  0  0  0  0  0  0  0  0  0  0  0  # atno 17342 bound_to 10162
  139.4782  144.5476  151.8435 LP  0  0  0  0  0  0  0  0  0  0  0  0  # atno 17343 bound_to 10162
  156.6775  130.4557  149.5638 LP  0  0  0  0  0  0  0  0  0  0  0  0  # atno 17370 bound_to 10713
  156.1953  130.6585  151.1107 LP  0  0  0  0  0  0  0  0  0  0  0  0  # atno 17371 bound_to 10713
  141.1913  133.6571  156.5451 LP  0  0  0  0  0  0  0  0  0  0  0  0  # atno 17394 bound_to 11000
  140.3973  134.7387  157.4758 LP  0  0  0  0  0  0  0  0  0  0  0  0  # atno 17395 bound_to 11000

$$$$
