AV-unprocessed.smi:530|AV-procd|sdf|2843|dock3
  -GOLD-   2262023333D 1   1.00000     0.00000
 Structure written by MMmdl.
 35 37  0  0  0  0  0  0  0  0  1 V2000
  152.2857  138.6780  158.9272 C   0  0  0  0  0  0  0  0  0  0  0  0
  152.1980  140.1707  158.8821 C   0  0  0  0  0  0  0  0  0  0  0  0
  152.9209  140.9503  159.6865 N   0  0  0  0  0  0  0  0  0  0  0  0
  152.5314  142.2206  159.3070 C   0  0  0  0  0  0  0  0  0  0  0  0
  152.9380  143.4872  159.7846 C   0  0  0  0  0  0  0  0  0  0  0  0
  152.3916  144.6662  159.2365 C   0  0  0  0  0  0  0  0  0  0  0  0
  151.4325  144.5959  158.2053 C   0  0  0  0  0  0  0  0  0  0  0  0
  151.0150  143.3443  157.7133 C   0  0  0  0  0  0  0  0  0  0  0  0
  151.5641  142.1705  158.2631 C   0  0  0  0  0  0  0  0  0  0  0  0
  151.3770  140.8138  158.0159 N   0  0  0  0  0  0  0  0  0  0  0  0
  150.4830  140.2279  157.0263 C   0  0  0  0  0  0  0  0  0  0  0  0
  150.6202  140.8757  155.6338 C   0  0  1  0  0  0  0  0  0  0  0  0
  151.7683  140.3750  154.9758 O   0  0  0  0  0  0  0  0  0  0  0  0
  149.3555  140.6812  154.8119 C   0  0  0  0  0  0  0  0  0  0  0  0
  148.5132  141.7760  154.5167 C   0  0  0  0  0  0  0  0  0  0  0  0
  147.3489  141.5886  153.7465 C   0  0  0  0  0  0  0  0  0  0  0  0
  147.0214  140.3067  153.2649 C   0  0  0  0  0  0  0  0  0  0  0  0
  147.8597  139.2125  153.5522 C   0  0  0  0  0  0  0  0  0  0  0  0
  149.0243  139.3994  154.3222 C   0  0  0  0  0  0  0  0  0  0  0  0
  152.9995  138.3604  159.6880 H   0  0  0  0  0  0  0  0  0  0  0  0
  152.6170  138.2886  157.9645 H   0  0  0  0  0  0  0  0  0  0  0  0
  151.3144  138.2471  159.1692 H   0  0  0  0  0  0  0  0  0  0  0  0
  153.6711  143.5514  160.5750 H   0  0  0  0  0  0  0  0  0  0  0  0
  152.7091  145.6288  159.6096 H   0  0  0  0  0  0  0  0  0  0  0  0
  151.0171  145.5036  157.7921 H   0  0  0  0  0  0  0  0  0  0  0  0
  150.2784  143.2865  156.9258 H   0  0  0  0  0  0  0  0  0  0  0  0
  150.6850  139.1576  156.9677 H   0  0  0  0  0  0  0  0  0  0  0  0
  149.4575  140.3196  157.3846 H   0  0  0  0  0  0  0  0  0  0  0  0
  150.7815  141.9469  155.7568 H   0  0  0  0  0  0  0  0  0  0  0  0
  151.9957  139.5432  155.3621 H   0  0  0  0  0  0  0  0  0  0  0  0
  148.7591  142.7640  154.8777 H   0  0  0  0  0  0  0  0  0  0  0  0
  146.7078  142.4291  153.5242 H   0  0  0  0  0  0  0  0  0  0  0  0
  146.1288  140.1631  152.6740 H   0  0  0  0  0  0  0  0  0  0  0  0
  147.6104  138.2294  153.1809 H   0  0  0  0  0  0  0  0  0  0  0  0
  149.6631  138.5543  154.5336 H   0  0  0  0  0  0  0  0  0  0  0  0
  1  2  1  0  0  0  0
  1 20  1  0  0  0  0
  1 21  1  0  0  0  0
  1 22  1  0  0  0  0
  2 10  1  0  0  0  0
  2  3  2  0  0  0  0
  3  4  1  0  0  0  0
  4  9  2  0  0  0  0
  4  5  1  0  0  0  0
  5  6  2  0  0  0  0
  5 23  1  0  0  0  0
  6  7  1  0  0  0  0
  6 24  1  0  0  0  0
  7  8  2  0  0  0  0
  7 25  1  0  0  0  0
  8  9  1  0  0  0  0
  8 26  1  0  0  0  0
  9 10  1  0  0  0  0
 10 11  1  0  0  0  0
 11 12  1  0  0  0  0
 11 27  1  0  0  0  0
 11 28  1  0  0  0  0
 12 13  1  0  0  0  0
 12 14  1  0  0  0  0
 12 29  1  0  0  0  0
 13 30  1  0  0  0  0
 14 19  1  0  0  0  0
 14 15  2  0  0  0  0
 15 16  1  0  0  0  0
 15 31  1  0  0  0  0
 16 17  2  0  0  0  0
 16 32  1  0  0  0  0
 17 18  1  0  0  0  0
 17 33  1  0  0  0  0
 18 19  2  0  0  0  0
 18 34  1  0  0  0  0
 19 35  1  0  0  0  0
M  END
> <s_m_source_file>
AV-unprocessed.smi

> <i_m_source_file_index>
530

> <i_lp_mmshare_version>
43012

> <i_f3d_flags>
0

> <s_epik_input>
W2NIXTFbY0hdW2NIXVtjSF1jKGMxMiluKGMobjIpW0NIM10pW0NIMl1bQ0BIXShbT0hdKWMzW2NIXVtjSF1bY0hdW2NIXVtjSF0z

> <s_epik_cmdline>
J2VwaWtfcHl0aG9uJywgJy1waCcsICc3LjAnLCAnLXRuJywgJzgnLCAnLW1hJywgJzIwMCcsICctbWV0YWxfYmluZGluZycsICctaW1hZScsICc8aW5maWxlLm1hZT4nLCAnLW9tYWUnLCAnPG91dGZpbGUubWFlPic=

> <r_epik_Ionization_Penalty>
0.129663

> <r_epik_Ionization_Penalty_Charging>
0

> <r_epik_Ionization_Penalty_Neutral>
0.129663

> <r_epik_State_Penalty>
0.119073

> <r_epik_Charging_Adjusted_Penalty>
0.119073

> <i_epik_Tot_Q>
0

> <i_epik_Tot_abs_Q>
0

> <r_epik_Metal_State_Penalty>
0.000131867

> <b_epik_Metal_Only>
0

> <s_lp_Force_Field>
OPLS_2005

> <r_lp_Energy>
11.6979

> <b_lp_Chiralities_Consistent>
1

> <s_lp_Variant>
AV-unprocessed.smi:530-2

> <Gold.Version>
5.8.1

> <Gold.Id.Protein>
6NUR|6NUR_protein|mol2

> <Gold.PLP.Fitness>
47.9347

> <Gold.PLP.PLP>
-46.2017

> <Gold.PLP.part.hbond>
-1.0000

> <Gold.PLP.part.metal>
0.0000

> <Gold.PLP.part.buried>
-2.5756

> <Gold.PLP.part.nonpolar>
-40.5600

> <Gold.PLP.part.repulsive>
0.0000

> <Gold.PLP.ligand.clash>
0.0000

> <Gold.PLP.ligand.torsion>
0.4658

> <Gold.PLP.Chemscore.Hbond>
0.8800

> <Gold.PLP.Chemscore.CHOScore>
0.0000

> <Gold.PLP.Chemscore.Metal>
0.0000

> <Gold.Chemscore.Hbonds>
donor molecule, donor type, donor heavy atom, donor atom, acceptor molecule, acceptor atom, score
      P1  H  7989  7998       L1    13  0.83

> <Gold.PLP.Chemscore.Internal.Correction>
0.0245

> <Gold.Rescore>
     Score         DG    S(hbond)    S(metal)    S(lipo)     H(rot)  DE(clash)    DE(int)     intcor
     17.54     -17.88       0.83        0.00     119.55       1.70       0.00       0.34       ----

> <Gold.Chemscore.Fitness>
17.5357

> <Gold.Chemscore.DG>
-17.8768

> <Gold.Chemscore.ZeroCoef>
-5.4800

> <Gold.Chemscore.Hbond>
0.8279

> <Gold.Chemscore.Metal>
0.0000

> <Gold.Chemscore.Lipo>
119.5458

> <Gold.Chemscore.Internal_Hbond>
0.0000

> <Gold.Chemscore.DEClash>
0.0030

> <Gold.Chemscore.DEInternal>
0.3382

> <Gold.Chemscore.Rot>
1.7013

> <Gold.Chemscore.Internal.Correction>
   9.000000E+99

> <Gold.Chemscore.Hbonds>
donor molecule, donor type, donor heavy atom, donor atom, acceptor molecule, acceptor atom, score
      P1  H  7989  7998       L1    13  0.44

> <Gold.Chemscore.Hbond.Weighted>
-2.7653

> <Gold.Chemscore.Metal.Weighted>
-0.0000

> <Gold.Chemscore.Lipo.Weighted>
-13.9869

> <Gold.Chemscore.Internal_Hbond.Weighted>
0.0000

> <Gold.Chemscore.DEClash.Weighted>
0.0030

> <Gold.Chemscore.DEInternal.Weighted>
0.3382

> <Gold.Chemscore.Rot.Weighted>
4.3554

> <Gold.Chemscore.Internal.Correction.Weighted>
   9.000000E+99

> <Gold.Protein.RotatedTorsions>
[ 6907 6896 6895 6894 ] final -127.08 input  -60.11 | X-H torsion
[ 7974 7965 7964 7962 ] final -105.43 input  175.53 | X-H torsion
[ 8008 7997 7996 7995 ] final -135.34 input   59.86 | X-H torsion
[ 10167 10162 10161 10158 ] final   -7.33 input  -65.29 | X-H torsion
[ 10718 10713 10712 10709 ] final  -42.11 input   66.30 | X-H torsion
[ 10763 10752 10751 10750 ] final  -90.38 input  -60.55 | X-H torsion
[ 11005 11000 10999 10996 ] final  104.69 input  -57.11 | X-H torsion

> <Gold.Protein.ActiveResidues>
 VAL166  LYS551  ARG553  GLY616  TRP617  ASP618  TYR619  PRO620  LYS621  CYS622 
 ASP623  PHE694  ASN695  SER759  ASP760  ASP761  ALA762  ILE779  LEU786  VAL792 
 PHE793  MET794  SER795  GLU796  ALA797  LYS798  CYS799  TRP800  GLU811  SER814 

> <Gold.Protein.RotatedAtoms>
  150.9036  133.7087  159.2872 H   0  0  0  0  0  0  0  0  0  0  0  0  # atno 6907 bound_to 6896
  151.4597  135.1036  159.9731 H   0  0  0  0  0  0  0  0  0  0  0  0  # atno 6908 bound_to 6896
  152.4891  133.8402  159.7204 H   0  0  0  0  0  0  0  0  0  0  0  0  # atno 6909 bound_to 6896
  145.2305  140.9169  143.3207 H   0  0  0  0  0  0  0  0  0  0  0  0  # atno 7974 bound_to 7965
  155.3771  140.0492  157.3044 H   0  0  0  0  0  0  0  0  0  0  0  0  # atno 8008 bound_to 7997
  154.5101  140.2188  155.9136 H   0  0  0  0  0  0  0  0  0  0  0  0  # atno 8009 bound_to 7997
  156.1572  140.3124  155.8752 H   0  0  0  0  0  0  0  0  0  0  0  0  # atno 8010 bound_to 7997
  140.7025  143.6092  150.8720 H   0  0  0  0  0  0  0  0  0  0  0  0  # atno 10167 bound_to 10162
  156.2631  130.4199  149.8520 H   0  0  0  0  0  0  0  0  0  0  0  0  # atno 10718 bound_to 10713
  154.6651  135.5306  153.8067 H   0  0  0  0  0  0  0  0  0  0  0  0  # atno 10763 bound_to 10752
  153.0466  135.6515  154.0811 H   0  0  0  0  0  0  0  0  0  0  0  0  # atno 10764 bound_to 10752
  154.0716  135.2954  155.3287 H   0  0  0  0  0  0  0  0  0  0  0  0  # atno 10765 bound_to 10752
  139.8794  134.9309  156.5399 H   0  0  0  0  0  0  0  0  0  0  0  0  # atno 11005 bound_to 11000
  144.9681  139.3909  143.6323 LP  0  0  0  0  0  0  0  0  0  0  0  0  # atno 17320 bound_to 7965
  146.3354  139.8765  142.8831 LP  0  0  0  0  0  0  0  0  0  0  0  0  # atno 17321 bound_to 7965
  139.9816  143.5945  152.2941 LP  0  0  0  0  0  0  0  0  0  0  0  0  # atno 17342 bound_to 10162
  139.6568  144.7662  151.2040 LP  0  0  0  0  0  0  0  0  0  0  0  0  # atno 17343 bound_to 10162
  156.6029  130.8554  151.3436 LP  0  0  0  0  0  0  0  0  0  0  0  0  # atno 17370 bound_to 10713
  157.7257  130.9620  150.1627 LP  0  0  0  0  0  0  0  0  0  0  0  0  # atno 17371 bound_to 10713
  140.8318  133.8273  155.8991 LP  0  0  0  0  0  0  0  0  0  0  0  0  # atno 17394 bound_to 11000
  140.9321  134.2008  157.4856 LP  0  0  0  0  0  0  0  0  0  0  0  0  # atno 17395 bound_to 11000

$$$$
