AV-unprocessed.smi:910|AV-procd|sdf|4121|dock3
  -GOLD-   22720 2 23D 1   1.00000     0.00000
 Structure written by MMmdl.
 46 47  0  0  0  0  0  0  0  0  1 V2000
  145.7690  137.5370  151.7097 C   0  0  0  0  0  0  0  0  0  0  0  0
  146.5389  138.1504  152.8583 C   0  0  0  0  0  0  0  0  0  0  0  0
  147.7365  138.7860  152.6726 N   0  0  0  0  0  0  0  0  0  0  0  0
  148.1869  139.2282  153.9066 C   0  0  0  0  0  0  0  0  0  0  0  0
  149.2785  139.8771  154.1700 N   0  0  0  0  0  0  0  0  0  0  0  0
  149.5282  140.2150  155.4893 C   0  0  0  0  0  0  0  0  0  0  0  0
  148.7119  140.5992  156.3330 O   0  0  0  0  0  0  0  0  0  0  0  0
  150.8427  140.1481  155.7523 N   0  0  0  0  0  0  0  0  0  0  0  0
  151.4784  140.5892  156.9904 C   0  0  0  0  0  0  0  0  0  0  0  0
  150.9863  141.9887  157.3848 C   0  0  0  0  0  0  0  0  0  0  0  0
  151.4025  142.2556  158.7157 O   0  0  0  0  0  0  0  0  0  0  0  0
  152.6203  142.9775  158.8510 C   0  0  1  0  0  0  0  0  0  0  0  0
  152.4924  144.4001  158.2604 C   0  0  0  0  0  0  0  0  0  0  0  0
  151.4447  145.2352  159.0144 C   0  0  0  0  0  0  0  0  0  0  0  0
  151.7673  145.2997  160.5139 C   0  0  0  0  0  0  0  0  0  0  0  0
  151.9074  143.8926  161.1169 C   0  0  0  0  0  0  0  0  0  0  0  0
  152.9555  143.0520  160.3579 C   0  0  1  0  0  0  0  0  0  0  0  0
  153.1281  141.6581  160.9813 C   0  0  0  0  0  0  0  0  0  0  0  0
  147.2337  138.8528  154.8260 O   0  0  0  0  0  0  0  0  0  0  0  0
  146.2484  138.1947  154.1559 C   0  0  0  0  0  0  0  0  0  0  0  0
  145.0706  137.6561  154.9361 C   0  0  0  0  0  0  0  0  0  0  0  0
  145.6427  136.4660  151.8699 H   0  0  0  0  0  0  0  0  0  0  0  0
  146.2920  137.6848  150.7643 H   0  0  0  0  0  0  0  0  0  0  0  0
  144.7817  137.9929  151.6318 H   0  0  0  0  0  0  0  0  0  0  0  0
  148.1805  138.8883  151.7715 H   0  0  0  0  0  0  0  0  0  0  0  0
  151.4547  139.8316  155.0142 H   0  0  0  0  0  0  0  0  0  0  0  0
  151.3045  139.8791  157.8005 H   0  0  0  0  0  0  0  0  0  0  0  0
  152.5560  140.6126  156.8275 H   0  0  0  0  0  0  0  0  0  0  0  0
  151.4047  142.7386  156.7125 H   0  0  0  0  0  0  0  0  0  0  0  0
  149.9021  142.0310  157.2869 H   0  0  0  0  0  0  0  0  0  0  0  0
  153.4186  142.4382  158.3387 H   0  0  0  0  0  0  0  0  0  0  0  0
  153.4597  144.9001  158.3256 H   0  0  0  0  0  0  0  0  0  0  0  0
  152.2505  144.3702  157.1991 H   0  0  0  0  0  0  0  0  0  0  0  0
  151.4033  146.2429  158.6005 H   0  0  0  0  0  0  0  0  0  0  0  0
  150.4545  144.8016  158.8696 H   0  0  0  0  0  0  0  0  0  0  0  0
  152.6944  145.8539  160.6634 H   0  0  0  0  0  0  0  0  0  0  0  0
  150.9891  145.8555  161.0362 H   0  0  0  0  0  0  0  0  0  0  0  0
  152.1842  143.9743  162.1684 H   0  0  0  0  0  0  0  0  0  0  0  0
  150.9401  143.3886  161.0941 H   0  0  0  0  0  0  0  0  0  0  0  0
  153.9153  143.5617  160.4540 H   0  0  0  0  0  0  0  0  0  0  0  0
  152.1984  141.0888  160.9512 H   0  0  0  0  0  0  0  0  0  0  0  0
  153.4364  141.7319  162.0244 H   0  0  0  0  0  0  0  0  0  0  0  0
  153.8887  141.0828  160.4529 H   0  0  0  0  0  0  0  0  0  0  0  0
  144.1351  138.0026  154.4966 H   0  0  0  0  0  0  0  0  0  0  0  0
  145.1113  137.9922  155.9725 H   0  0  0  0  0  0  0  0  0  0  0  0
  145.0774  136.5662  154.9255 H   0  0  0  0  0  0  0  0  0  0  0  0
  1 22  1  0  0  0  0
  1 23  1  0  0  0  0
  1 24  1  0  0  0  0
  1  2  1  0  0  0  0
  2  3  1  0  0  0  0
  2 20  2  0  0  0  0
  3 25  1  0  0  0  0
  3  4  1  0  0  0  0
  4 19  1  0  0  0  0
  4  5  2  0  0  0  0
  5  6  1  0  0  0  0
  6  8  1  0  0  0  0
  6  7  2  0  0  0  0
  8  9  1  0  0  0  0
  8 26  1  0  0  0  0
  9 10  1  0  0  0  0
  9 27  1  0  0  0  0
  9 28  1  0  0  0  0
 10 11  1  0  0  0  0
 10 29  1  0  0  0  0
 10 30  1  0  0  0  0
 11 12  1  0  0  0  0
 12 17  1  0  0  0  0
 12 13  1  0  0  0  0
 12 31  1  0  0  0  0
 13 14  1  0  0  0  0
 13 32  1  0  0  0  0
 13 33  1  0  0  0  0
 14 15  1  0  0  0  0
 14 34  1  0  0  0  0
 14 35  1  0  0  0  0
 15 16  1  0  0  0  0
 15 36  1  0  0  0  0
 15 37  1  0  0  0  0
 16 17  1  0  0  0  0
 16 38  1  0  0  0  0
 16 39  1  0  0  0  0
 17 18  1  0  0  0  0
 17 40  1  0  0  0  0
 18 41  1  0  0  0  0
 18 42  1  0  0  0  0
 18 43  1  0  0  0  0
 19 20  1  0  0  0  0
 20 21  1  0  0  0  0
 21 44  1  0  0  0  0
 21 45  1  0  0  0  0
 21 46  1  0  0  0  0
M  END
> <s_m_source_file>
AV-unprocessed.smi

> <i_m_source_file_index>
910

> <i_lp_mmshare_version>
43012

> <i_f3d_flags>
0

> <s_epik_input>
W0NIM11jMW5jKG9jMVtDSDNdKVtOSF1DKD1PKVtOSF1bQ0gyXVtDSDJdT1tDQEBIXTJbQ0gyXVtDSDJdW0NIMl1bQ0gyXVtDQEhdMltDSDNd

> <s_epik_cmdline>
J2VwaWtfcHl0aG9uJywgJy1waCcsICc3LjAnLCAnLXRuJywgJzgnLCAnLW1hJywgJzIwMCcsICctbWV0YWxfYmluZGluZycsICctaW1hZScsICc8aW5maWxlLm1hZT4nLCAnLW9tYWUnLCAnPG91dGZpbGUubWFlPic=

> <r_lp_tautomer_probability>
0.107061

> <r_epik_Ionization_Penalty>
0.727192

> <r_epik_Ionization_Penalty_Charging>
0.726719

> <r_epik_Ionization_Penalty_Neutral>
0.000473387

> <r_epik_State_Penalty>
2.53712

> <r_epik_Charging_Adjusted_Penalty>
3.26383

> <i_epik_Tot_Q>
0

> <i_epik_Tot_abs_Q>
0

> <r_epik_Metal_State_Penalty>
3.71015

> <b_epik_Metal_Only>
0

> <s_lp_Force_Field>
OPLS_2005

> <r_lp_Energy>
28.3743

> <b_lp_Chiralities_Consistent>
1

> <s_lp_Variant>
AV-unprocessed.smi:910-6

> <Gold.Version>
5.8.1

> <Gold.Id.Protein>
6NUR|6NUR_protein|mol2

> <Gold.PLP.Fitness>
43.0870

> <Gold.PLP.PLP>
-42.3805

> <Gold.PLP.part.hbond>
-2.0000

> <Gold.PLP.part.metal>
0.0000

> <Gold.PLP.part.buried>
-3.3791

> <Gold.PLP.part.nonpolar>
-37.9771

> <Gold.PLP.part.repulsive>
1.5491

> <Gold.PLP.ligand.clash>
0.0000

> <Gold.PLP.ligand.torsion>
0.6233

> <Gold.PLP.Chemscore.Hbond>
0.6400

> <Gold.PLP.Chemscore.CHOScore>
0.0000

> <Gold.PLP.Chemscore.Metal>
0.0000

> <Gold.Chemscore.Hbonds>
donor molecule, donor type, donor heavy atom, donor atom, acceptor molecule, acceptor atom, score
      L1  H     3    25       P1  7957  0.67

> <Gold.PLP.Chemscore.Internal.Correction>
0.0330

> <Gold.Rescore>
     Score         DG    S(hbond)    S(metal)    S(lipo)     H(rot)  DE(clash)    DE(int)     intcor
     13.65     -17.42       0.83        0.00     114.55       1.66       0.58       3.20       ----

> <Gold.Chemscore.Fitness>
13.6451

> <Gold.Chemscore.DG>
-17.4224

> <Gold.Chemscore.ZeroCoef>
-5.4800

> <Gold.Chemscore.Hbond>
0.8335

> <Gold.Chemscore.Metal>
0.0000

> <Gold.Chemscore.Lipo>
114.5468

> <Gold.Chemscore.Internal_Hbond>
0.0000

> <Gold.Chemscore.DEClash>
0.5790

> <Gold.Chemscore.DEInternal>
3.1983

> <Gold.Chemscore.Rot>
1.6576

> <Gold.Chemscore.Internal.Correction>
   9.000000E+99

> <Gold.Chemscore.Hbonds>
donor molecule, donor type, donor heavy atom, donor atom, acceptor molecule, acceptor atom, score
      L1  H     3    25       P1  7957  0.60

> <Gold.Chemscore.Hbond.Weighted>
-2.7840

> <Gold.Chemscore.Metal.Weighted>
-0.0000

> <Gold.Chemscore.Lipo.Weighted>
-13.4020

> <Gold.Chemscore.Internal_Hbond.Weighted>
0.0000

> <Gold.Chemscore.DEClash.Weighted>
0.5790

> <Gold.Chemscore.DEInternal.Weighted>
3.1983

> <Gold.Chemscore.Rot.Weighted>
4.2436

> <Gold.Chemscore.Internal.Correction.Weighted>
   9.000000E+99

> <Gold.Protein.RotatedTorsions>
[ 6907 6896 6895 6894 ] final  -32.22 input  -60.11 | X-H torsion
[ 7974 7965 7964 7962 ] final  114.26 input  175.53 | X-H torsion
[ 8008 7997 7996 7995 ] final  -94.64 input   59.86 | X-H torsion
[ 10167 10162 10161 10158 ] final  -45.76 input  -65.29 | X-H torsion
[ 10718 10713 10712 10709 ] final -169.68 input   66.30 | X-H torsion
[ 10763 10752 10751 10750 ] final -141.25 input  -60.55 | X-H torsion
[ 11005 11000 10999 10996 ] final   43.68 input  -57.11 | X-H torsion

> <Gold.Protein.ActiveResidues>
 VAL166  LYS551  ARG553  GLY616  TRP617  ASP618  TYR619  PRO620  LYS621  CYS622 
 ASP623  PHE694  ASN695  SER759  ASP760  ASP761  ALA762  ILE779  LEU786  VAL792 
 PHE793  MET794  SER795  GLU796  ALA797  LYS798  CYS799  TRP800  GLU811  SER814 

> <Gold.Protein.RotatedAtoms>
  151.0817  134.9862  159.8358 H   0  0  0  0  0  0  0  0  0  0  0  0  # atno 6907 bound_to 6896
  152.5420  134.2174  159.8784 H   0  0  0  0  0  0  0  0  0  0  0  0  # atno 6908 bound_to 6896
  151.2205  133.4461  159.2634 H   0  0  0  0  0  0  0  0  0  0  0  0  # atno 6909 bound_to 6896
  145.2066  139.2926  143.4290 H   0  0  0  0  0  0  0  0  0  0  0  0  # atno 7974 bound_to 7965
  154.7511  140.0487  157.0894 H   0  0  0  0  0  0  0  0  0  0  0  0  # atno 8008 bound_to 7997
  155.0056  140.3130  155.4830 H   0  0  0  0  0  0  0  0  0  0  0  0  # atno 8009 bound_to 7997
  156.2885  140.2193  156.5168 H   0  0  0  0  0  0  0  0  0  0  0  0  # atno 8010 bound_to 7997
  140.6845  143.2863  151.3686 H   0  0  0  0  0  0  0  0  0  0  0  0  # atno 10167 bound_to 10162
  156.7151  130.9248  151.3093 H   0  0  0  0  0  0  0  0  0  0  0  0  # atno 10718 bound_to 10713
  154.8551  135.3530  154.5838 H   0  0  0  0  0  0  0  0  0  0  0  0  # atno 10763 bound_to 10752
  153.6448  135.6996  153.5234 H   0  0  0  0  0  0  0  0  0  0  0  0  # atno 10764 bound_to 10752
  153.2942  135.4226  155.1153 H   0  0  0  0  0  0  0  0  0  0  0  0  # atno 10765 bound_to 10752
  140.1622  134.4327  155.8310 H   0  0  0  0  0  0  0  0  0  0  0  0  # atno 11005 bound_to 11000
  146.3406  140.2328  142.8593 LP  0  0  0  0  0  0  0  0  0  0  0  0  # atno 17320 bound_to 7965
  144.9896  140.8535  143.5347 LP  0  0  0  0  0  0  0  0  0  0  0  0  # atno 17321 bound_to 7965
  139.6192  144.0941  152.2375 LP  0  0  0  0  0  0  0  0  0  0  0  0  # atno 17342 bound_to 10162
  140.0380  144.6030  150.7434 LP  0  0  0  0  0  0  0  0  0  0  0  0  # atno 17343 bound_to 10162
  157.6920  130.9243  150.0540 LP  0  0  0  0  0  0  0  0  0  0  0  0  # atno 17370 bound_to 10713
  156.1633  130.3644  149.9268 LP  0  0  0  0  0  0  0  0  0  0  0  0  # atno 17371 bound_to 10713
  141.2210  133.6918  156.7614 LP  0  0  0  0  0  0  0  0  0  0  0  0  # atno 17394 bound_to 11000
  140.2476  134.8565  157.3635 LP  0  0  0  0  0  0  0  0  0  0  0  0  # atno 17395 bound_to 11000

$$$$
