AV-unprocessed.smi:1769|AV-procd|sdf|7151|dock6
  -GOLD-   22720 8393D 1   1.00000     0.00000
 Structure written by MMmdl.
 41 42  0  0  0  0  0  0  0  0  1 V2000
  152.5033  139.5219  155.8218 C   0  0  0  0  0  0  0  0  0  0  0  0
  152.1921  138.0380  155.6139 C   0  0  0  0  0  0  0  0  0  0  0  0
  152.9317  137.2116  156.1486 O   0  0  0  0  0  0  0  0  0  0  0  0
  151.1235  137.6845  154.8597 N   0  0  0  0  0  0  0  0  0  0  0  0
  150.1559  138.6178  154.2686 C   0  0  0  0  0  0  0  0  0  0  0  0
  148.8241  138.4917  155.0296 C   0  0  0  0  0  0  0  0  0  0  0  0
  148.3153  137.0374  155.0115 C   0  0  0  0  0  0  0  0  0  0  0  0
  149.4079  136.0391  155.4635 C   0  0  1  0  0  0  0  0  0  0  0  0
  148.9342  134.5888  155.3005 C   0  0  0  0  0  0  0  0  0  0  0  0
  148.7727  133.8734  156.2898 O   0  0  0  0  0  0  0  0  0  0  0  0
  148.7170  134.1662  154.0454 N   0  0  0  0  0  0  0  0  0  0  0  0
  148.2770  132.8255  153.6792 C   0  0  0  0  0  0  0  0  0  0  0  0
  148.0985  132.6870  152.1590 C   0  0  0  0  0  0  0  0  0  0  0  0
  146.6997  133.0647  151.7139 C   0  0  0  0  0  0  0  0  0  0  0  0
  145.8674  132.1244  151.0728 C   0  0  0  0  0  0  0  0  0  0  0  0
  144.5735  132.5198  150.6823 C   0  0  0  0  0  0  0  0  0  0  0  0
  144.1658  133.8415  150.9520 C   0  0  0  0  0  0  0  0  0  0  0  0
  144.9542  134.7501  151.5659 N   0  0  0  0  0  0  0  0  0  0  0  0
  146.1940  134.3633  151.9360 C   0  0  0  0  0  0  0  0  0  0  0  0
  150.7119  136.2875  154.6714 C   0  0  0  0  0  0  0  0  0  0  0  0
  151.6592  140.0336  156.2852 H   0  0  0  0  0  0  0  0  0  0  0  0
  152.7337  140.0045  154.8715 H   0  0  0  0  0  0  0  0  0  0  0  0
  153.3670  139.6457  156.4762 H   0  0  0  0  0  0  0  0  0  0  0  0
  150.4891  139.6545  154.2715 H   0  0  0  0  0  0  0  0  0  0  0  0
  150.0094  138.3635  153.2179 H   0  0  0  0  0  0  0  0  0  0  0  0
  148.9618  138.8192  156.0609 H   0  0  0  0  0  0  0  0  0  0  0  0
  148.0766  139.1533  154.5911 H   0  0  0  0  0  0  0  0  0  0  0  0
  147.4341  136.9476  155.6480 H   0  0  0  0  0  0  0  0  0  0  0  0
  147.9876  136.7965  153.9989 H   0  0  0  0  0  0  0  0  0  0  0  0
  149.6146  136.2177  156.5205 H   0  0  0  0  0  0  0  0  0  0  0  0
  148.8706  134.8189  153.2905 H   0  0  0  0  0  0  0  0  0  0  0  0
  148.9862  132.0837  154.0509 H   0  0  0  0  0  0  0  0  0  0  0  0
  147.3307  132.6297  154.1843 H   0  0  0  0  0  0  0  0  0  0  0  0
  148.8200  133.3176  151.6376 H   0  0  0  0  0  0  0  0  0  0  0  0
  148.3021  131.6623  151.8448 H   0  0  0  0  0  0  0  0  0  0  0  0
  146.2119  131.1179  150.8848 H   0  0  0  0  0  0  0  0  0  0  0  0
  143.9088  131.8266  150.1886 H   0  0  0  0  0  0  0  0  0  0  0  0
  143.1798  134.1778  150.6674 H   0  0  0  0  0  0  0  0  0  0  0  0
  146.7988  135.1120  152.4267 H   0  0  0  0  0  0  0  0  0  0  0  0
  150.5568  136.1036  153.6068 H   0  0  0  0  0  0  0  0  0  0  0  0
  151.4834  135.5805  154.9815 H   0  0  0  0  0  0  0  0  0  0  0  0
  1  2  1  0  0  0  0
  1 21  1  0  0  0  0
  1 22  1  0  0  0  0
  1 23  1  0  0  0  0
  2  3  2  0  0  0  0
  2  4  1  0  0  0  0
  4 20  1  0  0  0  0
  4  5  1  0  0  0  0
  5  6  1  0  0  0  0
  5 24  1  0  0  0  0
  5 25  1  0  0  0  0
  6  7  1  0  0  0  0
  6 26  1  0  0  0  0
  6 27  1  0  0  0  0
  7  8  1  0  0  0  0
  7 28  1  0  0  0  0
  7 29  1  0  0  0  0
  8  9  1  0  0  0  0
  8 20  1  0  0  0  0
  8 30  1  0  0  0  0
  9 10  2  0  0  0  0
  9 11  1  0  0  0  0
 11 12  1  0  0  0  0
 11 31  1  0  0  0  0
 12 13  1  0  0  0  0
 12 32  1  0  0  0  0
 12 33  1  0  0  0  0
 13 14  1  0  0  0  0
 13 34  1  0  0  0  0
 13 35  1  0  0  0  0
 14 19  1  0  0  0  0
 14 15  2  0  0  0  0
 15 16  1  0  0  0  0
 15 36  1  0  0  0  0
 16 17  2  0  0  0  0
 16 37  1  0  0  0  0
 17 18  1  0  0  0  0
 17 38  1  0  0  0  0
 18 19  2  0  0  0  0
 19 39  1  0  0  0  0
 20 40  1  0  0  0  0
 20 41  1  0  0  0  0
M  END
> <s_m_source_file>
AV-unprocessed.smi

> <i_m_source_file_index>
1769

> <i_lp_mmshare_version>
43012

> <i_f3d_flags>
0

> <s_epik_input>
W0NIM11DKD1PKU4xW0NIMl1bQ0gyXVtDSDJdW0NASF0oW0NIMl0xKUMoPU8pW05IXVtDSDJdW0NIMl1jMltjSF1bY0hdW2NIXW5bY0hdMg==

> <s_epik_cmdline>
J2VwaWtfcHl0aG9uJywgJy1waCcsICc3LjAnLCAnLXRuJywgJzgnLCAnLW1hJywgJzIwMCcsICctbWV0YWxfYmluZGluZycsICctaW1hZScsICc8aW5maWxlLm1hZT4nLCAnLW9tYWUnLCAnPG91dGZpbGUubWFlPic=

> <r_epik_Ionization_Penalty>
0.0134099

> <r_epik_Ionization_Penalty_Charging>
0

> <r_epik_Ionization_Penalty_Neutral>
0.0134099

> <r_epik_State_Penalty>
0.010434

> <r_epik_Charging_Adjusted_Penalty>
0.010434

> <i_epik_Tot_Q>
0

> <i_epik_Tot_abs_Q>
0

> <r_epik_Metal_State_Penalty>
0.0102025

> <b_epik_Metal_Only>
0

> <s_lp_Force_Field>
OPLS_2005

> <r_lp_Energy>
22.5889

> <b_lp_Chiralities_Consistent>
1

> <s_lp_Variant>
AV-unprocessed.smi:1769-1

> <Gold.Version>
5.8.1

> <Gold.Id.Protein>
6NUR|6NUR_protein|mol2

> <Gold.PLP.Fitness>
41.1627

> <Gold.PLP.PLP>
-30.5371

> <Gold.PLP.part.hbond>
-2.0000

> <Gold.PLP.part.metal>
0.0000

> <Gold.PLP.part.buried>
-0.1029

> <Gold.PLP.part.nonpolar>
-29.2669

> <Gold.PLP.part.repulsive>
0.1444

> <Gold.PLP.ligand.clash>
0.0000

> <Gold.PLP.ligand.torsion>
0.2224

> <Gold.PLP.Chemscore.Hbond>
1.6820

> <Gold.PLP.Chemscore.CHOScore>
2.0000

> <Gold.PLP.Chemscore.Metal>
0.0000

> <Gold.Chemscore.Hbonds>
donor molecule, donor type, donor heavy atom, donor atom, acceptor molecule, acceptor atom, score
      L1  H    11    31       P1  7948  1.00
      P1  H 10752 10765       L1     3  0.69
      L1  C    17    38       P1 10186  1.00
      L1  C    19    39       P1  7948  1.00

> <Gold.PLP.Chemscore.Internal.Correction>
0.0245

> <Gold.Rescore>
     Score         DG    S(hbond)    S(metal)    S(lipo)     H(rot)  DE(clash)    DE(int)     intcor
     14.59     -14.93       1.63        0.00      67.54       1.52       0.05       0.29       ----

> <Gold.Chemscore.Fitness>
14.5925

> <Gold.Chemscore.DG>
-14.9346

> <Gold.Chemscore.ZeroCoef>
-5.4800

> <Gold.Chemscore.Hbond>
1.6302

> <Gold.Chemscore.Metal>
0.0000

> <Gold.Chemscore.Lipo>
67.5411

> <Gold.Chemscore.Internal_Hbond>
0.0000

> <Gold.Chemscore.DEClash>
0.0485

> <Gold.Chemscore.DEInternal>
0.2936

> <Gold.Chemscore.Rot>
1.5205

> <Gold.Chemscore.Internal.Correction>
   9.000000E+99

> <Gold.Chemscore.Hbonds>
donor molecule, donor type, donor heavy atom, donor atom, acceptor molecule, acceptor atom, score
      L1  H    11    31       P1  7948  0.25
      P1  H 10752 10765       L1     3  0.60

> <Gold.Chemscore.Hbond.Weighted>
-5.4449

> <Gold.Chemscore.Metal.Weighted>
-0.0000

> <Gold.Chemscore.Lipo.Weighted>
-7.9023

> <Gold.Chemscore.Internal_Hbond.Weighted>
0.0000

> <Gold.Chemscore.DEClash.Weighted>
0.0485

> <Gold.Chemscore.DEInternal.Weighted>
0.2936

> <Gold.Chemscore.Rot.Weighted>
3.8926

> <Gold.Chemscore.Internal.Correction.Weighted>
   9.000000E+99

> <Gold.Protein.RotatedTorsions>
[ 6907 6896 6895 6894 ] final  -73.74 input  -60.11 | X-H torsion
[ 7974 7965 7964 7962 ] final  168.28 input  175.53 | X-H torsion
[ 8008 7997 7996 7995 ] final  147.62 input   59.86 | X-H torsion
[ 10167 10162 10161 10158 ] final   83.87 input  -65.29 | X-H torsion
[ 10718 10713 10712 10709 ] final   37.72 input   66.30 | X-H torsion
[ 10763 10752 10751 10750 ] final -142.83 input  -60.55 | X-H torsion
[ 11005 11000 10999 10996 ] final   55.45 input  -57.11 | X-H torsion

> <Gold.Protein.ActiveResidues>
 VAL166  LYS551  ARG553  GLY616  TRP617  ASP618  TYR619  PRO620  LYS621  CYS622 
 ASP623  PHE694  ASN695  SER759  ASP760  ASP761  ALA762  ILE779  LEU786  VAL792 
 PHE793  MET794  SER795  GLU796  ALA797  LYS798  CYS799  TRP800  GLU811  SER814 

> <Gold.Protein.RotatedAtoms>
  150.7119  134.4972  159.5543 H   0  0  0  0  0  0  0  0  0  0  0  0  # atno 6907 bound_to 6896
  152.2577  134.8064  160.0445 H   0  0  0  0  0  0  0  0  0  0  0  0  # atno 6908 bound_to 6896
  151.8789  133.3456  159.3796 H   0  0  0  0  0  0  0  0  0  0  0  0  # atno 6909 bound_to 6896
  144.7394  139.8884  143.6401 H   0  0  0  0  0  0  0  0  0  0  0  0  # atno 7974 bound_to 7965
  156.2819  140.2150  156.5567 H   0  0  0  0  0  0  0  0  0  0  0  0  # atno 8008 bound_to 7997
  154.7247  140.0500  157.0694 H   0  0  0  0  0  0  0  0  0  0  0  0  # atno 8009 bound_to 7997
  155.0433  140.3148  155.4720 H   0  0  0  0  0  0  0  0  0  0  0  0  # atno 8010 bound_to 7997
  139.9139  144.6255  150.8509 H   0  0  0  0  0  0  0  0  0  0  0  0  # atno 10167 bound_to 10162
  157.3503  130.7594  149.6973 H   0  0  0  0  0  0  0  0  0  0  0  0  # atno 10718 bound_to 10713
  154.8494  135.3485  154.6090 H   0  0  0  0  0  0  0  0  0  0  0  0  # atno 10763 bound_to 10752
  153.6699  135.6985  153.5155 H   0  0  0  0  0  0  0  0  0  0  0  0  # atno 10764 bound_to 10752
  153.2751  135.4281  155.0982 H   0  0  0  0  0  0  0  0  0  0  0  0  # atno 10765 bound_to 10752
  140.0606  134.5607  155.9156 H   0  0  0  0  0  0  0  0  0  0  0  0  # atno 11005 bound_to 11000
  146.1160  139.4171  143.0258 LP  0  0  0  0  0  0  0  0  0  0  0  0  # atno 17320 bound_to 7965
  145.7374  141.0020  143.1319 LP  0  0  0  0  0  0  0  0  0  0  0  0  # atno 17321 bound_to 7965
  140.7679  143.3346  151.2337 LP  0  0  0  0  0  0  0  0  0  0  0  0  # atno 17342 bound_to 10162
  139.6919  143.9677  152.2863 LP  0  0  0  0  0  0  0  0  0  0  0  0  # atno 17343 bound_to 10162
  155.9720  130.4142  150.4123 LP  0  0  0  0  0  0  0  0  0  0  0  0  # atno 17370 bound_to 10713
  157.2184  131.0477  151.2560 LP  0  0  0  0  0  0  0  0  0  0  0  0  # atno 17371 bound_to 10713
  141.1971  133.6595  156.5727 LP  0  0  0  0  0  0  0  0  0  0  0  0  # atno 17394 bound_to 11000
  140.3776  134.7552  157.4640 LP  0  0  0  0  0  0  0  0  0  0  0  0  # atno 17395 bound_to 11000

$$$$
