#       Name:                AV-unprocessed.smi:1051
#       Creating user name   scv26
#       Creation time:       Fri Mar 27 03:11:38 2020


#       File generated by GOLD software.
#

@<TRIPOS>MOLECULE
AV-unprocessed.smi:1051
    53    55     1
SMALL
NO_CHARGES


@<TRIPOS>ATOM
      1 ****        -6.0552  -2.0457   0.4382 C.3            1 S1                 0.0000
      2 ****        -6.3761  -0.6168   0.8744 C.2            1 S1                 0.0000
      3 ****        -7.5548  -0.3000   1.0330 O.2            1 S1                 0.0000
      4 ****        -5.2368   0.3218   1.0862 C.ar           1 S1                 0.0000
      5 ****        -5.5024   1.6480   1.4949 C.ar           1 S1                 0.0000
      6 ****        -4.4477   2.5546   1.7042 C.ar           1 S1                 0.0000
      7 ****        -3.1174   2.1449   1.5050 C.ar           1 S1                 0.0000
      8 ****        -2.8245   0.8297   1.0949 C.ar           1 S1                 0.0000
      9 ****        -1.4939   0.5154   0.9216 O.3            1 S1                 0.0000
     10 ****        -1.1589  -0.7854   0.4558 C.3            1 S1                 0.0000
     11 ****         0.3659  -0.8726   0.2946 C.3            1 S1                 0.0000
     12 ****         0.6826  -2.2233   0.0239 O.3            1 S1                 0.0000
     13 ****         0.8796  -0.0021  -0.8706 C.3            1 S1                 0.0000
     14 ****         2.2904   0.3408  -0.7055 N.am           1 S1                 0.0000
     15 ****         2.7908   1.3465   0.0513 C.2            1 S1                 0.0000
     16 ****         2.1315   2.1387   0.7245 O.2            1 S1                 0.0000
     17 ****         4.1397   1.3226  -0.0595 N.am           1 S1                 0.0000
     18 ****         5.0899   2.2277   0.5758 C.3            1 S1                 0.0000
     19 ****         4.5129   0.2692  -0.9040 C.ar           1 S1                 0.0000
     20 ****         5.7793  -0.1715  -1.3245 C.ar           1 S1                 0.0000
     21 ****         5.8189  -1.2888  -2.1916 C.ar           1 S1                 0.0000
     22 ****         4.6224  -1.9273  -2.6100 C.ar           1 S1                 0.0000
     23 ****         3.3606  -1.4624  -2.1707 C.ar           1 S1                 0.0000
     24 ****         3.3497  -0.3501  -1.3109 C.ar           1 S1                 0.0000
     25 ****        -3.8933  -0.0795   0.8885 C.ar           1 S1                 0.0000
     26 ****        -5.5240  -2.0452  -0.5138 H              1 S1                 0.0000
     27 ****        -6.9726  -2.6217   0.3155 H              1 S1                 0.0000
     28 ****        -5.4376  -2.5439   1.1858 H              1 S1                 0.0000
     29 ****        -6.5168   1.9843   1.6533 H              1 S1                 0.0000
     30 ****        -4.6599   3.5660   2.0176 H              1 S1                 0.0000
     31 ****        -2.3131   2.8477   1.6665 H              1 S1                 0.0000
     32 ****        -1.4952  -1.5256   1.1841 H              1 S1                 0.0000
     33 ****        -1.6495  -0.9966  -0.4962 H              1 S1                 0.0000
     34 ****         0.8365  -0.5852   1.2359 H              1 S1                 0.0000
     35 ****         1.6224  -2.3049  -0.0356 H              1 S1                 0.0000
     36 ****         0.7006  -0.4818  -1.8336 H              1 S1                 0.0000
     37 ****         0.3185   0.9330  -0.9072 H              1 S1                 0.0000
     38 ****         5.6237   2.8024  -0.1816 H              1 S1                 0.0000
     39 ****         5.8211   1.6632   1.1551 H              1 S1                 0.0000
     40 ****         4.5988   2.9315   1.2490 H              1 S1                 0.0000
     41 ****         6.6853   0.3187  -1.0000 H              1 S1                 0.0000
     42 ****         6.7715  -1.6613  -2.5387 H              1 S1                 0.0000
     43 ****         4.6752  -2.7792  -3.2717 H              1 S1                 0.0000
     44 ****         2.4475  -1.9463  -2.4842 H              1 S1                 0.0000
     45 ****        -3.6834  -1.0907   0.5785 H              1 S1                 0.0000
     46 ****        -8.2786  -0.9721   0.8767 LP             1 S1                 0.0000
     47 ****        -7.7888   0.6295   1.3182 LP             1 S1                 0.0000
     48 ****        -1.0443   0.6369   1.8065 LP             1 S1                 0.0000
     49 ****        -1.1193   1.1697   0.2647 LP             1 S1                 0.0000
     50 ****         0.2644  -2.5010  -0.8410 LP             1 S1                 0.0000
     51 ****         0.3395  -2.8046   0.7618 LP             1 S1                 0.0000
     52 ****         1.1340   2.0698   0.7431 LP             1 S1                 0.0000
     53 ****         2.5933   2.8512   1.2528 LP             1 S1                 0.0000
@<TRIPOS>BOND
    1    1    2 1     
    2    1   26 1     
    3    1   27 1     
    4    1   28 1     
    5    2    3 2     
    6    2    4 1     
    7    4   25 ar    
    8    4    5 ar    
    9    5    6 ar    
   10    5   29 1     
   11    6    7 ar    
   12    6   30 1     
   13    7    8 ar    
   14    7   31 1     
   15    8    9 1     
   16    8   25 ar    
   17    9   10 1     
   18   10   11 1     
   19   10   32 1     
   20   10   33 1     
   21   11   12 1     
   22   11   13 1     
   23   11   34 1     
   24   12   35 1     
   25   13   14 1     
   26   13   36 1     
   27   13   37 1     
   28   14   24 1     
   29   14   15 am    
   30   15   16 2     
   31   15   17 am    
   32   17   18 1     
   33   17   19 1     
   34   18   38 1     
   35   18   39 1     
   36   18   40 1     
   37   19   24 ar    
   38   19   20 ar    
   39   20   21 ar    
   40   20   41 1     
   41   21   22 ar    
   42   21   42 1     
   43   22   23 ar    
   44   22   43 1     
   45   23   24 ar    
   46   23   44 1     
   47   25   45 1     
   48    3   46 1     
   49    3   47 1     
   50    9   48 1     
   51    9   49 1     
   52   12   50 1     
   53   12   51 1     
   54   16   52 1     
   55   16   53 1     
@<TRIPOS>SUBSTRUCTURE
      1 S1             1
@<TRIPOS>SET
LONE_PAIRS      STATIC     ATOMS    <user>   **** ""
8 46 47 48 49 50 51 52 53
DONOR_HYDROGENS      STATIC     ATOMS    <user>   **** ""
1 35
ATOM$BLUE        STATIC     ATOMS    COLORGROUP SYSTEM
8 46 47 48 49 50 51 52 53
ATOM$RED        STATIC     ATOMS    COLORGROUP SYSTEM
1 35
