AV-unprocessed.smi:445|AV-procd|sdf|2592|dock6
  -GOLD-   2262022583D 1   1.00000     0.00000
 Structure written by MMmdl.
 44 45  0  0  0  0  0  0  0  0  3 V2000
  152.8088  143.0133  162.3026 C   0  0  0  0  0  0  0  0  0  0  0  0
  152.1888  143.3800  160.9417 C   0  0  1  0  0  0  0  0  0  0  0  0
  152.2953  144.8969  160.6857 C   0  0  0  0  0  0  0  0  0  0  0  0
  151.6629  145.2952  159.3433 C   0  0  0  0  0  0  0  0  0  0  0  0
  152.2911  144.5104  158.1838 C   0  0  0  0  0  0  0  0  0  0  0  0
  152.1838  142.9969  158.4200 C   0  0  0  0  0  0  0  0  0  0  0  0
  152.8134  142.5851  159.7678 C   0  0  2  0  0  0  0  0  0  0  0  0
  152.6377  141.1524  159.9850 N   0  0  0  0  0  0  0  0  0  0  0  0
  153.5551  140.1993  159.7493 C   0  0  0  0  0  0  0  0  0  0  0  0
  154.6700  140.4463  159.2915 O   0  0  0  0  0  0  0  0  0  0  0  0
  153.1897  138.7415  160.0800 C   0  0  0  0  0  0  0  0  0  0  0  0
  153.8651  138.1860  161.2697 N   0  0  0  0  0  0  0  0  0  0  0  0
  154.4461  139.1196  162.1459 C   0  0  0  0  0  0  0  0  0  0  0  0
  155.0863  138.7487  163.2685 C   0  0  0  0  0  0  0  0  0  0  0  0
  155.6683  139.7306  164.1582 N   0  3  0  0  0  0  0  0  0  0  0  0
  155.7320  140.8982  163.7870 O   0  0  0  0  0  0  0  0  0  0  0  0
  156.0810  139.3690  165.2560 O   0  5  0  0  0  0  0  0  0  0  0  0
  155.1687  137.3333  163.5639 C   0  0  0  0  0  0  0  0  0  0  0  0
  154.6094  136.4137  162.7363 C   0  0  0  0  0  0  0  0  0  0  0  0
  154.6619  134.9588  163.0036 C   0  0  0  0  0  0  0  0  0  0  0  0
  155.1689  134.6352  164.2000 N   0  0  0  0  0  0  0  0  0  0  0  0
  154.2963  134.0555  162.2519 O   0  0  0  0  0  0  0  0  0  0  0  0
  153.8951  136.8358  161.5005 C   0  0  0  0  0  0  0  0  0  0  0  0
  153.3452  136.0674  160.7073 O   0  0  0  0  0  0  0  0  0  0  0  0
  153.8811  143.2108  162.3145 H   0  0  0  0  0  0  0  0  0  0  0  0
  152.6613  141.9603  162.5444 H   0  0  0  0  0  0  0  0  0  0  0  0
  152.3558  143.5934  163.1070 H   0  0  0  0  0  0  0  0  0  0  0  0
  151.1276  143.1298  160.9909 H   0  0  0  0  0  0  0  0  0  0  0  0
  151.8083  145.4464  161.4919 H   0  0  0  0  0  0  0  0  0  0  0  0
  153.3434  145.1995  160.6965 H   0  0  0  0  0  0  0  0  0  0  0  0
  150.5888  145.1081  159.3738 H   0  0  0  0  0  0  0  0  0  0  0  0
  151.7858  146.3657  159.1772 H   0  0  0  0  0  0  0  0  0  0  0  0
  151.8017  144.7762  157.2464 H   0  0  0  0  0  0  0  0  0  0  0  0
  153.3397  144.7911  158.0764 H   0  0  0  0  0  0  0  0  0  0  0  0
  151.1337  142.7010  158.3977 H   0  0  0  0  0  0  0  0  0  0  0  0
  152.6693  142.4684  157.5986 H   0  0  0  0  0  0  0  0  0  0  0  0
  153.8822  142.8067  159.7370 H   0  0  0  0  0  0  0  0  0  0  0  0
  151.7456  140.8621  160.3579 H   0  0  0  0  0  0  0  0  0  0  0  0
  152.1055  138.6742  160.1849 H   0  0  0  0  0  0  0  0  0  0  0  0
  153.4170  138.1318  159.2042 H   0  0  0  0  0  0  0  0  0  0  0  0
  154.3259  140.1506  161.8448 H   0  0  0  0  0  0  0  0  0  0  0  0
  155.6838  137.0339  164.4644 H   0  0  0  0  0  0  0  0  0  0  0  0
  155.2435  133.6670  164.4752 H   0  0  0  0  0  0  0  0  0  0  0  0
  155.4740  135.3663  164.8264 H   0  0  0  0  0  0  0  0  0  0  0  0
  1  2  1  0  0  0  0
  1 25  1  0  0  0  0
  1 26  1  0  0  0  0
  1 27  1  0  0  0  0
  2  7  1  0  0  0  0
  2  3  1  0  0  0  0
  2 28  1  0  0  0  0
  3  4  1  0  0  0  0
  3 29  1  0  0  0  0
  3 30  1  0  0  0  0
  4  5  1  0  0  0  0
  4 31  1  0  0  0  0
  4 32  1  0  0  0  0
  5  6  1  0  0  0  0
  5 33  1  0  0  0  0
  5 34  1  0  0  0  0
  6  7  1  0  0  0  0
  6 35  1  0  0  0  0
  6 36  1  0  0  0  0
  7  8  1  0  0  0  0
  7 37  1  0  0  0  0
  8  9  1  0  0  0  0
  8 38  1  0  0  0  0
  9 10  2  0  0  0  0
  9 11  1  0  0  0  0
 11 12  1  0  0  0  0
 11 39  1  0  0  0  0
 11 40  1  0  0  0  0
 12 23  1  0  0  0  0
 12 13  1  0  0  0  0
 13 14  2  0  0  0  0
 13 41  1  0  0  0  0
 14 15  1  0  0  0  0
 14 18  1  0  0  0  0
 15 16  2  0  0  0  0
 15 17  1  0  0  0  0
 18 19  2  0  0  0  0
 18 42  1  0  0  0  0
 19 20  1  0  0  0  0
 19 23  1  0  0  0  0
 20 21  1  0  0  0  0
 20 22  2  0  0  0  0
 21 43  1  0  0  0  0
 21 44  1  0  0  0  0
 23 24  2  0  0  0  0
M  CHG  1  15   1
M  CHG  1  17  -1
M  END
> <s_m_source_file>
AV-unprocessed.smi

> <i_m_source_file_index>
445

> <i_lp_mmshare_version>
43012

> <i_f3d_flags>
0

> <s_epik_input>
W0NIM11bQ0BASF0xW0NIMl1bQ0gyXVtDSDJdW0NIMl1bQ0BIXTFbTkhdQyg9TylbQ0gyXW4yW2NIXWMoW04rXSg9TylbTy1dKVtjSF1jKGMyPU8pQyg9TylbTkgyXQ==

> <s_epik_cmdline>
J2VwaWtfcHl0aG9uJywgJy1waCcsICc3LjAnLCAnLXRuJywgJzgnLCAnLW1hJywgJzIwMCcsICctbWV0YWxfYmluZGluZycsICctaW1hZScsICc8aW5maWxlLm1hZT4nLCAnLW9tYWUnLCAnPG91dGZpbGUubWFlPic=

> <r_lp_tautomer_probability>
1

> <r_epik_Ionization_Penalty>
2.81321e-06

> <r_epik_Ionization_Penalty_Charging>
2.43777e-12

> <r_epik_Ionization_Penalty_Neutral>
2.81321e-06

> <r_epik_State_Penalty>
-0

> <r_epik_Charging_Adjusted_Penalty>
2.43777e-12

> <i_epik_Tot_Q>
0

> <i_epik_Tot_abs_Q>
2

> <r_epik_Metal_State_Penalty>
-0

> <b_epik_Metal_Only>
0

> <s_lp_Force_Field>
OPLS_2005

> <r_lp_Energy>
28.9067

> <b_lp_Chiralities_Consistent>
1

> <s_lp_Variant>
AV-unprocessed.smi:445-4

> <Gold.Version>
5.8.1

> <Gold.Id.Protein>
6NUR|6NUR_protein|mol2

> <Gold.PLP.Fitness>
51.3995

> <Gold.PLP.PLP>
-47.4699

> <Gold.PLP.part.hbond>
-3.0000

> <Gold.PLP.part.metal>
0.0000

> <Gold.PLP.part.buried>
-5.5385

> <Gold.PLP.part.nonpolar>
-39.1944

> <Gold.PLP.part.repulsive>
0.1315

> <Gold.PLP.ligand.clash>
0.0000

> <Gold.PLP.ligand.torsion>
0.6955

> <Gold.PLP.Chemscore.Hbond>
1.7613

> <Gold.PLP.Chemscore.CHOScore>
0.0000

> <Gold.PLP.Chemscore.Metal>
0.0000

> <Gold.Chemscore.Hbonds>
donor molecule, donor type, donor heavy atom, donor atom, acceptor molecule, acceptor atom, score
      P1  H  6896  6908       L1    24  1.00
      P1  H  7997  8010       L1    10  0.70

> <Gold.PLP.Chemscore.Internal.Correction>
0.0369

> <Gold.Rescore>
     Score         DG    S(hbond)    S(metal)    S(lipo)     H(rot)  DE(clash)    DE(int)     intcor
     18.39     -20.70       1.79        0.00     116.47       1.71       0.04       2.27       ----

> <Gold.Chemscore.Fitness>
18.3889

> <Gold.Chemscore.DG>
-20.6977

> <Gold.Chemscore.ZeroCoef>
-5.4800

> <Gold.Chemscore.Hbond>
1.7887

> <Gold.Chemscore.Metal>
0.0000

> <Gold.Chemscore.Lipo>
116.4689

> <Gold.Chemscore.Internal_Hbond>
0.0000

> <Gold.Chemscore.DEClash>
0.0358

> <Gold.Chemscore.DEInternal>
2.2731

> <Gold.Chemscore.Rot>
1.7123

> <Gold.Chemscore.Internal.Correction>
   9.000000E+99

> <Gold.Chemscore.Hbonds>
donor molecule, donor type, donor heavy atom, donor atom, acceptor molecule, acceptor atom, score
      P1  H  6896  6908       L1    24  1.00
      P1  H  7997  8010       L1    10  0.65

> <Gold.Chemscore.Hbond.Weighted>
-5.9743

> <Gold.Chemscore.Metal.Weighted>
-0.0000

> <Gold.Chemscore.Lipo.Weighted>
-13.6269

> <Gold.Chemscore.Internal_Hbond.Weighted>
0.0000

> <Gold.Chemscore.DEClash.Weighted>
0.0358

> <Gold.Chemscore.DEInternal.Weighted>
2.2731

> <Gold.Chemscore.Rot.Weighted>
4.3835

> <Gold.Chemscore.Internal.Correction.Weighted>
   9.000000E+99

> <Gold.Protein.RotatedTorsions>
[ 6907 6896 6895 6894 ] final  -79.36 input  -60.11 | X-H torsion
[ 7974 7965 7964 7962 ] final -147.24 input  175.53 | X-H torsion
[ 8008 7997 7996 7995 ] final  -11.67 input   59.86 | X-H torsion
[ 10167 10162 10161 10158 ] final   22.01 input  -65.29 | X-H torsion
[ 10718 10713 10712 10709 ] final   85.19 input   66.30 | X-H torsion
[ 10763 10752 10751 10750 ] final -104.51 input  -60.55 | X-H torsion
[ 11005 11000 10999 10996 ] final  -22.43 input  -57.11 | X-H torsion

> <Gold.Protein.ActiveResidues>
 VAL166  LYS551  ARG553  GLY616  TRP617  ASP618  TYR619  PRO620  LYS621  CYS622 
 ASP623  PHE694  ASN695  SER759  ASP760  ASP761  ALA762  ILE779  LEU786  VAL792 
 PHE793  MET794  SER795  GLU796  ALA797  LYS798  CYS799  TRP800  GLU811  SER814 

> <Gold.Protein.RotatedAtoms>
  150.6951  134.4133  159.5171 H   0  0  0  0  0  0  0  0  0  0  0  0  # atno 6907 bound_to 6896
  152.1888  134.8687  160.0528 H   0  0  0  0  0  0  0  0  0  0  0  0  # atno 6908 bound_to 6896
  151.9650  133.3672  159.4086 H   0  0  0  0  0  0  0  0  0  0  0  0  # atno 6909 bound_to 6896
  144.8106  140.5352  143.5645 H   0  0  0  0  0  0  0  0  0  0  0  0  # atno 7974 bound_to 7965
  154.5444  140.2296  155.8587 H   0  0  0  0  0  0  0  0  0  0  0  0  # atno 8008 bound_to 7997
  156.1889  140.3082  155.9255 H   0  0  0  0  0  0  0  0  0  0  0  0  # atno 8009 bound_to 7997
  155.3193  140.0439  157.3029 H   0  0  0  0  0  0  0  0  0  0  0  0  # atno 8010 bound_to 7997
  140.5382  143.9723  150.6504 H   0  0  0  0  0  0  0  0  0  0  0  0  # atno 10167 bound_to 10162
  157.6910  131.0164  150.2785 H   0  0  0  0  0  0  0  0  0  0  0  0  # atno 10718 bound_to 10713
  154.7883  135.4783  153.9995 H   0  0  0  0  0  0  0  0  0  0  0  0  # atno 10763 bound_to 10752
  153.1592  135.6805  153.8774 H   0  0  0  0  0  0  0  0  0  0  0  0  # atno 10764 bound_to 10752
  153.8393  135.3181  155.3403 H   0  0  0  0  0  0  0  0  0  0  0  0  # atno 10765 bound_to 10752
  140.8656  133.7756  156.0126 H   0  0  0  0  0  0  0  0  0  0  0  0  # atno 11005 bound_to 11000
  145.5332  139.1475  143.3488 LP  0  0  0  0  0  0  0  0  0  0  0  0  # atno 17320 bound_to 7965
  146.2404  140.5473  142.8936 LP  0  0  0  0  0  0  0  0  0  0  0  0  # atno 17321 bound_to 7965
  140.3117  143.3194  152.0872 LP  0  0  0  0  0  0  0  0  0  0  0  0  # atno 17342 bound_to 10162
  139.4979  144.6632  151.6417 LP  0  0  0  0  0  0  0  0  0  0  0  0  # atno 17343 bound_to 10162
  156.3335  130.3804  149.7470 LP  0  0  0  0  0  0  0  0  0  0  0  0  # atno 17370 bound_to 10713
  156.5002  130.8125  151.3129 LP  0  0  0  0  0  0  0  0  0  0  0  0  # atno 17371 bound_to 10713
  140.8632  134.2815  157.5225 LP  0  0  0  0  0  0  0  0  0  0  0  0  # atno 17394 bound_to 11000
  139.8709  134.9529  156.4129 LP  0  0  0  0  0  0  0  0  0  0  0  0  # atno 17395 bound_to 11000

$$$$
