AV-unprocessed.smi:1487|AV-procd|sdf|6018|dock5
  -GOLD-   22720 6123D 1   1.00000     0.00000
 Structure written by MMmdl.
 49 51  0  0  0  0  0  0  0  0  3 V2000
  152.8689  143.3263  160.6876 C   0  0  0  0  0  0  0  0  0  0  0  0
  152.3969  142.5345  159.4799 C   0  0  0  0  0  0  0  0  0  0  0  0
  151.5050  143.1532  158.5751 C   0  0  0  0  0  0  0  0  0  0  0  0
  151.0937  142.4050  157.4788 C   0  0  0  0  0  0  0  0  0  0  0  0
  150.2367  142.7237  156.4232 N   0  3  0  0  0  0  0  0  0  0  0  0
  150.1393  141.6590  155.5800 C   0  0  0  0  0  0  0  0  0  0  0  0
  150.9200  140.6642  156.0832 N   0  0  0  0  0  0  0  0  0  0  0  0
  151.1677  139.3100  155.5702 C   0  0  0  0  0  0  0  0  0  0  0  0
  150.1962  138.9078  154.4424 C   0  0  1  0  0  0  0  0  0  0  0  0
  150.6756  137.7280  153.8241 O   0  0  0  0  0  0  0  0  0  0  0  0
  148.7767  138.6490  154.9869 C   0  0  0  0  0  0  0  0  0  0  0  0
  147.8711  138.0501  153.9728 N   0  3  2  0  0  0  0  0  0  0  0  0
  147.2753  139.0505  153.0483 C   0  0  0  0  0  0  0  0  0  0  0  0
  146.4950  138.3573  151.9203 C   0  0  0  0  0  0  0  0  0  0  0  0
  145.4073  137.4347  152.4889 C   0  0  0  0  0  0  0  0  0  0  0  0
  145.9975  136.4512  153.5133 C   0  0  1  0  0  0  0  0  0  0  0  0
  146.7989  135.4830  152.8651 O   0  0  0  0  0  0  0  0  0  0  0  0
  146.8331  137.1788  154.5845 C   0  0  0  0  0  0  0  0  0  0  0  0
  151.5360  141.0846  157.2667 C   0  0  0  0  0  0  0  0  0  0  0  0
  152.4124  140.4584  158.1495 C   0  0  0  0  0  0  0  0  0  0  0  0
  152.8449  141.2042  159.2697 C   0  0  0  0  0  0  0  0  0  0  0  0
  153.8067  140.5511  160.2479 C   0  0  0  0  0  0  0  0  0  0  0  0
  152.4520  144.3340  160.6914 H   0  0  0  0  0  0  0  0  0  0  0  0
  153.9554  143.4157  160.6870 H   0  0  0  0  0  0  0  0  0  0  0  0
  152.5617  142.8353  161.6112 H   0  0  0  0  0  0  0  0  0  0  0  0
  151.1599  144.1654  158.7290 H   0  0  0  0  0  0  0  0  0  0  0  0
  149.5459  141.6104  154.6781 H   0  0  0  0  0  0  0  0  0  0  0  0
  152.1972  139.2837  155.2099 H   0  0  0  0  0  0  0  0  0  0  0  0
  151.1153  138.6077  156.4031 H   0  0  0  0  0  0  0  0  0  0  0  0
  150.1822  139.7013  153.6959 H   0  0  0  0  0  0  0  0  0  0  0  0
  150.0089  137.3893  153.2465 H   0  0  0  0  0  0  0  0  0  0  0  0
  148.8572  137.9864  155.8502 H   0  0  0  0  0  0  0  0  0  0  0  0
  148.3342  139.5744  155.3585 H   0  0  0  0  0  0  0  0  0  0  0  0
  146.6164  139.7178  153.6061 H   0  0  0  0  0  0  0  0  0  0  0  0
  148.0527  139.6737  152.6080 H   0  0  0  0  0  0  0  0  0  0  0  0
  146.0432  139.1038  151.2663 H   0  0  0  0  0  0  0  0  0  0  0  0
  147.1827  137.7808  151.3001 H   0  0  0  0  0  0  0  0  0  0  0  0
  144.6442  138.0426  152.9768 H   0  0  0  0  0  0  0  0  0  0  0  0
  144.9030  136.8975  151.6847 H   0  0  0  0  0  0  0  0  0  0  0  0
  145.1845  135.9126  154.0014 H   0  0  0  0  0  0  0  0  0  0  0  0
  147.6322  135.8754  152.6509 H   0  0  0  0  0  0  0  0  0  0  0  0
  147.2990  136.4439  155.2427 H   0  0  0  0  0  0  0  0  0  0  0  0
  146.1808  137.7903  155.2103 H   0  0  0  0  0  0  0  0  0  0  0  0
  152.7540  139.4468  157.9889 H   0  0  0  0  0  0  0  0  0  0  0  0
  154.0291  139.5223  159.9637 H   0  0  0  0  0  0  0  0  0  0  0  0
  153.3814  140.5337  161.2517 H   0  0  0  0  0  0  0  0  0  0  0  0
  154.7489  141.0988  160.2801 H   0  0  0  0  0  0  0  0  0  0  0  0
  148.4415  137.4341  153.4115 H   0  0  0  0  0  0  0  0  0  0  0  0
  149.7528  143.6019  156.2857 H   0  0  0  0  0  0  0  0  0  0  0  0
  1  2  1  0  0  0  0
  1 23  1  0  0  0  0
  1 24  1  0  0  0  0
  1 25  1  0  0  0  0
  2 21  1  0  0  0  0
  2  3  2  0  0  0  0
  3  4  1  0  0  0  0
  3 26  1  0  0  0  0
  4 19  2  0  0  0  0
  4  5  1  0  0  0  0
  5  6  2  0  0  0  0
  5 49  1  0  0  0  0
  6  7  1  0  0  0  0
  6 27  1  0  0  0  0
  7  8  1  0  0  0  0
  7 19  1  0  0  0  0
  8  9  1  0  0  0  0
  8 28  1  0  0  0  0
  8 29  1  0  0  0  0
  9 10  1  0  0  0  0
  9 11  1  0  0  0  0
  9 30  1  0  0  0  0
 10 31  1  0  0  0  0
 11 12  1  0  0  0  0
 11 32  1  0  0  0  0
 11 33  1  0  0  0  0
 12 18  1  0  0  0  0
 12 13  1  0  0  0  0
 12 48  1  0  0  0  0
 13 14  1  0  0  0  0
 13 34  1  0  0  0  0
 13 35  1  0  0  0  0
 14 15  1  0  0  0  0
 14 36  1  0  0  0  0
 14 37  1  0  0  0  0
 15 16  1  0  0  0  0
 15 38  1  0  0  0  0
 15 39  1  0  0  0  0
 16 17  1  0  0  0  0
 16 18  1  0  0  0  0
 16 40  1  0  0  0  0
 17 41  1  0  0  0  0
 18 42  1  0  0  0  0
 18 43  1  0  0  0  0
 19 20  1  0  0  0  0
 20 21  2  0  0  0  0
 20 44  1  0  0  0  0
 21 22  1  0  0  0  0
 22 45  1  0  0  0  0
 22 46  1  0  0  0  0
 22 47  1  0  0  0  0
M  CHG  1   5   1
M  CHG  1  12   1
M  END
> <s_m_source_file>
AV-unprocessed.smi

> <i_m_source_file_index>
1487

> <i_lp_mmshare_version>
43012

> <i_f3d_flags>
0

> <s_epik_input>
W0NIM11jKFtjSF0xKWMoW0NIM10pW2NIXWMoYzEyKW4oW2NIXW4yKVtDSDJdW0NASF0oW09IXSlbQ0gyXU4zW0NIMl1bQ0gyXVtDSDJdW0NAQEhdKFtPSF0pW0NIMl0z

> <s_epik_cmdline>
J2VwaWtfcHl0aG9uJywgJy1waCcsICc3LjAnLCAnLXRuJywgJzgnLCAnLW1hJywgJzIwMCcsICctbWV0YWxfYmluZGluZycsICctaW1hZScsICc8aW5maWxlLm1hZT4nLCAnLW9tYWUnLCAnPG91dGZpbGUubWFlPic=

> <r_epik_Ionization_Penalty>
1.1857

> <r_epik_Ionization_Penalty_Charging>
1.1857

> <r_epik_Ionization_Penalty_Neutral>
1.75578e-06

> <r_epik_State_Penalty>
1.26953

> <r_epik_Charging_Adjusted_Penalty>
2.45524

> <i_epik_Tot_Q>
2

> <i_epik_Tot_abs_Q>
2

> <r_epik_Metal_State_Penalty>
5.28243

> <b_epik_Metal_Only>
0

> <s_lp_Force_Field>
OPLS_2005

> <r_lp_Energy>
32.3445

> <b_lp_Chiralities_Consistent>
1

> <s_lp_Variant>
AV-unprocessed.smi:1487-12

> <Gold.Version>
5.8.1

> <Gold.Id.Protein>
6NUR|6NUR_protein|mol2

> <Gold.PLP.Fitness>
62.3297

> <Gold.PLP.PLP>
-45.4100

> <Gold.PLP.part.hbond>
-4.6782

> <Gold.PLP.part.metal>
0.0000

> <Gold.PLP.part.buried>
-4.6567

> <Gold.PLP.part.nonpolar>
-37.5639

> <Gold.PLP.part.repulsive>
0.0793

> <Gold.PLP.ligand.clash>
0.0000

> <Gold.PLP.ligand.torsion>
0.5444

> <Gold.PLP.Chemscore.Hbond>
5.9913

> <Gold.PLP.Chemscore.CHOScore>
0.0000

> <Gold.PLP.Chemscore.Metal>
0.0000

> <Gold.Chemscore.Hbonds>
donor molecule, donor type, donor heavy atom, donor atom, acceptor molecule, acceptor atom, score
      L1  H     5    49       P1  8028  2.00
      L1  H    10    31       P1  7948  0.96
      L1  H    12    48       P1  7948  2.00
      L1  H    17    41       P1  7948  1.00

> <Gold.PLP.Chemscore.Internal.Correction>
0.0348

> <Gold.Rescore>
     Score         DG    S(hbond)    S(metal)    S(lipo)     H(rot)  DE(clash)    DE(int)     intcor
     22.41     -22.96       3.30        0.00     115.06       2.74       0.04       0.51       ----

> <Gold.Chemscore.Fitness>
22.4055

> <Gold.Chemscore.DG>
-22.9583

> <Gold.Chemscore.ZeroCoef>
-5.4800

> <Gold.Chemscore.Hbond>
3.3013

> <Gold.Chemscore.Metal>
0.0000

> <Gold.Chemscore.Lipo>
115.0614

> <Gold.Chemscore.Internal_Hbond>
0.0000

> <Gold.Chemscore.DEClash>
0.0443

> <Gold.Chemscore.DEInternal>
0.5085

> <Gold.Chemscore.Rot>
2.7384

> <Gold.Chemscore.Internal.Correction>
   9.000000E+99

> <Gold.Chemscore.Hbonds>
donor molecule, donor type, donor heavy atom, donor atom, acceptor molecule, acceptor atom, score
      L1  H     5    49       P1  8028  0.94
      L1  H    10    31       P1  7948  0.27
      L1  H    12    48       P1  7948  0.94
      L1  H    17    41       P1  7948  0.96

> <Gold.Chemscore.Hbond.Weighted>
-11.0265

> <Gold.Chemscore.Metal.Weighted>
-0.0000

> <Gold.Chemscore.Lipo.Weighted>
-13.4622

> <Gold.Chemscore.Internal_Hbond.Weighted>
0.0000

> <Gold.Chemscore.DEClash.Weighted>
0.0443

> <Gold.Chemscore.DEInternal.Weighted>
0.5085

> <Gold.Chemscore.Rot.Weighted>
7.0103

> <Gold.Chemscore.Internal.Correction.Weighted>
   9.000000E+99

> <Gold.Protein.RotatedTorsions>
[ 6907 6896 6895 6894 ] final  -24.09 input  -60.11 | X-H torsion
[ 7974 7965 7964 7962 ] final  -11.19 input  175.53 | X-H torsion
[ 8008 7997 7996 7995 ] final  100.50 input   59.86 | X-H torsion
[ 10167 10162 10161 10158 ] final  156.22 input  -65.29 | X-H torsion
[ 10718 10713 10712 10709 ] final   48.37 input   66.30 | X-H torsion
[ 10763 10752 10751 10750 ] final  149.87 input  -60.55 | X-H torsion
[ 11005 11000 10999 10996 ] final   26.07 input  -57.11 | X-H torsion

> <Gold.Protein.ActiveResidues>
 VAL166  LYS551  ARG553  GLY616  TRP617  ASP618  TYR619  PRO620  LYS621  CYS622 
 ASP623  PHE694  ASN695  SER759  ASP760  ASP761  ALA762  ILE779  LEU786  VAL792 
 PHE793  MET794  SER795  GLU796  ALA797  LYS798  CYS799  TRP800  GLU811  SER814 

> <Gold.Protein.RotatedAtoms>
  151.1946  135.0417  159.8846 H   0  0  0  0  0  0  0  0  0  0  0  0  # atno 6907 bound_to 6896
  152.5437  134.0918  159.8290 H   0  0  0  0  0  0  0  0  0  0  0  0  # atno 6908 bound_to 6896
  151.1051  133.5167  159.2640 H   0  0  0  0  0  0  0  0  0  0  0  0  # atno 6909 bound_to 6896
  146.2196  140.2874  142.8366 H   0  0  0  0  0  0  0  0  0  0  0  0  # atno 7974 bound_to 7965
  156.1209  140.3212  155.8207 H   0  0  0  0  0  0  0  0  0  0  0  0  # atno 8008 bound_to 7997
  155.4506  140.0532  157.3018 H   0  0  0  0  0  0  0  0  0  0  0  0  # atno 8009 bound_to 7997
  154.4827  140.2059  155.9741 H   0  0  0  0  0  0  0  0  0  0  0  0  # atno 8010 bound_to 7997
  139.4821  144.5029  151.8142 H   0  0  0  0  0  0  0  0  0  0  0  0  # atno 10167 bound_to 10162
  157.4680  130.8237  149.7957 H   0  0  0  0  0  0  0  0  0  0  0  0  # atno 10718 bound_to 10713
  154.0783  135.2861  155.3295 H   0  0  0  0  0  0  0  0  0  0  0  0  # atno 10763 bound_to 10752
  154.6701  135.5302  153.8130 H   0  0  0  0  0  0  0  0  0  0  0  0  # atno 10764 bound_to 10752
  153.0459  135.6555  154.0959 H   0  0  0  0  0  0  0  0  0  0  0  0  # atno 10765 bound_to 10752
  140.3410  134.2332  155.7690 H   0  0  0  0  0  0  0  0  0  0  0  0  # atno 11005 bound_to 11000
  144.9152  140.7804  143.5783 LP  0  0  0  0  0  0  0  0  0  0  0  0  # atno 17320 bound_to 7965
  145.2808  139.1919  143.4792 LP  0  0  0  0  0  0  0  0  0  0  0  0  # atno 17321 bound_to 7965
  140.4524  144.1837  150.5898 LP  0  0  0  0  0  0  0  0  0  0  0  0  # atno 17342 bound_to 10162
  140.4571  143.2463  151.9270 LP  0  0  0  0  0  0  0  0  0  0  0  0  # atno 17343 bound_to 10162
  156.0059  130.3856  150.2432 LP  0  0  0  0  0  0  0  0  0  0  0  0  # atno 17370 bound_to 10713
  157.0613  131.0090  151.3221 LP  0  0  0  0  0  0  0  0  0  0  0  0  # atno 17371 bound_to 10713
  141.2038  133.7902  157.0319 LP  0  0  0  0  0  0  0  0  0  0  0  0  # atno 17394 bound_to 11000
  140.0781  134.9664  157.1579 LP  0  0  0  0  0  0  0  0  0  0  0  0  # atno 17395 bound_to 11000

$$$$
