AV-unprocessed.smi:765|AV-procd|sdf|3644|dock6
  -GOLD-   22720 1 43D 1   1.00000     0.00000
 Structure written by MMmdl.
 39 40  0  0  0  0  0  0  0  0  1 V2000
  146.7495  139.0228  156.9027 C   0  0  0  0  0  0  0  0  0  0  0  0
  147.7716  139.8032  156.0640 C   0  0  1  0  0  0  0  0  0  0  0  0
  147.0835  140.6069  154.9462 C   0  0  0  0  0  0  0  0  0  0  0  0
  148.1003  141.4036  154.1168 C   0  0  0  0  0  0  0  0  0  0  0  0
  148.9449  142.3204  155.0160 C   0  0  0  0  0  0  0  0  0  0  0  0
  149.6730  141.5394  156.1325 C   0  0  1  0  0  0  0  0  0  0  0  0
  150.6708  140.6344  155.5265 C   0  0  0  0  0  0  0  0  0  0  0  0
  151.4531  139.9261  155.0515 N   0  0  0  0  0  0  0  0  0  0  0  0
  150.3161  142.5278  157.0004 N   0  0  0  0  0  0  0  0  0  0  0  0
  151.1124  142.2834  158.0550 C   0  0  0  0  0  0  0  0  0  0  0  0
  151.4394  141.1502  158.4083 O   0  0  0  0  0  0  0  0  0  0  0  0
  151.5907  143.5176  158.8346 C   0  0  2  0  0  0  0  0  0  0  0  0
  152.3776  144.5125  157.9617 C   0  0  0  0  0  0  0  0  0  0  0  0
  152.3736  143.1055  159.9926 N   0  0  0  0  0  0  0  0  0  0  0  0
  152.2608  143.5173  161.3069 C   0  0  0  0  0  0  0  0  0  0  0  0
  153.2149  142.8564  162.0259 C   0  0  0  0  0  0  0  0  0  0  0  0
  153.8694  142.0483  161.0552 C   0  0  0  0  0  0  0  0  0  0  0  0
  153.3647  142.1993  159.8414 N   0  0  0  0  0  0  0  0  0  0  0  0
  148.6271  140.7354  156.9460 C   0  0  0  0  0  0  0  0  0  0  0  0
  146.0497  139.6944  157.4012 H   0  0  0  0  0  0  0  0  0  0  0  0
  147.2443  138.4276  157.6708 H   0  0  0  0  0  0  0  0  0  0  0  0
  146.1701  138.3405  156.2801 H   0  0  0  0  0  0  0  0  0  0  0  0
  148.4336  139.0735  155.5962 H   0  0  0  0  0  0  0  0  0  0  0  0
  146.5242  139.9365  154.2930 H   0  0  0  0  0  0  0  0  0  0  0  0
  146.3544  141.2926  155.3807 H   0  0  0  0  0  0  0  0  0  0  0  0
  148.7477  140.7179  153.5692 H   0  0  0  0  0  0  0  0  0  0  0  0
  147.5793  141.9989  153.3665 H   0  0  0  0  0  0  0  0  0  0  0  0
  149.6687  142.8616  154.4051 H   0  0  0  0  0  0  0  0  0  0  0  0
  148.2939  143.0770  155.4575 H   0  0  0  0  0  0  0  0  0  0  0  0
  150.1120  143.4952  156.7954 H   0  0  0  0  0  0  0  0  0  0  0  0
  150.6988  144.0354  159.1940 H   0  0  0  0  0  0  0  0  0  0  0  0
  151.7888  144.8356  157.1026 H   0  0  0  0  0  0  0  0  0  0  0  0
  153.3054  144.0785  157.5864 H   0  0  0  0  0  0  0  0  0  0  0  0
  152.6391  145.4044  158.5319 H   0  0  0  0  0  0  0  0  0  0  0  0
  151.5203  144.2406  161.6162 H   0  0  0  0  0  0  0  0  0  0  0  0
  153.4139  142.9375  163.0842 H   0  0  0  0  0  0  0  0  0  0  0  0
  154.6910  141.3613  161.1952 H   0  0  0  0  0  0  0  0  0  0  0  0
  147.9706  141.4255  157.4788 H   0  0  0  0  0  0  0  0  0  0  0  0
  149.1255  140.1411  157.7128 H   0  0  0  0  0  0  0  0  0  0  0  0
  1  2  1  0  0  0  0
  1 20  1  0  0  0  0
  1 21  1  0  0  0  0
  1 22  1  0  0  0  0
  2 19  1  0  0  0  0
  2  3  1  0  0  0  0
  2 23  1  0  0  0  0
  3  4  1  0  0  0  0
  3 24  1  0  0  0  0
  3 25  1  0  0  0  0
  4  5  1  0  0  0  0
  4 26  1  0  0  0  0
  4 27  1  0  0  0  0
  5  6  1  0  0  0  0
  5 28  1  0  0  0  0
  5 29  1  0  0  0  0
  6  7  1  0  0  0  0
  6  9  1  0  0  0  0
  6 19  1  0  0  0  0
  7  8  3  0  0  0  0
  9 10  1  0  0  0  0
  9 30  1  0  0  0  0
 10 11  2  0  0  0  0
 10 12  1  0  0  0  0
 12 13  1  0  0  0  0
 12 14  1  0  0  0  0
 12 31  1  0  0  0  0
 13 32  1  0  0  0  0
 13 33  1  0  0  0  0
 13 34  1  0  0  0  0
 14 18  1  0  0  0  0
 14 15  1  0  0  0  0
 15 16  2  0  0  0  0
 15 35  1  0  0  0  0
 16 17  1  0  0  0  0
 16 36  1  0  0  0  0
 17 18  2  0  0  0  0
 17 37  1  0  0  0  0
 19 38  1  0  0  0  0
 19 39  1  0  0  0  0
M  END
> <s_m_source_file>
AV-unprocessed.smi

> <i_m_source_file_index>
765

> <i_lp_mmshare_version>
43012

> <i_f3d_flags>
0

> <s_epik_input>
W0NIM11bQ0BASF0oW0NIMl0xKVtDSDJdW0NIMl1bQ0gyXVtDQEBdMShDI04pW05IXUMoPU8pW0NASF0oW0NIM10pbjJbY0hdW2NIXVtjSF1uMg==

> <s_epik_cmdline>
J2VwaWtfcHl0aG9uJywgJy1waCcsICc3LjAnLCAnLXRuJywgJzgnLCAnLW1hJywgJzIwMCcsICctbWV0YWxfYmluZGluZycsICctaW1hZScsICc8aW5maWxlLm1hZT4nLCAnLW9tYWUnLCAnPG91dGZpbGUubWFlPic=

> <r_lp_tautomer_probability>
1

> <r_epik_Ionization_Penalty>
2.71142e-05

> <r_epik_Ionization_Penalty_Charging>
0

> <r_epik_Ionization_Penalty_Neutral>
2.71142e-05

> <r_epik_State_Penalty>
-0

> <r_epik_Charging_Adjusted_Penalty>
0

> <i_epik_Tot_Q>
0

> <i_epik_Tot_abs_Q>
0

> <r_epik_Metal_State_Penalty>
-0

> <b_epik_Metal_Only>
0

> <s_lp_Force_Field>
OPLS_2005

> <r_lp_Energy>
10.7607

> <b_lp_Chiralities_Consistent>
1

> <s_lp_Variant>
AV-unprocessed.smi:765-2

> <Gold.Version>
5.8.1

> <Gold.Id.Protein>
6NUR|6NUR_protein|mol2

> <Gold.PLP.Fitness>
42.4685

> <Gold.PLP.PLP>
-38.1540

> <Gold.PLP.part.hbond>
-2.0000

> <Gold.PLP.part.metal>
0.0000

> <Gold.PLP.part.buried>
-1.2319

> <Gold.PLP.part.nonpolar>
-34.9307

> <Gold.PLP.part.repulsive>
0.0487

> <Gold.PLP.ligand.clash>
0.0000

> <Gold.PLP.ligand.torsion>
0.3834

> <Gold.PLP.Chemscore.Hbond>
1.6723

> <Gold.PLP.Chemscore.CHOScore>
0.0000

> <Gold.PLP.Chemscore.Metal>
0.0000

> <Gold.Chemscore.Hbonds>
donor molecule, donor type, donor heavy atom, donor atom, acceptor molecule, acceptor atom, score
      L1  H     9    30       P1  8028  0.80
      P1  H  7989  7998       L1     8  0.80

> <Gold.PLP.Chemscore.Internal.Correction>
0.0644

> <Gold.Rescore>
     Score         DG    S(hbond)    S(metal)    S(lipo)     H(rot)  DE(clash)    DE(int)     intcor
     13.57     -15.32       0.98        0.00      87.10       1.42       0.03       1.72       ----

> <Gold.Chemscore.Fitness>
13.5707

> <Gold.Chemscore.DG>
-15.3160

> <Gold.Chemscore.ZeroCoef>
-5.4800

> <Gold.Chemscore.Hbond>
0.9810

> <Gold.Chemscore.Metal>
0.0000

> <Gold.Chemscore.Lipo>
87.0965

> <Gold.Chemscore.Internal_Hbond>
0.0000

> <Gold.Chemscore.DEClash>
0.0262

> <Gold.Chemscore.DEInternal>
1.7191

> <Gold.Chemscore.Rot>
1.4183

> <Gold.Chemscore.Internal.Correction>
   9.000000E+99

> <Gold.Chemscore.Hbonds>
donor molecule, donor type, donor heavy atom, donor atom, acceptor molecule, acceptor atom, score
      L1  H     9    30       P1  8028  0.77
      P1  H  7989  7998       L1     8  0.12

> <Gold.Chemscore.Hbond.Weighted>
-3.2766

> <Gold.Chemscore.Metal.Weighted>
-0.0000

> <Gold.Chemscore.Lipo.Weighted>
-10.1903

> <Gold.Chemscore.Internal_Hbond.Weighted>
0.0000

> <Gold.Chemscore.DEClash.Weighted>
0.0262

> <Gold.Chemscore.DEInternal.Weighted>
1.7191

> <Gold.Chemscore.Rot.Weighted>
3.6309

> <Gold.Chemscore.Internal.Correction.Weighted>
   9.000000E+99

> <Gold.Protein.RotatedTorsions>
[ 6907 6896 6895 6894 ] final  -30.41 input  -60.11 | X-H torsion
[ 7974 7965 7964 7962 ] final -170.29 input  175.53 | X-H torsion
[ 8008 7997 7996 7995 ] final  -99.55 input   59.86 | X-H torsion
[ 10167 10162 10161 10158 ] final  147.06 input  -65.29 | X-H torsion
[ 10718 10713 10712 10709 ] final -137.43 input   66.30 | X-H torsion
[ 10763 10752 10751 10750 ] final   89.55 input  -60.55 | X-H torsion
[ 11005 11000 10999 10996 ] final -102.79 input  -57.11 | X-H torsion

> <Gold.Protein.ActiveResidues>
 VAL166  LYS551  ARG553  GLY616  TRP617  ASP618  TYR619  PRO620  LYS621  CYS622 
 ASP623  PHE694  ASN695  SER759  ASP760  ASP761  ALA762  ILE779  LEU786  VAL792 
 PHE793  MET794  SER795  GLU796  ALA797  LYS798  CYS799  TRP800  GLU811  SER814 

> <Gold.Protein.RotatedAtoms>
  151.1060  134.9999  159.8470 H   0  0  0  0  0  0  0  0  0  0  0  0  # atno 6907 bound_to 6896
  152.5440  134.1893  159.8677 H   0  0  0  0  0  0  0  0  0  0  0  0  # atno 6908 bound_to 6896
  151.1940  133.4606  159.2628 H   0  0  0  0  0  0  0  0  0  0  0  0  # atno 6909 bound_to 6896
  144.7172  140.2094  143.6329 H   0  0  0  0  0  0  0  0  0  0  0  0  # atno 7974 bound_to 7965
  154.8164  140.0447  157.1379 H   0  0  0  0  0  0  0  0  0  0  0  0  # atno 8008 bound_to 7997
  154.9310  140.3040  155.5148 H   0  0  0  0  0  0  0  0  0  0  0  0  # atno 8009 bound_to 7997
  156.2976  140.2323  156.4370 H   0  0  0  0  0  0  0  0  0  0  0  0  # atno 8010 bound_to 7997
  139.4896  144.5783  151.6922 H   0  0  0  0  0  0  0  0  0  0  0  0  # atno 10167 bound_to 10162
  156.2881  130.7359  151.1376 H   0  0  0  0  0  0  0  0  0  0  0  0  # atno 10718 bound_to 10713
  153.1883  135.4466  155.0116 H   0  0  0  0  0  0  0  0  0  0  0  0  # atno 10763 bound_to 10752
  154.8074  135.3280  154.7398 H   0  0  0  0  0  0  0  0  0  0  0  0  # atno 10764 bound_to 10752
  153.7854  135.6974  153.4936 H   0  0  0  0  0  0  0  0  0  0  0  0  # atno 10765 bound_to 10752
  141.1174  133.8587  157.1405 H   0  0  0  0  0  0  0  0  0  0  0  0  # atno 11005 bound_to 11000
  145.8605  139.2220  143.1719 LP  0  0  0  0  0  0  0  0  0  0  0  0  # atno 17320 bound_to 7965
  146.0178  140.8376  142.9939 LP  0  0  0  0  0  0  0  0  0  0  0  0  # atno 17321 bound_to 7965
  140.5384  144.0619  150.6079 LP  0  0  0  0  0  0  0  0  0  0  0  0  # atno 17342 bound_to 10162
  140.3633  143.2896  152.0360 LP  0  0  0  0  0  0  0  0  0  0  0  0  # atno 17343 bound_to 10162
  157.7334  131.0591  150.5577 LP  0  0  0  0  0  0  0  0  0  0  0  0  # atno 17370 bound_to 10713
  156.5690  130.4275  149.6028 LP  0  0  0  0  0  0  0  0  0  0  0  0  # atno 17371 bound_to 10713
  140.0105  134.9990  157.0385 LP  0  0  0  0  0  0  0  0  0  0  0  0  # atno 17394 bound_to 11000
  140.4607  134.1487  155.7191 LP  0  0  0  0  0  0  0  0  0  0  0  0  # atno 17395 bound_to 11000

$$$$
