#       Name:                AV-unprocessed.smi:615
#       Creating user name   scv26
#       Creation time:       Thu Mar 26 23:59:47 2020


#       File generated by GOLD software.
#

@<TRIPOS>MOLECULE
AV-unprocessed.smi:615
    30    31     1
SMALL
NO_CHARGES


@<TRIPOS>ATOM
      1 ****        -3.8186   1.2436   2.5373 C.3            1 S1                 0.0000
      2 ****        -3.9444  -0.1308   1.8664 C.3            1 S1                 0.0000
      3 ****        -2.6569  -0.8130   1.7941 N.am           1 S1                 0.0000
      4 ****        -1.7070  -0.6048   0.8707 C.2            1 S1                 0.0000
      5 ****        -1.8866   0.2290  -0.0201 O.2            1 S1                 0.0000
      6 ****        -0.6065  -1.3734   1.0380 N.pl3          1 S1                -1.0000
      7 ****         0.4233  -1.2660   0.1823 C.2            1 S1                 0.0000
      8 ****         0.6080  -2.1238  -0.8312 N.2            1 S1                 0.0000
      9 ****         1.7311  -1.8336  -1.5921 N.2            1 S1                 0.0000
     10 ****         2.3854  -0.7626  -1.1365 C.2            1 S1                 0.0000
     11 ****         3.6254  -0.2471  -1.7869 C.3            1 S1                 0.0000
     12 ****         3.9270   1.2342  -1.8556 C.3            1 S1                 0.0000
     13 ****         3.5582   0.4824  -3.1089 C.3            1 S1                 0.0000
     14 ****         1.6681  -0.0214   0.2854 S.3            1 S1                 0.0000
     15 ****        -4.7926   1.7265   2.6157 H              1 S1                 0.0000
     16 ****        -3.1659   1.9056   1.9675 H              1 S1                 0.0000
     17 ****        -3.4094   1.1542   3.5440 H              1 S1                 0.0000
     18 ****        -4.6276  -0.7578   2.4394 H              1 S1                 0.0000
     19 ****        -4.3781  -0.0303   0.8701 H              1 S1                 0.0000
     20 ****        -2.4669  -1.5050   2.5040 H              1 S1                 0.0000
     21 ****         4.4576  -0.9282  -1.6212 H              1 S1                 0.0000
     22 ****         3.1900   1.9295  -1.4585 H              1 S1                 0.0000
     23 ****         4.9648   1.5396  -1.7398 H              1 S1                 0.0000
     24 ****         4.3490   0.2864  -3.8301 H              1 S1                 0.0000
     25 ****         2.5736   0.6668  -3.5341 H              1 S1                 0.0000
     26 ****        -2.7401   0.7492  -0.0534 LP             1 S1                 0.0000
     27 ****        -1.1788   0.3849  -0.7091 LP             1 S1                 0.0000
     28 ****        -0.5597  -2.0212   1.7984 LP             1 S1                 0.0000
     29 ****        -0.0014  -2.8940  -1.0195 LP             1 S1                 0.0000
     30 ****         2.0174  -2.3650  -2.3894 LP             1 S1                 0.0000
@<TRIPOS>BOND
    1    1    2 1     
    2    1   15 1     
    3    1   16 1     
    4    1   17 1     
    5    2    3 1     
    6    2   18 1     
    7    2   19 1     
    8    3    4 am    
    9    3   20 1     
   10    4    5 2     
   11    4    6 1     
   12    6    7 1     
   13    7   14 1     
   14    7    8 2     
   15    8    9 1     
   16    9   10 2     
   17   10   11 1     
   18   10   14 1     
   19   11   13 1     
   20   11   12 1     
   21   11   21 1     
   22   12   13 1     
   23   12   22 1     
   24   12   23 1     
   25   13   24 1     
   26   13   25 1     
   27    5   26 1     
   28    5   27 1     
   29    6   28 1     
   30    8   29 1     
   31    9   30 1     
@<TRIPOS>SUBSTRUCTURE
      1 S1             1
@<TRIPOS>SET
LONE_PAIRS      STATIC     ATOMS    <user>   **** ""
5 26 27 28 29 30
DONOR_HYDROGENS      STATIC     ATOMS    <user>   **** ""
1 20
ATOM$BLUE        STATIC     ATOMS    COLORGROUP SYSTEM
5 26 27 28 29 30
ATOM$RED        STATIC     ATOMS    COLORGROUP SYSTEM
1 20
