AV-unprocessed.smi:2439|AV-procd|sdf|9604|dock5
  -GOLD-   2272013233D 1   1.00000     0.00000
 Structure written by MMmdl.
 41 43  0  0  0  0  0  0  0  0  2 V2000
  154.1445  139.6649  158.8772 N   0  0  0  0  0  0  0  0  0  0  0  0
  153.7659  140.5379  159.5354 C   0  0  0  0  0  0  0  0  0  0  0  0
  153.2881  141.6388  160.3631 C   0  0  0  0  0  0  0  0  0  0  0  0
  153.6465  141.6745  161.7271 C   0  0  0  0  0  0  0  0  0  0  0  0
  153.1901  142.7371  162.5282 C   0  0  0  0  0  0  0  0  0  0  0  0
  152.3886  143.7262  161.9302 C   0  0  0  0  0  0  0  0  0  0  0  0
  152.0382  143.7047  160.6269 N   0  0  0  0  0  0  0  0  0  0  0  0
  152.4751  142.6843  159.8485 C   0  0  0  0  0  0  0  0  0  0  0  0
  152.0946  142.6914  158.4948 N   0  0  0  0  0  0  0  0  0  0  0  0
  150.7043  142.8798  158.1052 C   0  0  0  0  0  0  0  0  0  0  0  0
  149.9177  141.5553  158.1552 C   0  0  1  0  0  0  0  0  0  0  0  0
  148.4253  141.7288  157.8156 C   0  0  0  0  0  0  0  0  0  0  0  0
  148.2297  142.0147  156.3747 N   0  3  2  0  0  0  0  0  0  0  0  0
  146.7994  142.2266  156.0350 C   0  0  0  0  0  0  0  0  0  0  0  0
  146.6296  142.6071  154.5559 C   0  0  0  0  0  0  0  0  0  0  0  0
  147.2575  141.5447  153.6454 C   0  0  0  0  0  0  0  0  0  0  0  0
  148.7265  141.3274  154.0305 C   0  0  0  0  0  0  0  0  0  0  0  0
  148.8711  140.9748  155.5251 C   0  0  1  0  0  0  0  0  0  0  0  0
  150.3534  140.8155  155.9138 C   0  0  0  0  0  0  0  0  0  0  0  0
  150.4786  140.5524  157.3074 O   0  0  0  0  0  0  0  0  0  0  0  0
  154.2644  140.9003  162.1595 H   0  0  0  0  0  0  0  0  0  0  0  0
  153.4487  142.7922  163.5754 H   0  0  0  0  0  0  0  0  0  0  0  0
  152.0196  144.5575  162.5124 H   0  0  0  0  0  0  0  0  0  0  0  0
  152.8052  142.6886  157.7767 H   0  0  0  0  0  0  0  0  0  0  0  0
  150.2521  143.5947  158.7934 H   0  0  0  0  0  0  0  0  0  0  0  0
  150.6521  143.3289  157.1136 H   0  0  0  0  0  0  0  0  0  0  0  0
  149.9812  141.1742  159.1752 H   0  0  0  0  0  0  0  0  0  0  0  0
  147.8845  140.8169  158.0743 H   0  0  0  0  0  0  0  0  0  0  0  0
  147.9949  142.5312  158.4161 H   0  0  0  0  0  0  0  0  0  0  0  0
  146.2331  141.3201  156.2547 H   0  0  0  0  0  0  0  0  0  0  0  0
  146.3884  143.0174  156.6638 H   0  0  0  0  0  0  0  0  0  0  0  0
  145.5713  142.7219  154.3194 H   0  0  0  0  0  0  0  0  0  0  0  0
  147.0961  143.5751  154.3687 H   0  0  0  0  0  0  0  0  0  0  0  0
  146.7082  140.6068  153.7377 H   0  0  0  0  0  0  0  0  0  0  0  0
  147.1825  141.8507  152.6015 H   0  0  0  0  0  0  0  0  0  0  0  0
  149.1537  140.5344  153.4156 H   0  0  0  0  0  0  0  0  0  0  0  0
  149.2956  142.2312  153.8067 H   0  0  0  0  0  0  0  0  0  0  0  0
  148.3630  140.0268  155.7114 H   0  0  0  0  0  0  0  0  0  0  0  0
  150.7924  139.9795  155.3687 H   0  0  0  0  0  0  0  0  0  0  0  0
  150.9323  141.6968  155.6368 H   0  0  0  0  0  0  0  0  0  0  0  0
  148.7069  142.8838  156.1816 H   0  0  0  0  0  0  0  0  0  0  0  0
  1  2  3  0  0  0  0
  2  3  1  0  0  0  0
  3  8  1  0  0  0  0
  3  4  2  0  0  0  0
  4  5  1  0  0  0  0
  4 21  1  0  0  0  0
  5  6  2  0  0  0  0
  5 22  1  0  0  0  0
  6  7  1  0  0  0  0
  6 23  1  0  0  0  0
  7  8  2  0  0  0  0
  8  9  1  0  0  0  0
  9 10  1  0  0  0  0
  9 24  1  0  0  0  0
 10 11  1  0  0  0  0
 10 25  1  0  0  0  0
 10 26  1  0  0  0  0
 11 20  1  0  0  0  0
 11 12  1  0  0  0  0
 11 27  1  0  0  0  0
 12 13  1  0  0  0  0
 12 28  1  0  0  0  0
 12 29  1  0  0  0  0
 13 18  1  0  0  0  0
 13 14  1  0  0  0  0
 13 41  1  0  0  0  0
 14 15  1  0  0  0  0
 14 30  1  0  0  0  0
 14 31  1  0  0  0  0
 15 16  1  0  0  0  0
 15 32  1  0  0  0  0
 15 33  1  0  0  0  0
 16 17  1  0  0  0  0
 16 34  1  0  0  0  0
 16 35  1  0  0  0  0
 17 18  1  0  0  0  0
 17 36  1  0  0  0  0
 17 37  1  0  0  0  0
 18 19  1  0  0  0  0
 18 38  1  0  0  0  0
 19 20  1  0  0  0  0
 19 39  1  0  0  0  0
 19 40  1  0  0  0  0
M  CHG  1  13   1
M  END
> <s_m_source_file>
AV-unprocessed.smi

> <i_m_source_file_index>
2439

> <i_lp_mmshare_version>
43012

> <i_f3d_flags>
0

> <s_epik_input>
TiNDYzFbY0hdW2NIXVtjSF1uYzFbTkhdW0NIMl1bQ0BIXShbQ0gyXTIpT1tDSDJdW0NAQEhdKE4yMylbQ0gyXVtDSDJdW0NIMl1bQ0gyXTM=

> <s_epik_cmdline>
J2VwaWtfcHl0aG9uJywgJy1waCcsICc3LjAnLCAnLXRuJywgJzgnLCAnLW1hJywgJzIwMCcsICctbWV0YWxfYmluZGluZycsICctaW1hZScsICc8aW5maWxlLm1hZT4nLCAnLW9tYWUnLCAnPG91dGZpbGUubWFlPic=

> <r_epik_Ionization_Penalty>
0.0803594

> <r_epik_Ionization_Penalty_Charging>
0.0803403

> <r_epik_Ionization_Penalty_Neutral>
1.90988e-05

> <r_epik_State_Penalty>
0.0711481

> <r_epik_Charging_Adjusted_Penalty>
0.151488

> <i_epik_Tot_Q>
1

> <i_epik_Tot_abs_Q>
1

> <r_epik_Metal_State_Penalty>
0.0711482

> <b_epik_Metal_Only>
0

> <s_lp_Force_Field>
OPLS_2005

> <r_lp_Energy>
31.556

> <b_lp_Chiralities_Consistent>
1

> <s_lp_Variant>
AV-unprocessed.smi:2439-2

> <Gold.Version>
5.8.1

> <Gold.Id.Protein>
6NUR|6NUR_protein|mol2

> <Gold.PLP.Fitness>
52.1020

> <Gold.PLP.PLP>
-44.3100

> <Gold.PLP.part.hbond>
-2.0000

> <Gold.PLP.part.metal>
0.0000

> <Gold.PLP.part.buried>
-4.8000

> <Gold.PLP.part.nonpolar>
-36.5088

> <Gold.PLP.part.repulsive>
0.1556

> <Gold.PLP.ligand.clash>
0.0000

> <Gold.PLP.ligand.torsion>
0.6074

> <Gold.PLP.Chemscore.Hbond>
3.0000

> <Gold.PLP.Chemscore.CHOScore>
0.0000

> <Gold.PLP.Chemscore.Metal>
0.0000

> <Gold.Chemscore.Hbonds>
donor molecule, donor type, donor heavy atom, donor atom, acceptor molecule, acceptor atom, score
      L1  H    13    41       P1  8028  2.00
      P1  H  7997  8008       L1     1  1.00

> <Gold.PLP.Chemscore.Internal.Correction>
0.0068

> <Gold.Rescore>
     Score         DG    S(hbond)    S(metal)    S(lipo)     H(rot)  DE(clash)    DE(int)     intcor
     19.38     -20.00       1.94        0.00      96.44       1.27       0.01       0.61       ----

> <Gold.Chemscore.Fitness>
19.3787

> <Gold.Chemscore.DG>
-19.9979

> <Gold.Chemscore.ZeroCoef>
-5.4800

> <Gold.Chemscore.Hbond>
1.9386

> <Gold.Chemscore.Metal>
0.0000

> <Gold.Chemscore.Lipo>
96.4431

> <Gold.Chemscore.Internal_Hbond>
0.0000

> <Gold.Chemscore.DEClash>
0.0072

> <Gold.Chemscore.DEInternal>
0.6119

> <Gold.Chemscore.Rot>
1.2659

> <Gold.Chemscore.Internal.Correction>
   9.000000E+99

> <Gold.Chemscore.Hbonds>
donor molecule, donor type, donor heavy atom, donor atom, acceptor molecule, acceptor atom, score
      L1  H    13    41       P1  8028  0.97
      P1  H  7997  8008       L1     1  0.97

> <Gold.Chemscore.Hbond.Weighted>
-6.4748

> <Gold.Chemscore.Metal.Weighted>
-0.0000

> <Gold.Chemscore.Lipo.Weighted>
-11.2838

> <Gold.Chemscore.Internal_Hbond.Weighted>
0.0000

> <Gold.Chemscore.DEClash.Weighted>
0.0072

> <Gold.Chemscore.DEInternal.Weighted>
0.6119

> <Gold.Chemscore.Rot.Weighted>
3.2408

> <Gold.Chemscore.Internal.Correction.Weighted>
   9.000000E+99

> <Gold.Protein.RotatedTorsions>
[ 6907 6896 6895 6894 ] final  155.17 input  -60.11 | X-H torsion
[ 7974 7965 7964 7962 ] final  -56.91 input  175.53 | X-H torsion
[ 8008 7997 7996 7995 ] final -116.10 input   59.86 | X-H torsion
[ 10167 10162 10161 10158 ] final  -81.15 input  -65.29 | X-H torsion
[ 10718 10713 10712 10709 ] final -124.70 input   66.30 | X-H torsion
[ 10763 10752 10751 10750 ] final  -66.53 input  -60.55 | X-H torsion
[ 11005 11000 10999 10996 ] final   83.29 input  -57.11 | X-H torsion

> <Gold.Protein.ActiveResidues>
 VAL166  LYS551  ARG553  GLY616  TRP617  ASP618  TYR619  PRO620  LYS621  CYS622 
 ASP623  PHE694  ASN695  SER759  ASP760  ASP761  ALA762  ILE779  LEU786  VAL792 
 PHE793  MET794  SER795  GLU796  ALA797  LYS798  CYS799  TRP800  GLU811  SER814 

> <Gold.Protein.RotatedAtoms>
  152.0480  133.4006  159.4364 H   0  0  0  0  0  0  0  0  0  0  0  0  # atno 6907 bound_to 6896
  150.6872  134.3340  159.4848 H   0  0  0  0  0  0  0  0  0  0  0  0  # atno 6908 bound_to 6896
  152.1147  134.9249  160.0616 H   0  0  0  0  0  0  0  0  0  0  0  0  # atno 6909 bound_to 6896
  145.8572  140.8311  142.9955 H   0  0  0  0  0  0  0  0  0  0  0  0  # atno 7974 bound_to 7965
  155.0625  140.0393  157.2581 H   0  0  0  0  0  0  0  0  0  0  0  0  # atno 8008 bound_to 7997
  154.7048  140.2680  155.6661 H   0  0  0  0  0  0  0  0  0  0  0  0  # atno 8009 bound_to 7997
  156.2771  140.2733  156.1670 H   0  0  0  0  0  0  0  0  0  0  0  0  # atno 8010 bound_to 7997
  140.4438  143.2506  151.8588 H   0  0  0  0  0  0  0  0  0  0  0  0  # atno 10167 bound_to 10162
  156.1611  130.6602  151.0050 H   0  0  0  0  0  0  0  0  0  0  0  0  # atno 10718 bound_to 10713
  154.3612  135.6115  153.5691 H   0  0  0  0  0  0  0  0  0  0  0  0  # atno 10763 bound_to 10752
  152.9793  135.5815  154.4631 H   0  0  0  0  0  0  0  0  0  0  0  0  # atno 10764 bound_to 10752
  154.4369  135.2849  155.1852 H   0  0  0  0  0  0  0  0  0  0  0  0  # atno 10765 bound_to 10752
  139.9036  134.8134  156.2289 H   0  0  0  0  0  0  0  0  0  0  0  0  # atno 11005 bound_to 11000
  144.6727  140.1041  143.7459 LP  0  0  0  0  0  0  0  0  0  0  0  0  # atno 17320 bound_to 7965
  145.9290  139.2594  143.1336 LP  0  0  0  0  0  0  0  0  0  0  0  0  # atno 17321 bound_to 7965
  139.4791  144.5199  151.8816 LP  0  0  0  0  0  0  0  0  0  0  0  0  # atno 17342 bound_to 10162
  140.4287  144.2144  150.5887 LP  0  0  0  0  0  0  0  0  0  0  0  0  # atno 17343 bound_to 10162
  157.6733  131.0856  150.7558 LP  0  0  0  0  0  0  0  0  0  0  0  0  # atno 17370 bound_to 10713
  156.7621  130.4802  149.5435 LP  0  0  0  0  0  0  0  0  0  0  0  0  # atno 17371 bound_to 10713
  141.0358  133.6964  156.1510 LP  0  0  0  0  0  0  0  0  0  0  0  0  # atno 17394 bound_to 11000
  140.7029  134.4544  157.5585 LP  0  0  0  0  0  0  0  0  0  0  0  0  # atno 17395 bound_to 11000

$$$$
