#       Name:                AV-unprocessed.smi:716
#       Creating user name   scv26
#       Creation time:       Fri Mar 27 00:48:16 2020


#       File generated by GOLD software.
#

@<TRIPOS>MOLECULE
AV-unprocessed.smi:716
    55    57     1
SMALL
NO_CHARGES


@<TRIPOS>ATOM
      1 ****        -4.7946  -4.0423   1.0996 C.3            1 S1                 0.0000
      2 ****        -4.3869  -2.5759   0.9440 C.3            1 S1                 0.0000
      3 ****        -3.2520  -2.3267   1.7569 O.3            1 S1                 0.0000
      4 ****        -2.8014  -0.9822   1.6919 C.3            1 S1                 0.0000
      5 ****        -1.6553  -0.7179   2.6707 C.3            1 S1                 0.0000
      6 ****        -1.1041   0.2221   1.5996 C.3            1 S1                 0.0000
      7 ****         0.3529   0.2092   1.5341 N.am           1 S1                 0.0000
      8 ****         1.0860   1.0746   0.8201 C.2            1 S1                 0.0000
      9 ****         0.5897   1.9800   0.1477 O.2            1 S1                 0.0000
     10 ****         2.6056   0.8596   0.8691 C.3            1 S1                 0.0000
     11 ****         3.3675   1.8562   0.1027 N.am           1 S1                 0.0000
     12 ****         3.7039   1.4469  -1.1773 N.2            1 S1                 0.0000
     13 ****         4.3605   2.2242  -1.9745 C.2            1 S1                 0.0000
     14 ****         4.6812   1.7020  -3.3435 C.3            1 S1                 0.0000
     15 ****         4.7539   3.5448  -1.5216 C.2            1 S1                 0.0000
     16 ****         4.4272   3.9405  -0.2726 C.2            1 S1                 0.0000
     17 ****         3.6840   3.0725   0.6385 C.2            1 S1                 0.0000
     18 ****         3.3685   3.4044   1.7809 O.2            1 S1                 0.0000
     19 ****        -1.8232  -0.6509   0.5336 C.3            1 S1                 0.0000
     20 ****        -2.3769   0.0767  -0.6901 C.3            1 S1                 0.0000
     21 ****        -1.3955  -0.1358  -1.8488 C.3            1 S1                 0.0000
     22 ****        -0.4985  -1.3086  -1.4440 C.3            1 S1                 0.0000
     23 ****        -1.0522  -1.8135  -0.1103 C.3            1 S1                 0.0000
     24 ****        -5.6737  -4.2680   0.4954 H              1 S1                 0.0000
     25 ****        -5.0334  -4.2740   2.1379 H              1 S1                 0.0000
     26 ****        -3.9910  -4.7077   0.7830 H              1 S1                 0.0000
     27 ****        -4.1623  -2.3653  -0.1017 H              1 S1                 0.0000
     28 ****        -5.2118  -1.9273   1.2429 H              1 S1                 0.0000
     29 ****        -3.6019  -0.2473   1.8067 H              1 S1                 0.0000
     30 ****        -1.9504  -0.2300   3.6000 H              1 S1                 0.0000
     31 ****        -1.0330  -1.5965   2.8520 H              1 S1                 0.0000
     32 ****        -1.5358   1.2222   1.6902 H              1 S1                 0.0000
     33 ****         0.8319  -0.5087   2.0583 H              1 S1                 0.0000
     34 ****         2.9310   0.8522   1.9110 H              1 S1                 0.0000
     35 ****         2.8196  -0.1415   0.4902 H              1 S1                 0.0000
     36 ****         5.2544   2.4292  -3.9191 H              1 S1                 0.0000
     37 ****         3.7685   1.4815  -3.8982 H              1 S1                 0.0000
     38 ****         5.2704   0.7865  -3.2821 H              1 S1                 0.0000
     39 ****         5.3027   4.1989  -2.1831 H              1 S1                 0.0000
     40 ****         4.7205   4.9241   0.0637 H              1 S1                 0.0000
     41 ****        -3.3495  -0.3330  -0.9626 H              1 S1                 0.0000
     42 ****        -2.5323   1.1395  -0.5022 H              1 S1                 0.0000
     43 ****        -1.9276  -0.3397  -2.7785 H              1 S1                 0.0000
     44 ****        -0.7916   0.7579  -2.0094 H              1 S1                 0.0000
     45 ****        -0.4869  -2.0958  -2.1984 H              1 S1                 0.0000
     46 ****         0.5282  -0.9627  -1.3191 H              1 S1                 0.0000
     47 ****        -0.2612  -2.2100   0.5267 H              1 S1                 0.0000
     48 ****        -1.7265  -2.6461  -0.3111 H              1 S1                 0.0000
     49 ****        -2.5091  -2.9256   1.4577 LP             1 S1                 0.0000
     50 ****        -3.4882  -2.5371   2.7056 LP             1 S1                 0.0000
     51 ****        -0.4033   2.0941   0.1180 LP             1 S1                 0.0000
     52 ****         1.1800   2.6008  -0.3683 LP             1 S1                 0.0000
     53 ****         3.4346   0.5359  -1.4894 LP             1 S1                 0.0000
     54 ****         2.8569   2.7716   2.3622 LP             1 S1                 0.0000
     55 ****         3.6238   4.3069   2.1279 LP             1 S1                 0.0000
@<TRIPOS>BOND
    1    1    2 1     
    2    1   24 1     
    3    1   25 1     
    4    1   26 1     
    5    2    3 1     
    6    2   27 1     
    7    2   28 1     
    8    3    4 1     
    9    4   19 1     
   10    4    5 1     
   11    4   29 1     
   12    5    6 1     
   13    5   30 1     
   14    5   31 1     
   15    6    7 1     
   16    6   19 1     
   17    6   32 1     
   18    7    8 am    
   19    7   33 1     
   20    8    9 2     
   21    8   10 1     
   22   10   11 1     
   23   10   34 1     
   24   10   35 1     
   25   11   17 am    
   26   11   12 1     
   27   12   13 2     
   28   13   14 1     
   29   13   15 1     
   30   14   36 1     
   31   14   37 1     
   32   14   38 1     
   33   15   16 2     
   34   15   39 1     
   35   16   17 1     
   36   16   40 1     
   37   17   18 2     
   38   19   23 1     
   39   19   20 1     
   40   20   21 1     
   41   20   41 1     
   42   20   42 1     
   43   21   22 1     
   44   21   43 1     
   45   21   44 1     
   46   22   23 1     
   47   22   45 1     
   48   22   46 1     
   49   23   47 1     
   50   23   48 1     
   51    3   49 1     
   52    3   50 1     
   53    9   51 1     
   54    9   52 1     
   55   12   53 1     
   56   18   54 1     
   57   18   55 1     
@<TRIPOS>SUBSTRUCTURE
      1 S1             1
@<TRIPOS>SET
LONE_PAIRS      STATIC     ATOMS    <user>   **** ""
7 49 50 51 52 53 54 55
DONOR_HYDROGENS      STATIC     ATOMS    <user>   **** ""
1 33
ATOM$BLUE        STATIC     ATOMS    COLORGROUP SYSTEM
7 49 50 51 52 53 54 55
ATOM$RED        STATIC     ATOMS    COLORGROUP SYSTEM
1 33
