AV-unprocessed.smi:1726|AV-procd|sdf|6961|dock2
  -GOLD-   22720 8173D 1   1.00000     0.00000
 Structure written by MMmdl.
 42 43  0  0  0  0  0  0  0  0  3 V2000
  145.3688  135.0017  151.6492 C   0  0  0  0  0  0  0  0  0  0  0  0
  145.7764  135.5138  153.0384 C   0  0  0  0  0  0  0  0  0  0  0  0
  146.5919  136.7532  152.9745 N   0  3  1  0  0  0  0  0  0  0  0  0
  145.8752  137.8586  152.2865 C   0  0  0  0  0  0  0  0  0  0  0  0
  146.7823  139.0874  152.1098 C   0  0  0  0  0  0  0  0  0  0  0  0
  147.3426  139.5578  153.4581 C   0  0  0  0  0  0  0  0  0  0  0  0
  148.0578  138.3950  154.1625 C   0  0  1  0  0  0  0  0  0  0  0  0
  148.5404  138.8267  155.4705 N   0  0  0  0  0  0  0  0  0  0  0  0
  149.6928  139.4758  155.6909 C   0  0  0  0  0  0  0  0  0  0  0  0
  150.4775  139.7755  154.7908 O   0  0  0  0  0  0  0  0  0  0  0  0
  149.8649  139.7165  157.0028 N   0  0  0  0  0  0  0  0  0  0  0  0
  150.9180  140.3825  157.6519 C   0  0  0  0  0  0  0  0  0  0  0  0
  150.8611  141.6656  158.1047 C   0  0  0  0  0  0  0  0  0  0  0  0
  151.9803  142.3015  158.7881 C   0  0  0  0  0  0  0  0  0  0  0  0
  151.9873  143.7578  159.2177 C   0  0  0  0  0  0  0  0  0  0  0  0
  152.8892  144.4356  158.5090 F   0  0  0  0  0  0  0  0  0  0  0  0
  150.7952  144.3222  159.0218 F   0  0  0  0  0  0  0  0  0  0  0  0
  152.3005  143.8731  160.5084 F   0  0  0  0  0  0  0  0  0  0  0  0
  153.0708  141.4611  158.9023 C   0  0  0  0  0  0  0  0  0  0  0  0
  153.1985  140.1749  158.5085 N   0  5  0  0  0  0  0  0  0  0  0  0
  152.1448  139.5894  157.8724 C   0  0  0  0  0  0  0  0  0  0  0  0
  152.1948  138.4226  157.4815 O   0  0  0  0  0  0  0  0  0  0  0  0
  147.1118  137.1831  154.3000 C   0  0  0  0  0  0  0  0  0  0  0  0
  144.6907  134.1528  151.7394 H   0  0  0  0  0  0  0  0  0  0  0  0
  146.2259  134.6666  151.0658 H   0  0  0  0  0  0  0  0  0  0  0  0
  144.8537  135.7753  151.0790 H   0  0  0  0  0  0  0  0  0  0  0  0
  144.8614  135.7161  153.5967 H   0  0  0  0  0  0  0  0  0  0  0  0
  146.3110  134.7411  153.5927 H   0  0  0  0  0  0  0  0  0  0  0  0
  145.5346  137.5242  151.3058 H   0  0  0  0  0  0  0  0  0  0  0  0
  144.9846  138.1269  152.8573 H   0  0  0  0  0  0  0  0  0  0  0  0
  147.6047  138.8416  151.4366 H   0  0  0  0  0  0  0  0  0  0  0  0
  146.2261  139.8964  151.6355 H   0  0  0  0  0  0  0  0  0  0  0  0
  148.0300  140.3908  153.3060 H   0  0  0  0  0  0  0  0  0  0  0  0
  146.5297  139.9321  154.0824 H   0  0  0  0  0  0  0  0  0  0  0  0
  148.9159  138.1051  153.5521 H   0  0  0  0  0  0  0  0  0  0  0  0
  147.9566  138.6159  156.2670 H   0  0  0  0  0  0  0  0  0  0  0  0
  149.1681  139.3376  157.6275 H   0  0  0  0  0  0  0  0  0  0  0  0
  149.9645  142.2523  157.9905 H   0  0  0  0  0  0  0  0  0  0  0  0
  153.9790  141.8875  159.3793 H   0  0  0  0  0  0  0  0  0  0  0  0
  146.2752  137.4275  154.9569 H   0  0  0  0  0  0  0  0  0  0  0  0
  147.6502  136.3611  154.7702 H   0  0  0  0  0  0  0  0  0  0  0  0
  147.3950  136.5376  152.4009 H   0  0  0  0  0  0  0  0  0  0  0  0
  1  2  1  0  0  0  0
  1 24  1  0  0  0  0
  1 25  1  0  0  0  0
  1 26  1  0  0  0  0
  2  3  1  0  0  0  0
  2 27  1  0  0  0  0
  2 28  1  0  0  0  0
  3 23  1  0  0  0  0
  3  4  1  0  0  0  0
  3 42  1  0  0  0  0
  4  5  1  0  0  0  0
  4 29  1  0  0  0  0
  4 30  1  0  0  0  0
  5  6  1  0  0  0  0
  5 31  1  0  0  0  0
  5 32  1  0  0  0  0
  6  7  1  0  0  0  0
  6 33  1  0  0  0  0
  6 34  1  0  0  0  0
  7  8  1  0  0  0  0
  7 23  1  0  0  0  0
  7 35  1  0  0  0  0
  8  9  1  0  0  0  0
  8 36  1  0  0  0  0
  9 10  2  0  0  0  0
  9 11  1  0  0  0  0
 11 12  1  0  0  0  0
 11 37  1  0  0  0  0
 12 21  1  0  0  0  0
 12 13  2  0  0  0  0
 13 14  1  0  0  0  0
 13 38  1  0  0  0  0
 14 15  1  0  0  0  0
 14 19  2  0  0  0  0
 15 16  1  0  0  0  0
 15 17  1  0  0  0  0
 15 18  1  0  0  0  0
 19 20  1  0  0  0  0
 19 39  1  0  0  0  0
 20 21  1  0  0  0  0
 21 22  2  0  0  0  0
 23 40  1  0  0  0  0
 23 41  1  0  0  0  0
M  CHG  1   3   1
M  CHG  1  20  -1
M  END
> <s_m_source_file>
AV-unprocessed.smi

> <i_m_source_file_index>
1726

> <i_lp_mmshare_version>
43012

> <i_f3d_flags>
0

> <s_epik_input>
W0NIM11bQ0gyXU4xW0NIMl1bQ0gyXVtDSDJdW0NASF0oW0NIMl0xKVtOSF1DKD1PKVtOSF1jMltjSF1jKEMoRikoRilGKVtjSF1bbkhdYzI9Tw==

> <s_epik_cmdline>
J2VwaWtfcHl0aG9uJywgJy1waCcsICc3LjAnLCAnLXRuJywgJzgnLCAnLW1hJywgJzIwMCcsICctbWV0YWxfYmluZGluZycsICctaW1hZScsICc8aW5maWxlLm1hZT4nLCAnLW9tYWUnLCAnPG91dGZpbGUubWFlPic=

> <r_lp_tautomer_probability>
1

> <r_epik_Ionization_Penalty>
3.01007

> <r_epik_Ionization_Penalty_Charging>
0.14897

> <r_epik_Ionization_Penalty_Neutral>
2.8611

> <r_epik_State_Penalty>
2.85632

> <r_epik_Charging_Adjusted_Penalty>
3.00529

> <i_epik_Tot_Q>
0

> <i_epik_Tot_abs_Q>
2

> <r_epik_Metal_State_Penalty>
0.443826

> <b_epik_Metal_Only>
1

> <s_lp_Force_Field>
OPLS_2005

> <r_lp_Energy>
27.5117

> <b_lp_Chiralities_Consistent>
1

> <s_lp_Variant>
AV-unprocessed.smi:1726-5

> <Gold.Version>
5.8.1

> <Gold.Id.Protein>
6NUR|6NUR_protein|mol2

> <Gold.PLP.Fitness>
50.3888

> <Gold.PLP.PLP>
-37.8011

> <Gold.PLP.part.hbond>
-2.9958

> <Gold.PLP.part.metal>
0.0000

> <Gold.PLP.part.buried>
-2.4703

> <Gold.PLP.part.nonpolar>
-32.8725

> <Gold.PLP.part.repulsive>
0.1073

> <Gold.PLP.ligand.clash>
0.0000

> <Gold.PLP.ligand.torsion>
1.1574

> <Gold.PLP.Chemscore.Hbond>
4.9433

> <Gold.PLP.Chemscore.CHOScore>
0.0000

> <Gold.PLP.Chemscore.Metal>
0.0000

> <Gold.Chemscore.Hbonds>
donor molecule, donor type, donor heavy atom, donor atom, acceptor molecule, acceptor atom, score
      L1  H     3    42       P1  7948  2.00
      P1  H  7989  7998       L1    10  0.96
      P1  H  7997  8009       L1    20  1.95

> <Gold.PLP.Chemscore.Internal.Correction>
0.0728

> <Gold.Rescore>
     Score         DG    S(hbond)    S(metal)    S(lipo)     H(rot)  DE(clash)    DE(int)     intcor
     17.69     -19.43       2.45        0.00      77.12       1.28       0.49       1.24       ----

> <Gold.Chemscore.Fitness>
17.6950

> <Gold.Chemscore.DG>
-19.4252

> <Gold.Chemscore.ZeroCoef>
-5.4800

> <Gold.Chemscore.Hbond>
2.4544

> <Gold.Chemscore.Metal>
0.0000

> <Gold.Chemscore.Lipo>
77.1216

> <Gold.Chemscore.Internal_Hbond>
0.0000

> <Gold.Chemscore.DEClash>
0.4939

> <Gold.Chemscore.DEInternal>
1.2363

> <Gold.Chemscore.Rot>
1.2796

> <Gold.Chemscore.Internal.Correction>
   9.000000E+99

> <Gold.Chemscore.Hbonds>
donor molecule, donor type, donor heavy atom, donor atom, acceptor molecule, acceptor atom, score
      L1  H     3    42       P1  7948  1.00
      P1  H  7989  7998       L1    10  0.90
      P1  H  7997  8009       L1    20  0.18

> <Gold.Chemscore.Hbond.Weighted>
-8.1978

> <Gold.Chemscore.Metal.Weighted>
-0.0000

> <Gold.Chemscore.Lipo.Weighted>
-9.0232

> <Gold.Chemscore.Internal_Hbond.Weighted>
0.0000

> <Gold.Chemscore.DEClash.Weighted>
0.4939

> <Gold.Chemscore.DEInternal.Weighted>
1.2363

> <Gold.Chemscore.Rot.Weighted>
3.2759

> <Gold.Chemscore.Internal.Correction.Weighted>
   9.000000E+99

> <Gold.Protein.RotatedTorsions>
[ 6907 6896 6895 6894 ] final  -15.99 input  -60.11 | X-H torsion
[ 7974 7965 7964 7962 ] final  -79.59 input  175.53 | X-H torsion
[ 8008 7997 7996 7995 ] final  151.48 input   59.86 | X-H torsion
[ 10167 10162 10161 10158 ] final   13.25 input  -65.29 | X-H torsion
[ 10718 10713 10712 10709 ] final  -81.60 input   66.30 | X-H torsion
[ 10763 10752 10751 10750 ] final   -9.72 input  -60.55 | X-H torsion
[ 11005 11000 10999 10996 ] final -106.63 input  -57.11 | X-H torsion

> <Gold.Protein.ActiveResidues>
 VAL166  LYS551  ARG553  GLY616  TRP617  ASP618  TYR619  PRO620  LYS621  CYS622 
 ASP623  PHE694  ASN695  SER759  ASP760  ASP761  ALA762  ILE779  LEU786  VAL792 
 PHE793  MET794  SER795  GLU796  ALA797  LYS798  CYS799  TRP800  GLU811  SER814 

> <Gold.Protein.RotatedAtoms>
  151.3155  135.0805  159.9287 H   0  0  0  0  0  0  0  0  0  0  0  0  # atno 6907 bound_to 6896
  152.5268  133.9692  159.7764 H   0  0  0  0  0  0  0  0  0  0  0  0  # atno 6908 bound_to 6896
  151.0003  133.6010  159.2726 H   0  0  0  0  0  0  0  0  0  0  0  0  # atno 6909 bound_to 6896
  145.5712  140.9465  143.1394 H   0  0  0  0  0  0  0  0  0  0  0  0  # atno 7974 bound_to 7965
  156.2672  140.2046  156.6182 H   0  0  0  0  0  0  0  0  0  0  0  0  # atno 8008 bound_to 7997
  154.6778  140.0543  157.0258 H   0  0  0  0  0  0  0  0  0  0  0  0  # atno 8009 bound_to 7997
  155.1044  140.3209  155.4541 H   0  0  0  0  0  0  0  0  0  0  0  0  # atno 8010 bound_to 7997
  140.6015  143.8595  150.6970 H   0  0  0  0  0  0  0  0  0  0  0  0  # atno 10167 bound_to 10162
  156.0047  130.4608  150.3977 H   0  0  0  0  0  0  0  0  0  0  0  0  # atno 10718 bound_to 10713
  153.4588  135.7016  153.6063 H   0  0  0  0  0  0  0  0  0  0  0  0  # atno 10763 bound_to 10752
  153.4366  135.3790  155.2203 H   0  0  0  0  0  0  0  0  0  0  0  0  # atno 10764 bound_to 10752
  154.8727  135.3963  154.4011 H   0  0  0  0  0  0  0  0  0  0  0  0  # atno 10765 bound_to 10752
  141.0995  133.8910  157.1879 H   0  0  0  0  0  0  0  0  0  0  0  0  # atno 11005 bound_to 11000
  144.7437  139.7379  143.7301 LP  0  0  0  0  0  0  0  0  0  0  0  0  # atno 17320 bound_to 7965
  146.1783  139.4963  142.9883 LP  0  0  0  0  0  0  0  0  0  0  0  0  # atno 17321 bound_to 7965
  140.2142  143.3859  152.1694 LP  0  0  0  0  0  0  0  0  0  0  0  0  # atno 17342 bound_to 10162
  139.5294  144.7142  151.5109 LP  0  0  0  0  0  0  0  0  0  0  0  0  # atno 17343 bound_to 10162
  157.2048  131.0446  151.2631 LP  0  0  0  0  0  0  0  0  0  0  0  0  # atno 17370 bound_to 10713
  157.3943  130.7299  149.6720 LP  0  0  0  0  0  0  0  0  0  0  0  0  # atno 17371 bound_to 10713
  139.9842  135.0088  156.9822 LP  0  0  0  0  0  0  0  0  0  0  0  0  # atno 17394 bound_to 11000
  140.5058  134.1052  155.7260 LP  0  0  0  0  0  0  0  0  0  0  0  0  # atno 17395 bound_to 11000

$$$$
