#       Name:                AV-unprocessed.smi:872
#       Creating user name   scv26
#       Creation time:       Fri Mar 27 01:50:19 2020


#       File generated by GOLD software.
#

@<TRIPOS>MOLECULE
AV-unprocessed.smi:872
    34    35     1
SMALL
NO_CHARGES


@<TRIPOS>ATOM
      1 ****        -4.6299   2.5154   0.0059 O.co2          1 S1                 0.0000
      2 ****        -3.9816   1.4456   0.0065 C.2            1 S1                 0.0000
      3 ****        -4.5331   0.3230   0.0075 O.co2          1 S1                -1.0000
      4 ****        -2.4816   1.5141   0.0061 C.ar           1 S1                 0.0000
      5 ****        -1.8176   2.7621   0.0045 C.ar           1 S1                 0.0000
      6 ****        -0.4682   2.8133   0.0042 N.pl3          1 S1                 1.0000
      7 ****         0.3066   1.7081   0.0053 C.ar           1 S1                 0.0000
      8 ****        -0.2904   0.4263   0.0068 C.ar           1 S1                 0.0000
      9 ****         0.4764  -0.7468   0.0059 N.3            1 S1                 0.0000
     10 ****         1.2468  -0.9330  -1.2174 C.3            1 S1                 0.0000
     11 ****         1.9616  -2.2952  -1.1871 C.3            1 S1                 0.0000
     12 ****         2.7692  -2.3837  -0.0163 O.3            1 S1                 0.0000
     13 ****         1.9949  -2.2803   1.1755 C.3            1 S1                 0.0000
     14 ****         1.2819  -0.9173   1.2088 C.3            1 S1                 0.0000
     15 ****        -1.6994   0.3350   0.0069 C.ar           1 S1                 0.0000
     16 ****        -2.3205   3.7186   0.0034 H              1 S1                 0.0000
     17 ****         1.3726   1.8831   0.0041 H              1 S1                 0.0000
     18 ****         0.5860  -0.8766  -2.0835 H              1 S1                 0.0000
     19 ****         1.9820  -0.1335  -1.3187 H              1 S1                 0.0000
     20 ****         1.2407  -3.1142  -1.2076 H              1 S1                 0.0000
     21 ****         2.5959  -2.4066  -2.0667 H              1 S1                 0.0000
     22 ****         1.2744  -3.0984   1.2262 H              1 S1                 0.0000
     23 ****         2.6536  -2.3816   2.0382 H              1 S1                 0.0000
     24 ****         2.0205  -0.1175   1.2788 H              1 S1                 0.0000
     25 ****         0.6463  -0.8491   2.0927 H              1 S1                 0.0000
     26 ****        -2.1702  -0.6380   0.0077 H              1 S1                 0.0000
     27 ****        -0.0158   3.7276   0.0027 H              1 S1                 0.0000
     28 ****        -5.6297   2.4942   0.0062 LP             1 S1                 0.0000
     29 ****        -4.1484   3.3918   0.0051 LP             1 S1                 0.0000
     30 ****        -5.5309   0.2561   0.0078 LP             1 S1                 0.0000
     31 ****        -3.9763  -0.5076   0.0079 LP             1 S1                 0.0000
     32 ****        -0.1931  -1.4895   0.0227 LP             1 S1                 0.0000
     33 ****         3.4405  -1.6427  -0.0304 LP             1 S1                 0.0000
     34 ****         3.2440  -3.2638  -0.0174 LP             1 S1                 0.0000
@<TRIPOS>BOND
    1    1    2 ar    
    2    2    3 ar    
    3    2    4 1     
    4    4   15 ar    
    5    4    5 ar    
    6    5    6 ar    
    7    5   16 1     
    8    6    7 ar    
    9    6   27 1     
   10    7    8 ar    
   11    7   17 1     
   12    8    9 1     
   13    8   15 ar    
   14    9   14 1     
   15    9   10 1     
   16   10   11 1     
   17   10   18 1     
   18   10   19 1     
   19   11   12 1     
   20   11   20 1     
   21   11   21 1     
   22   12   13 1     
   23   13   14 1     
   24   13   22 1     
   25   13   23 1     
   26   14   24 1     
   27   14   25 1     
   28   15   26 1     
   29    1   28 1     
   30    1   29 1     
   31    3   30 1     
   32    3   31 1     
   33    9   32 1     
   34   12   33 1     
   35   12   34 1     
@<TRIPOS>SUBSTRUCTURE
      1 S1             1
@<TRIPOS>SET
LONE_PAIRS      STATIC     ATOMS    <user>   **** ""
7 28 29 30 31 32 33 34
DONOR_HYDROGENS      STATIC     ATOMS    <user>   **** ""
1 27
ATOM$BLUE        STATIC     ATOMS    COLORGROUP SYSTEM
7 28 29 30 31 32 33 34
ATOM$RED        STATIC     ATOMS    COLORGROUP SYSTEM
1 27
