AV-unprocessed.smi:102|AV-procd|sdf|975|dock6
  -GOLD-   2262017533D 1   1.00000     0.00000
 Structure written by MMmdl.
 43 44  0  0  0  0  0  0  0  0  2 V2000
  147.3191  134.9190  162.2199 C   0  0  0  0  0  0  0  0  0  0  0  0
  147.2319  136.2211  161.4350 C   0  0  0  0  0  0  0  0  0  0  0  0
  147.2649  137.3157  161.9977 O   0  0  0  0  0  0  0  0  0  0  0  0
  147.1197  136.0161  160.1144 O   0  0  0  0  0  0  0  0  0  0  0  0
  146.8051  137.1049  159.2624 C   0  0  0  0  0  0  0  0  0  0  0  0
  146.8947  136.6519  157.7987 C   0  0  2  0  0  0  0  0  0  0  0  0
  148.2344  136.3375  157.4381 O   0  0  0  0  0  0  0  0  0  0  0  0
  148.3675  136.4118  156.0489 C   0  0  2  0  0  0  0  0  0  0  0  0
  149.6652  137.1232  155.7248 N   0  0  0  0  0  0  0  0  0  0  0  0
  149.8122  138.4744  155.9895 C   0  0  0  0  0  0  0  0  0  0  0  0
  150.9516  139.1271  155.6841 C   0  0  0  0  0  0  0  0  0  0  0  0
  151.0628  140.4398  155.9506 F   0  0  0  0  0  0  0  0  0  0  0  0
  152.0564  138.4000  155.0618 C   0  0  0  0  0  0  0  0  0  0  0  0
  153.0958  138.9990  154.7902 O   0  0  0  0  0  0  0  0  0  0  0  0
  151.8813  137.0711  154.8056 N   0  5  0  0  0  0  0  0  0  0  0  0
  150.7257  136.4080  155.1038 C   0  0  0  0  0  0  0  0  0  0  0  0
  150.5494  135.2167  154.8486 O   0  0  0  0  0  0  0  0  0  0  0  0
  147.1285  137.1528  155.5010 C   0  0  2  0  0  0  0  0  0  0  0  0
  147.4480  138.1552  154.5392 O   0  0  0  0  0  0  0  0  0  0  0  0
  146.5071  138.6172  153.7015 C   0  0  0  0  0  0  0  0  0  0  0  0
  147.0413  139.7030  152.7776 C   0  0  0  0  0  0  0  0  0  0  0  0
  145.3334  138.2489  153.6533 O   0  0  0  0  0  0  0  0  0  0  0  0
  146.4896  137.7103  156.7701 C   0  0  2  0  0  0  0  0  0  0  0  0
  147.0584  138.9651  157.1424 O   0  0  0  0  0  0  0  0  0  0  0  0
  146.5945  140.1168  156.6271 C   0  0  0  0  0  0  0  0  0  0  0  0
  147.3789  141.3281  157.1139 C   0  0  0  0  0  0  0  0  0  0  0  0
  145.6525  140.2360  155.8439 O   0  0  0  0  0  0  0  0  0  0  0  0
  148.1254  134.2958  161.8324 H   0  0  0  0  0  0  0  0  0  0  0  0
  146.3833  134.3658  162.1397 H   0  0  0  0  0  0  0  0  0  0  0  0
  147.5136  135.1189  163.2739 H   0  0  0  0  0  0  0  0  0  0  0  0
  145.7914  137.4416  159.4837 H   0  0  0  0  0  0  0  0  0  0  0  0
  147.4784  137.9439  159.4455 H   0  0  0  0  0  0  0  0  0  0  0  0
  146.2768  135.7652  157.6456 H   0  0  0  0  0  0  0  0  0  0  0  0
  148.4622  135.3976  155.6588 H   0  0  0  0  0  0  0  0  0  0  0  0
  149.0043  139.0269  156.4449 H   0  0  0  0  0  0  0  0  0  0  0  0
  146.4767  136.3910  155.0703 H   0  0  0  0  0  0  0  0  0  0  0  0
  147.9069  139.3366  152.2253 H   0  0  0  0  0  0  0  0  0  0  0  0
  147.3430  140.5759  153.3565 H   0  0  0  0  0  0  0  0  0  0  0  0
  146.2777  140.0083  152.0621 H   0  0  0  0  0  0  0  0  0  0  0  0
  145.4040  137.7736  156.6834 H   0  0  0  0  0  0  0  0  0  0  0  0
  148.2955  141.0207  157.6183 H   0  0  0  0  0  0  0  0  0  0  0  0
  146.7778  141.9100  157.8121 H   0  0  0  0  0  0  0  0  0  0  0  0
  147.6476  141.9663  156.2719 H   0  0  0  0  0  0  0  0  0  0  0  0
  1  2  1  0  0  0  0
  1 28  1  0  0  0  0
  1 29  1  0  0  0  0
  1 30  1  0  0  0  0
  2  3  2  0  0  0  0
  2  4  1  0  0  0  0
  4  5  1  0  0  0  0
  5  6  1  0  0  0  0
  5 31  1  0  0  0  0
  5 32  1  0  0  0  0
  6 23  1  0  0  0  0
  6  7  1  0  0  0  0
  6 33  1  0  0  0  0
  7  8  1  0  0  0  0
  8  9  1  0  0  0  0
  8 18  1  0  0  0  0
  8 34  1  0  0  0  0
  9 16  1  0  0  0  0
  9 10  1  0  0  0  0
 10 11  2  0  0  0  0
 10 35  1  0  0  0  0
 11 12  1  0  0  0  0
 11 13  1  0  0  0  0
 13 14  2  0  0  0  0
 13 15  1  0  0  0  0
 15 16  1  0  0  0  0
 16 17  2  0  0  0  0
 18 19  1  0  0  0  0
 18 23  1  0  0  0  0
 18 36  1  0  0  0  0
 19 20  1  0  0  0  0
 20 21  1  0  0  0  0
 20 22  2  0  0  0  0
 21 37  1  0  0  0  0
 21 38  1  0  0  0  0
 21 39  1  0  0  0  0
 23 24  1  0  0  0  0
 23 40  1  0  0  0  0
 24 25  1  0  0  0  0
 25 26  1  0  0  0  0
 25 27  2  0  0  0  0
 26 41  1  0  0  0  0
 26 42  1  0  0  0  0
 26 43  1  0  0  0  0
M  CHG  1  15  -1
M  END
> <s_m_source_file>
AV-unprocessed.smi

> <i_m_source_file_index>
102

> <i_lp_mmshare_version>
43012

> <i_f3d_flags>
0

> <s_epik_input>
W0NIM11DKD1PKU9bQ0gyXVtDQEBIXTFPW0NASF0oW0NAQEhdKE9DKD1PKVtDSDNdKVtDQEhdMU9DKD1PKVtDSDNdKW4yW2NIXWMoRiljKD1PKVtuSF1jMj1P

> <s_epik_cmdline>
J2VwaWtfcHl0aG9uJywgJy1waCcsICc3LjAnLCAnLXRuJywgJzgnLCAnLW1hJywgJzIwMCcsICctbWV0YWxfYmluZGluZycsICctaW1hZScsICc8aW5maWxlLm1hZT4nLCAnLW9tYWUnLCAnPG91dGZpbGUubWFlPic=

> <r_epik_Ionization_Penalty>
1.40304

> <r_epik_Ionization_Penalty_Charging>
1.43915e-08

> <r_epik_Ionization_Penalty_Neutral>
1.40304

> <r_epik_State_Penalty>
1.48536

> <r_epik_Charging_Adjusted_Penalty>
1.48536

> <i_epik_Tot_Q>
-1

> <i_epik_Tot_abs_Q>
1

> <r_epik_Metal_State_Penalty>
0.00663881

> <b_epik_Metal_Only>
0

> <s_epik_Chemistry_Notes>
This compound has an ester and may undergo hydrolysis at high or low pH. This compound contains an acetal/aminal-like group ( X-CH(R)-Y where X, Y are N, S, or O) that may be acid/base labile, releasing an aldehyde.

> <s_lp_Force_Field>
OPLS_2005

> <r_lp_Energy>
23.9264

> <b_lp_Chiralities_Consistent>
1

> <s_lp_Variant>
AV-unprocessed.smi:102-31

> <Gold.Version>
5.8.1

> <Gold.Id.Protein>
6NUR|6NUR_protein|mol2

> <Gold.PLP.Fitness>
38.2403

> <Gold.PLP.PLP>
-26.5652

> <Gold.PLP.part.hbond>
-4.1291

> <Gold.PLP.part.metal>
0.0000

> <Gold.PLP.part.buried>
-4.8944

> <Gold.PLP.part.nonpolar>
-19.6996

> <Gold.PLP.part.repulsive>
0.8832

> <Gold.PLP.ligand.clash>
0.0000

> <Gold.PLP.ligand.torsion>
0.7006

> <Gold.PLP.Chemscore.Hbond>
4.3015

> <Gold.PLP.Chemscore.CHOScore>
0.0000

> <Gold.PLP.Chemscore.Metal>
0.0000

> <Gold.Chemscore.Hbonds>
donor molecule, donor type, donor heavy atom, donor atom, acceptor molecule, acceptor atom, score
      P1  H  6931  6943       L1     3  0.80
      P1  H  6934  6947       L1     3  0.72
      P1  H  7997  8009       L1    14  0.80
      P1  H 10752 10765       L1    15  1.95

> <Gold.PLP.Chemscore.Internal.Correction>
0.1719

> <Gold.Rescore>
     Score         DG    S(hbond)    S(metal)    S(lipo)     H(rot)  DE(clash)    DE(int)     intcor
      4.74      -7.78       2.72        0.00      29.51       4.00       0.03       3.01       ----

> <Gold.Chemscore.Fitness>
4.7358

> <Gold.Chemscore.DG>
-7.7754

> <Gold.Chemscore.ZeroCoef>
-5.4800

> <Gold.Chemscore.Hbond>
2.7156

> <Gold.Chemscore.Metal>
0.0000

> <Gold.Chemscore.Lipo>
29.5103

> <Gold.Chemscore.Internal_Hbond>
0.0000

> <Gold.Chemscore.DEClash>
0.0329

> <Gold.Chemscore.DEInternal>
3.0067

> <Gold.Chemscore.Rot>
3.9951

> <Gold.Chemscore.Internal.Correction>
   9.000000E+99

> <Gold.Chemscore.Hbonds>
donor molecule, donor type, donor heavy atom, donor atom, acceptor molecule, acceptor atom, score
      P1  H  6931  6943       L1     3  0.71
      P1  H  6934  6947       L1     3  0.68
      P1  H  7997  8009       L1    14  0.78
      P1  H 10752 10765       L1    15  0.24

> <Gold.Chemscore.Hbond.Weighted>
-9.0701

> <Gold.Chemscore.Metal.Weighted>
-0.0000

> <Gold.Chemscore.Lipo.Weighted>
-3.4527

> <Gold.Chemscore.Internal_Hbond.Weighted>
0.0000

> <Gold.Chemscore.DEClash.Weighted>
0.0329

> <Gold.Chemscore.DEInternal.Weighted>
3.0067

> <Gold.Chemscore.Rot.Weighted>
10.2274

> <Gold.Chemscore.Internal.Correction.Weighted>
   9.000000E+99

> <Gold.Protein.RotatedTorsions>
[ 6907 6896 6895 6894 ] final  -21.68 input  -60.11 | X-H torsion
[ 7974 7965 7964 7962 ] final   22.41 input  175.53 | X-H torsion
[ 8008 7997 7996 7995 ] final -130.86 input   59.86 | X-H torsion
[ 10167 10162 10161 10158 ] final -143.98 input  -65.29 | X-H torsion
[ 10718 10713 10712 10709 ] final  -15.86 input   66.30 | X-H torsion
[ 10763 10752 10751 10750 ] final  163.21 input  -60.55 | X-H torsion
[ 11005 11000 10999 10996 ] final  162.26 input  -57.11 | X-H torsion

> <Gold.Protein.ActiveResidues>
 VAL166  LYS551  ARG553  GLY616  TRP617  ASP618  TYR619  PRO620  LYS621  CYS622 
 ASP623  PHE694  ASN695  SER759  ASP760  ASP761  ALA762  ILE779  LEU786  VAL792 
 PHE793  MET794  SER795  GLU796  ALA797  LYS798  CYS799  TRP800  GLU811  SER814 

> <Gold.Protein.RotatedAtoms>
  151.2298  135.0550  159.8982 H   0  0  0  0  0  0  0  0  0  0  0  0  # atno 6907 bound_to 6896
  152.5406  134.0550  159.8137 H   0  0  0  0  0  0  0  0  0  0  0  0  # atno 6908 bound_to 6896
  151.0728  133.5404  159.2657 H   0  0  0  0  0  0  0  0  0  0  0  0  # atno 6909 bound_to 6896
  146.2030  139.7889  142.8747 H   0  0  0  0  0  0  0  0  0  0  0  0  # atno 7974 bound_to 7965
  155.3027  140.0453  157.3030 H   0  0  0  0  0  0  0  0  0  0  0  0  # atno 8008 bound_to 7997
  154.5477  140.2308  155.8503 H   0  0  0  0  0  0  0  0  0  0  0  0  # atno 8009 bound_to 7997
  156.1939  140.3043  155.9394 H   0  0  0  0  0  0  0  0  0  0  0  0  # atno 8010 bound_to 7997
  139.7942  143.7923  152.2653 H   0  0  0  0  0  0  0  0  0  0  0  0  # atno 10167 bound_to 10162
  156.5958  130.4811  149.6260 H   0  0  0  0  0  0  0  0  0  0  0  0  # atno 10718 bound_to 10713
  154.2903  135.2761  155.2658 H   0  0  0  0  0  0  0  0  0  0  0  0  # atno 10763 bound_to 10752
  154.5140  135.5774  153.6631 H   0  0  0  0  0  0  0  0  0  0  0  0  # atno 10764 bound_to 10752
  152.9915  135.6188  154.3067 H   0  0  0  0  0  0  0  0  0  0  0  0  # atno 10765 bound_to 10752
  140.2240  134.8175  157.3249 H   0  0  0  0  0  0  0  0  0  0  0  0  # atno 11005 bound_to 11000
  145.3418  141.0289  143.3388 LP  0  0  0  0  0  0  0  0  0  0  0  0  # atno 17320 bound_to 7965
  144.8726  139.5016  143.6760 LP  0  0  0  0  0  0  0  0  0  0  0  0  # atno 17321 bound_to 7965
  139.8024  144.7369  150.9807 LP  0  0  0  0  0  0  0  0  0  0  0  0  # atno 17342 bound_to 10162
  140.7820  143.4332  151.0663 LP  0  0  0  0  0  0  0  0  0  0  0  0  # atno 17343 bound_to 10162
  156.2511  130.6907  151.1645 LP  0  0  0  0  0  0  0  0  0  0  0  0  # atno 17370 bound_to 10713
  157.7292  131.0626  150.5784 LP  0  0  0  0  0  0  0  0  0  0  0  0  # atno 17371 bound_to 10713
  140.1820  134.4478  155.7766 LP  0  0  0  0  0  0  0  0  0  0  0  0  # atno 17394 bound_to 11000
  141.2221  133.6988  156.7884 LP  0  0  0  0  0  0  0  0  0  0  0  0  # atno 17395 bound_to 11000

$$$$
