AV-unprocessed.smi:1239|AV-procd|sdf|5188|dock5
  -GOLD-   22720 4273D 1   1.00000     0.00000
 Structure written by MMmdl.
 47 48  0  0  0  0  0  0  0  0  1 V2000
  146.9714  140.2902  152.9001 C   0  0  0  0  0  0  0  0  0  0  0  0
  147.4525  140.8473  154.2643 C   0  0  1  0  0  0  0  0  0  0  0  0
  148.8970  141.4050  154.0998 C   0  0  0  0  0  0  0  0  0  0  0  0
  149.3628  142.1695  155.2540 N   0  0  0  0  0  0  0  0  0  0  0  0
  150.1773  141.7014  156.2103 C   0  0  0  0  0  0  0  0  0  0  0  0
  150.6132  140.5505  156.2262 O   0  0  0  0  0  0  0  0  0  0  0  0
  150.4302  142.6439  157.1343 N   0  0  0  0  0  0  0  0  0  0  0  0
  151.2560  142.5586  158.2877 C   0  0  0  0  0  0  0  0  0  0  0  0
  151.5473  143.6430  159.1466 C   0  0  0  0  0  0  0  0  0  0  0  0
  152.3669  143.4241  160.2706 C   0  0  0  0  0  0  0  0  0  0  0  0
  152.8747  142.1248  160.5189 C   0  0  0  0  0  0  0  0  0  0  0  0
  153.7031  141.8561  161.6325 N   0  0  0  0  0  0  0  0  0  0  0  0
  153.5809  142.6673  162.8394 C   0  0  0  0  0  0  0  0  0  0  0  0
  154.6050  140.7112  161.6165 C   0  0  0  0  0  0  0  0  0  0  0  0
  152.5796  141.0870  159.6981 N   0  0  0  0  0  0  0  0  0  0  0  0
  151.7937  141.3010  158.6229 C   0  0  0  0  0  0  0  0  0  0  0  0
  146.5073  141.8293  154.8457 N   0  0  0  0  0  0  0  0  0  0  0  0
  145.3158  141.1974  155.4248 C   0  0  0  0  0  0  0  0  0  0  0  0
  144.3163  142.2175  155.9978 C   0  0  0  0  0  0  0  0  0  0  0  0
  143.9373  143.1403  154.9861 O   0  0  0  0  0  0  0  0  0  0  0  0
  145.0562  143.8331  154.4512 C   0  0  0  0  0  0  0  0  0  0  0  0
  146.0579  142.8239  153.8643 C   0  0  0  0  0  0  0  0  0  0  0  0
  147.6899  139.6040  152.4534 H   0  0  0  0  0  0  0  0  0  0  0  0
  146.7988  141.0950  152.1849 H   0  0  0  0  0  0  0  0  0  0  0  0
  146.0513  139.7148  152.9891 H   0  0  0  0  0  0  0  0  0  0  0  0
  147.5121  139.9997  154.9489 H   0  0  0  0  0  0  0  0  0  0  0  0
  149.5949  140.5839  153.9339 H   0  0  0  0  0  0  0  0  0  0  0  0
  148.9849  142.0627  153.2362 H   0  0  0  0  0  0  0  0  0  0  0  0
  149.0468  143.1257  155.3231 H   0  0  0  0  0  0  0  0  0  0  0  0
  149.9342  143.5162  157.0236 H   0  0  0  0  0  0  0  0  0  0  0  0
  151.1509  144.6321  158.9784 H   0  0  0  0  0  0  0  0  0  0  0  0
  152.5847  144.2575  160.9212 H   0  0  0  0  0  0  0  0  0  0  0  0
  152.5760  142.5846  163.2548 H   0  0  0  0  0  0  0  0  0  0  0  0
  153.7806  143.7165  162.6188 H   0  0  0  0  0  0  0  0  0  0  0  0
  154.2869  142.3488  163.6066 H   0  0  0  0  0  0  0  0  0  0  0  0
  155.3420  140.8158  160.8199 H   0  0  0  0  0  0  0  0  0  0  0  0
  154.0488  139.7864  161.4603 H   0  0  0  0  0  0  0  0  0  0  0  0
  155.1457  140.6180  162.5585 H   0  0  0  0  0  0  0  0  0  0  0  0
  151.5915  140.4363  158.0075 H   0  0  0  0  0  0  0  0  0  0  0  0
  144.8175  140.5857  154.6711 H   0  0  0  0  0  0  0  0  0  0  0  0
  145.5893  140.5343  156.2426 H   0  0  0  0  0  0  0  0  0  0  0  0
  143.4255  141.7081  156.3653 H   0  0  0  0  0  0  0  0  0  0  0  0
  144.7513  142.7513  156.8444 H   0  0  0  0  0  0  0  0  0  0  0  0
  144.7119  144.5183  153.6765 H   0  0  0  0  0  0  0  0  0  0  0  0
  145.5269  144.4380  155.2277 H   0  0  0  0  0  0  0  0  0  0  0  0
  146.9008  143.3976  153.4833 H   0  0  0  0  0  0  0  0  0  0  0  0
  145.6039  142.3204  153.0093 H   0  0  0  0  0  0  0  0  0  0  0  0
  1  2  1  0  0  0  0
  1 23  1  0  0  0  0
  1 24  1  0  0  0  0
  1 25  1  0  0  0  0
  2  3  1  0  0  0  0
  2 17  1  0  0  0  0
  2 26  1  0  0  0  0
  3  4  1  0  0  0  0
  3 27  1  0  0  0  0
  3 28  1  0  0  0  0
  4  5  1  0  0  0  0
  4 29  1  0  0  0  0
  5  6  2  0  0  0  0
  5  7  1  0  0  0  0
  7  8  1  0  0  0  0
  7 30  1  0  0  0  0
  8 16  1  0  0  0  0
  8  9  2  0  0  0  0
  9 10  1  0  0  0  0
  9 31  1  0  0  0  0
 10 11  2  0  0  0  0
 10 32  1  0  0  0  0
 11 12  1  0  0  0  0
 11 15  1  0  0  0  0
 12 13  1  0  0  0  0
 12 14  1  0  0  0  0
 13 33  1  0  0  0  0
 13 34  1  0  0  0  0
 13 35  1  0  0  0  0
 14 36  1  0  0  0  0
 14 37  1  0  0  0  0
 14 38  1  0  0  0  0
 15 16  2  0  0  0  0
 16 39  1  0  0  0  0
 17 22  1  0  0  0  0
 17 18  1  0  0  0  0
 18 19  1  0  0  0  0
 18 40  1  0  0  0  0
 18 41  1  0  0  0  0
 19 20  1  0  0  0  0
 19 42  1  0  0  0  0
 19 43  1  0  0  0  0
 20 21  1  0  0  0  0
 21 22  1  0  0  0  0
 21 44  1  0  0  0  0
 21 45  1  0  0  0  0
 22 46  1  0  0  0  0
 22 47  1  0  0  0  0
M  END
> <s_m_source_file>
AV-unprocessed.smi

> <i_m_source_file_index>
1239

> <i_lp_mmshare_version>
43012

> <i_f3d_flags>
0

> <s_epik_input>
W0NIMl0xW0NIMl1PW0NIMl1bQ0gyXU4xW0NASF0oW0NIM10pW0NIMl1bTkhdQyg9TylbTkhdYzJbY0hdW2NIXWMoTihbQ0gzXSlbQ0gzXSluW2NIXTI=

> <s_epik_cmdline>
J2VwaWtfcHl0aG9uJywgJy1waCcsICc3LjAnLCAnLXRuJywgJzgnLCAnLW1hJywgJzIwMCcsICctbWV0YWxfYmluZGluZycsICctaW1hZScsICc8aW5maWxlLm1hZT4nLCAnLW9tYWUnLCAnPG91dGZpbGUubWFlPic=

> <r_lp_tautomer_probability>
1

> <r_epik_Ionization_Penalty>
0.87526

> <r_epik_Ionization_Penalty_Charging>
0

> <r_epik_Ionization_Penalty_Neutral>
0.87526

> <r_epik_State_Penalty>
0.859346

> <r_epik_Charging_Adjusted_Penalty>
0.859346

> <i_epik_Tot_Q>
0

> <i_epik_Tot_abs_Q>
0

> <r_epik_Metal_State_Penalty>
0.538105

> <b_epik_Metal_Only>
0

> <s_lp_Force_Field>
OPLS_2005

> <r_lp_Energy>
32.4423

> <b_lp_Chiralities_Consistent>
1

> <s_lp_Variant>
AV-unprocessed.smi:1239-4

> <Gold.Version>
5.8.1

> <Gold.Id.Protein>
6NUR|6NUR_protein|mol2

> <Gold.PLP.Fitness>
49.7299

> <Gold.PLP.PLP>
-45.8947

> <Gold.PLP.part.hbond>
-2.0000

> <Gold.PLP.part.metal>
0.0000

> <Gold.PLP.part.buried>
-4.9512

> <Gold.PLP.part.nonpolar>
-39.6406

> <Gold.PLP.part.repulsive>
0.5391

> <Gold.PLP.ligand.clash>
0.0000

> <Gold.PLP.ligand.torsion>
0.7933

> <Gold.PLP.Chemscore.Hbond>
1.7855

> <Gold.PLP.Chemscore.CHOScore>
0.0000

> <Gold.PLP.Chemscore.Metal>
0.0000

> <Gold.Chemscore.Hbonds>
donor molecule, donor type, donor heavy atom, donor atom, acceptor molecule, acceptor atom, score
      L1  H     4    29       P1  8028  1.00
      L1  H     7    30       P1  8028  0.77

> <Gold.PLP.Chemscore.Internal.Correction>
0.0654

> <Gold.Rescore>
     Score         DG    S(hbond)    S(metal)    S(lipo)     H(rot)  DE(clash)    DE(int)     intcor
     16.78     -19.20       1.83        0.00      96.35       1.44       0.16       2.26       ----

> <Gold.Chemscore.Fitness>
16.7821

> <Gold.Chemscore.DG>
-19.2009

> <Gold.Chemscore.ZeroCoef>
-5.4800

> <Gold.Chemscore.Hbond>
1.8343

> <Gold.Chemscore.Metal>
0.0000

> <Gold.Chemscore.Lipo>
96.3494

> <Gold.Chemscore.Internal_Hbond>
0.0000

> <Gold.Chemscore.DEClash>
0.1601

> <Gold.Chemscore.DEInternal>
2.2587

> <Gold.Chemscore.Rot>
1.4370

> <Gold.Chemscore.Internal.Correction>
   9.000000E+99

> <Gold.Chemscore.Hbonds>
donor molecule, donor type, donor heavy atom, donor atom, acceptor molecule, acceptor atom, score
      L1  H     4    29       P1  8028  0.99
      L1  H     7    30       P1  8028  0.73

> <Gold.Chemscore.Hbond.Weighted>
-6.1267

> <Gold.Chemscore.Metal.Weighted>
-0.0000

> <Gold.Chemscore.Lipo.Weighted>
-11.2729

> <Gold.Chemscore.Internal_Hbond.Weighted>
0.0000

> <Gold.Chemscore.DEClash.Weighted>
0.1601

> <Gold.Chemscore.DEInternal.Weighted>
2.2587

> <Gold.Chemscore.Rot.Weighted>
3.6786

> <Gold.Chemscore.Internal.Correction.Weighted>
   9.000000E+99

> <Gold.Protein.RotatedTorsions>
[ 6907 6896 6895 6894 ] final  -33.97 input  -60.11 | X-H torsion
[ 7974 7965 7964 7962 ] final  108.56 input  175.53 | X-H torsion
[ 8008 7997 7996 7995 ] final   50.37 input   59.86 | X-H torsion
[ 10167 10162 10161 10158 ] final  149.50 input  -65.29 | X-H torsion
[ 10718 10713 10712 10709 ] final  144.91 input   66.30 | X-H torsion
[ 10763 10752 10751 10750 ] final   58.71 input  -60.55 | X-H torsion
[ 11005 11000 10999 10996 ] final -179.57 input  -57.11 | X-H torsion

> <Gold.Protein.ActiveResidues>
 VAL166  LYS551  ARG553  GLY616  TRP617  ASP618  TYR619  PRO620  LYS621  CYS622 
 ASP623  PHE694  ASN695  SER759  ASP760  ASP761  ALA762  ILE779  LEU786  VAL792 
 PHE793  MET794  SER795  GLU796  ALA797  LYS798  CYS799  TRP800  GLU811  SER814 

> <Gold.Protein.RotatedAtoms>
  151.0587  134.9722  159.8249 H   0  0  0  0  0  0  0  0  0  0  0  0  # atno 6907 bound_to 6896
  152.5392  134.2445  159.8885 H   0  0  0  0  0  0  0  0  0  0  0  0  # atno 6908 bound_to 6896
  151.2464  133.4330  159.2643 H   0  0  0  0  0  0  0  0  0  0  0  0  # atno 6909 bound_to 6896
  145.2791  139.2639  143.3925 H   0  0  0  0  0  0  0  0  0  0  0  0  # atno 7974 bound_to 7965
  155.4177  140.3445  155.4268 H   0  0  0  0  0  0  0  0  0  0  0  0  # atno 8008 bound_to 7997
  156.1412  140.1542  156.8950 H   0  0  0  0  0  0  0  0  0  0  0  0  # atno 8009 bound_to 7997
  154.4972  140.0824  156.7702 H   0  0  0  0  0  0  0  0  0  0  0  0  # atno 8010 bound_to 7997
  139.4861  144.5596  151.7255 H   0  0  0  0  0  0  0  0  0  0  0  0  # atno 10167 bound_to 10162
  157.3516  131.0951  151.0995 H   0  0  0  0  0  0  0  0  0  0  0  0  # atno 10718 bound_to 10713
  152.9877  135.5597  154.5595 H   0  0  0  0  0  0  0  0  0  0  0  0  # atno 10763 bound_to 10752
  154.5017  135.2797  155.1417 H   0  0  0  0  0  0  0  0  0  0  0  0  # atno 10764 bound_to 10752
  154.2845  135.6338  153.5413 H   0  0  0  0  0  0  0  0  0  0  0  0  # atno 10765 bound_to 10752
  140.4172  134.6638  157.4645 H   0  0  0  0  0  0  0  0  0  0  0  0  # atno 11005 bound_to 11000
  146.3222  140.3254  142.8636 LP  0  0  0  0  0  0  0  0  0  0  0  0  # atno 17320 bound_to 7965
  144.9268  140.7931  143.5714 LP  0  0  0  0  0  0  0  0  0  0  0  0  # atno 17321 bound_to 7965
  140.5164  144.0947  150.6009 LP  0  0  0  0  0  0  0  0  0  0  0  0  # atno 17342 bound_to 10162
  140.3890  143.2762  152.0083 LP  0  0  0  0  0  0  0  0  0  0  0  0  # atno 17343 bound_to 10162
  157.2169  130.6463  149.5796 LP  0  0  0  0  0  0  0  0  0  0  0  0  # atno 17370 bound_to 10713
  155.9722  130.4642  150.6208 LP  0  0  0  0  0  0  0  0  0  0  0  0  # atno 17371 bound_to 10713
  140.0225  134.6525  155.9219 LP  0  0  0  0  0  0  0  0  0  0  0  0  # atno 17394 bound_to 11000
  141.1798  133.6545  156.4974 LP  0  0  0  0  0  0  0  0  0  0  0  0  # atno 17395 bound_to 11000

$$$$
