AV-unprocessed.smi:266|AV-procd|sdf|2035|dock4
  -GOLD-   2262021243D 1   1.00000     0.00000
 Structure written by MMmdl.
 52 55  0  0  0  0  0  0  0  0  1 V2000
  144.5264  131.8785  150.3597 C   0  0  0  0  0  0  0  0  0  0  0  0
  144.1104  133.2009  151.0229 C   0  0  2  0  0  0  0  0  0  0  0  0
  144.3133  134.2452  150.0746 O   0  0  0  0  0  0  0  0  0  0  0  0
  144.6155  135.4410  150.7711 C   0  0  0  0  0  0  0  0  0  0  0  0
  145.5361  134.9492  151.8773 C   0  0  0  0  0  0  0  0  0  0  0  0
  144.8976  133.6268  152.2949 C   0  0  1  0  0  0  0  0  0  0  0  0
  143.9491  133.9056  153.3119 O   0  0  0  0  0  0  0  0  0  0  0  0
  145.9126  132.5960  152.8559 C   0  0  0  0  0  0  0  0  0  0  0  0
  146.6877  133.0980  153.9806 N   0  0  0  0  0  0  0  0  0  0  0  0
  147.7840  133.9277  153.9205 C   0  0  0  0  0  0  0  0  0  0  0  0
  148.3099  134.2384  155.0732 N   0  0  0  0  0  0  0  0  0  0  0  0
  147.5103  133.5834  156.0030 C   0  0  0  0  0  0  0  0  0  0  0  0
  147.5046  133.4846  157.4253 C   0  0  0  0  0  0  0  0  0  0  0  0
  148.3821  134.0928  158.2591 N   0  0  0  0  0  0  0  0  0  0  0  0
  148.7058  135.4453  157.8270 C   0  0  0  0  0  0  0  0  0  0  0  0
  148.2599  133.8670  159.6993 C   0  0  0  0  0  0  0  0  0  0  0  0
  147.1812  134.7368  160.3804 C   0  0  1  0  0  0  0  0  0  0  0  0
  146.7954  134.2298  161.7851 C   0  0  0  0  0  0  0  0  0  0  0  0
  145.9594  135.3082  162.4808 C   0  0  0  0  0  0  0  0  0  0  0  0
  146.6266  136.9070  161.8881 S   0  0  0  0  0  0  0  0  0  0  0  0
  145.5258  137.7084  161.3324 O   0  0  0  0  0  0  0  0  0  0  0  0
  147.5344  137.4665  162.9011 O   0  0  0  0  0  0  0  0  0  0  0  0
  147.6232  136.2011  160.5208 C   0  0  0  0  0  0  0  0  0  0  0  0
  146.5510  132.7090  157.9998 N   0  0  0  0  0  0  0  0  0  0  0  0
  145.6444  132.0858  157.2418 C   0  0  0  0  0  0  0  0  0  0  0  0
  145.5177  132.0970  155.9137 N   0  0  0  0  0  0  0  0  0  0  0  0
  146.4850  132.8602  155.3292 C   0  0  0  0  0  0  0  0  0  0  0  0
  144.3892  131.0332  151.0342 H   0  0  0  0  0  0  0  0  0  0  0  0
  145.5695  131.8999  150.0437 H   0  0  0  0  0  0  0  0  0  0  0  0
  143.9215  131.6882  149.4729 H   0  0  0  0  0  0  0  0  0  0  0  0
  143.0406  133.1554  151.2361 H   0  0  0  0  0  0  0  0  0  0  0  0
  145.0895  136.1771  150.1217 H   0  0  0  0  0  0  0  0  0  0  0  0
  143.7013  135.8735  151.1806 H   0  0  0  0  0  0  0  0  0  0  0  0
  146.5240  134.7714  151.4510 H   0  0  0  0  0  0  0  0  0  0  0  0
  145.6503  135.6639  152.6936 H   0  0  0  0  0  0  0  0  0  0  0  0
  143.7489  133.1002  153.7636 H   0  0  0  0  0  0  0  0  0  0  0  0
  145.3968  131.6905  153.1787 H   0  0  0  0  0  0  0  0  0  0  0  0
  146.6153  132.2907  152.0805 H   0  0  0  0  0  0  0  0  0  0  0  0
  148.1884  134.2927  152.9875 H   0  0  0  0  0  0  0  0  0  0  0  0
  149.1771  135.4378  156.8436 H   0  0  0  0  0  0  0  0  0  0  0  0
  149.3984  135.9191  158.5230 H   0  0  0  0  0  0  0  0  0  0  0  0
  147.8058  136.0593  157.7736 H   0  0  0  0  0  0  0  0  0  0  0  0
  148.0184  132.8159  159.8613 H   0  0  0  0  0  0  0  0  0  0  0  0
  149.2284  134.0223  160.1741 H   0  0  0  0  0  0  0  0  0  0  0  0
  146.2737  134.7447  159.7762 H   0  0  0  0  0  0  0  0  0  0  0  0
  146.2587  133.2815  161.7416 H   0  0  0  0  0  0  0  0  0  0  0  0
  147.7021  134.0558  162.3659 H   0  0  0  0  0  0  0  0  0  0  0  0
  144.9147  135.2439  162.1755 H   0  0  0  0  0  0  0  0  0  0  0  0
  146.0106  135.2549  163.5682 H   0  0  0  0  0  0  0  0  0  0  0  0
  148.6734  136.2703  160.8056 H   0  0  0  0  0  0  0  0  0  0  0  0
  147.4728  136.7784  159.6084 H   0  0  0  0  0  0  0  0  0  0  0  0
  144.9156  131.4938  157.7757 H   0  0  0  0  0  0  0  0  0  0  0  0
  1  2  1  0  0  0  0
  1 28  1  0  0  0  0
  1 29  1  0  0  0  0
  1 30  1  0  0  0  0
  2  6  1  0  0  0  0
  2  3  1  0  0  0  0
  2 31  1  0  0  0  0
  3  4  1  0  0  0  0
  4  5  1  0  0  0  0
  4 32  1  0  0  0  0
  4 33  1  0  0  0  0
  5  6  1  0  0  0  0
  5 34  1  0  0  0  0
  5 35  1  0  0  0  0
  6  7  1  0  0  0  0
  6  8  1  0  0  0  0
  7 36  1  0  0  0  0
  8  9  1  0  0  0  0
  8 37  1  0  0  0  0
  8 38  1  0  0  0  0
  9 27  1  0  0  0  0
  9 10  1  0  0  0  0
 10 11  2  0  0  0  0
 10 39  1  0  0  0  0
 11 12  1  0  0  0  0
 12 27  2  0  0  0  0
 12 13  1  0  0  0  0
 13 14  1  0  0  0  0
 13 24  2  0  0  0  0
 14 15  1  0  0  0  0
 14 16  1  0  0  0  0
 15 40  1  0  0  0  0
 15 41  1  0  0  0  0
 15 42  1  0  0  0  0
 16 17  1  0  0  0  0
 16 43  1  0  0  0  0
 16 44  1  0  0  0  0
 17 23  1  0  0  0  0
 17 18  1  0  0  0  0
 17 45  1  0  0  0  0
 18 19  1  0  0  0  0
 18 46  1  0  0  0  0
 18 47  1  0  0  0  0
 19 20  1  0  0  0  0
 19 48  1  0  0  0  0
 19 49  1  0  0  0  0
 20 21  2  0  0  0  0
 20 22  2  0  0  0  0
 20 23  1  0  0  0  0
 23 50  1  0  0  0  0
 23 51  1  0  0  0  0
 24 25  1  0  0  0  0
 25 26  2  0  0  0  0
 25 52  1  0  0  0  0
 26 27  1  0  0  0  0
M  END
> <s_m_source_file>
AV-unprocessed.smi

> <i_m_source_file_index>
266

> <i_lp_mmshare_version>
43012

> <i_f3d_flags>
0

> <s_epik_input>
W0NIMl0xW0NIMl1PW0NAQEhdKFtDSDNdKVtDQEBdMShbT0hdKVtDSDJdbihbY0hdbjIpYyhjMjMpbltjSF1uYzNOKFtDSDNdKVtDSDJdW0NAQEhdKFtDSDJdNClbQ0gyXVtDSDJdUzQoPU8pPU8=

> <s_epik_cmdline>
J2VwaWtfcHl0aG9uJywgJy1waCcsICc3LjAnLCAnLXRuJywgJzgnLCAnLW1hJywgJzIwMCcsICctbWV0YWxfYmluZGluZycsICctaW1hZScsICc8aW5maWxlLm1hZT4nLCAnLW9tYWUnLCAnPG91dGZpbGUubWFlPic=

> <r_lp_tautomer_probability>
1

> <r_epik_Ionization_Penalty>
0.00155497

> <r_epik_Ionization_Penalty_Charging>
0

> <r_epik_Ionization_Penalty_Neutral>
0.00155497

> <r_epik_State_Penalty>
-0

> <r_epik_Charging_Adjusted_Penalty>
0

> <i_epik_Tot_Q>
0

> <i_epik_Tot_abs_Q>
0

> <r_epik_Metal_State_Penalty>
-0

> <b_epik_Metal_Only>
0

> <s_lp_Force_Field>
OPLS_2005

> <r_lp_Energy>
31.7586

> <b_lp_Chiralities_Consistent>
1

> <s_lp_Variant>
AV-unprocessed.smi:266-5

> <Gold.Version>
5.8.1

> <Gold.Id.Protein>
6NUR|6NUR_protein|mol2

> <Gold.PLP.Fitness>
43.0783

> <Gold.PLP.PLP>
-33.2190

> <Gold.PLP.part.hbond>
-3.0000

> <Gold.PLP.part.metal>
0.0000

> <Gold.PLP.part.buried>
-5.6240

> <Gold.PLP.part.nonpolar>
-25.9691

> <Gold.PLP.part.repulsive>
0.9918

> <Gold.PLP.ligand.clash>
0.0000

> <Gold.PLP.ligand.torsion>
0.7959

> <Gold.PLP.Chemscore.Hbond>
2.8160

> <Gold.PLP.Chemscore.CHOScore>
0.8020

> <Gold.PLP.Chemscore.Metal>
0.0000

> <Gold.Chemscore.Hbonds>
donor molecule, donor type, donor heavy atom, donor atom, acceptor molecule, acceptor atom, score
      L1  H     7    36       P1 10957  1.00
      P1  H  6931  6943       L1    22  0.58
      P1  H  6934  6947       L1    21  0.03
      L1  C    10    39       P1  7948  1.00

> <Gold.PLP.Chemscore.Internal.Correction>
0.5972

> <Gold.Rescore>
     Score         DG    S(hbond)    S(metal)    S(lipo)     H(rot)  DE(clash)    DE(int)     intcor
      9.98     -13.50       2.01        0.00      71.65       2.76       0.65       2.87       ----

> <Gold.Chemscore.Fitness>
9.9839

> <Gold.Chemscore.DG>
-13.5044

> <Gold.Chemscore.ZeroCoef>
-5.4800

> <Gold.Chemscore.Hbond>
2.0110

> <Gold.Chemscore.Metal>
0.0000

> <Gold.Chemscore.Lipo>
71.6479

> <Gold.Chemscore.Internal_Hbond>
0.0000

> <Gold.Chemscore.DEClash>
0.6473

> <Gold.Chemscore.DEInternal>
2.8732

> <Gold.Chemscore.Rot>
2.7637

> <Gold.Chemscore.Internal.Correction>
   9.000000E+99

> <Gold.Chemscore.Hbonds>
donor molecule, donor type, donor heavy atom, donor atom, acceptor molecule, acceptor atom, score
      L1  H     7    36       P1 10957  0.93
      P1  H  6931  6943       L1    22  0.35

> <Gold.Chemscore.Hbond.Weighted>
-6.7166

> <Gold.Chemscore.Metal.Weighted>
-0.0000

> <Gold.Chemscore.Lipo.Weighted>
-8.3828

> <Gold.Chemscore.Internal_Hbond.Weighted>
0.0000

> <Gold.Chemscore.DEClash.Weighted>
0.6473

> <Gold.Chemscore.DEInternal.Weighted>
2.8732

> <Gold.Chemscore.Rot.Weighted>
7.0750

> <Gold.Chemscore.Internal.Correction.Weighted>
   9.000000E+99

> <Gold.Protein.RotatedTorsions>
[ 6907 6896 6895 6894 ] final  -29.05 input  -60.11 | X-H torsion
[ 7974 7965 7964 7962 ] final  -21.99 input  175.53 | X-H torsion
[ 8008 7997 7996 7995 ] final   48.56 input   59.86 | X-H torsion
[ 10167 10162 10161 10158 ] final   32.62 input  -65.29 | X-H torsion
[ 10718 10713 10712 10709 ] final  167.27 input   66.30 | X-H torsion
[ 10763 10752 10751 10750 ] final  -15.83 input  -60.55 | X-H torsion
[ 11005 11000 10999 10996 ] final -136.58 input  -57.11 | X-H torsion

> <Gold.Protein.ActiveResidues>
 VAL166  LYS551  ARG553  GLY616  TRP617  ASP618  TYR619  PRO620  LYS621  CYS622 
 ASP623  PHE694  ASN695  SER759  ASP760  ASP761  ALA762  ILE779  LEU786  VAL792 
 PHE793  MET794  SER795  GLU796  ALA797  LYS798  CYS799  TRP800  GLU811  SER814 

> <Gold.Protein.RotatedAtoms>
  151.1246  135.0097  159.8553 H   0  0  0  0  0  0  0  0  0  0  0  0  # atno 6907 bound_to 6896
  152.5449  134.1682  159.8596 H   0  0  0  0  0  0  0  0  0  0  0  0  # atno 6908 bound_to 6896
  151.1744  133.4719  159.2627 H   0  0  0  0  0  0  0  0  0  0  0  0  # atno 6909 bound_to 6896
  146.1702  140.4417  142.8536 H   0  0  0  0  0  0  0  0  0  0  0  0  # atno 7974 bound_to 7965
  155.3877  140.3432  155.4250 H   0  0  0  0  0  0  0  0  0  0  0  0  # atno 8008 bound_to 7997
  156.1575  140.1590  156.8701 H   0  0  0  0  0  0  0  0  0  0  0  0  # atno 8009 bound_to 7997
  154.5108  140.0790  156.7968 H   0  0  0  0  0  0  0  0  0  0  0  0  # atno 8010 bound_to 7997
  140.4482  144.1087  150.6186 H   0  0  0  0  0  0  0  0  0  0  0  0  # atno 10167 bound_to 10162
  157.0540  131.0321  151.2671 H   0  0  0  0  0  0  0  0  0  0  0  0  # atno 10718 bound_to 10713
  153.5493  135.7012  153.5599 H   0  0  0  0  0  0  0  0  0  0  0  0  # atno 10763 bound_to 10752
  153.3530  135.3990  155.1660 H   0  0  0  0  0  0  0  0  0  0  0  0  # atno 10764 bound_to 10752
  154.8663  135.3770  154.5003 H   0  0  0  0  0  0  0  0  0  0  0  0  # atno 10765 bound_to 10752
  140.8791  134.1954  157.4602 H   0  0  0  0  0  0  0  0  0  0  0  0  # atno 11005 bound_to 11000
  144.8151  140.6454  143.6389 LP  0  0  0  0  0  0  0  0  0  0  0  0  # atno 17320 bound_to 7965
  145.4361  139.1542  143.3995 LP  0  0  0  0  0  0  0  0  0  0  0  0  # atno 17321 bound_to 7965
  140.4238  143.2599  151.9682 LP  0  0  0  0  0  0  0  0  0  0  0  0  # atno 17342 bound_to 10162
  139.4794  144.5806  151.7938 LP  0  0  0  0  0  0  0  0  0  0  0  0  # atno 17343 bound_to 10162
  157.5008  130.7878  149.7602 LP  0  0  0  0  0  0  0  0  0  0  0  0  # atno 17370 bound_to 10713
  155.9999  130.3886  150.2648 LP  0  0  0  0  0  0  0  0  0  0  0  0  # atno 17371 bound_to 10713
  139.8718  134.9809  156.5095 LP  0  0  0  0  0  0  0  0  0  0  0  0  # atno 17394 bound_to 11000
  140.8482  133.8152  155.9142 LP  0  0  0  0  0  0  0  0  0  0  0  0  # atno 17395 bound_to 11000

$$$$
