AV-unprocessed.smi:86|AV-procd|sdf|814|dock2
  -GOLD-   2262017213D 1   1.00000     0.00000
 Structure written by MMmdl.
 51 55  0  0  0  0  0  0  0  0  1 V2000
  144.4930  137.7168  152.5267 O   0  0  0  0  0  0  0  0  0  0  0  0
  145.8266  137.2801  152.6967 C   0  0  0  0  0  0  0  0  0  0  0  0
  146.5294  137.9751  153.8806 C   0  0  0  0  0  0  0  0  0  0  0  0
  147.0971  139.3213  153.3940 C   0  0  0  0  0  0  0  0  0  0  0  0
  147.9721  139.9740  154.3562 N   0  0  0  0  0  0  0  0  0  0  0  0
  147.6663  141.0561  155.1491 C   0  0  0  0  0  0  0  0  0  0  0  0
  148.6293  141.4625  155.9296 N   0  0  0  0  0  0  0  0  0  0  0  0
  149.6847  140.5992  155.6553 C   0  0  0  0  0  0  0  0  0  0  0  0
  151.0222  140.4700  156.1339 C   0  0  0  0  0  0  0  0  0  0  0  0
  151.5750  141.2725  157.0786 N   0  0  0  0  0  0  0  0  0  0  0  0
  152.3782  140.7421  158.1786 C   0  0  0  0  0  0  0  0  0  0  0  0
  152.6514  141.9718  159.0408 C   0  0  2  0  0  0  0  0  0  0  0  0
  153.0309  141.7755  160.5124 C   0  0  0  0  0  0  0  0  0  0  0  0
  153.1614  143.1596  161.1875 C   0  0  0  0  0  0  0  0  0  0  0  0
  151.9176  144.0632  160.9853 C   0  0  2  0  0  0  0  0  0  0  0  0
  150.8573  143.5909  161.7925 O   0  0  0  0  0  0  0  0  0  0  0  0
  151.4578  144.1368  159.5083 C   0  0  0  0  0  0  0  0  0  0  0  0
  151.3334  142.7229  158.9237 C   0  0  1  0  0  0  0  0  0  0  0  0
  150.9967  142.5652  157.4397 C   0  0  0  0  0  0  0  0  0  0  0  0
  151.7861  139.4879  155.5864 N   0  0  0  0  0  0  0  0  0  0  0  0
  151.2823  138.6762  154.6529 C   0  0  0  0  0  0  0  0  0  0  0  0
  150.0583  138.6732  154.1239 N   0  0  0  0  0  0  0  0  0  0  0  0
  149.2874  139.6636  154.6569 C   0  0  0  0  0  0  0  0  0  0  0  0
  145.7376  138.0463  155.1942 C   0  0  0  0  0  0  0  0  0  0  0  0
  146.5456  137.0178  155.8078 O   0  0  0  0  0  0  0  0  0  0  0  0
  147.4801  137.0992  154.7089 C   0  0  0  0  0  0  0  0  0  0  0  0
  144.3012  138.3621  153.1900 H   0  0  0  0  0  0  0  0  0  0  0  0
  145.7940  136.1997  152.8365 H   0  0  0  0  0  0  0  0  0  0  0  0
  146.3638  137.4633  151.7656 H   0  0  0  0  0  0  0  0  0  0  0  0
  147.6457  139.1891  152.4607 H   0  0  0  0  0  0  0  0  0  0  0  0
  146.2883  140.0156  153.1620 H   0  0  0  0  0  0  0  0  0  0  0  0
  146.7015  141.5416  155.1301 H   0  0  0  0  0  0  0  0  0  0  0  0
  151.8070  139.9951  158.7319 H   0  0  0  0  0  0  0  0  0  0  0  0
  153.3010  140.2839  157.8212 H   0  0  0  0  0  0  0  0  0  0  0  0
  153.4372  142.5535  158.5537 H   0  0  0  0  0  0  0  0  0  0  0  0
  152.2734  141.1788  161.0220 H   0  0  0  0  0  0  0  0  0  0  0  0
  153.9699  141.2269  160.5915 H   0  0  0  0  0  0  0  0  0  0  0  0
  153.3737  143.0396  162.2506 H   0  0  0  0  0  0  0  0  0  0  0  0
  154.0296  143.6683  160.7663 H   0  0  0  0  0  0  0  0  0  0  0  0
  152.1505  145.0696  161.3344 H   0  0  0  0  0  0  0  0  0  0  0  0
  150.8999  144.0283  162.6292 H   0  0  0  0  0  0  0  0  0  0  0  0
  150.5115  144.6725  159.4252 H   0  0  0  0  0  0  0  0  0  0  0  0
  152.1869  144.7055  158.9298 H   0  0  0  0  0  0  0  0  0  0  0  0
  150.5719  142.1793  159.4867 H   0  0  0  0  0  0  0  0  0  0  0  0
  151.4644  143.3471  156.8404 H   0  0  0  0  0  0  0  0  0  0  0  0
  149.9186  142.6012  157.2812 H   0  0  0  0  0  0  0  0  0  0  0  0
  151.9570  137.9218  154.2758 H   0  0  0  0  0  0  0  0  0  0  0  0
  145.8321  138.9990  155.7175 H   0  0  0  0  0  0  0  0  0  0  0  0
  144.6892  137.7600  155.1060 H   0  0  0  0  0  0  0  0  0  0  0  0
  147.6927  136.1263  154.2648 H   0  0  0  0  0  0  0  0  0  0  0  0
  148.4023  137.5988  155.0064 H   0  0  0  0  0  0  0  0  0  0  0  0
  1  2  1  0  0  0  0
  1 27  1  0  0  0  0
  2  3  1  0  0  0  0
  2 28  1  0  0  0  0
  2 29  1  0  0  0  0
  3 26  1  0  0  0  0
  3  4  1  0  0  0  0
  3 24  1  0  0  0  0
  4  5  1  0  0  0  0
  4 30  1  0  0  0  0
  4 31  1  0  0  0  0
  5 23  1  0  0  0  0
  5  6  1  0  0  0  0
  6  7  2  0  0  0  0
  6 32  1  0  0  0  0
  7  8  1  0  0  0  0
  8 23  2  0  0  0  0
  8  9  1  0  0  0  0
  9 10  1  0  0  0  0
  9 20  2  0  0  0  0
 10 19  1  0  0  0  0
 10 11  1  0  0  0  0
 11 12  1  0  0  0  0
 11 33  1  0  0  0  0
 11 34  1  0  0  0  0
 12 18  1  0  0  0  0
 12 13  1  0  0  0  0
 12 35  1  0  0  0  0
 13 14  1  0  0  0  0
 13 36  1  0  0  0  0
 13 37  1  0  0  0  0
 14 15  1  0  0  0  0
 14 38  1  0  0  0  0
 14 39  1  0  0  0  0
 15 16  1  0  0  0  0
 15 17  1  0  0  0  0
 15 40  1  0  0  0  0
 16 41  1  0  0  0  0
 17 18  1  0  0  0  0
 17 42  1  0  0  0  0
 17 43  1  0  0  0  0
 18 19  1  0  0  0  0
 18 44  1  0  0  0  0
 19 45  1  0  0  0  0
 19 46  1  0  0  0  0
 20 21  1  0  0  0  0
 21 22  2  0  0  0  0
 21 47  1  0  0  0  0
 22 23  1  0  0  0  0
 24 25  1  0  0  0  0
 24 48  1  0  0  0  0
 24 49  1  0  0  0  0
 25 26  1  0  0  0  0
 26 50  1  0  0  0  0
 26 51  1  0  0  0  0
M  END
> <s_m_source_file>
AV-unprocessed.smi

> <i_m_source_file_index>
86

> <i_lp_mmshare_version>
43012

> <i_f3d_flags>
0

> <s_epik_input>
W0NIMl0xT1tDSDJdQzEoW0NIMl1bT0hdKVtDSDJdbihbY0hdbjIpYyhjMjMpbltjSF1uYzNOKFtDSDJdNClbQ0gyXVtDQEBIXShbQ0BIXTQ1KVtDSDJdW0NASF0oW09IXSlbQ0gyXVtDSDJdNQ==

> <s_epik_cmdline>
J2VwaWtfcHl0aG9uJywgJy1waCcsICc3LjAnLCAnLXRuJywgJzgnLCAnLW1hJywgJzIwMCcsICctbWV0YWxfYmluZGluZycsICctaW1hZScsICc8aW5maWxlLm1hZT4nLCAnLW9tYWUnLCAnPG91dGZpbGUubWFlPic=

> <r_lp_tautomer_probability>
1

> <r_epik_Ionization_Penalty>
0.00425795

> <r_epik_Ionization_Penalty_Charging>
0

> <r_epik_Ionization_Penalty_Neutral>
0.00425795

> <r_epik_State_Penalty>
0.00299946

> <r_epik_Charging_Adjusted_Penalty>
0.00299946

> <i_epik_Tot_Q>
0

> <i_epik_Tot_abs_Q>
0

> <r_epik_Metal_State_Penalty>
-0

> <b_epik_Metal_Only>
0

> <s_lp_Force_Field>
OPLS_2005

> <r_lp_Energy>
55.6071

> <b_lp_Chiralities_Consistent>
1

> <s_lp_Variant>
AV-unprocessed.smi:86-3

> <Gold.Version>
5.8.1

> <Gold.Id.Protein>
6NUR|6NUR_protein|mol2

> <Gold.PLP.Fitness>
50.5310

> <Gold.PLP.PLP>
-50.3586

> <Gold.PLP.part.hbond>
-3.8695

> <Gold.PLP.part.metal>
0.0000

> <Gold.PLP.part.buried>
-7.5498

> <Gold.PLP.part.nonpolar>
-40.2807

> <Gold.PLP.part.repulsive>
1.0905

> <Gold.PLP.ligand.clash>
0.0000

> <Gold.PLP.ligand.torsion>
1.2367

> <Gold.PLP.Chemscore.Hbond>
0.7229

> <Gold.PLP.Chemscore.CHOScore>
0.0000

> <Gold.PLP.Chemscore.Metal>
0.0000

> <Gold.Chemscore.Hbonds>
donor molecule, donor type, donor heavy atom, donor atom, acceptor molecule, acceptor atom, score
      L1  H     1    27       P1 10175  0.11
      P1  H  6933  6945       L1    16  0.32

> <Gold.PLP.Chemscore.Internal.Correction>
0.4771

> <Gold.Rescore>
     Score         DG    S(hbond)    S(metal)    S(lipo)     H(rot)  DE(clash)    DE(int)     intcor
     11.30     -13.60       0.91        0.00     103.89       2.76       0.19       2.11       ----

> <Gold.Chemscore.Fitness>
11.3015

> <Gold.Chemscore.DG>
-13.5987

> <Gold.Chemscore.ZeroCoef>
-5.4800

> <Gold.Chemscore.Hbond>
0.9093

> <Gold.Chemscore.Metal>
0.0000

> <Gold.Chemscore.Lipo>
103.8881

> <Gold.Chemscore.Internal_Hbond>
0.0000

> <Gold.Chemscore.DEClash>
0.1906

> <Gold.Chemscore.DEInternal>
2.1067

> <Gold.Chemscore.Rot>
2.7630

> <Gold.Chemscore.Internal.Correction>
   9.000000E+99

> <Gold.Chemscore.Hbonds>
donor molecule, donor type, donor heavy atom, donor atom, acceptor molecule, acceptor atom, score
      L1  H     1    27       P1 10175  0.11
      P1  H  6933  6945       L1    16  0.13

> <Gold.Chemscore.Hbond.Weighted>
-3.0372

> <Gold.Chemscore.Metal.Weighted>
-0.0000

> <Gold.Chemscore.Lipo.Weighted>
-12.1549

> <Gold.Chemscore.Internal_Hbond.Weighted>
0.0000

> <Gold.Chemscore.DEClash.Weighted>
0.1906

> <Gold.Chemscore.DEInternal.Weighted>
2.1067

> <Gold.Chemscore.Rot.Weighted>
7.0734

> <Gold.Chemscore.Internal.Correction.Weighted>
   9.000000E+99

> <Gold.Protein.RotatedTorsions>
[ 6907 6896 6895 6894 ] final  167.41 input  -60.11 | X-H torsion
[ 7974 7965 7964 7962 ] final   20.51 input  175.53 | X-H torsion
[ 8008 7997 7996 7995 ] final -132.51 input   59.86 | X-H torsion
[ 10167 10162 10161 10158 ] final -158.46 input  -65.29 | X-H torsion
[ 10718 10713 10712 10709 ] final  -59.91 input   66.30 | X-H torsion
[ 10763 10752 10751 10750 ] final  -46.88 input  -60.55 | X-H torsion
[ 11005 11000 10999 10996 ] final -140.48 input  -57.11 | X-H torsion

> <Gold.Protein.ActiveResidues>
 VAL166  LYS551  ARG553  GLY616  TRP617  ASP618  TYR619  PRO620  LYS621  CYS622 
 ASP623  PHE694  ASN695  SER759  ASP760  ASP761  ALA762  ILE779  LEU786  VAL792 
 PHE793  MET794  SER795  GLU796  ALA797  LYS798  CYS799  TRP800  GLU811  SER814 

> <Gold.Protein.RotatedAtoms>
  151.8638  133.3462  159.3712 H   0  0  0  0  0  0  0  0  0  0  0  0  # atno 6907 bound_to 6896
  150.7171  134.5180  159.5649 H   0  0  0  0  0  0  0  0  0  0  0  0  # atno 6908 bound_to 6896
  152.2699  134.7945  160.0467 H   0  0  0  0  0  0  0  0  0  0  0  0  # atno 6909 bound_to 6896
  146.2108  139.8159  142.8690 H   0  0  0  0  0  0  0  0  0  0  0  0  # atno 7974 bound_to 7965
  155.3301  140.0466  157.3042 H   0  0  0  0  0  0  0  0  0  0  0  0  # atno 8008 bound_to 7997
  154.5333  140.2264  155.8732 H   0  0  0  0  0  0  0  0  0  0  0  0  # atno 8009 bound_to 7997
  156.1810  140.3074  155.9154 H   0  0  0  0  0  0  0  0  0  0  0  0  # atno 8010 bound_to 7997
  139.6691  143.9777  152.2272 H   0  0  0  0  0  0  0  0  0  0  0  0  # atno 10167 bound_to 10162
  156.1028  130.4184  150.0780 H   0  0  0  0  0  0  0  0  0  0  0  0  # atno 10718 bound_to 10713
  154.0522  135.6629  153.4801 H   0  0  0  0  0  0  0  0  0  0  0  0  # atno 10763 bound_to 10752
  153.0459  135.5115  154.7740 H   0  0  0  0  0  0  0  0  0  0  0  0  # atno 10764 bound_to 10752
  154.6750  135.3035  154.9657 H   0  0  0  0  0  0  0  0  0  0  0  0  # atno 10765 bound_to 10752
  140.8419  134.2392  157.4806 H   0  0  0  0  0  0  0  0  0  0  0  0  # atno 11005 bound_to 11000
  145.3147  141.0229  143.3535 LP  0  0  0  0  0  0  0  0  0  0  0  0  # atno 17320 bound_to 7965
  144.8910  139.4774  143.6678 LP  0  0  0  0  0  0  0  0  0  0  0  0  # atno 17321 bound_to 7965
  139.9537  144.6604  150.8147 LP  0  0  0  0  0  0  0  0  0  0  0  0  # atno 17342 bound_to 10162
  140.7611  143.3166  151.2719 LP  0  0  0  0  0  0  0  0  0  0  0  0  # atno 17343 bound_to 10162
  156.8763  130.9541  151.3604 LP  0  0  0  0  0  0  0  0  0  0  0  0  # atno 17370 bound_to 10713
  157.6201  130.8648  149.9094 LP  0  0  0  0  0  0  0  0  0  0  0  0  # atno 17371 bound_to 10713
  139.8703  134.9639  156.4479 LP  0  0  0  0  0  0  0  0  0  0  0  0  # atno 17394 bound_to 11000
  140.8886  133.7865  155.9546 LP  0  0  0  0  0  0  0  0  0  0  0  0  # atno 17395 bound_to 11000

$$$$
