AV-unprocessed.smi:1995|AV-procd|sdf|8082|dock6
  -GOLD-   2272010293D 1   1.00000     0.00000
 Structure written by MMmdl.
 42 43  0  0  0  0  0  0  0  0  3 V2000
  152.5319  138.0386  154.9218 C   0  0  0  0  0  0  0  0  0  0  0  0
  151.0801  137.9984  154.4128 C   0  0  0  0  0  0  0  0  0  0  0  0
  150.1008  137.0663  155.1898 C   0  0  1  0  0  0  0  0  0  0  0  0
  150.6836  135.6278  155.2299 C   0  0  0  0  0  0  0  0  0  0  0  0
  149.9595  137.5404  156.6680 C   0  0  0  0  0  0  0  0  0  0  0  0
  149.5596  136.4527  157.5629 N   0  0  0  0  0  0  0  0  0  0  0  0
  149.5329  136.4840  158.9029 C   0  0  0  0  0  0  0  0  0  0  0  0
  149.9749  137.4618  159.5089 O   0  0  0  0  0  0  0  0  0  0  0  0
  148.9660  135.3903  159.4567 N   0  5  0  0  0  0  0  0  0  0  0  0
  148.2867  135.5012  160.6096 C   0  0  0  0  0  0  0  0  0  0  0  0
  148.2375  136.6345  161.3193 N   0  0  0  0  0  0  0  0  0  0  0  0
  147.4755  136.5264  162.4842 C   0  0  0  0  0  0  0  0  0  0  0  0
  146.9264  135.2842  162.6610 C   0  0  0  0  0  0  0  0  0  0  0  0
  147.3535  134.2061  161.3630 S   0  0  0  0  0  0  0  0  0  0  0  0
  148.7352  137.0678  154.5458 N   0  3  0  0  0  0  0  0  0  0  0  0
  147.7267  136.1704  155.1742 C   0  0  0  0  0  0  0  0  0  0  0  0
  146.4995  136.0381  154.2610 C   0  0  0  0  0  0  0  0  0  0  0  0
  145.9318  137.3262  154.0646 O   0  0  0  0  0  0  0  0  0  0  0  0
  146.8396  138.2107  153.4206 C   0  0  0  0  0  0  0  0  0  0  0  0
  148.1089  138.3915  154.2742 C   0  0  0  0  0  0  0  0  0  0  0  0
  153.1191  138.7435  154.3329 H   0  0  0  0  0  0  0  0  0  0  0  0
  153.0215  137.0689  154.8382 H   0  0  0  0  0  0  0  0  0  0  0  0
  152.5898  138.3620  155.9606 H   0  0  0  0  0  0  0  0  0  0  0  0
  150.7115  139.0238  154.4318 H   0  0  0  0  0  0  0  0  0  0  0  0
  151.1013  137.7077  153.3621 H   0  0  0  0  0  0  0  0  0  0  0  0
  151.5609  135.5654  155.8742 H   0  0  0  0  0  0  0  0  0  0  0  0
  150.9973  135.2861  154.2429 H   0  0  0  0  0  0  0  0  0  0  0  0
  149.9618  134.9090  155.6200 H   0  0  0  0  0  0  0  0  0  0  0  0
  150.9124  137.9166  157.0396 H   0  0  0  0  0  0  0  0  0  0  0  0
  149.2737  138.3839  156.7511 H   0  0  0  0  0  0  0  0  0  0  0  0
  149.2078  135.6153  157.1217 H   0  0  0  0  0  0  0  0  0  0  0  0
  147.3754  137.3864  163.1297 H   0  0  0  0  0  0  0  0  0  0  0  0
  146.2998  134.9391  163.4695 H   0  0  0  0  0  0  0  0  0  0  0  0
  148.1368  135.1811  155.3673 H   0  0  0  0  0  0  0  0  0  0  0  0
  147.4101  136.5737  156.1368 H   0  0  0  0  0  0  0  0  0  0  0  0
  146.7669  135.5866  153.3038 H   0  0  0  0  0  0  0  0  0  0  0  0
  145.7541  135.3912  154.7234 H   0  0  0  0  0  0  0  0  0  0  0  0
  147.0923  137.8272  152.4305 H   0  0  0  0  0  0  0  0  0  0  0  0
  146.3478  139.1721  153.2716 H   0  0  0  0  0  0  0  0  0  0  0  0
  147.8673  138.8895  155.2140 H   0  0  0  0  0  0  0  0  0  0  0  0
  148.7728  139.0518  153.7193 H   0  0  0  0  0  0  0  0  0  0  0  0
  148.9036  136.6748  153.6295 H   0  0  0  0  0  0  0  0  0  0  0  0
  1  2  1  0  0  0  0
  1 21  1  0  0  0  0
  1 22  1  0  0  0  0
  1 23  1  0  0  0  0
  2  3  1  0  0  0  0
  2 24  1  0  0  0  0
  2 25  1  0  0  0  0
  3  4  1  0  0  0  0
  3  5  1  0  0  0  0
  3 15  1  0  0  0  0
  4 26  1  0  0  0  0
  4 27  1  0  0  0  0
  4 28  1  0  0  0  0
  5  6  1  0  0  0  0
  5 29  1  0  0  0  0
  5 30  1  0  0  0  0
  6  7  1  0  0  0  0
  6 31  1  0  0  0  0
  7  8  2  0  0  0  0
  7  9  1  0  0  0  0
  9 10  1  0  0  0  0
 10 14  1  0  0  0  0
 10 11  2  0  0  0  0
 11 12  1  0  0  0  0
 12 13  2  0  0  0  0
 12 32  1  0  0  0  0
 13 14  1  0  0  0  0
 13 33  1  0  0  0  0
 15 20  1  0  0  0  0
 15 16  1  0  0  0  0
 15 42  1  0  0  0  0
 16 17  1  0  0  0  0
 16 34  1  0  0  0  0
 16 35  1  0  0  0  0
 17 18  1  0  0  0  0
 17 36  1  0  0  0  0
 17 37  1  0  0  0  0
 18 19  1  0  0  0  0
 19 20  1  0  0  0  0
 19 38  1  0  0  0  0
 19 39  1  0  0  0  0
 20 40  1  0  0  0  0
 20 41  1  0  0  0  0
M  CHG  1   9  -1
M  CHG  1  15   1
M  END
> <s_m_source_file>
AV-unprocessed.smi

> <i_m_source_file_index>
1995

> <i_lp_mmshare_version>
43012

> <i_f3d_flags>
0

> <s_epik_input>
W0NIMl0xW0NIMl1PW0NIMl1bQ0gyXU4xW0NAQF0oW0NIM10pKFtDSDJdW0NIM10pW0NIMl1bTkhdQyg9TylbTkhdYzJuW2NIXVtjSF1zMg==

> <s_epik_cmdline>
J2VwaWtfcHl0aG9uJywgJy1waCcsICc3LjAnLCAnLXRuJywgJzgnLCAnLW1hJywgJzIwMCcsICctbWV0YWxfYmluZGluZycsICctaW1hZScsICc8aW5maWxlLm1hZT4nLCAnLW9tYWUnLCAnPG91dGZpbGUubWFlPic=

> <r_lp_tautomer_probability>
0.999

> <r_epik_Ionization_Penalty>
8.09417

> <r_epik_Ionization_Penalty_Charging>
6.70334

> <r_epik_Ionization_Penalty_Neutral>
1.39083

> <r_epik_State_Penalty>
6.86521

> <r_epik_Charging_Adjusted_Penalty>
13.5685

> <i_epik_Tot_Q>
0

> <i_epik_Tot_abs_Q>
2

> <r_epik_Metal_State_Penalty>
2.79608

> <b_epik_Metal_Only>
1

> <s_lp_Force_Field>
OPLS_2005

> <r_lp_Energy>
20.9753

> <b_lp_Chiralities_Consistent>
1

> <s_lp_Variant>
AV-unprocessed.smi:1995-7

> <Gold.Version>
5.8.1

> <Gold.Id.Protein>
6NUR|6NUR_protein|mol2

> <Gold.PLP.Fitness>
43.6452

> <Gold.PLP.PLP>
-30.8305

> <Gold.PLP.part.hbond>
-4.7686

> <Gold.PLP.part.metal>
0.0000

> <Gold.PLP.part.buried>
-4.3648

> <Gold.PLP.part.nonpolar>
-22.6076

> <Gold.PLP.part.repulsive>
0.1348

> <Gold.PLP.ligand.clash>
1.1610

> <Gold.PLP.ligand.torsion>
0.7179

> <Gold.PLP.Chemscore.Hbond>
5.0575

> <Gold.PLP.Chemscore.CHOScore>
0.0000

> <Gold.PLP.Chemscore.Metal>
0.0000

> <Gold.Chemscore.Hbonds>
donor molecule, donor type, donor heavy atom, donor atom, acceptor molecule, acceptor atom, score
      L1  H    15    42       P1  7948  2.00
      P1  H  6896  6908       L1     9  0.70
      P1  H  6931  6943       L1    11  0.60

> <Gold.PLP.Chemscore.Internal.Correction>
0.2388

> <Gold.Rescore>
     Score         DG    S(hbond)    S(metal)    S(lipo)     H(rot)  DE(clash)    DE(int)     intcor
     14.00     -17.22       2.66        0.00      62.78       1.75       0.34       2.88       ----

> <Gold.Chemscore.Fitness>
13.9970

> <Gold.Chemscore.DG>
-17.2184

> <Gold.Chemscore.ZeroCoef>
-5.4800

> <Gold.Chemscore.Hbond>
2.6582

> <Gold.Chemscore.Metal>
0.0000

> <Gold.Chemscore.Lipo>
62.7849

> <Gold.Chemscore.Internal_Hbond>
0.0000

> <Gold.Chemscore.DEClash>
0.3392

> <Gold.Chemscore.DEInternal>
2.8822

> <Gold.Chemscore.Rot>
1.7523

> <Gold.Chemscore.Internal.Correction>
   9.000000E+99

> <Gold.Chemscore.Hbonds>
donor molecule, donor type, donor heavy atom, donor atom, acceptor molecule, acceptor atom, score
      L1  H    15    42       P1  7948  1.00
      P1  H  6896  6908       L1     9  0.01
      P1  H  6931  6943       L1    11  0.04

> <Gold.Chemscore.Hbond.Weighted>
-8.8784

> <Gold.Chemscore.Metal.Weighted>
-0.0000

> <Gold.Chemscore.Lipo.Weighted>
-7.3458

> <Gold.Chemscore.Internal_Hbond.Weighted>
0.0000

> <Gold.Chemscore.DEClash.Weighted>
0.3392

> <Gold.Chemscore.DEInternal.Weighted>
2.8822

> <Gold.Chemscore.Rot.Weighted>
4.4858

> <Gold.Chemscore.Internal.Correction.Weighted>
   9.000000E+99

> <Gold.Protein.RotatedTorsions>
[ 6907 6896 6895 6894 ] final  179.55 input  -60.11 | X-H torsion
[ 7974 7965 7964 7962 ] final   97.12 input  175.53 | X-H torsion
[ 8008 7997 7996 7995 ] final -117.60 input   59.86 | X-H torsion
[ 10167 10162 10161 10158 ] final   -6.06 input  -65.29 | X-H torsion
[ 10718 10713 10712 10709 ] final  126.88 input   66.30 | X-H torsion
[ 10763 10752 10751 10750 ] final   78.77 input  -60.55 | X-H torsion
[ 11005 11000 10999 10996 ] final  169.32 input  -57.11 | X-H torsion

> <Gold.Protein.ActiveResidues>
 VAL166  LYS551  ARG553  GLY616  TRP617  ASP618  TYR619  PRO620  LYS621  CYS622 
 ASP623  PHE694  ASN695  SER759  ASP760  ASP761  ALA762  ILE779  LEU786  VAL792 
 PHE793  MET794  SER795  GLU796  ALA797  LYS798  CYS799  TRP800  GLU811  SER814 

> <Gold.Protein.RotatedAtoms>
  151.6698  133.3314  159.3193 H   0  0  0  0  0  0  0  0  0  0  0  0  # atno 6907 bound_to 6896
  150.7873  134.6872  159.6486 H   0  0  0  0  0  0  0  0  0  0  0  0  # atno 6908 bound_to 6896
  152.3946  134.6390  160.0146 H   0  0  0  0  0  0  0  0  0  0  0  0  # atno 6909 bound_to 6896
  145.4297  139.2312  143.3151 H   0  0  0  0  0  0  0  0  0  0  0  0  # atno 7974 bound_to 7965
  155.0862  140.0394  157.2654 H   0  0  0  0  0  0  0  0  0  0  0  0  # atno 8008 bound_to 7997
  154.6867  140.2645  155.6828 H   0  0  0  0  0  0  0  0  0  0  0  0  # atno 8009 bound_to 7997
  156.2714  140.2767  156.1431 H   0  0  0  0  0  0  0  0  0  0  0  0  # atno 8010 bound_to 7997
  140.6984  143.6237  150.8588 H   0  0  0  0  0  0  0  0  0  0  0  0  # atno 10167 bound_to 10162
  157.5381  131.1097  150.8903 H   0  0  0  0  0  0  0  0  0  0  0  0  # atno 10718 bound_to 10713
  153.0900  135.4865  154.8671 H   0  0  0  0  0  0  0  0  0  0  0  0  # atno 10763 bound_to 10752
  154.7257  135.3049  154.8977 H   0  0  0  0  0  0  0  0  0  0  0  0  # atno 10764 bound_to 10752
  153.9628  135.6810  153.4798 H   0  0  0  0  0  0  0  0  0  0  0  0  # atno 10765 bound_to 10752
  140.2965  134.7630  157.3882 H   0  0  0  0  0  0  0  0  0  0  0  0  # atno 11005 bound_to 11000
  146.2614  140.5032  142.8852 LP  0  0  0  0  0  0  0  0  0  0  0  0  # atno 17320 bound_to 7965
  144.8191  140.6519  143.6365 LP  0  0  0  0  0  0  0  0  0  0  0  0  # atno 17321 bound_to 7965
  139.9958  143.5798  152.2894 LP  0  0  0  0  0  0  0  0  0  0  0  0  # atno 17342 bound_to 10162
  139.6469  144.7658  151.2225 LP  0  0  0  0  0  0  0  0  0  0  0  0  # atno 17343 bound_to 10162
  156.9464  130.5403  149.5281 LP  0  0  0  0  0  0  0  0  0  0  0  0  # atno 17370 bound_to 10713
  156.0474  130.5549  150.8913 LP  0  0  0  0  0  0  0  0  0  0  0  0  # atno 17371 bound_to 10713
  140.1147  134.5298  155.8235 LP  0  0  0  0  0  0  0  0  0  0  0  0  # atno 17394 bound_to 11000
  141.2136  133.6736  156.6755 LP  0  0  0  0  0  0  0  0  0  0  0  0  # atno 17395 bound_to 11000

$$$$
