#       Name:                AV-unprocessed.smi:2924
#       Creating user name   scv26
#       Creation time:       Fri Mar 27 16:11:05 2020


#       File generated by GOLD software.
#

@<TRIPOS>MOLECULE
AV-unprocessed.smi:2924
    33    35     1
SMALL
NO_CHARGES


@<TRIPOS>ATOM
      1 ****        -0.8828  -3.9274  -0.6905 N.1            1 S1                 0.0000
      2 ****        -1.4217  -2.9063  -0.6154 C.1            1 S1                 0.0000
      3 ****        -2.0997  -1.6191  -0.5204 C.ar           1 S1                 0.0000
      4 ****        -3.4895  -1.5945  -0.2794 C.ar           1 S1                 0.0000
      5 ****        -4.1472  -0.3547  -0.1819 C.ar           1 S1                 0.0000
      6 ****        -3.3838   0.8173  -0.3313 C.ar           1 S1                 0.0000
      7 ****        -2.0548   0.8079  -0.5635 N.ar           1 S1                 0.0000
      8 ****        -1.4132  -0.3826  -0.6563 C.ar           1 S1                 0.0000
      9 ****        -0.0280  -0.3609  -0.9013 N.pl3          1 S1                 0.0000
     10 ****         0.7556   0.8574  -0.7198 C.3            1 S1                 0.0000
     11 ****         2.2172   0.6952  -1.1443 C.3            1 S1                 0.0000
     12 ****         2.9649   1.1579   0.1141 C.3            1 S1                 0.0000
     13 ****         2.9052   0.1019   1.2253 C.3            1 S1                 0.0000
     14 ****         1.4518   0.2134   1.6811 C.3            1 S1                 0.0000
     15 ****         0.9079   1.3083   0.7472 C.3            1 S1                 0.0000
     16 ****         2.0617   2.1234   0.6265 O.3            1 S1                 0.0000
     17 ****        -4.0499  -2.5118  -0.1684 H              1 S1                 0.0000
     18 ****        -5.2101  -0.3034   0.0029 H              1 S1                 0.0000
     19 ****        -3.8521   1.7881  -0.2630 H              1 S1                 0.0000
     20 ****         0.4696  -1.2391  -0.9331 H              1 S1                 0.0000
     21 ****         0.3133   1.6642  -1.3060 H              1 S1                 0.0000
     22 ****         2.4848  -0.3243  -1.4255 H              1 S1                 0.0000
     23 ****         2.4379   1.3468  -1.9903 H              1 S1                 0.0000
     24 ****         3.9680   1.5376  -0.0814 H              1 S1                 0.0000
     25 ****         3.1617  -0.8953   0.8660 H              1 S1                 0.0000
     26 ****         3.5823   0.3567   2.0414 H              1 S1                 0.0000
     27 ****         0.9066  -0.7274   1.6027 H              1 S1                 0.0000
     28 ****         1.4065   0.5409   2.7204 H              1 S1                 0.0000
     29 ****         0.0366   1.8305   1.1436 H              1 S1                 0.0000
     30 ****        -0.4170  -4.8099  -0.7554 LP             1 S1                 0.0000
     31 ****        -1.5509   1.6656  -0.6655 LP             1 S1                 0.0000
     32 ****         1.9207   2.8803  -0.0116 LP             1 S1                 0.0000
     33 ****         2.3601   2.4837   1.5104 LP             1 S1                 0.0000
@<TRIPOS>BOND
    1    1    2 3     
    2    2    3 1     
    3    3    8 ar    
    4    3    4 ar    
    5    4    5 ar    
    6    4   17 1     
    7    5    6 ar    
    8    5   18 1     
    9    6    7 ar    
   10    6   19 1     
   11    7    8 ar    
   12    8    9 1     
   13    9   10 1     
   14    9   20 1     
   15   10   15 1     
   16   10   11 1     
   17   10   21 1     
   18   11   12 1     
   19   11   22 1     
   20   11   23 1     
   21   12   16 1     
   22   12   13 1     
   23   12   24 1     
   24   13   14 1     
   25   13   25 1     
   26   13   26 1     
   27   14   15 1     
   28   14   27 1     
   29   14   28 1     
   30   15   16 1     
   31   15   29 1     
   32    1   30 1     
   33    7   31 1     
   34   16   32 1     
   35   16   33 1     
@<TRIPOS>SUBSTRUCTURE
      1 S1             1
@<TRIPOS>SET
LONE_PAIRS      STATIC     ATOMS    <user>   **** ""
4 30 31 32 33
DONOR_HYDROGENS      STATIC     ATOMS    <user>   **** ""
1 20
ATOM$BLUE        STATIC     ATOMS    COLORGROUP SYSTEM
4 30 31 32 33
ATOM$RED        STATIC     ATOMS    COLORGROUP SYSTEM
1 20
