AV-unprocessed.smi:91|AV-procd|sdf|837|dock2
  -GOLD-   2262017263D 1   1.00000     0.00000
 Structure written by MMmdl.
 60 63  0  0  0  0  0  0  0  0  1 V2000
  145.2327  135.0604  158.4377 C   0  0  0  0  0  0  0  0  0  0  0  0
  146.5028  135.4370  157.9359 O   0  0  0  0  0  0  0  0  0  0  0  0
  147.5696  134.8271  158.6451 C   0  0  0  0  0  0  0  0  0  0  0  0
  148.8496  134.8531  157.7985 C   0  0  2  0  0  0  0  0  0  0  0  0
  149.1704  136.2491  157.2355 C   0  0  0  0  0  0  0  0  0  0  0  0
  150.3312  136.1701  156.3568 N   0  0  0  0  0  0  0  0  0  0  0  0
  150.9583  137.3205  156.0063 C   0  0  0  0  0  0  0  0  0  0  0  0
  151.8422  137.3270  154.9727 N   0  0  0  0  0  0  0  0  0  0  0  0
  152.4666  138.4566  154.6263 C   0  0  0  0  0  0  0  0  0  0  0  0
  152.3533  139.6719  155.1652 N   0  0  0  0  0  0  0  0  0  0  0  0
  151.4603  139.6745  156.1957 C   0  0  0  0  0  0  0  0  0  0  0  0
  150.7265  138.5539  156.6778 C   0  0  0  0  0  0  0  0  0  0  0  0
  149.9050  138.9432  157.7296 N   0  0  0  0  0  0  0  0  0  0  0  0
  150.1441  140.2187  157.8658 C   0  0  0  0  0  0  0  0  0  0  0  0
  151.0597  140.7412  156.9816 N   0  0  0  0  0  0  0  0  0  0  0  0
  151.4957  142.1250  156.9102 C   0  0  0  0  0  0  0  0  0  0  0  0
  151.0634  142.9575  158.1428 C   0  0  2  0  0  0  0  0  0  0  0  0
  151.3140  144.4732  157.9506 C   0  0  0  0  0  0  0  0  0  0  0  0
  150.3361  145.2467  158.6156 O   0  0  0  0  0  0  0  0  0  0  0  0
  151.6946  142.4144  159.4498 C   0  0  1  0  0  0  0  0  0  0  0  0
  153.1043  141.8690  159.3013 C   0  0  0  0  0  0  0  0  0  0  0  0
  153.6010  141.8712  160.7419 C   0  0  0  0  0  0  0  0  0  0  0  0
  152.9869  143.0000  161.3521 O   0  0  0  0  0  0  0  0  0  0  0  0
  151.9172  143.4718  160.5380 C   0  0  0  0  0  0  0  0  0  0  0  0
  150.1643  135.1990  155.2814 C   0  0  0  0  0  0  0  0  0  0  0  0
  149.8280  133.8011  155.8464 C   0  0  0  0  0  0  0  0  0  0  0  0
  149.3574  132.8816  154.7092 C   0  0  0  0  0  0  0  0  0  0  0  0
  151.0445  133.1591  156.5471 C   0  0  0  0  0  0  0  0  0  0  0  0
  148.7126  133.9048  156.7391 O   0  0  0  0  0  0  0  0  0  0  0  0
  144.4498  135.5535  157.8619 H   0  0  0  0  0  0  0  0  0  0  0  0
  145.1186  135.3543  159.4820 H   0  0  0  0  0  0  0  0  0  0  0  0
  145.0809  133.9832  158.3587 H   0  0  0  0  0  0  0  0  0  0  0  0
  147.7388  135.3618  159.5810 H   0  0  0  0  0  0  0  0  0  0  0  0
  147.3144  133.7976  158.9009 H   0  0  0  0  0  0  0  0  0  0  0  0
  149.6671  134.5371  158.4465 H   0  0  0  0  0  0  0  0  0  0  0  0
  148.3217  136.6385  156.6713 H   0  0  0  0  0  0  0  0  0  0  0  0
  149.3623  136.9411  158.0566 H   0  0  0  0  0  0  0  0  0  0  0  0
  153.1548  138.3747  153.7980 H   0  0  0  0  0  0  0  0  0  0  0  0
  149.6508  140.8204  158.6155 H   0  0  0  0  0  0  0  0  0  0  0  0
  152.5811  142.1190  156.8112 H   0  0  0  0  0  0  0  0  0  0  0  0
  151.1080  142.5702  155.9933 H   0  0  0  0  0  0  0  0  0  0  0  0
  149.9832  142.8382  158.2395 H   0  0  0  0  0  0  0  0  0  0  0  0
  152.2979  144.7585  158.3227 H   0  0  0  0  0  0  0  0  0  0  0  0
  151.3080  144.7373  156.8934 H   0  0  0  0  0  0  0  0  0  0  0  0
  149.5359  145.2179  158.1134 H   0  0  0  0  0  0  0  0  0  0  0  0
  151.0629  141.6256  159.8616 H   0  0  0  0  0  0  0  0  0  0  0  0
  153.1376  140.8759  158.8526 H   0  0  0  0  0  0  0  0  0  0  0  0
  153.7132  142.5406  158.6943 H   0  0  0  0  0  0  0  0  0  0  0  0
  153.2680  140.9713  161.2603 H   0  0  0  0  0  0  0  0  0  0  0  0
  154.6879  141.9205  160.8098 H   0  0  0  0  0  0  0  0  0  0  0  0
  152.2203  144.4234  160.0994 H   0  0  0  0  0  0  0  0  0  0  0  0
  151.0222  143.6475  161.1354 H   0  0  0  0  0  0  0  0  0  0  0  0
  149.3521  135.5449  154.6403 H   0  0  0  0  0  0  0  0  0  0  0  0
  151.0501  135.1382  154.6498 H   0  0  0  0  0  0  0  0  0  0  0  0
  150.1367  132.7474  153.9581 H   0  0  0  0  0  0  0  0  0  0  0  0
  148.4811  133.2920  154.2063 H   0  0  0  0  0  0  0  0  0  0  0  0
  149.0866  131.8950  155.0861 H   0  0  0  0  0  0  0  0  0  0  0  0
  151.8488  132.9712  155.8349 H   0  0  0  0  0  0  0  0  0  0  0  0
  150.7776  132.2049  157.0023 H   0  0  0  0  0  0  0  0  0  0  0  0
  151.4595  133.7946  157.3288 H   0  0  0  0  0  0  0  0  0  0  0  0
  1  2  1  0  0  0  0
  1 30  1  0  0  0  0
  1 31  1  0  0  0  0
  1 32  1  0  0  0  0
  2  3  1  0  0  0  0
  3  4  1  0  0  0  0
  3 33  1  0  0  0  0
  3 34  1  0  0  0  0
  4 29  1  0  0  0  0
  4  5  1  0  0  0  0
  4 35  1  0  0  0  0
  5  6  1  0  0  0  0
  5 36  1  0  0  0  0
  5 37  1  0  0  0  0
  6  7  1  0  0  0  0
  6 25  1  0  0  0  0
  7 12  1  0  0  0  0
  7  8  2  0  0  0  0
  8  9  1  0  0  0  0
  9 10  2  0  0  0  0
  9 38  1  0  0  0  0
 10 11  1  0  0  0  0
 11 15  1  0  0  0  0
 11 12  2  0  0  0  0
 12 13  1  0  0  0  0
 13 14  2  0  0  0  0
 14 15  1  0  0  0  0
 14 39  1  0  0  0  0
 15 16  1  0  0  0  0
 16 17  1  0  0  0  0
 16 40  1  0  0  0  0
 16 41  1  0  0  0  0
 17 18  1  0  0  0  0
 17 20  1  0  0  0  0
 17 42  1  0  0  0  0
 18 19  1  0  0  0  0
 18 43  1  0  0  0  0
 18 44  1  0  0  0  0
 19 45  1  0  0  0  0
 20 24  1  0  0  0  0
 20 21  1  0  0  0  0
 20 46  1  0  0  0  0
 21 22  1  0  0  0  0
 21 47  1  0  0  0  0
 21 48  1  0  0  0  0
 22 23  1  0  0  0  0
 22 49  1  0  0  0  0
 22 50  1  0  0  0  0
 23 24  1  0  0  0  0
 24 51  1  0  0  0  0
 24 52  1  0  0  0  0
 25 26  1  0  0  0  0
 25 53  1  0  0  0  0
 25 54  1  0  0  0  0
 26 27  1  0  0  0  0
 26 28  1  0  0  0  0
 26 29  1  0  0  0  0
 27 55  1  0  0  0  0
 27 56  1  0  0  0  0
 27 57  1  0  0  0  0
 28 58  1  0  0  0  0
 28 59  1  0  0  0  0
 28 60  1  0  0  0  0
M  END
> <s_m_source_file>
AV-unprocessed.smi

> <i_m_source_file_index>
91

> <i_lp_mmshare_version>
43012

> <i_f3d_flags>
0

> <s_epik_input>
W0NIM11PW0NIMl1bQ0BASF0oTzEpW0NIMl1OKFtDSDJdQzEoW0NIM10pW0NIM10pYyhuW2NIXW4yKWMoYzIzKW5bY0hdbjNbQ0gyXVtDQEhdKFtDSDJdW09IXSlbQ0BASF00W0NIMl1bQ0gyXU9bQ0gyXTQ=

> <s_epik_cmdline>
J2VwaWtfcHl0aG9uJywgJy1waCcsICc3LjAnLCAnLXRuJywgJzgnLCAnLW1hJywgJzIwMCcsICctbWV0YWxfYmluZGluZycsICctaW1hZScsICc8aW5maWxlLm1hZT4nLCAnLW9tYWUnLCAnPG91dGZpbGUubWFlPic=

> <r_lp_tautomer_probability>
1

> <r_epik_Ionization_Penalty>
8.63591e-05

> <r_epik_Ionization_Penalty_Charging>
0

> <r_epik_Ionization_Penalty_Neutral>
8.63591e-05

> <r_epik_State_Penalty>
-0

> <r_epik_Charging_Adjusted_Penalty>
0

> <i_epik_Tot_Q>
0

> <i_epik_Tot_abs_Q>
0

> <r_epik_Metal_State_Penalty>
-0

> <b_epik_Metal_Only>
0

> <s_lp_Force_Field>
OPLS_2005

> <r_lp_Energy>
47.5582

> <b_lp_Chiralities_Consistent>
1

> <s_lp_Variant>
AV-unprocessed.smi:91-5

> <Gold.Version>
5.8.1

> <Gold.Id.Protein>
6NUR|6NUR_protein|mol2

> <Gold.PLP.Fitness>
50.0718

> <Gold.PLP.PLP>
-44.0095

> <Gold.PLP.part.hbond>
-3.6982

> <Gold.PLP.part.metal>
0.0000

> <Gold.PLP.part.buried>
-8.5314

> <Gold.PLP.part.nonpolar>
-32.9515

> <Gold.PLP.part.repulsive>
0.2140

> <Gold.PLP.ligand.clash>
0.0000

> <Gold.PLP.ligand.torsion>
1.9915

> <Gold.PLP.Chemscore.Hbond>
3.0882

> <Gold.PLP.Chemscore.CHOScore>
0.0000

> <Gold.PLP.Chemscore.Metal>
0.0000

> <Gold.Chemscore.Hbonds>
donor molecule, donor type, donor heavy atom, donor atom, acceptor molecule, acceptor atom, score
      L1  H    19    45       P1  8029  1.00
      P1  H  7989  7998       L1    10  0.50
      P1  H  7997  8009       L1    10  0.36
      P1  H 10752 10764       L1     8  0.79

> <Gold.PLP.Chemscore.Internal.Correction>
0.7807

> <Gold.Rescore>
     Score         DG    S(hbond)    S(metal)    S(lipo)     H(rot)  DE(clash)    DE(int)     intcor
     10.78     -14.45       1.46        0.00     101.24       3.03       0.34       3.32       ----

> <Gold.Chemscore.Fitness>
10.7842

> <Gold.Chemscore.DG>
-14.4479

> <Gold.Chemscore.ZeroCoef>
-5.4800

> <Gold.Chemscore.Hbond>
1.4599

> <Gold.Chemscore.Metal>
0.0000

> <Gold.Chemscore.Lipo>
101.2357

> <Gold.Chemscore.Internal_Hbond>
0.0000

> <Gold.Chemscore.DEClash>
0.3400

> <Gold.Chemscore.DEInternal>
3.3238

> <Gold.Chemscore.Rot>
3.0284

> <Gold.Chemscore.Internal.Correction>
   9.000000E+99

> <Gold.Chemscore.Hbonds>
donor molecule, donor type, donor heavy atom, donor atom, acceptor molecule, acceptor atom, score
      L1  H    19    45       P1  8029  0.29
      P1  H  7989  7998       L1    10  0.17
      P1  H  7997  8009       L1    10  0.14
      P1  H 10752 10764       L1     8  0.58

> <Gold.Chemscore.Hbond.Weighted>
-4.8761

> <Gold.Chemscore.Metal.Weighted>
-0.0000

> <Gold.Chemscore.Lipo.Weighted>
-11.8446

> <Gold.Chemscore.Internal_Hbond.Weighted>
0.0000

> <Gold.Chemscore.DEClash.Weighted>
0.3400

> <Gold.Chemscore.DEInternal.Weighted>
3.3238

> <Gold.Chemscore.Rot.Weighted>
7.7528

> <Gold.Chemscore.Internal.Correction.Weighted>
   9.000000E+99

> <Gold.Protein.RotatedTorsions>
[ 6907 6896 6895 6894 ] final   48.14 input  -60.11 | X-H torsion
[ 7974 7965 7964 7962 ] final -173.60 input  175.53 | X-H torsion
[ 8008 7997 7996 7995 ] final -132.19 input   59.86 | X-H torsion
[ 10167 10162 10161 10158 ] final   78.86 input  -65.29 | X-H torsion
[ 10718 10713 10712 10709 ] final  -49.35 input   66.30 | X-H torsion
[ 10763 10752 10751 10750 ] final  -73.73 input  -60.55 | X-H torsion
[ 11005 11000 10999 10996 ] final  159.24 input  -57.11 | X-H torsion

> <Gold.Protein.ActiveResidues>
 VAL166  LYS551  ARG553  GLY616  TRP617  ASP618  TYR619  PRO620  LYS621  CYS622 
 ASP623  PHE694  ASN695  SER759  ASP760  ASP761  ALA762  ILE779  LEU786  VAL792 
 PHE793  MET794  SER795  GLU796  ALA797  LYS798  CYS799  TRP800  GLU811  SER814 

> <Gold.Protein.RotatedAtoms>
  152.2761  134.7880  160.0405 H   0  0  0  0  0  0  0  0  0  0  0  0  # atno 6907 bound_to 6896
  151.8476  133.3429  159.3671 H   0  0  0  0  0  0  0  0  0  0  0  0  # atno 6908 bound_to 6896
  150.7171  134.5259  159.5720 H   0  0  0  0  0  0  0  0  0  0  0  0  # atno 6909 bound_to 6896
  144.7137  140.1597  143.6377 H   0  0  0  0  0  0  0  0  0  0  0  0  # atno 7974 bound_to 7965
  155.3249  140.0464  157.3040 H   0  0  0  0  0  0  0  0  0  0  0  0  # atno 8008 bound_to 7997
  154.5360  140.2272  155.8688 H   0  0  0  0  0  0  0  0  0  0  0  0  # atno 8009 bound_to 7997
  156.1835  140.3068  155.9200 H   0  0  0  0  0  0  0  0  0  0  0  0  # atno 8010 bound_to 7997
  139.9664  144.5925  150.8025 H   0  0  0  0  0  0  0  0  0  0  0  0  # atno 10167 bound_to 10162
  156.1902  130.4152  149.9383 H   0  0  0  0  0  0  0  0  0  0  0  0  # atno 10718 bound_to 10713
  154.4635  135.5887  153.6272 H   0  0  0  0  0  0  0  0  0  0  0  0  # atno 10763 bound_to 10752
  152.9826  135.6049  154.3456 H   0  0  0  0  0  0  0  0  0  0  0  0  # atno 10764 bound_to 10752
  154.3331  135.2842  155.2441 H   0  0  0  0  0  0  0  0  0  0  0  0  # atno 10765 bound_to 10752
  140.1942  134.8385  157.2946 H   0  0  0  0  0  0  0  0  0  0  0  0  # atno 11005 bound_to 11000
  145.9041  139.2448  143.1476 LP  0  0  0  0  0  0  0  0  0  0  0  0  # atno 17320 bound_to 7965
  145.9781  140.8705  143.0128 LP  0  0  0  0  0  0  0  0  0  0  0  0  # atno 17321 bound_to 7965
  140.7536  143.3012  151.3076 LP  0  0  0  0  0  0  0  0  0  0  0  0  # atno 17342 bound_to 10162
  139.6514  144.0355  152.2629 LP  0  0  0  0  0  0  0  0  0  0  0  0  # atno 17343 bound_to 10162
  156.7125  130.8976  151.3611 LP  0  0  0  0  0  0  0  0  0  0  0  0  # atno 17370 bound_to 10713
  157.6924  130.9247  150.0550 LP  0  0  0  0  0  0  0  0  0  0  0  0  # atno 17371 bound_to 10713
  140.2125  134.4121  155.7605 LP  0  0  0  0  0  0  0  0  0  0  0  0  # atno 17394 bound_to 11000
  141.2227  133.7125  156.8361 LP  0  0  0  0  0  0  0  0  0  0  0  0  # atno 17395 bound_to 11000

$$$$
