AV-unprocessed.smi:1602|AV-procd|sdf|6439|dock6
  -GOLD-   22720 7 83D 1   1.00000     0.00000
 Structure written by MMmdl.
 36 37  0  0  0  0  0  0  0  0  1 V2000
  154.2488  140.6825  161.3585 C   0  0  0  0  0  0  0  0  0  0  0  0
  153.6664  141.5894  160.2671 C   0  0  2  0  0  0  0  0  0  0  0  0
  152.9496  142.8230  160.8486 C   0  0  0  0  0  0  0  0  0  0  0  0
  152.1543  143.5182  159.8520 N   0  0  0  0  0  0  0  0  0  0  0  0
  152.1961  144.8507  159.4992 C   0  0  0  0  0  0  0  0  0  0  0  0
  151.2499  145.0456  158.5344 C   0  0  0  0  0  0  0  0  0  0  0  0
  150.6757  143.7553  158.3596 C   0  0  0  0  0  0  0  0  0  0  0  0
  151.2215  142.8425  159.1471 N   0  0  0  0  0  0  0  0  0  0  0  0
  152.7373  140.8159  159.4396 N   0  0  0  0  0  0  0  0  0  0  0  0
  153.2537  139.3056  158.7887 S   0  0  0  0  0  0  0  0  0  0  0  0
  154.7241  139.2782  158.7624 O   0  0  0  0  0  0  0  0  0  0  0  0
  152.4873  138.2405  159.4533 O   0  0  0  0  0  0  0  0  0  0  0  0
  152.6797  139.4849  157.1661 N   0  0  0  0  0  0  0  0  0  0  0  0
  152.9400  138.3749  156.2310 C   0  0  0  0  0  0  0  0  0  0  0  0
  152.5670  138.7614  154.7908 C   0  0  0  0  0  0  0  0  0  0  0  0
  151.2254  139.2211  154.7401 O   0  0  0  0  0  0  0  0  0  0  0  0
  151.0501  140.3904  155.5248 C   0  0  0  0  0  0  0  0  0  0  0  0
  151.3457  140.0856  157.0024 C   0  0  0  0  0  0  0  0  0  0  0  0
  154.9703  141.2229  161.9717 H   0  0  0  0  0  0  0  0  0  0  0  0
  154.7640  139.8254  160.9231 H   0  0  0  0  0  0  0  0  0  0  0  0
  153.4683  140.3036  162.0193 H   0  0  0  0  0  0  0  0  0  0  0  0
  154.4923  141.9306  159.6409 H   0  0  0  0  0  0  0  0  0  0  0  0
  152.2997  142.5353  161.6762 H   0  0  0  0  0  0  0  0  0  0  0  0
  153.6785  143.5261  161.2544 H   0  0  0  0  0  0  0  0  0  0  0  0
  152.8828  145.5424  159.9645 H   0  0  0  0  0  0  0  0  0  0  0  0
  151.0033  145.9691  158.0321 H   0  0  0  0  0  0  0  0  0  0  0  0
  149.8836  143.4571  157.6888 H   0  0  0  0  0  0  0  0  0  0  0  0
  151.8001  140.7644  159.8379 H   0  0  0  0  0  0  0  0  0  0  0  0
  153.9900  138.0875  156.2719 H   0  0  0  0  0  0  0  0  0  0  0  0
  152.3603  137.5062  156.5457 H   0  0  0  0  0  0  0  0  0  0  0  0
  153.2422  139.5289  154.4085 H   0  0  0  0  0  0  0  0  0  0  0  0
  152.6683  137.8970  154.1345 H   0  0  0  0  0  0  0  0  0  0  0  0
  151.6954  141.1899  155.1572 H   0  0  0  0  0  0  0  0  0  0  0  0
  150.0228  140.7384  155.4142 H   0  0  0  0  0  0  0  0  0  0  0  0
  150.5990  139.3972  157.4000 H   0  0  0  0  0  0  0  0  0  0  0  0
  151.2802  141.0027  157.5882 H   0  0  0  0  0  0  0  0  0  0  0  0
  1  2  1  0  0  0  0
  1 19  1  0  0  0  0
  1 20  1  0  0  0  0
  1 21  1  0  0  0  0
  2  3  1  0  0  0  0
  2  9  1  0  0  0  0
  2 22  1  0  0  0  0
  3  4  1  0  0  0  0
  3 23  1  0  0  0  0
  3 24  1  0  0  0  0
  4  8  1  0  0  0  0
  4  5  1  0  0  0  0
  5  6  2  0  0  0  0
  5 25  1  0  0  0  0
  6  7  1  0  0  0  0
  6 26  1  0  0  0  0
  7  8  2  0  0  0  0
  7 27  1  0  0  0  0
  9 10  1  0  0  0  0
  9 28  1  0  0  0  0
 10 11  2  0  0  0  0
 10 12  2  0  0  0  0
 10 13  1  0  0  0  0
 13 18  1  0  0  0  0
 13 14  1  0  0  0  0
 14 15  1  0  0  0  0
 14 29  1  0  0  0  0
 14 30  1  0  0  0  0
 15 16  1  0  0  0  0
 15 31  1  0  0  0  0
 15 32  1  0  0  0  0
 16 17  1  0  0  0  0
 17 18  1  0  0  0  0
 17 33  1  0  0  0  0
 17 34  1  0  0  0  0
 18 35  1  0  0  0  0
 18 36  1  0  0  0  0
M  END
> <s_m_source_file>
AV-unprocessed.smi

> <i_m_source_file_index>
1602

> <i_lp_mmshare_version>
43012

> <i_f3d_flags>
0

> <s_epik_input>
bjFbY0hdW2NIXVtjSF1uMVtDSDJdW0NAQEhdKFtDSDNdKVtOSF1TKD1PKSg9TylOMltDSDJdW0NIMl1PW0NIMl1bQ0gyXTI=

> <s_epik_cmdline>
J2VwaWtfcHl0aG9uJywgJy1waCcsICc3LjAnLCAnLXRuJywgJzgnLCAnLW1hJywgJzIwMCcsICctbWV0YWxfYmluZGluZycsICctaW1hZScsICc8aW5maWxlLm1hZT4nLCAnLW9tYWUnLCAnPG91dGZpbGUubWFlPic=

> <r_lp_tautomer_probability>
1

> <r_epik_Ionization_Penalty>
0.114248

> <r_epik_Ionization_Penalty_Charging>
0

> <r_epik_Ionization_Penalty_Neutral>
0.114248

> <r_epik_State_Penalty>
0.103909

> <r_epik_Charging_Adjusted_Penalty>
0.103909

> <i_epik_Tot_Q>
0

> <i_epik_Tot_abs_Q>
0

> <r_epik_Metal_State_Penalty>
0.436178

> <b_epik_Metal_Only>
0

> <s_lp_Force_Field>
OPLS_2005

> <r_lp_Energy>
7.48288

> <b_lp_Chiralities_Consistent>
1

> <s_lp_Variant>
AV-unprocessed.smi:1602-1

> <Gold.Version>
5.8.1

> <Gold.Id.Protein>
6NUR|6NUR_protein|mol2

> <Gold.PLP.Fitness>
44.1441

> <Gold.PLP.PLP>
-39.0640

> <Gold.PLP.part.hbond>
-2.8911

> <Gold.PLP.part.metal>
0.0000

> <Gold.PLP.part.buried>
-3.6795

> <Gold.PLP.part.nonpolar>
-32.6840

> <Gold.PLP.part.repulsive>
0.1110

> <Gold.PLP.ligand.clash>
0.0000

> <Gold.PLP.ligand.torsion>
0.8345

> <Gold.PLP.Chemscore.Hbond>
1.0000

> <Gold.PLP.Chemscore.CHOScore>
1.0000

> <Gold.PLP.Chemscore.Metal>
0.0000

> <Gold.Chemscore.Hbonds>
donor molecule, donor type, donor heavy atom, donor atom, acceptor molecule, acceptor atom, score
      P1  H  7997  8010       L1    11  1.00
      L1  C     7    27       P1  8028  0.87

> <Gold.PLP.Chemscore.Internal.Correction>
0.7491

> <Gold.Rescore>
     Score         DG    S(hbond)    S(metal)    S(lipo)     H(rot)  DE(clash)    DE(int)     intcor
     13.63     -14.49       0.94        0.00      93.17       1.97       0.01       0.85       ----

> <Gold.Chemscore.Fitness>
13.6320

> <Gold.Chemscore.DG>
-14.4942

> <Gold.Chemscore.ZeroCoef>
-5.4800

> <Gold.Chemscore.Hbond>
0.9417

> <Gold.Chemscore.Metal>
0.0000

> <Gold.Chemscore.Lipo>
93.1665

> <Gold.Chemscore.Internal_Hbond>
0.0000

> <Gold.Chemscore.DEClash>
0.0149

> <Gold.Chemscore.DEInternal>
0.8473

> <Gold.Chemscore.Rot>
1.9654

> <Gold.Chemscore.Internal.Correction>
   9.000000E+99

> <Gold.Chemscore.Hbonds>
donor molecule, donor type, donor heavy atom, donor atom, acceptor molecule, acceptor atom, score
      P1  H  7997  8010       L1    11  0.74

> <Gold.Chemscore.Hbond.Weighted>
-3.1452

> <Gold.Chemscore.Metal.Weighted>
-0.0000

> <Gold.Chemscore.Lipo.Weighted>
-10.9005

> <Gold.Chemscore.Internal_Hbond.Weighted>
0.0000

> <Gold.Chemscore.DEClash.Weighted>
0.0149

> <Gold.Chemscore.DEInternal.Weighted>
0.8473

> <Gold.Chemscore.Rot.Weighted>
5.0315

> <Gold.Chemscore.Internal.Correction.Weighted>
   9.000000E+99

> <Gold.Protein.RotatedTorsions>
[ 6907 6896 6895 6894 ] final   62.45 input  -60.11 | X-H torsion
[ 7974 7965 7964 7962 ] final   41.22 input  175.53 | X-H torsion
[ 8008 7997 7996 7995 ] final  -11.52 input   59.86 | X-H torsion
[ 10167 10162 10161 10158 ] final -100.03 input  -65.29 | X-H torsion
[ 10718 10713 10712 10709 ] final  -99.24 input   66.30 | X-H torsion
[ 10763 10752 10751 10750 ] final   25.83 input  -60.55 | X-H torsion
[ 11005 11000 10999 10996 ] final   11.60 input  -57.11 | X-H torsion

> <Gold.Protein.ActiveResidues>
 VAL166  LYS551  ARG553  GLY616  TRP617  ASP618  TYR619  PRO620  LYS621  CYS622 
 ASP623  PHE694  ASN695  SER759  ASP760  ASP761  ALA762  ILE779  LEU786  VAL792 
 PHE793  MET794  SER795  GLU796  ALA797  LYS798  CYS799  TRP800  GLU811  SER814 

> <Gold.Protein.RotatedAtoms>
  152.4173  134.6019  160.0002 H   0  0  0  0  0  0  0  0  0  0  0  0  # atno 6907 bound_to 6896
  151.6179  133.3336  159.3089 H   0  0  0  0  0  0  0  0  0  0  0  0  # atno 6908 bound_to 6896
  150.8061  134.7226  159.6711 H   0  0  0  0  0  0  0  0  0  0  0  0  # atno 6909 bound_to 6896
  146.0841  139.5441  142.9518 H   0  0  0  0  0  0  0  0  0  0  0  0  # atno 7974 bound_to 7965
  154.5457  140.2300  155.8567 H   0  0  0  0  0  0  0  0  0  0  0  0  # atno 8008 bound_to 7997
  156.1901  140.3079  155.9276 H   0  0  0  0  0  0  0  0  0  0  0  0  # atno 8009 bound_to 7997
  155.3169  140.0438  157.3028 H   0  0  0  0  0  0  0  0  0  0  0  0  # atno 8010 bound_to 7997
  140.2562  143.3439  152.0669 H   0  0  0  0  0  0  0  0  0  0  0  0  # atno 10167 bound_to 10162
  156.0129  130.5274  150.6641 H   0  0  0  0  0  0  0  0  0  0  0  0  # atno 10718 bound_to 10713
  153.0664  135.6574  154.0345 H   0  0  0  0  0  0  0  0  0  0  0  0  # atno 10763 bound_to 10752
  154.0000  135.2938  155.3405 H   0  0  0  0  0  0  0  0  0  0  0  0  # atno 10764 bound_to 10752
  154.7023  135.5239  153.8614 H   0  0  0  0  0  0  0  0  0  0  0  0  # atno 10765 bound_to 10752
  140.5014  134.0742  155.7794 H   0  0  0  0  0  0  0  0  0  0  0  0  # atno 11005 bound_to 11000
  145.6163  141.0330  143.1939 LP  0  0  0  0  0  0  0  0  0  0  0  0  # atno 17320 bound_to 7965
  144.7313  139.7717  143.7346 LP  0  0  0  0  0  0  0  0  0  0  0  0  # atno 17321 bound_to 7965
  139.5031  144.6748  151.6155 LP  0  0  0  0  0  0  0  0  0  0  0  0  # atno 17342 bound_to 10162
  140.6002  143.9623  150.6381 LP  0  0  0  0  0  0  0  0  0  0  0  0  # atno 17343 bound_to 10162
  157.4377  131.0857  151.0975 LP  0  0  0  0  0  0  0  0  0  0  0  0  # atno 17370 bound_to 10713
  157.1528  130.6191  149.5587 LP  0  0  0  0  0  0  0  0  0  0  0  0  # atno 17371 bound_to 10713
  141.1434  133.9099  157.2274 LP  0  0  0  0  0  0  0  0  0  0  0  0  # atno 17394 bound_to 11000
  139.9711  135.0128  156.9515 LP  0  0  0  0  0  0  0  0  0  0  0  0  # atno 17395 bound_to 11000

$$$$
