AV-unprocessed.smi:35|AV-procd|sdf|265|dock3
  -GOLD-   2262016 33D 1   1.00000     0.00000
 Structure written by MMmdl.
 28 29  0  0  0  0  0  0  0  0  2 V2000
  148.1906  136.8661  160.6771 O   0  0  0  0  0  0  0  0  0  0  0  0
  148.5192  136.9511  159.4950 C   0  0  0  0  0  0  0  0  0  0  0  0
  149.6570  136.3842  158.9993 N   0  5  0  0  0  0  0  0  0  0  0  0
  150.0203  136.4841  157.6863 C   0  0  0  0  0  0  0  0  0  0  0  0
  151.0319  135.9542  157.2275 O   0  0  0  0  0  0  0  0  0  0  0  0
  149.1920  137.2252  156.7990 N   0  0  0  0  0  0  0  0  0  0  0  0
  149.5757  137.3432  155.3401 C   0  0  2  0  0  0  0  0  0  0  0  0
  150.9635  137.4995  155.2488 O   0  0  0  0  0  0  0  0  0  0  0  0
  151.2859  138.6671  154.5001 C   0  0  2  0  0  0  0  0  0  0  0  0
  152.6158  139.2455  155.0088 C   0  0  0  0  0  0  0  0  0  0  0  0
  152.4994  139.6500  156.3567 O   0  0  0  0  0  0  0  0  0  0  0  0
  150.0699  139.5745  154.6978 C   0  0  1  0  0  0  0  0  0  0  0  0
  149.9385  140.5621  153.6928 O   0  0  0  0  0  0  0  0  0  0  0  0
  148.9138  138.5817  154.7163 C   0  0  1  0  0  0  0  0  0  0  0  0
  148.4199  138.2901  153.4218 O   0  0  0  0  0  0  0  0  0  0  0  0
  148.0211  137.7950  157.2696 C   0  0  0  0  0  0  0  0  0  0  0  0
  147.6650  137.6848  158.5650 C   0  0  0  0  0  0  0  0  0  0  0  0
  145.9626  138.5487  159.0959 Br  0  0  0  0  0  0  0  0  0  0  0  0
  149.2932  136.3996  154.8707 H   0  0  0  0  0  0  0  0  0  0  0  0
  151.3710  138.3693  153.4534 H   0  0  0  0  0  0  0  0  0  0  0  0
  153.4239  138.5202  154.9105 H   0  0  0  0  0  0  0  0  0  0  0  0
  152.8928  140.1172  154.4155 H   0  0  0  0  0  0  0  0  0  0  0  0
  151.5844  139.6473  156.5932 H   0  0  0  0  0  0  0  0  0  0  0  0
  150.1326  140.0650  155.6702 H   0  0  0  0  0  0  0  0  0  0  0  0
  149.6426  140.1418  152.8996 H   0  0  0  0  0  0  0  0  0  0  0  0
  148.0819  138.9352  155.3271 H   0  0  0  0  0  0  0  0  0  0  0  0
  149.0033  138.6759  152.7868 H   0  0  0  0  0  0  0  0  0  0  0  0
  147.3726  138.3340  156.5960 H   0  0  0  0  0  0  0  0  0  0  0  0
  1  2  2  0  0  0  0
  2 17  1  0  0  0  0
  2  3  1  0  0  0  0
  3  4  1  0  0  0  0
  4  5  2  0  0  0  0
  4  6  1  0  0  0  0
  6  7  1  0  0  0  0
  6 16  1  0  0  0  0
  7 14  1  0  0  0  0
  7  8  1  0  0  0  0
  7 19  1  0  0  0  0
  8  9  1  0  0  0  0
  9 10  1  0  0  0  0
  9 12  1  0  0  0  0
  9 20  1  0  0  0  0
 10 11  1  0  0  0  0
 10 21  1  0  0  0  0
 10 22  1  0  0  0  0
 11 23  1  0  0  0  0
 12 13  1  0  0  0  0
 12 14  1  0  0  0  0
 12 24  1  0  0  0  0
 13 25  1  0  0  0  0
 14 15  1  0  0  0  0
 14 26  1  0  0  0  0
 15 27  1  0  0  0  0
 16 17  2  0  0  0  0
 16 28  1  0  0  0  0
 17 18  1  0  0  0  0
M  CHG  1   3  -1
M  END
> <s_m_source_file>
AV-unprocessed.smi

> <i_m_source_file_index>
35

> <i_lp_mmshare_version>
43012

> <i_f3d_flags>
0

> <s_epik_input>
Tz1jMVtuSF1jKD1PKW4oW2NIXWMxQnIpW0NAQEhdMk9bQ0BASF0oW0NIMl1bT0hdKVtDQEBIXShbT0hdKVtDQEhdMltPSF0=

> <s_epik_cmdline>
J2VwaWtfcHl0aG9uJywgJy1waCcsICc3LjAnLCAnLXRuJywgJzgnLCAnLW1hJywgJzIwMCcsICctbWV0YWxfYmluZGluZycsICctaW1hZScsICc8aW5maWxlLm1hZT4nLCAnLW9tYWUnLCAnPG91dGZpbGUubWFlPic=

> <r_epik_Ionization_Penalty>
1.06112

> <r_epik_Ionization_Penalty_Charging>
2.1796e-09

> <r_epik_Ionization_Penalty_Neutral>
1.06112

> <r_epik_State_Penalty>
1.11484

> <r_epik_Charging_Adjusted_Penalty>
1.11484

> <i_epik_Tot_Q>
-1

> <i_epik_Tot_abs_Q>
1

> <r_epik_Metal_State_Penalty>
0.0032876

> <b_epik_Metal_Only>
0

> <s_epik_Chemistry_Notes>
This compound contains an acetal/aminal-like group ( X-CH(R)-Y where X, Y are N, S, or O) that may be acid/base labile, releasing an aldehyde.

> <s_lp_Force_Field>
OPLS_2005

> <r_lp_Energy>
41.5323

> <b_lp_Chiralities_Consistent>
1

> <s_lp_Variant>
AV-unprocessed.smi:35-19

> <Gold.Version>
5.8.1

> <Gold.Id.Protein>
6NUR|6NUR_protein|mol2

> <Gold.PLP.Fitness>
37.6631

> <Gold.PLP.PLP>
-20.9622

> <Gold.PLP.part.hbond>
-7.4079

> <Gold.PLP.part.metal>
0.0000

> <Gold.PLP.part.buried>
-1.0310

> <Gold.PLP.part.nonpolar>
-13.0017

> <Gold.PLP.part.repulsive>
0.0979

> <Gold.PLP.ligand.clash>
0.0000

> <Gold.PLP.ligand.torsion>
0.6586

> <Gold.PLP.Chemscore.Hbond>
6.0023

> <Gold.PLP.Chemscore.CHOScore>
0.0000

> <Gold.PLP.Chemscore.Metal>
0.0000

> <Gold.Chemscore.Hbonds>
donor molecule, donor type, donor heavy atom, donor atom, acceptor molecule, acceptor atom, score
      L1  H    13    25       P1  7957  0.99
      L1  H    15    27       P1  7957  0.60
      P1  H  6896  6908       L1     3  1.82
      P1  H  6931  6943       L1     1  0.96
      P1  H  6934  6947       L1     1  0.08
      P1  H  7989  7998       L1    13  0.50
      P1  H  7997  8010       L1    11  0.90
      P1  H  8011  8017       L1    13  0.02

> <Gold.PLP.Chemscore.Internal.Correction>
0.0110

> <Gold.Rescore>
     Score         DG    S(hbond)    S(metal)    S(lipo)     H(rot)  DE(clash)    DE(int)     intcor
     10.52     -14.89       4.40        0.00      34.18       3.63       2.02       2.35       ----

> <Gold.Chemscore.Fitness>
10.5189

> <Gold.Chemscore.DG>
-14.8884

> <Gold.Chemscore.ZeroCoef>
-5.4800

> <Gold.Chemscore.Hbond>
4.3988

> <Gold.Chemscore.Metal>
0.0000

> <Gold.Chemscore.Lipo>
34.1794

> <Gold.Chemscore.Internal_Hbond>
0.0000

> <Gold.Chemscore.DEClash>
2.0197

> <Gold.Chemscore.DEInternal>
2.3497

> <Gold.Chemscore.Rot>
3.6261

> <Gold.Chemscore.Internal.Correction>
   9.000000E+99

> <Gold.Chemscore.Hbonds>
donor molecule, donor type, donor heavy atom, donor atom, acceptor molecule, acceptor atom, score
      L1  H    13    25       P1  7957  0.94
      L1  H    15    27       P1  7957  0.56
      P1  H  6896  6908       L1     3  0.31
      P1  H  6931  6943       L1     1  0.76
      P1  H  6934  6947       L1     1  0.02
      P1  H  7989  7998       L1    13  0.06
      P1  H  7997  8010       L1    11  0.17

> <Gold.Chemscore.Hbond.Weighted>
-14.6922

> <Gold.Chemscore.Metal.Weighted>
-0.0000

> <Gold.Chemscore.Lipo.Weighted>
-3.9990

> <Gold.Chemscore.Internal_Hbond.Weighted>
0.0000

> <Gold.Chemscore.DEClash.Weighted>
2.0197

> <Gold.Chemscore.DEInternal.Weighted>
2.3497

> <Gold.Chemscore.Rot.Weighted>
9.2828

> <Gold.Chemscore.Internal.Correction.Weighted>
   9.000000E+99

> <Gold.Protein.RotatedTorsions>
[ 6907 6896 6895 6894 ] final -179.15 input  -60.11 | X-H torsion
[ 7974 7965 7964 7962 ] final -136.69 input  175.53 | X-H torsion
[ 8008 7997 7996 7995 ] final   55.53 input   59.86 | X-H torsion
[ 10167 10162 10161 10158 ] final  138.30 input  -65.29 | X-H torsion
[ 10718 10713 10712 10709 ] final   -4.00 input   66.30 | X-H torsion
[ 10763 10752 10751 10750 ] final  164.30 input  -60.55 | X-H torsion
[ 11005 11000 10999 10996 ] final  -37.65 input  -57.11 | X-H torsion

> <Gold.Protein.ActiveResidues>
 VAL166  LYS551  ARG553  GLY616  TRP617  ASP618  TYR619  PRO620  LYS621  CYS622 
 ASP623  PHE694  ASN695  SER759  ASP760  ASP761  ALA762  ILE779  LEU786  VAL792 
 PHE793  MET794  SER795  GLU796  ALA797  LYS798  CYS799  TRP800  GLU811  SER814 

> <Gold.Protein.RotatedAtoms>
  151.6488  133.3322  159.3146 H   0  0  0  0  0  0  0  0  0  0  0  0  # atno 6907 bound_to 6896
  150.7971  134.7042  159.6576 H   0  0  0  0  0  0  0  0  0  0  0  0  # atno 6908 bound_to 6896
  152.4059  134.6212  160.0102 H   0  0  0  0  0  0  0  0  0  0  0  0  # atno 6909 bound_to 6896
  144.8905  140.6636  143.5148 H   0  0  0  0  0  0  0  0  0  0  0  0  # atno 7974 bound_to 7965
  155.5027  140.3475  155.4374 H   0  0  0  0  0  0  0  0  0  0  0  0  # atno 8008 bound_to 7997
  156.0903  140.1409  156.9628 H   0  0  0  0  0  0  0  0  0  0  0  0  # atno 8009 bound_to 7997
  154.4631  140.0927  156.6924 H   0  0  0  0  0  0  0  0  0  0  0  0  # atno 8010 bound_to 7997
  139.5115  144.6361  151.5693 H   0  0  0  0  0  0  0  0  0  0  0  0  # atno 10167 bound_to 10162
  156.7678  130.5290  149.5773 H   0  0  0  0  0  0  0  0  0  0  0  0  # atno 10718 bound_to 10713
  154.3068  135.2758  155.2585 H   0  0  0  0  0  0  0  0  0  0  0  0  # atno 10763 bound_to 10752
  154.4997  135.5811  153.6525 H   0  0  0  0  0  0  0  0  0  0  0  0  # atno 10764 bound_to 10752
  152.9893  135.6155  154.3243 H   0  0  0  0  0  0  0  0  0  0  0  0  # atno 10765 bound_to 10752
  140.9968  133.6976  156.1949 H   0  0  0  0  0  0  0  0  0  0  0  0  # atno 11005 bound_to 11000
  145.3791  139.1641  143.4290 LP  0  0  0  0  0  0  0  0  0  0  0  0  # atno 17320 bound_to 7965
  146.3051  140.3870  142.8690 LP  0  0  0  0  0  0  0  0  0  0  0  0  # atno 17321 bound_to 7965
  140.6110  143.9435  150.6453 LP  0  0  0  0  0  0  0  0  0  0  0  0  # atno 17342 bound_to 10162
  140.2678  143.3478  152.1265 LP  0  0  0  0  0  0  0  0  0  0  0  0  # atno 17343 bound_to 10162
  156.1297  130.6169  151.0316 LP  0  0  0  0  0  0  0  0  0  0  0  0  # atno 17370 bound_to 10713
  157.6705  131.0862  150.7624 LP  0  0  0  0  0  0  0  0  0  0  0  0  # atno 17371 bound_to 10713
  140.6953  134.4622  157.5588 LP  0  0  0  0  0  0  0  0  0  0  0  0  # atno 17394 bound_to 11000
  139.9019  134.8537  156.1862 LP  0  0  0  0  0  0  0  0  0  0  0  0  # atno 17395 bound_to 11000

$$$$
