AV-unprocessed.smi:671|AV-procd|sdf|3287|dock6
  -GOLD-   22720 0243D 1   1.00000     0.00000
 Structure written by MMmdl.
 50 51  0  0  0  0  0  0  0  0  2 V2000
  147.2947  141.7926  154.0912 C   0  0  0  0  0  0  0  0  0  0  0  0
  148.5580  141.4455  154.8051 C   0  0  0  0  0  0  0  0  0  0  0  0
  149.2090  142.2722  155.6664 N   0  3  0  0  0  0  0  0  0  0  0  0
  150.3077  141.6703  156.1439 N   0  0  0  0  0  0  0  0  0  0  0  0
  151.1566  142.3914  157.0926 C   0  0  0  0  0  0  0  0  0  0  0  0
  150.4308  140.4208  155.6124 C   0  0  0  0  0  0  0  0  0  0  0  0
  151.5449  139.4775  155.9325 C   0  0  0  0  0  0  0  0  0  0  0  0
  149.3222  140.2739  154.7672 C   0  0  0  0  0  0  0  0  0  0  0  0
  148.9841  139.0659  153.9399 C   0  0  0  0  0  0  0  0  0  0  0  0
  147.5587  138.5328  154.2038 C   0  0  2  0  0  0  0  0  0  0  0  0
  147.2625  138.3550  155.7010 C   0  0  0  0  0  0  0  0  0  0  0  0
  147.3700  137.2467  153.5286 N   0  0  0  0  0  0  0  0  0  0  0  0
  146.2366  136.5317  153.4030 C   0  0  0  0  0  0  0  0  0  0  0  0
  145.1706  136.9184  153.8771 O   0  0  0  0  0  0  0  0  0  0  0  0
  146.3734  135.3799  152.7241 N   0  0  0  0  0  0  0  0  0  0  0  0
  145.3106  134.4134  152.4655 C   0  0  1  0  0  0  0  0  0  0  0  0
  144.2724  135.0046  151.4921 C   0  0  0  0  0  0  0  0  0  0  0  0
  144.3867  134.1969  150.1986 C   0  0  0  0  0  0  0  0  0  0  0  0
  144.8802  132.8281  150.6544 C   0  0  0  0  0  0  0  0  0  0  0  0
  145.8644  133.1413  151.7853 C   0  0  2  0  0  0  0  0  0  0  0  0
  146.0804  131.9655  152.7483 C   0  0  0  0  0  0  0  0  0  0  0  0
  146.5020  141.0982  154.3702 H   0  0  0  0  0  0  0  0  0  0  0  0
  147.4434  141.7336  153.0128 H   0  0  0  0  0  0  0  0  0  0  0  0
  146.9737  142.8040  154.3428 H   0  0  0  0  0  0  0  0  0  0  0  0
  151.5381  141.6929  157.8378 H   0  0  0  0  0  0  0  0  0  0  0  0
  150.5803  143.1706  157.5932 H   0  0  0  0  0  0  0  0  0  0  0  0
  151.9905  142.8409  156.5529 H   0  0  0  0  0  0  0  0  0  0  0  0
  151.5516  138.6300  155.2482 H   0  0  0  0  0  0  0  0  0  0  0  0
  151.4332  139.0993  156.9487 H   0  0  0  0  0  0  0  0  0  0  0  0
  152.5052  139.9876  155.8549 H   0  0  0  0  0  0  0  0  0  0  0  0
  149.0865  139.3272  152.8862 H   0  0  0  0  0  0  0  0  0  0  0  0
  149.7109  138.2695  154.1000 H   0  0  0  0  0  0  0  0  0  0  0  0
  146.8300  139.2454  153.8137 H   0  0  0  0  0  0  0  0  0  0  0  0
  147.3147  139.3048  156.2326 H   0  0  0  0  0  0  0  0  0  0  0  0
  147.9714  137.6709  156.1689 H   0  0  0  0  0  0  0  0  0  0  0  0
  146.2607  137.9530  155.8567 H   0  0  0  0  0  0  0  0  0  0  0  0
  148.1905  136.8635  153.0813 H   0  0  0  0  0  0  0  0  0  0  0  0
  147.2887  135.1506  152.3663 H   0  0  0  0  0  0  0  0  0  0  0  0
  144.7978  134.1597  153.3958 H   0  0  0  0  0  0  0  0  0  0  0  0
  143.2740  134.8730  151.9114 H   0  0  0  0  0  0  0  0  0  0  0  0
  144.4036  136.0730  151.3142 H   0  0  0  0  0  0  0  0  0  0  0  0
  143.4443  134.1443  149.6527 H   0  0  0  0  0  0  0  0  0  0  0  0
  145.1269  134.6533  149.5411 H   0  0  0  0  0  0  0  0  0  0  0  0
  144.0389  132.2478  151.0364 H   0  0  0  0  0  0  0  0  0  0  0  0
  145.3383  132.2575  149.8460 H   0  0  0  0  0  0  0  0  0  0  0  0
  146.8220  133.3792  151.3175 H   0  0  0  0  0  0  0  0  0  0  0  0
  145.1498  131.6773  153.2383 H   0  0  0  0  0  0  0  0  0  0  0  0
  146.7998  132.2241  153.5257 H   0  0  0  0  0  0  0  0  0  0  0  0
  146.4633  131.0924  152.2200 H   0  0  0  0  0  0  0  0  0  0  0  0
  148.9605  143.2111  155.9515 H   0  0  0  0  0  0  0  0  0  0  0  0
  1  2  1  0  0  0  0
  1 22  1  0  0  0  0
  1 23  1  0  0  0  0
  1 24  1  0  0  0  0
  2  8  1  0  0  0  0
  2  3  2  0  0  0  0
  3  4  1  0  0  0  0
  3 50  1  0  0  0  0
  4  5  1  0  0  0  0
  4  6  1  0  0  0  0
  5 25  1  0  0  0  0
  5 26  1  0  0  0  0
  5 27  1  0  0  0  0
  6  7  1  0  0  0  0
  6  8  2  0  0  0  0
  7 28  1  0  0  0  0
  7 29  1  0  0  0  0
  7 30  1  0  0  0  0
  8  9  1  0  0  0  0
  9 10  1  0  0  0  0
  9 31  1  0  0  0  0
  9 32  1  0  0  0  0
 10 11  1  0  0  0  0
 10 12  1  0  0  0  0
 10 33  1  0  0  0  0
 11 34  1  0  0  0  0
 11 35  1  0  0  0  0
 11 36  1  0  0  0  0
 12 13  1  0  0  0  0
 12 37  1  0  0  0  0
 13 14  2  0  0  0  0
 13 15  1  0  0  0  0
 15 16  1  0  0  0  0
 15 38  1  0  0  0  0
 16 20  1  0  0  0  0
 16 17  1  0  0  0  0
 16 39  1  0  0  0  0
 17 18  1  0  0  0  0
 17 40  1  0  0  0  0
 17 41  1  0  0  0  0
 18 19  1  0  0  0  0
 18 42  1  0  0  0  0
 18 43  1  0  0  0  0
 19 20  1  0  0  0  0
 19 44  1  0  0  0  0
 19 45  1  0  0  0  0
 20 21  1  0  0  0  0
 20 46  1  0  0  0  0
 21 47  1  0  0  0  0
 21 48  1  0  0  0  0
 21 49  1  0  0  0  0
M  CHG  1   3   1
M  END
> <s_m_source_file>
AV-unprocessed.smi

> <i_m_source_file_index>
671

> <i_lp_mmshare_version>
43012

> <i_f3d_flags>
0

> <s_epik_input>
W0NIM11jMW5uKFtDSDNdKWMoW0NIM10pYzFbQ0gyXVtDQEhdKFtDSDNdKVtOSF1DKD1PKVtOSF1bQ0BASF0yW0NIMl1bQ0gyXVtDSDJdW0NASF0yW0NIM10=

> <s_epik_cmdline>
J2VwaWtfcHl0aG9uJywgJy1waCcsICc3LjAnLCAnLXRuJywgJzgnLCAnLW1hJywgJzIwMCcsICctbWV0YWxfYmluZGluZycsICctaW1hZScsICc8aW5maWxlLm1hZT4nLCAnLW9tYWUnLCAnPG91dGZpbGUubWFlPic=

> <r_lp_tautomer_probability>
1

> <r_epik_Ionization_Penalty>
2.28705

> <r_epik_Ionization_Penalty_Charging>
2.28698

> <r_epik_Ionization_Penalty_Neutral>
6.23157e-05

> <r_epik_State_Penalty>
2.43671

> <r_epik_Charging_Adjusted_Penalty>
4.72369

> <i_epik_Tot_Q>
1

> <i_epik_Tot_abs_Q>
1

> <r_epik_Metal_State_Penalty>
2.44911

> <b_epik_Metal_Only>
0

> <s_lp_Force_Field>
OPLS_2005

> <r_lp_Energy>
34.681

> <b_lp_Chiralities_Consistent>
1

> <s_lp_Variant>
AV-unprocessed.smi:671-15

> <Gold.Version>
5.8.1

> <Gold.Id.Protein>
6NUR|6NUR_protein|mol2

> <Gold.PLP.Fitness>
46.5058

> <Gold.PLP.PLP>
-35.6523

> <Gold.PLP.part.hbond>
-2.6733

> <Gold.PLP.part.metal>
0.0000

> <Gold.PLP.part.buried>
-3.5783

> <Gold.PLP.part.nonpolar>
-30.0774

> <Gold.PLP.part.repulsive>
0.2608

> <Gold.PLP.ligand.clash>
0.0000

> <Gold.PLP.ligand.torsion>
0.1592

> <Gold.PLP.Chemscore.Hbond>
3.7200

> <Gold.PLP.Chemscore.CHOScore>
0.0000

> <Gold.PLP.Chemscore.Metal>
0.0000

> <Gold.Chemscore.Hbonds>
donor molecule, donor type, donor heavy atom, donor atom, acceptor molecule, acceptor atom, score
      L1  H     3    50       P1  8028  2.00
      L1  H    12    37       P1  7948  1.00
      L1  H    15    38       P1  7948  0.72

> <Gold.PLP.Chemscore.Internal.Correction>
0.0119

> <Gold.Rescore>
     Score         DG    S(hbond)    S(metal)    S(lipo)     H(rot)  DE(clash)    DE(int)     intcor
     19.93     -20.28       2.59        0.00      85.47       1.51       0.24       0.11       ----

> <Gold.Chemscore.Fitness>
19.9266

> <Gold.Chemscore.DG>
-20.2791

> <Gold.Chemscore.ZeroCoef>
-5.4800

> <Gold.Chemscore.Hbond>
2.5910

> <Gold.Chemscore.Metal>
0.0000

> <Gold.Chemscore.Lipo>
85.4687

> <Gold.Chemscore.Internal_Hbond>
0.0000

> <Gold.Chemscore.DEClash>
0.2416

> <Gold.Chemscore.DEInternal>
0.1110

> <Gold.Chemscore.Rot>
1.5057

> <Gold.Chemscore.Internal.Correction>
   9.000000E+99

> <Gold.Chemscore.Hbonds>
donor molecule, donor type, donor heavy atom, donor atom, acceptor molecule, acceptor atom, score
      L1  H     3    50       P1  8028  0.88
      L1  H    12    37       P1  7948  0.94
      L1  H    15    38       P1  7948  0.68

> <Gold.Chemscore.Hbond.Weighted>
-8.6540

> <Gold.Chemscore.Metal.Weighted>
-0.0000

> <Gold.Chemscore.Lipo.Weighted>
-9.9998

> <Gold.Chemscore.Internal_Hbond.Weighted>
0.0000

> <Gold.Chemscore.DEClash.Weighted>
0.2416

> <Gold.Chemscore.DEInternal.Weighted>
0.1110

> <Gold.Chemscore.Rot.Weighted>
3.8547

> <Gold.Chemscore.Internal.Correction.Weighted>
   9.000000E+99

> <Gold.Protein.RotatedTorsions>
[ 6907 6896 6895 6894 ] final  -12.87 input  -60.11 | X-H torsion
[ 7974 7965 7964 7962 ] final   78.61 input  175.53 | X-H torsion
[ 8008 7997 7996 7995 ] final -162.24 input   59.86 | X-H torsion
[ 10167 10162 10161 10158 ] final  162.74 input  -65.29 | X-H torsion
[ 10718 10713 10712 10709 ] final  -11.03 input   66.30 | X-H torsion
[ 10763 10752 10751 10750 ] final  -10.11 input  -60.55 | X-H torsion
[ 11005 11000 10999 10996 ] final    7.12 input  -57.11 | X-H torsion

> <Gold.Protein.ActiveResidues>
 VAL166  LYS551  ARG553  GLY616  TRP617  ASP618  TYR619  PRO620  LYS621  CYS622 
 ASP623  PHE694  ASN695  SER759  ASP760  ASP761  ALA762  ILE779  LEU786  VAL792 
 PHE793  MET794  SER795  GLU796  ALA797  LYS798  CYS799  TRP800  GLU811  SER814 

> <Gold.Protein.RotatedAtoms>
  151.3638  135.0909  159.9442 H   0  0  0  0  0  0  0  0  0  0  0  0  # atno 6907 bound_to 6896
  152.5154  133.9232  159.7555 H   0  0  0  0  0  0  0  0  0  0  0  0  # atno 6908 bound_to 6896
  150.9632  133.6369  159.2780 H   0  0  0  0  0  0  0  0  0  0  0  0  # atno 6909 bound_to 6896
  145.6749  139.2507  143.1847 H   0  0  0  0  0  0  0  0  0  0  0  0  # atno 7974 bound_to 7965
  155.8039  140.0896  157.1942 H   0  0  0  0  0  0  0  0  0  0  0  0  # atno 8008 bound_to 7997
  154.3981  140.1467  156.3366 H   0  0  0  0  0  0  0  0  0  0  0  0  # atno 8009 bound_to 7997
  155.8434  140.3438  155.5649 H   0  0  0  0  0  0  0  0  0  0  0  0  # atno 8010 bound_to 7997
  139.4864  144.4408  151.8955 H   0  0  0  0  0  0  0  0  0  0  0  0  # atno 10167 bound_to 10162
  156.6650  130.4993  149.6018 H   0  0  0  0  0  0  0  0  0  0  0  0  # atno 10718 bound_to 10713
  153.4645  135.7016  153.6030 H   0  0  0  0  0  0  0  0  0  0  0  0  # atno 10763 bound_to 10752
  153.4311  135.3802  155.2171 H   0  0  0  0  0  0  0  0  0  0  0  0  # atno 10764 bound_to 10752
  154.8726  135.3951  154.4074 H   0  0  0  0  0  0  0  0  0  0  0  0  # atno 10765 bound_to 10752
  140.5518  134.0275  155.7940 H   0  0  0  0  0  0  0  0  0  0  0  0  # atno 11005 bound_to 11000
  146.1014  140.7539  142.9547 LP  0  0  0  0  0  0  0  0  0  0  0  0  # atno 17320 bound_to 7965
  144.7045  140.3793  143.7129 LP  0  0  0  0  0  0  0  0  0  0  0  0  # atno 17321 bound_to 7965
  140.3859  144.2677  150.5904 LP  0  0  0  0  0  0  0  0  0  0  0  0  # atno 17342 bound_to 10162
  140.5190  143.2270  151.8418 LP  0  0  0  0  0  0  0  0  0  0  0  0  # atno 17343 bound_to 10162
  156.1982  130.6603  151.1138 LP  0  0  0  0  0  0  0  0  0  0  0  0  # atno 17370 bound_to 10713
  157.7097  131.0740  150.6545 LP  0  0  0  0  0  0  0  0  0  0  0  0  # atno 17371 bound_to 10713
  141.1167  133.9529  157.2809 LP  0  0  0  0  0  0  0  0  0  0  0  0  # atno 17394 bound_to 11000
  139.9451  135.0185  156.8828 LP  0  0  0  0  0  0  0  0  0  0  0  0  # atno 17395 bound_to 11000

$$$$
