AV-unprocessed.smi:1285|AV-procd|sdf|5374|dock10
  -GOLD-   22720 4523D 1   1.00000     0.00000
 Structure written by MMmdl.
 47 48  0  0  0  0  0  0  0  0  2 V2000
  145.9252  132.9542  151.6968 C   0  0  0  0  0  0  0  0  0  0  0  0
  147.3552  133.3541  152.1012 C   0  0  0  0  0  0  0  0  0  0  0  0
  147.9326  132.6256  153.3547 C   0  0  2  0  0  0  0  0  0  0  0  0
  146.8585  132.7160  154.4716 C   0  0  0  0  0  0  0  0  0  0  0  0
  149.2259  133.3520  153.8421 C   0  0  0  0  0  0  0  0  0  0  0  0
  148.9532  134.6362  154.4846 N   0  0  0  0  0  0  0  0  0  0  0  0
  149.8661  135.4418  155.0513 C   0  0  0  0  0  0  0  0  0  0  0  0
  151.0529  135.1353  155.1703 O   0  0  0  0  0  0  0  0  0  0  0  0
  149.3536  136.8133  155.5201 C   0  0  1  0  0  0  0  0  0  0  0  0
  148.7124  136.7736  156.9221 C   0  0  0  0  0  0  0  0  0  0  0  0
  150.4261  137.7983  155.4399 N   0  0  0  0  0  0  0  0  0  0  0  0
  150.5631  138.8546  154.6354 C   0  0  0  0  0  0  0  0  0  0  0  0
  151.7042  139.5095  154.7958 N   0  0  0  0  0  0  0  0  0  0  0  0
  152.2667  138.7498  155.7820 C   0  0  0  0  0  0  0  0  0  0  0  0
  151.5488  137.7061  156.1960 N   0  0  0  0  0  0  0  0  0  0  0  0
  148.2245  131.1832  153.0221 N   0  3  0  0  0  0  0  0  0  0  0  0
  149.0685  130.4463  154.0057 C   0  0  0  0  0  0  0  0  0  0  0  0
  149.4683  129.0715  153.4472 C   0  0  0  0  0  0  0  0  0  0  0  0
  148.2971  128.3257  153.1471 O   0  0  0  0  0  0  0  0  0  0  0  0
  147.5090  128.9627  152.1514 C   0  0  0  0  0  0  0  0  0  0  0  0
  147.0500  130.3443  152.6497 C   0  0  0  0  0  0  0  0  0  0  0  0
  145.6110  133.5148  150.8163 H   0  0  0  0  0  0  0  0  0  0  0  0
  145.2057  133.1673  152.4868 H   0  0  0  0  0  0  0  0  0  0  0  0
  145.8509  131.8956  151.4490 H   0  0  0  0  0  0  0  0  0  0  0  0
  148.0161  133.2216  151.2450 H   0  0  0  0  0  0  0  0  0  0  0  0
  147.3493  134.4306  152.2729 H   0  0  0  0  0  0  0  0  0  0  0  0
  146.4660  133.7287  154.5738 H   0  0  0  0  0  0  0  0  0  0  0  0
  147.2590  132.4453  155.4487 H   0  0  0  0  0  0  0  0  0  0  0  0
  146.0088  132.0630  154.2716 H   0  0  0  0  0  0  0  0  0  0  0  0
  149.7498  132.7444  154.5794 H   0  0  0  0  0  0  0  0  0  0  0  0
  149.9299  133.4960  153.0222 H   0  0  0  0  0  0  0  0  0  0  0  0
  148.0007  134.9683  154.4400 H   0  0  0  0  0  0  0  0  0  0  0  0
  148.5784  137.1230  154.8172 H   0  0  0  0  0  0  0  0  0  0  0  0
  147.8721  136.0792  156.9516 H   0  0  0  0  0  0  0  0  0  0  0  0
  148.3317  137.7565  157.2014 H   0  0  0  0  0  0  0  0  0  0  0  0
  149.4238  136.4655  157.6894 H   0  0  0  0  0  0  0  0  0  0  0  0
  149.8173  139.1443  153.9098 H   0  0  0  0  0  0  0  0  0  0  0  0
  153.2381  138.9672  156.2010 H   0  0  0  0  0  0  0  0  0  0  0  0
  149.9797  130.9915  154.2429 H   0  0  0  0  0  0  0  0  0  0  0  0
  148.5264  130.3041  154.9405 H   0  0  0  0  0  0  0  0  0  0  0  0
  150.0908  129.1761  152.5570 H   0  0  0  0  0  0  0  0  0  0  0  0
  150.0555  128.5233  154.1841 H   0  0  0  0  0  0  0  0  0  0  0  0
  148.0764  129.0518  151.2236 H   0  0  0  0  0  0  0  0  0  0  0  0
  146.6435  128.3361  151.9351 H   0  0  0  0  0  0  0  0  0  0  0  0
  146.3876  130.2205  153.5068 H   0  0  0  0  0  0  0  0  0  0  0  0
  146.4650  130.8015  151.8539 H   0  0  0  0  0  0  0  0  0  0  0  0
  148.7834  131.2319  152.1820 H   0  0  0  0  0  0  0  0  0  0  0  0
  1  2  1  0  0  0  0
  1 22  1  0  0  0  0
  1 23  1  0  0  0  0
  1 24  1  0  0  0  0
  2  3  1  0  0  0  0
  2 25  1  0  0  0  0
  2 26  1  0  0  0  0
  3  4  1  0  0  0  0
  3  5  1  0  0  0  0
  3 16  1  0  0  0  0
  4 27  1  0  0  0  0
  4 28  1  0  0  0  0
  4 29  1  0  0  0  0
  5  6  1  0  0  0  0
  5 30  1  0  0  0  0
  5 31  1  0  0  0  0
  6  7  1  0  0  0  0
  6 32  1  0  0  0  0
  7  8  2  0  0  0  0
  7  9  1  0  0  0  0
  9 10  1  0  0  0  0
  9 11  1  0  0  0  0
  9 33  1  0  0  0  0
 10 34  1  0  0  0  0
 10 35  1  0  0  0  0
 10 36  1  0  0  0  0
 11 15  1  0  0  0  0
 11 12  1  0  0  0  0
 12 13  2  0  0  0  0
 12 37  1  0  0  0  0
 13 14  1  0  0  0  0
 14 15  2  0  0  0  0
 14 38  1  0  0  0  0
 16 21  1  0  0  0  0
 16 17  1  0  0  0  0
 16 47  1  0  0  0  0
 17 18  1  0  0  0  0
 17 39  1  0  0  0  0
 17 40  1  0  0  0  0
 18 19  1  0  0  0  0
 18 41  1  0  0  0  0
 18 42  1  0  0  0  0
 19 20  1  0  0  0  0
 20 21  1  0  0  0  0
 20 43  1  0  0  0  0
 20 44  1  0  0  0  0
 21 45  1  0  0  0  0
 21 46  1  0  0  0  0
M  CHG  1  16   1
M  END
> <s_m_source_file>
AV-unprocessed.smi

> <i_m_source_file_index>
1285

> <i_lp_mmshare_version>
43012

> <i_f3d_flags>
0

> <s_epik_input>
W0NIMl0xW0NIMl1PW0NIMl1bQ0gyXU4xW0NAQF0oW0NIM10pKFtDSDJdW0NIM10pW0NIMl1bTkhdQyg9TylbQ0BIXShbQ0gzXSluMltjSF1uW2NIXW4y

> <s_epik_cmdline>
J2VwaWtfcHl0aG9uJywgJy1waCcsICc3LjAnLCAnLXRuJywgJzgnLCAnLW1hJywgJzIwMCcsICctbWV0YWxfYmluZGluZycsICctaW1hZScsICc8aW5maWxlLm1hZT4nLCAnLW9tYWUnLCAnPG91dGZpbGUubWFlPic=

> <r_lp_tautomer_probability>
1

> <r_epik_Ionization_Penalty>
0.569304

> <r_epik_Ionization_Penalty_Charging>
0.569295

> <r_epik_Ionization_Penalty_Neutral>
8.22697e-06

> <r_epik_State_Penalty>
0.581114

> <r_epik_Charging_Adjusted_Penalty>
1.15041

> <i_epik_Tot_Q>
1

> <i_epik_Tot_abs_Q>
1

> <r_epik_Metal_State_Penalty>
0.581117

> <b_epik_Metal_Only>
0

> <s_lp_Force_Field>
OPLS_2005

> <r_lp_Energy>
34.4039

> <b_lp_Chiralities_Consistent>
1

> <s_lp_Variant>
AV-unprocessed.smi:1285-8

> <Gold.Version>
5.8.1

> <Gold.Id.Protein>
6NUR|6NUR_protein|mol2

> <Gold.PLP.Fitness>
41.0914

> <Gold.PLP.PLP>
-31.4261

> <Gold.PLP.part.hbond>
-3.9166

> <Gold.PLP.part.metal>
0.0000

> <Gold.PLP.part.buried>
-0.4116

> <Gold.PLP.part.nonpolar>
-25.1996

> <Gold.PLP.part.repulsive>
0.3435

> <Gold.PLP.ligand.clash>
0.0857

> <Gold.PLP.ligand.torsion>
1.1861

> <Gold.PLP.Chemscore.Hbond>
2.9920

> <Gold.PLP.Chemscore.CHOScore>
0.9506

> <Gold.PLP.Chemscore.Metal>
0.0000

> <Gold.Chemscore.Hbonds>
donor molecule, donor type, donor heavy atom, donor atom, acceptor molecule, acceptor atom, score
      L1  H    16    47       P1 10747  1.00
      P1  H  7989  7998       L1    13  1.00
      P1  H 10752 10763       L1     8  0.93
      L1  C    12    37       P1  7957  0.09

> <Gold.PLP.Chemscore.Internal.Correction>
0.2954

> <Gold.Rescore>
     Score         DG    S(hbond)    S(metal)    S(lipo)     H(rot)  DE(clash)    DE(int)     intcor
      8.01     -11.58       1.99        0.00      55.84       2.76       0.47       3.10       ----

> <Gold.Chemscore.Fitness>
8.0108

> <Gold.Chemscore.DG>
-11.5824

> <Gold.Chemscore.ZeroCoef>
-5.4800

> <Gold.Chemscore.Hbond>
1.9857

> <Gold.Chemscore.Metal>
0.0000

> <Gold.Chemscore.Lipo>
55.8371

> <Gold.Chemscore.Internal_Hbond>
0.0000

> <Gold.Chemscore.DEClash>
0.4668

> <Gold.Chemscore.DEInternal>
3.1048

> <Gold.Chemscore.Rot>
2.7589

> <Gold.Chemscore.Internal.Correction>
   9.000000E+99

> <Gold.Chemscore.Hbonds>
donor molecule, donor type, donor heavy atom, donor atom, acceptor molecule, acceptor atom, score
      L1  H    16    47       P1 10747  0.80
      P1  H  7989  7998       L1    13  0.49
      P1  H 10752 10763       L1     8  0.88

> <Gold.Chemscore.Hbond.Weighted>
-6.6322

> <Gold.Chemscore.Metal.Weighted>
-0.0000

> <Gold.Chemscore.Lipo.Weighted>
-6.5329

> <Gold.Chemscore.Internal_Hbond.Weighted>
0.0000

> <Gold.Chemscore.DEClash.Weighted>
0.4668

> <Gold.Chemscore.DEInternal.Weighted>
3.1048

> <Gold.Chemscore.Rot.Weighted>
7.0627

> <Gold.Chemscore.Internal.Correction.Weighted>
   9.000000E+99

> <Gold.Protein.RotatedTorsions>
[ 6907 6896 6895 6894 ] final  106.04 input  -60.11 | X-H torsion
[ 7974 7965 7964 7962 ] final -130.38 input  175.53 | X-H torsion
[ 8008 7997 7996 7995 ] final  155.37 input   59.86 | X-H torsion
[ 10167 10162 10161 10158 ] final  -12.77 input  -65.29 | X-H torsion
[ 10718 10713 10712 10709 ] final  -35.82 input   66.30 | X-H torsion
[ 10763 10752 10751 10750 ] final   68.14 input  -60.55 | X-H torsion
[ 11005 11000 10999 10996 ] final   29.77 input  -57.11 | X-H torsion

> <Gold.Protein.ActiveResidues>
 VAL166  LYS551  ARG553  GLY616  TRP617  ASP618  TYR619  PRO620  LYS621  CYS622 
 ASP623  PHE694  ASN695  SER759  ASP760  ASP761  ALA762  ILE779  LEU786  VAL792 
 PHE793  MET794  SER795  GLU796  ALA797  LYS798  CYS799  TRP800  GLU811  SER814 

> <Gold.Protein.RotatedAtoms>
  152.5209  133.9440  159.7639 H   0  0  0  0  0  0  0  0  0  0  0  0  # atno 6907 bound_to 6896
  150.9764  133.6282  159.2736 H   0  0  0  0  0  0  0  0  0  0  0  0  # atno 6908 bound_to 6896
  151.3475  135.0883  159.9445 H   0  0  0  0  0  0  0  0  0  0  0  0  # atno 6909 bound_to 6896
  144.9480  140.7313  143.4805 H   0  0  0  0  0  0  0  0  0  0  0  0  # atno 7974 bound_to 7965
  156.2482  140.1941  156.6790 H   0  0  0  0  0  0  0  0  0  0  0  0  # atno 8008 bound_to 7997
  154.6336  140.0592  156.9787 H   0  0  0  0  0  0  0  0  0  0  0  0  # atno 8009 bound_to 7997
  155.1672  140.3265  155.4402 H   0  0  0  0  0  0  0  0  0  0  0  0  # atno 8010 bound_to 7997
  140.7168  143.5497  150.9315 H   0  0  0  0  0  0  0  0  0  0  0  0  # atno 10167 bound_to 10162
  156.3341  130.4283  149.7846 H   0  0  0  0  0  0  0  0  0  0  0  0  # atno 10718 bound_to 10713
  153.0220  135.5258  154.7088 H   0  0  0  0  0  0  0  0  0  0  0  0  # atno 10763 bound_to 10752
  154.6176  135.2885  155.0364 H   0  0  0  0  0  0  0  0  0  0  0  0  # atno 10764 bound_to 10752
  154.1363  135.6585  153.4985 H   0  0  0  0  0  0  0  0  0  0  0  0  # atno 10765 bound_to 10752
  140.3015  134.2751  155.7753 H   0  0  0  0  0  0  0  0  0  0  0  0  # atno 11005 bound_to 11000
  145.2888  139.1891  143.4751 LP  0  0  0  0  0  0  0  0  0  0  0  0  # atno 17320 bound_to 7965
  146.3311  140.2861  142.8613 LP  0  0  0  0  0  0  0  0  0  0  0  0  # atno 17321 bound_to 7965
  139.9221  143.6593  152.3094 LP  0  0  0  0  0  0  0  0  0  0  0  0  # atno 17342 bound_to 10162
  139.7014  144.7634  151.1267 LP  0  0  0  0  0  0  0  0  0  0  0  0  # atno 17343 bound_to 10162
  156.5107  130.8171  151.3168 LP  0  0  0  0  0  0  0  0  0  0  0  0  # atno 17370 bound_to 10713
  157.7435  130.9915  150.2602 LP  0  0  0  0  0  0  0  0  0  0  0  0  # atno 17371 bound_to 10713
  141.2127  133.7649  156.9773 LP  0  0  0  0  0  0  0  0  0  0  0  0  # atno 17394 bound_to 11000
  140.1105  134.9480  157.2058 LP  0  0  0  0  0  0  0  0  0  0  0  0  # atno 17395 bound_to 11000

$$$$
