AV-unprocessed.smi:1762|AV-procd|sdf|7103|dock5
  -GOLD-   22720 8323D 1   1.00000     0.00000
 Structure written by MMmdl.
 52 53  0  0  0  0  0  0  0  0  1 V2000
  152.1418  139.4649  156.6031 C   0  0  0  0  0  0  0  0  0  0  0  0
  151.8479  139.3145  155.0999 C   0  0  1  0  0  0  0  0  0  0  0  0
  151.5248  137.8662  154.6814 C   0  0  0  0  0  0  0  0  0  0  0  0
  150.1933  137.4176  155.1079 N   0  0  0  0  0  0  0  0  0  0  0  0
  149.9024  136.0073  154.7235 C   0  0  2  0  0  0  0  0  0  0  0  0
  148.4288  135.6001  154.9646 C   0  0  0  0  0  0  0  0  0  0  0  0
  147.9560  135.6153  156.1018 O   0  0  0  0  0  0  0  0  0  0  0  0
  147.7117  135.2621  153.8812 N   0  0  0  0  0  0  0  0  0  0  0  0
  146.3030  134.8805  153.8950 C   0  0  0  0  0  0  0  0  0  0  0  0
  145.5491  135.3228  152.6252 C   0  0  0  0  0  0  0  0  0  0  0  0
  145.1971  134.1741  151.6940 C   0  0  0  0  0  0  0  0  0  0  0  0
  146.2059  133.5089  150.9652 C   0  0  0  0  0  0  0  0  0  0  0  0
  145.8305  132.4624  150.1005 C   0  0  0  0  0  0  0  0  0  0  0  0
  144.4677  132.1231  149.9971 C   0  0  0  0  0  0  0  0  0  0  0  0
  143.5371  132.8488  150.7663 C   0  0  0  0  0  0  0  0  0  0  0  0
  143.8870  133.8536  151.5976 N   0  0  0  0  0  0  0  0  0  0  0  0
  150.8759  134.9431  155.3338 C   0  0  0  0  0  0  0  0  0  0  0  0
  150.5820  133.5011  154.8725 C   0  0  0  0  0  0  0  0  0  0  0  0
  150.9811  135.0043  156.8705 C   0  0  0  0  0  0  0  0  0  0  0  0
  149.1999  138.3923  154.6290 C   0  0  0  0  0  0  0  0  0  0  0  0
  149.5042  139.8311  155.0829 C   0  0  2  0  0  0  0  0  0  0  0  0
  148.5210  140.8444  154.4860 C   0  0  0  0  0  0  0  0  0  0  0  0
  150.8159  140.1984  154.6691 O   0  0  0  0  0  0  0  0  0  0  0  0
  153.0128  138.8750  156.8893 H   0  0  0  0  0  0  0  0  0  0  0  0
  151.3083  139.1306  157.2207 H   0  0  0  0  0  0  0  0  0  0  0  0
  152.3508  140.5044  156.8563 H   0  0  0  0  0  0  0  0  0  0  0  0
  152.7500  139.6216  154.5701 H   0  0  0  0  0  0  0  0  0  0  0  0
  151.6055  137.7848  153.5962 H   0  0  0  0  0  0  0  0  0  0  0  0
  152.3062  137.2332  155.0966 H   0  0  0  0  0  0  0  0  0  0  0  0
  150.0455  135.9474  153.6424 H   0  0  0  0  0  0  0  0  0  0  0  0
  148.1710  135.2852  152.9823 H   0  0  0  0  0  0  0  0  0  0  0  0
  146.2528  133.7954  153.9881 H   0  0  0  0  0  0  0  0  0  0  0  0
  145.8140  135.2854  154.7823 H   0  0  0  0  0  0  0  0  0  0  0  0
  144.6310  135.8385  152.9086 H   0  0  0  0  0  0  0  0  0  0  0  0
  146.1454  136.0547  152.0779 H   0  0  0  0  0  0  0  0  0  0  0  0
  147.2427  133.7954  151.0624 H   0  0  0  0  0  0  0  0  0  0  0  0
  146.5744  131.9310  149.5254 H   0  0  0  0  0  0  0  0  0  0  0  0
  144.1434  131.3264  149.3441 H   0  0  0  0  0  0  0  0  0  0  0  0
  142.4835  132.6183  150.7116 H   0  0  0  0  0  0  0  0  0  0  0  0
  151.8714  135.1413  154.9405 H   0  0  0  0  0  0  0  0  0  0  0  0
  149.6487  133.1184  155.2863 H   0  0  0  0  0  0  0  0  0  0  0  0
  151.3757  132.8235  155.1886 H   0  0  0  0  0  0  0  0  0  0  0  0
  150.5174  133.4411  153.7859 H   0  0  0  0  0  0  0  0  0  0  0  0
  150.0482  134.7165  157.3544 H   0  0  0  0  0  0  0  0  0  0  0  0
  151.2406  136.0053  157.2154 H   0  0  0  0  0  0  0  0  0  0  0  0
  151.7560  134.3283  157.2329 H   0  0  0  0  0  0  0  0  0  0  0  0
  149.1472  138.3553  153.5395 H   0  0  0  0  0  0  0  0  0  0  0  0
  148.2026  138.1587  154.9994 H   0  0  0  0  0  0  0  0  0  0  0  0
  149.4348  139.8901  156.1693 H   0  0  0  0  0  0  0  0  0  0  0  0
  147.4943  140.6073  154.7661 H   0  0  0  0  0  0  0  0  0  0  0  0
  148.5774  140.8548  153.3974 H   0  0  0  0  0  0  0  0  0  0  0  0
  148.7379  141.8527  154.8395 H   0  0  0  0  0  0  0  0  0  0  0  0
  1  2  1  0  0  0  0
  1 24  1  0  0  0  0
  1 25  1  0  0  0  0
  1 26  1  0  0  0  0
  2 23  1  0  0  0  0
  2  3  1  0  0  0  0
  2 27  1  0  0  0  0
  3  4  1  0  0  0  0
  3 28  1  0  0  0  0
  3 29  1  0  0  0  0
  4  5  1  0  0  0  0
  4 20  1  0  0  0  0
  5  6  1  0  0  0  0
  5 17  1  0  0  0  0
  5 30  1  0  0  0  0
  6  7  2  0  0  0  0
  6  8  1  0  0  0  0
  8  9  1  0  0  0  0
  8 31  1  0  0  0  0
  9 10  1  0  0  0  0
  9 32  1  0  0  0  0
  9 33  1  0  0  0  0
 10 11  1  0  0  0  0
 10 34  1  0  0  0  0
 10 35  1  0  0  0  0
 11 16  1  0  0  0  0
 11 12  2  0  0  0  0
 12 13  1  0  0  0  0
 12 36  1  0  0  0  0
 13 14  2  0  0  0  0
 13 37  1  0  0  0  0
 14 15  1  0  0  0  0
 14 38  1  0  0  0  0
 15 16  2  0  0  0  0
 15 39  1  0  0  0  0
 17 18  1  0  0  0  0
 17 19  1  0  0  0  0
 17 40  1  0  0  0  0
 18 41  1  0  0  0  0
 18 42  1  0  0  0  0
 18 43  1  0  0  0  0
 19 44  1  0  0  0  0
 19 45  1  0  0  0  0
 19 46  1  0  0  0  0
 20 21  1  0  0  0  0
 20 47  1  0  0  0  0
 20 48  1  0  0  0  0
 21 22  1  0  0  0  0
 21 23  1  0  0  0  0
 21 49  1  0  0  0  0
 22 50  1  0  0  0  0
 22 51  1  0  0  0  0
 22 52  1  0  0  0  0
M  END
> <s_m_source_file>
AV-unprocessed.smi

> <i_m_source_file_index>
1762

> <i_lp_mmshare_version>
43012

> <i_f3d_flags>
0

> <s_epik_input>
W0NIM11bQ0BASF0xW0NIMl1OKFtDSDJdW0NASF0oTzEpW0NIM10pW0NAQEhdKFtDSF0oW0NIM10pW0NIM10pQyg9TylbTkhdW0NIMl1bQ0gyXWMyW2NIXVtjSF1bY0hdW2NIXW4y

> <s_epik_cmdline>
J2VwaWtfcHl0aG9uJywgJy1waCcsICc3LjAnLCAnLXRuJywgJzgnLCAnLW1hJywgJzIwMCcsICctbWV0YWxfYmluZGluZycsICctaW1hZScsICc8aW5maWxlLm1hZT4nLCAnLW9tYWUnLCAnPG91dGZpbGUubWFlPic=

> <r_epik_Ionization_Penalty>
0.0399736

> <r_epik_Ionization_Penalty_Charging>
0

> <r_epik_Ionization_Penalty_Neutral>
0.0399736

> <r_epik_State_Penalty>
0.0317634

> <r_epik_Charging_Adjusted_Penalty>
0.0317634

> <i_epik_Tot_Q>
0

> <i_epik_Tot_abs_Q>
0

> <r_epik_Metal_State_Penalty>
0.0307795

> <b_epik_Metal_Only>
0

> <s_lp_Force_Field>
OPLS_2005

> <r_lp_Energy>
29.7417

> <b_lp_Chiralities_Consistent>
1

> <s_lp_Variant>
AV-unprocessed.smi:1762-5

> <Gold.Version>
5.8.1

> <Gold.Id.Protein>
6NUR|6NUR_protein|mol2

> <Gold.PLP.Fitness>
43.6945

> <Gold.PLP.PLP>
-36.5784

> <Gold.PLP.part.hbond>
-1.7456

> <Gold.PLP.part.metal>
0.0000

> <Gold.PLP.part.buried>
-2.3576

> <Gold.PLP.part.nonpolar>
-33.2044

> <Gold.PLP.part.repulsive>
0.3801

> <Gold.PLP.ligand.clash>
0.0000

> <Gold.PLP.ligand.torsion>
0.8418

> <Gold.PLP.Chemscore.Hbond>
1.8640

> <Gold.PLP.Chemscore.CHOScore>
0.9531

> <Gold.PLP.Chemscore.Metal>
0.0000

> <Gold.Chemscore.Hbonds>
donor molecule, donor type, donor heavy atom, donor atom, acceptor molecule, acceptor atom, score
      L1  H     8    31       P1  7948  0.94
      P1  H  7989  7998       L1    23  0.85
      L1  C    15    39       P1 10186  0.60

> <Gold.PLP.Chemscore.Internal.Correction>
0.3485

> <Gold.Rescore>
     Score         DG    S(hbond)    S(metal)    S(lipo)     H(rot)  DE(clash)    DE(int)     intcor
     18.26     -19.51       1.64        0.00     107.99       1.60       0.36       0.89       ----

> <Gold.Chemscore.Fitness>
18.2617

> <Gold.Chemscore.DG>
-19.5097

> <Gold.Chemscore.ZeroCoef>
-5.4800

> <Gold.Chemscore.Hbond>
1.6435

> <Gold.Chemscore.Metal>
0.0000

> <Gold.Chemscore.Lipo>
107.9858

> <Gold.Chemscore.Internal_Hbond>
0.0000

> <Gold.Chemscore.DEClash>
0.3584

> <Gold.Chemscore.DEInternal>
0.8896

> <Gold.Chemscore.Rot>
1.5993

> <Gold.Chemscore.Internal.Correction>
   9.000000E+99

> <Gold.Chemscore.Hbonds>
donor molecule, donor type, donor heavy atom, donor atom, acceptor molecule, acceptor atom, score
      L1  H     8    31       P1  7948  0.90
      P1  H  7989  7998       L1    23  0.14

> <Gold.Chemscore.Hbond.Weighted>
-5.4894

> <Gold.Chemscore.Metal.Weighted>
-0.0000

> <Gold.Chemscore.Lipo.Weighted>
-12.6343

> <Gold.Chemscore.Internal_Hbond.Weighted>
0.0000

> <Gold.Chemscore.DEClash.Weighted>
0.3584

> <Gold.Chemscore.DEInternal.Weighted>
0.8896

> <Gold.Chemscore.Rot.Weighted>
4.0941

> <Gold.Chemscore.Internal.Correction.Weighted>
   9.000000E+99

> <Gold.Protein.RotatedTorsions>
[ 6907 6896 6895 6894 ] final   50.13 input  -60.11 | X-H torsion
[ 7974 7965 7964 7962 ] final   12.27 input  175.53 | X-H torsion
[ 8008 7997 7996 7995 ] final  169.56 input   59.86 | X-H torsion
[ 10167 10162 10161 10158 ] final   -4.99 input  -65.29 | X-H torsion
[ 10718 10713 10712 10709 ] final  176.55 input   66.30 | X-H torsion
[ 10763 10752 10751 10750 ] final -147.96 input  -60.55 | X-H torsion
[ 11005 11000 10999 10996 ] final  136.93 input  -57.11 | X-H torsion

> <Gold.Protein.ActiveResidues>
 VAL166  LYS551  ARG553  GLY616  TRP617  ASP618  TYR619  PRO620  LYS621  CYS622 
 ASP623  PHE694  ASN695  SER759  ASP760  ASP761  ALA762  ILE779  LEU786  VAL792 
 PHE793  MET794  SER795  GLU796  ALA797  LYS798  CYS799  TRP800  GLU811  SER814 

> <Gold.Protein.RotatedAtoms>
  152.2984  134.7640  160.0362 H   0  0  0  0  0  0  0  0  0  0  0  0  # atno 6907 bound_to 6896
  151.8161  133.3383  159.3578 H   0  0  0  0  0  0  0  0  0  0  0  0  # atno 6908 bound_to 6896
  150.7262  134.5547  159.5856 H   0  0  0  0  0  0  0  0  0  0  0  0  # atno 6909 bound_to 6896
  146.2354  139.9361  142.8489 H   0  0  0  0  0  0  0  0  0  0  0  0  # atno 7974 bound_to 7965
  156.1446  140.1561  156.8867 H   0  0  0  0  0  0  0  0  0  0  0  0  # atno 8008 bound_to 7997
  154.5017  140.0823  156.7849 H   0  0  0  0  0  0  0  0  0  0  0  0  # atno 8009 bound_to 7997
  155.4013  140.3414  155.4259 H   0  0  0  0  0  0  0  0  0  0  0  0  # atno 8010 bound_to 7997
  140.6947  143.6360  150.8479 H   0  0  0  0  0  0  0  0  0  0  0  0  # atno 10167 bound_to 10162
  156.9185  130.9933  151.3008 H   0  0  0  0  0  0  0  0  0  0  0  0  # atno 10718 bound_to 10713
  154.8258  135.3347  154.6899 H   0  0  0  0  0  0  0  0  0  0  0  0  # atno 10763 bound_to 10752
  153.7525  135.6938  153.4947 H   0  0  0  0  0  0  0  0  0  0  0  0  # atno 10764 bound_to 10752
  153.2166  135.4463  155.0391 H   0  0  0  0  0  0  0  0  0  0  0  0  # atno 10765 bound_to 10752
  140.0080  134.9451  157.0216 H   0  0  0  0  0  0  0  0  0  0  0  0  # atno 11005 bound_to 11000
  145.1997  140.9849  143.4163 LP  0  0  0  0  0  0  0  0  0  0  0  0  # atno 17320 bound_to 7965
  144.9784  139.3808  143.6274 LP  0  0  0  0  0  0  0  0  0  0  0  0  # atno 17321 bound_to 7965
  140.0077  143.5676  152.2851 LP  0  0  0  0  0  0  0  0  0  0  0  0  # atno 17342 bound_to 10162
  139.6388  144.7653  151.2381 LP  0  0  0  0  0  0  0  0  0  0  0  0  # atno 17343 bound_to 10162
  157.5922  130.8452  149.8677 LP  0  0  0  0  0  0  0  0  0  0  0  0  # atno 17370 bound_to 10713
  156.0502  130.3719  150.1220 LP  0  0  0  0  0  0  0  0  0  0  0  0  # atno 17371 bound_to 10713
  140.4607  134.1487  155.7191 LP  0  0  0  0  0  0  0  0  0  0  0  0  # atno 17394 bound_to 11000
  141.1690  133.8645  157.1627 LP  0  0  0  0  0  0  0  0  0  0  0  0  # atno 17395 bound_to 11000

$$$$
