AV-unprocessed.smi:3309|AV-procd|sdf|12716|dock5
  -GOLD-   2272019 53D 1   1.00000     0.00000
 Structure written by MMmdl.
 41 42  0  0  0  0  0  0  0  0  2 V2000
  148.3601  139.3422  154.0963 O   0  0  0  0  0  0  0  0  0  0  0  0
  147.2320  139.5463  153.6476 C   0  0  0  0  0  0  0  0  0  0  0  0
  146.5836  138.5480  152.6833 C   0  0  0  0  0  0  0  0  0  0  0  0
  146.0074  137.3098  153.3921 C   0  0  0  0  0  0  0  0  0  0  0  0
  146.3268  136.0769  152.6462 N   0  3  0  0  0  0  0  0  0  0  0  0
  146.2586  134.8482  153.4606 C   0  0  0  0  0  0  0  0  0  0  0  0
  146.7094  133.6242  152.6501 C   0  0  0  0  0  0  0  0  0  0  0  0
  145.6720  133.1622  151.7482 N   0  0  0  0  0  0  0  0  0  0  0  0
  145.7845  132.2990  150.6785 C   0  0  0  0  0  0  0  0  0  0  0  0
  144.5385  132.1582  150.1379 C   0  0  0  0  0  0  0  0  0  0  0  0
  143.7183  132.9819  150.9587 C   0  0  0  0  0  0  0  0  0  0  0  0
  144.3998  133.5803  151.9227 N   0  0  0  0  0  0  0  0  0  0  0  0
  146.5048  140.6319  153.9522 N   0  0  0  0  0  0  0  0  0  0  0  0
  146.9320  141.7082  154.8430 C   0  0  0  0  0  0  0  0  0  0  0  0
  146.9435  141.2333  156.3090 C   0  0  0  0  0  0  0  0  0  0  0  0
  146.2053  142.3077  157.1095 C   0  0  0  0  0  0  0  0  0  0  0  0
  145.2078  142.8984  156.1184 C   0  0  0  0  0  0  0  0  0  0  0  0
  145.9624  142.9061  154.7887 C   0  0  0  0  0  0  0  0  0  0  0  0
  145.7904  139.0541  152.1302 H   0  0  0  0  0  0  0  0  0  0  0  0
  147.3331  138.2439  151.9515 H   0  0  0  0  0  0  0  0  0  0  0  0
  146.4152  137.2255  154.4007 H   0  0  0  0  0  0  0  0  0  0  0  0
  144.9239  137.4000  153.4869 H   0  0  0  0  0  0  0  0  0  0  0  0
  145.6788  135.9887  151.8764 H   0  0  0  0  0  0  0  0  0  0  0  0
  146.8908  134.9695  154.3413 H   0  0  0  0  0  0  0  0  0  0  0  0
  145.2360  134.7070  153.8135 H   0  0  0  0  0  0  0  0  0  0  0  0
  147.5984  133.8621  152.0645 H   0  0  0  0  0  0  0  0  0  0  0  0
  146.9783  132.8023  153.3156 H   0  0  0  0  0  0  0  0  0  0  0  0
  146.7299  131.8611  150.3931 H   0  0  0  0  0  0  0  0  0  0  0  0
  144.2551  131.5569  149.2867 H   0  0  0  0  0  0  0  0  0  0  0  0
  142.6557  133.1607  150.8838 H   0  0  0  0  0  0  0  0  0  0  0  0
  145.5893  140.7248  153.5363 H   0  0  0  0  0  0  0  0  0  0  0  0
  147.9338  142.0395  154.5628 H   0  0  0  0  0  0  0  0  0  0  0  0
  146.4099  140.2871  156.4123 H   0  0  0  0  0  0  0  0  0  0  0  0
  147.9556  141.0725  156.6817 H   0  0  0  0  0  0  0  0  0  0  0  0
  145.7242  141.9093  158.0031 H   0  0  0  0  0  0  0  0  0  0  0  0
  146.9086  143.0796  157.4257 H   0  0  0  0  0  0  0  0  0  0  0  0
  144.3353  142.2480  156.0431 H   0  0  0  0  0  0  0  0  0  0  0  0
  144.8611  143.8902  156.4102 H   0  0  0  0  0  0  0  0  0  0  0  0
  146.5388  143.8289  154.7095 H   0  0  0  0  0  0  0  0  0  0  0  0
  145.2835  142.8807  153.9351 H   0  0  0  0  0  0  0  0  0  0  0  0
  147.2622  136.1620  152.2745 H   0  0  0  0  0  0  0  0  0  0  0  0
  1  2  2  0  0  0  0
  2  3  1  0  0  0  0
  2 13  1  0  0  0  0
  3  4  1  0  0  0  0
  3 19  1  0  0  0  0
  3 20  1  0  0  0  0
  4  5  1  0  0  0  0
  4 21  1  0  0  0  0
  4 22  1  0  0  0  0
  5  6  1  0  0  0  0
  5 23  1  0  0  0  0
  5 41  1  0  0  0  0
  6  7  1  0  0  0  0
  6 24  1  0  0  0  0
  6 25  1  0  0  0  0
  7  8  1  0  0  0  0
  7 26  1  0  0  0  0
  7 27  1  0  0  0  0
  8 12  1  0  0  0  0
  8  9  1  0  0  0  0
  9 10  2  0  0  0  0
  9 28  1  0  0  0  0
 10 11  1  0  0  0  0
 10 29  1  0  0  0  0
 11 12  2  0  0  0  0
 11 30  1  0  0  0  0
 13 14  1  0  0  0  0
 13 31  1  0  0  0  0
 14 18  1  0  0  0  0
 14 15  1  0  0  0  0
 14 32  1  0  0  0  0
 15 16  1  0  0  0  0
 15 33  1  0  0  0  0
 15 34  1  0  0  0  0
 16 17  1  0  0  0  0
 16 35  1  0  0  0  0
 16 36  1  0  0  0  0
 17 18  1  0  0  0  0
 17 37  1  0  0  0  0
 17 38  1  0  0  0  0
 18 39  1  0  0  0  0
 18 40  1  0  0  0  0
M  CHG  1   5   1
M  END
> <s_m_source_file>
AV-unprocessed.smi

> <i_m_source_file_index>
3309

> <i_lp_mmshare_version>
43012

> <i_f3d_flags>
0

> <s_epik_input>
W0NIMl0xW0NIMl1bQ0gyXVtDSDJdW0NIXTFbTkhdQyg9TylbQ0gyXVtDSDJdW05IXVtDSDJdW0NIMl1uMltjSF1bY0hdW2NIXW4y

> <s_epik_cmdline>
J2VwaWtfcHl0aG9uJywgJy1waCcsICc3LjAnLCAnLXRuJywgJzgnLCAnLW1hJywgJzIwMCcsICctbWV0YWxfYmluZGluZycsICctaW1hZScsICc8aW5maWxlLm1hZT4nLCAnLW9tYWUnLCAnPG91dGZpbGUubWFlPic=

> <r_lp_tautomer_probability>
1

> <r_epik_Ionization_Penalty>
0.00584123

> <r_epik_Ionization_Penalty_Charging>
0.00583842

> <r_epik_Ionization_Penalty_Neutral>
2.81118e-06

> <r_epik_State_Penalty>
-0

> <r_epik_Charging_Adjusted_Penalty>
0.00583842

> <i_epik_Tot_Q>
1

> <i_epik_Tot_abs_Q>
1

> <r_epik_Metal_State_Penalty>
-0

> <b_epik_Metal_Only>
0

> <s_lp_Force_Field>
OPLS_2005

> <r_lp_Energy>
18.8454

> <b_lp_Chiralities_Consistent>
1

> <s_lp_Variant>
AV-unprocessed.smi:3309-1

> <Gold.Version>
5.8.1

> <Gold.Id.Protein>
6NUR|6NUR_protein|mol2

> <Gold.PLP.Fitness>
48.5264

> <Gold.PLP.PLP>
-35.6960

> <Gold.PLP.part.hbond>
-2.0000

> <Gold.PLP.part.metal>
0.0000

> <Gold.PLP.part.buried>
-6.6608

> <Gold.PLP.part.nonpolar>
-28.9198

> <Gold.PLP.part.repulsive>
1.0343

> <Gold.PLP.ligand.clash>
0.0000

> <Gold.PLP.ligand.torsion>
1.0438

> <Gold.PLP.Chemscore.Hbond>
2.9424

> <Gold.PLP.Chemscore.CHOScore>
2.0000

> <Gold.PLP.Chemscore.Metal>
0.0000

> <Gold.Chemscore.Hbonds>
donor molecule, donor type, donor heavy atom, donor atom, acceptor molecule, acceptor atom, score
      L1  H     5    41       P1  7948  2.00
      L1  H    13    31       P1 10175  0.60
      L1  C     9    28       P1 10747  1.00
      L1  C    11    30       P1 10186  1.00

> <Gold.PLP.Chemscore.Internal.Correction>
0.0907

> <Gold.Rescore>
     Score         DG    S(hbond)    S(metal)    S(lipo)     H(rot)  DE(clash)    DE(int)     intcor
     12.77     -13.73       1.69        0.00      71.83       2.27       0.01       0.94       ----

> <Gold.Chemscore.Fitness>
12.7703

> <Gold.Chemscore.DG>
-13.7273

> <Gold.Chemscore.ZeroCoef>
-5.4800

> <Gold.Chemscore.Hbond>
1.6897

> <Gold.Chemscore.Metal>
0.0000

> <Gold.Chemscore.Lipo>
71.8304

> <Gold.Chemscore.Internal_Hbond>
0.0000

> <Gold.Chemscore.DEClash>
0.0129

> <Gold.Chemscore.DEInternal>
0.9441

> <Gold.Chemscore.Rot>
2.2658

> <Gold.Chemscore.Internal.Correction>
   9.000000E+99

> <Gold.Chemscore.Hbonds>
donor molecule, donor type, donor heavy atom, donor atom, acceptor molecule, acceptor atom, score
      L1  H     5    41       P1  7948  1.00
      L1  H    13    31       P1 10175  0.53

> <Gold.Chemscore.Hbond.Weighted>
-5.6437

> <Gold.Chemscore.Metal.Weighted>
-0.0000

> <Gold.Chemscore.Lipo.Weighted>
-8.4042

> <Gold.Chemscore.Internal_Hbond.Weighted>
0.0000

> <Gold.Chemscore.DEClash.Weighted>
0.0129

> <Gold.Chemscore.DEInternal.Weighted>
0.9441

> <Gold.Chemscore.Rot.Weighted>
5.8005

> <Gold.Chemscore.Internal.Correction.Weighted>
   9.000000E+99

> <Gold.Protein.RotatedTorsions>
[ 6907 6896 6895 6894 ] final -178.60 input  -60.11 | X-H torsion
[ 7974 7965 7964 7962 ] final   47.56 input  175.53 | X-H torsion
[ 8008 7997 7996 7995 ] final   -9.69 input   59.86 | X-H torsion
[ 10167 10162 10161 10158 ] final -102.92 input  -65.29 | X-H torsion
[ 10718 10713 10712 10709 ] final  109.60 input   66.30 | X-H torsion
[ 10763 10752 10751 10750 ] final -131.16 input  -60.55 | X-H torsion
[ 11005 11000 10999 10996 ] final -123.95 input  -57.11 | X-H torsion

> <Gold.Protein.ActiveResidues>
 VAL166  LYS551  ARG553  GLY616  TRP617  ASP618  TYR619  PRO620  LYS621  CYS622 
 ASP623  PHE694  ASN695  SER759  ASP760  ASP761  ALA762  ILE779  LEU786  VAL792 
 PHE793  MET794  SER795  GLU796  ALA797  LYS798  CYS799  TRP800  GLU811  SER814 

> <Gold.Protein.RotatedAtoms>
  151.6398  133.3326  159.3127 H   0  0  0  0  0  0  0  0  0  0  0  0  # atno 6907 bound_to 6896
  150.8014  134.7114  159.6615 H   0  0  0  0  0  0  0  0  0  0  0  0  # atno 6908 bound_to 6896
  152.4106  134.6135  160.0083 H   0  0  0  0  0  0  0  0  0  0  0  0  # atno 6909 bound_to 6896
  146.0286  139.4736  142.9852 H   0  0  0  0  0  0  0  0  0  0  0  0  # atno 7974 bound_to 7965
  154.5623  140.2348  155.8316 H   0  0  0  0  0  0  0  0  0  0  0  0  # atno 8008 bound_to 7997
  156.2039  140.3045  155.9545 H   0  0  0  0  0  0  0  0  0  0  0  0  # atno 8009 bound_to 7997
  155.2866  140.0425  157.3010 H   0  0  0  0  0  0  0  0  0  0  0  0  # atno 8010 bound_to 7997
  140.2255  143.3644  152.0932 H   0  0  0  0  0  0  0  0  0  0  0  0  # atno 10167 bound_to 10162
  157.6533  131.0917  150.6478 H   0  0  0  0  0  0  0  0  0  0  0  0  # atno 10718 bound_to 10713
  154.8752  135.3839  154.4201 H   0  0  0  0  0  0  0  0  0  0  0  0  # atno 10763 bound_to 10752
  153.4906  135.7030  153.5892 H   0  0  0  0  0  0  0  0  0  0  0  0  # atno 10764 bound_to 10752
  153.4267  135.3888  155.2112 H   0  0  0  0  0  0  0  0  0  0  0  0  # atno 10765 bound_to 10752
  140.9879  134.0581  157.3689 H   0  0  0  0  0  0  0  0  0  0  0  0  # atno 11005 bound_to 11000
  145.7077  141.0116  143.1470 LP  0  0  0  0  0  0  0  0  0  0  0  0  # atno 17320 bound_to 7965
  144.7020  139.8720  143.7441 LP  0  0  0  0  0  0  0  0  0  0  0  0  # atno 17321 bound_to 7965
  139.5128  144.6923  151.5726 LP  0  0  0  0  0  0  0  0  0  0  0  0  # atno 17342 bound_to 10162
  140.6223  143.9234  150.6536 LP  0  0  0  0  0  0  0  0  0  0  0  0  # atno 17343 bound_to 10162
  156.6787  130.4561  149.5634 LP  0  0  0  0  0  0  0  0  0  0  0  0  # atno 17370 bound_to 10713
  156.1945  130.6580  151.1098 LP  0  0  0  0  0  0  0  0  0  0  0  0  # atno 17371 bound_to 10713
  139.8979  135.0152  156.7122 LP  0  0  0  0  0  0  0  0  0  0  0  0  # atno 17394 bound_to 11000
  140.7086  133.9243  155.8069 LP  0  0  0  0  0  0  0  0  0  0  0  0  # atno 17395 bound_to 11000

$$$$
