AV-unprocessed.smi:454|AV-procd|sdf|2613|dock8
  -GOLD-   2262023 13D 1   1.00000     0.00000
 Structure written by MMmdl.
 44 45  0  0  0  0  0  0  0  0  2 V2000
  144.5403  131.8303  150.2555 C   0  0  0  0  0  0  0  0  0  0  0  0
  145.4056  131.8957  151.3747 O   0  0  0  0  0  0  0  0  0  0  0  0
  146.1180  133.1199  151.4454 C   0  0  0  0  0  0  0  0  0  0  0  0
  147.0810  133.1003  152.6427 C   0  0  0  0  0  0  0  0  0  0  0  0
  148.0100  131.9766  152.5936 N   0  0  0  0  0  0  0  0  0  0  0  0
  148.9914  131.8088  153.5813 C   0  0  0  0  0  0  0  0  0  0  0  0
  149.3612  132.9273  154.3603 C   0  0  0  0  0  0  0  0  0  0  0  0
  150.3319  132.7653  155.3682 C   0  0  0  0  0  0  0  0  0  0  0  0
  150.8948  131.4882  155.5515 C   0  0  0  0  0  0  0  0  0  0  0  0
  152.0880  131.1876  156.8450 S   0  0  0  0  0  0  0  0  0  0  0  0
  152.0255  132.3246  157.7761 O   0  0  0  0  0  0  0  0  0  0  0  0
  151.9348  129.8124  157.3444 O   0  0  0  0  0  0  0  0  0  0  0  0
  153.5950  131.2851  155.9861 N   0  0  0  0  0  0  0  0  0  0  0  0
  154.8434  131.1229  156.7509 C   0  0  0  0  0  0  0  0  0  0  0  0
  155.1971  129.6311  156.8796 C   0  0  0  0  0  0  0  0  0  0  0  0
  155.3274  129.0134  155.5383 N   0  3  0  0  0  0  0  0  0  0  0  0
  155.7816  127.6079  155.6010 C   0  0  0  0  0  0  0  0  0  0  0  0
  154.0726  129.1720  154.7650 C   0  0  0  0  0  0  0  0  0  0  0  0
  153.6791  130.6589  154.6532 C   0  0  0  0  0  0  0  0  0  0  0  0
  150.4778  130.4311  154.7203 C   0  0  0  0  0  0  0  0  0  0  0  0
  149.5490  130.5855  153.7537 N   0  0  0  0  0  0  0  0  0  0  0  0
  144.0215  130.8719  150.2502 H   0  0  0  0  0  0  0  0  0  0  0  0
  145.0965  131.9174  149.3212 H   0  0  0  0  0  0  0  0  0  0  0  0
  143.7886  132.6200  150.2918 H   0  0  0  0  0  0  0  0  0  0  0  0
  146.6927  133.2462  150.5269 H   0  0  0  0  0  0  0  0  0  0  0  0
  145.4329  133.9666  151.5171 H   0  0  0  0  0  0  0  0  0  0  0  0
  147.6061  134.0512  152.7385 H   0  0  0  0  0  0  0  0  0  0  0  0
  146.4995  132.9860  153.5575 H   0  0  0  0  0  0  0  0  0  0  0  0
  148.1506  131.5264  151.7010 H   0  0  0  0  0  0  0  0  0  0  0  0
  148.9035  133.8922  154.1973 H   0  0  0  0  0  0  0  0  0  0  0  0
  150.6239  133.6010  155.9863 H   0  0  0  0  0  0  0  0  0  0  0  0
  155.6454  131.6540  156.2361 H   0  0  0  0  0  0  0  0  0  0  0  0
  154.7500  131.5852  157.7334 H   0  0  0  0  0  0  0  0  0  0  0  0
  156.1378  129.5264  157.4212 H   0  0  0  0  0  0  0  0  0  0  0  0
  154.4357  129.1069  157.4599 H   0  0  0  0  0  0  0  0  0  0  0  0
  155.0592  126.9858  156.1313 H   0  0  0  0  0  0  0  0  0  0  0  0
  156.7394  127.5363  156.1174 H   0  0  0  0  0  0  0  0  0  0  0  0
  155.9130  127.2007  154.5978 H   0  0  0  0  0  0  0  0  0  0  0  0
  154.2090  128.7586  153.7650 H   0  0  0  0  0  0  0  0  0  0  0  0
  153.2761  128.5937  155.2340 H   0  0  0  0  0  0  0  0  0  0  0  0
  152.7283  130.7649  154.1305 H   0  0  0  0  0  0  0  0  0  0  0  0
  154.4203  131.1958  154.0599 H   0  0  0  0  0  0  0  0  0  0  0  0
  150.8878  129.4390  154.8392 H   0  0  0  0  0  0  0  0  0  0  0  0
  156.0422  129.5299  155.0457 H   0  0  0  0  0  0  0  0  0  0  0  0
  1  2  1  0  0  0  0
  1 22  1  0  0  0  0
  1 23  1  0  0  0  0
  1 24  1  0  0  0  0
  2  3  1  0  0  0  0
  3  4  1  0  0  0  0
  3 25  1  0  0  0  0
  3 26  1  0  0  0  0
  4  5  1  0  0  0  0
  4 27  1  0  0  0  0
  4 28  1  0  0  0  0
  5  6  1  0  0  0  0
  5 29  1  0  0  0  0
  6 21  1  0  0  0  0
  6  7  2  0  0  0  0
  7  8  1  0  0  0  0
  7 30  1  0  0  0  0
  8  9  2  0  0  0  0
  8 31  1  0  0  0  0
  9 10  1  0  0  0  0
  9 20  1  0  0  0  0
 10 11  2  0  0  0  0
 10 12  2  0  0  0  0
 10 13  1  0  0  0  0
 13 19  1  0  0  0  0
 13 14  1  0  0  0  0
 14 15  1  0  0  0  0
 14 32  1  0  0  0  0
 14 33  1  0  0  0  0
 15 16  1  0  0  0  0
 15 34  1  0  0  0  0
 15 35  1  0  0  0  0
 16 17  1  0  0  0  0
 16 18  1  0  0  0  0
 16 44  1  0  0  0  0
 17 36  1  0  0  0  0
 17 37  1  0  0  0  0
 17 38  1  0  0  0  0
 18 19  1  0  0  0  0
 18 39  1  0  0  0  0
 18 40  1  0  0  0  0
 19 41  1  0  0  0  0
 19 42  1  0  0  0  0
 20 21  2  0  0  0  0
 20 43  1  0  0  0  0
M  CHG  1  16   1
M  END
> <s_m_source_file>
AV-unprocessed.smi

> <i_m_source_file_index>
454

> <i_lp_mmshare_version>
43012

> <i_f3d_flags>
0

> <s_epik_input>
W0NIM11PW0NIMl1bQ0gyXVtOSF1jMVtjSF1bY0hdYyhbY0hdbjEpUyg9TykoPU8pTjJbQ0gyXVtDSDJdTihbQ0gzXSlbQ0gyXVtDSDJdMg==

> <s_epik_cmdline>
J2VwaWtfcHl0aG9uJywgJy1waCcsICc3LjAnLCAnLXRuJywgJzgnLCAnLW1hJywgJzIwMCcsICctbWV0YWxfYmluZGluZycsICctaW1hZScsICc8aW5maWxlLm1hZT4nLCAnLW9tYWUnLCAnPG91dGZpbGUubWFlPic=

> <r_lp_tautomer_probability>
1

> <r_epik_Ionization_Penalty>
1.23801

> <r_epik_Ionization_Penalty_Charging>
1.23786

> <r_epik_Ionization_Penalty_Neutral>
0.00015121

> <r_epik_State_Penalty>
1.30655

> <r_epik_Charging_Adjusted_Penalty>
2.54442

> <i_epik_Tot_Q>
1

> <i_epik_Tot_abs_Q>
1

> <r_epik_Metal_State_Penalty>
1.30672

> <b_epik_Metal_Only>
0

> <s_lp_Force_Field>
OPLS_2005

> <r_lp_Energy>
1.84277

> <b_lp_Chiralities_Consistent>
1

> <s_lp_Variant>
AV-unprocessed.smi:454-2

> <Gold.Version>
5.8.1

> <Gold.Id.Protein>
6NUR|6NUR_protein|mol2

> <Gold.PLP.Fitness>
35.7341

> <Gold.PLP.PLP>
-30.1171

> <Gold.PLP.part.hbond>
-2.0000

> <Gold.PLP.part.metal>
0.0000

> <Gold.PLP.part.buried>
-5.0981

> <Gold.PLP.part.nonpolar>
-23.4607

> <Gold.PLP.part.repulsive>
0.2160

> <Gold.PLP.ligand.clash>
0.0000

> <Gold.PLP.ligand.torsion>
1.5208

> <Gold.PLP.Chemscore.Hbond>
1.9920

> <Gold.PLP.Chemscore.CHOScore>
0.0000

> <Gold.PLP.Chemscore.Metal>
0.0000

> <Gold.Chemscore.Hbonds>
donor molecule, donor type, donor heavy atom, donor atom, acceptor molecule, acceptor atom, score
      L1  H     5    29       P1 10747  1.00
      P1  H  6896  6909       L1    11  1.00

> <Gold.PLP.Chemscore.Internal.Correction>
2.6827

> <Gold.Rescore>
     Score         DG    S(hbond)    S(metal)    S(lipo)     H(rot)  DE(clash)    DE(int)     intcor
     13.54     -15.21       1.97        0.00      62.99       1.65       0.10       1.57       ----

> <Gold.Chemscore.Fitness>
13.5382

> <Gold.Chemscore.DG>
-15.2055

> <Gold.Chemscore.ZeroCoef>
-5.4800

> <Gold.Chemscore.Hbond>
1.9692

> <Gold.Chemscore.Metal>
0.0000

> <Gold.Chemscore.Lipo>
62.9927

> <Gold.Chemscore.Internal_Hbond>
0.0000

> <Gold.Chemscore.DEClash>
0.0998

> <Gold.Chemscore.DEInternal>
1.5675

> <Gold.Chemscore.Rot>
1.6491

> <Gold.Chemscore.Internal.Correction>
   9.000000E+99

> <Gold.Chemscore.Hbonds>
donor molecule, donor type, donor heavy atom, donor atom, acceptor molecule, acceptor atom, score
      L1  H     5    29       P1 10747  0.99
      P1  H  6896  6909       L1    11  0.99

> <Gold.Chemscore.Hbond.Weighted>
-6.5771

> <Gold.Chemscore.Metal.Weighted>
-0.0000

> <Gold.Chemscore.Lipo.Weighted>
-7.3701

> <Gold.Chemscore.Internal_Hbond.Weighted>
0.0000

> <Gold.Chemscore.DEClash.Weighted>
0.0998

> <Gold.Chemscore.DEInternal.Weighted>
1.5675

> <Gold.Chemscore.Rot.Weighted>
4.2218

> <Gold.Chemscore.Internal.Correction.Weighted>
   9.000000E+99

> <Gold.Protein.RotatedTorsions>
[ 6907 6896 6895 6894 ] final  -72.32 input  -60.11 | X-H torsion
[ 7974 7965 7964 7962 ] final   23.20 input  175.53 | X-H torsion
[ 8008 7997 7996 7995 ] final  -34.94 input   59.86 | X-H torsion
[ 10167 10162 10161 10158 ] final    3.30 input  -65.29 | X-H torsion
[ 10718 10713 10712 10709 ] final   78.49 input   66.30 | X-H torsion
[ 10763 10752 10751 10750 ] final  129.19 input  -60.55 | X-H torsion
[ 11005 11000 10999 10996 ] final   80.96 input  -57.11 | X-H torsion

> <Gold.Protein.ActiveResidues>
 VAL166  LYS551  ARG553  GLY616  TRP617  ASP618  TYR619  PRO620  LYS621  CYS622 
 ASP623  PHE694  ASN695  SER759  ASP760  ASP761  ALA762  ILE779  LEU786  VAL792 
 PHE793  MET794  SER795  GLU796  ALA797  LYS798  CYS799  TRP800  GLU811  SER814 

> <Gold.Protein.RotatedAtoms>
  150.7175  134.5180  159.5639 H   0  0  0  0  0  0  0  0  0  0  0  0  # atno 6907 bound_to 6896
  152.2741  134.7897  160.0418 H   0  0  0  0  0  0  0  0  0  0  0  0  # atno 6908 bound_to 6896
  151.8567  133.3414  159.3727 H   0  0  0  0  0  0  0  0  0  0  0  0  # atno 6909 bound_to 6896
  146.1995  139.7778  142.8772 H   0  0  0  0  0  0  0  0  0  0  0  0  # atno 7974 bound_to 7965
  154.4108  140.1670  156.2130 H   0  0  0  0  0  0  0  0  0  0  0  0  # atno 8008 bound_to 7997
  155.9428  140.3407  155.6318 H   0  0  0  0  0  0  0  0  0  0  0  0  # atno 8009 bound_to 7997
  155.6968  140.0740  157.2417 H   0  0  0  0  0  0  0  0  0  0  0  0  # atno 8010 bound_to 7997
  140.6593  143.7347  150.7709 H   0  0  0  0  0  0  0  0  0  0  0  0  # atno 10167 bound_to 10162
  157.6746  130.9870  150.1794 H   0  0  0  0  0  0  0  0  0  0  0  0  # atno 10718 bound_to 10713
  153.7378  135.3229  155.3298 H   0  0  0  0  0  0  0  0  0  0  0  0  # atno 10763 bound_to 10752
  154.8305  135.4537  154.1057 H   0  0  0  0  0  0  0  0  0  0  0  0  # atno 10764 bound_to 10752
  153.2223  135.6949  153.8067 H   0  0  0  0  0  0  0  0  0  0  0  0  # atno 10765 bound_to 10752
  139.9115  134.7960  156.1978 H   0  0  0  0  0  0  0  0  0  0  0  0  # atno 11005 bound_to 11000
  145.3532  141.0311  143.3326 LP  0  0  0  0  0  0  0  0  0  0  0  0  # atno 17320 bound_to 7965
  144.8652  139.5118  143.6793 LP  0  0  0  0  0  0  0  0  0  0  0  0  # atno 17321 bound_to 7965
  140.1012  143.4786  152.2424 LP  0  0  0  0  0  0  0  0  0  0  0  0  # atno 17342 bound_to 10162
  139.5822  144.7515  151.3610 LP  0  0  0  0  0  0  0  0  0  0  0  0  # atno 17343 bound_to 10162
  156.2530  130.3702  149.8212 LP  0  0  0  0  0  0  0  0  0  0  0  0  # atno 17370 bound_to 10713
  156.5979  130.8534  151.3424 LP  0  0  0  0  0  0  0  0  0  0  0  0  # atno 17371 bound_to 10713
  141.0544  133.6873  156.1832 LP  0  0  0  0  0  0  0  0  0  0  0  0  # atno 17394 bound_to 11000
  140.6760  134.4817  157.5588 LP  0  0  0  0  0  0  0  0  0  0  0  0  # atno 17395 bound_to 11000

$$$$
