AV-unprocessed.smi:1239|AV-procd|sdf|5194|dock10
  -GOLD-   22720 4283D 1   1.00000     0.00000
 Structure written by MMmdl.
 48 49  0  0  0  0  0  0  0  0  4 V2000
  148.8344  134.2153  156.3660 C   0  0  0  0  0  0  0  0  0  0  0  0
  149.1258  134.9874  155.0547 C   0  0  1  0  0  0  0  0  0  0  0  0
  150.6223  135.0023  154.6377 C   0  0  0  0  0  0  0  0  0  0  0  0
  151.4563  135.7248  155.6047 N   0  5  0  0  0  0  0  0  0  0  0  0
  151.2385  136.9989  156.0290 C   0  0  0  0  0  0  0  0  0  0  0  0
  150.2772  137.7263  155.7545 O   0  0  0  0  0  0  0  0  0  0  0  0
  152.2478  137.4592  156.7889 N   0  0  0  0  0  0  0  0  0  0  0  0
  152.3824  138.7110  157.4483 C   0  0  0  0  0  0  0  0  0  0  0  0
  153.0701  138.7338  158.6788 C   0  0  0  0  0  0  0  0  0  0  0  0
  153.2120  139.9477  159.3816 C   0  0  0  0  0  0  0  0  0  0  0  0
  152.6524  141.1372  158.8537 C   0  0  0  0  0  0  0  0  0  0  0  0
  152.7503  142.3900  159.4973 N   0  0  0  0  0  0  0  0  0  0  0  0
  152.2361  143.5847  158.8368 C   0  0  0  0  0  0  0  0  0  0  0  0
  153.2359  142.4616  160.8691 C   0  0  0  0  0  0  0  0  0  0  0  0
  151.9881  141.0623  157.6745 N   0  3  0  0  0  0  0  0  0  0  0  0
  151.8291  139.9217  156.9691 C   0  0  0  0  0  0  0  0  0  0  0  0
  148.2465  134.6100  153.9024 N   0  3  0  0  0  0  0  0  0  0  0  0
  148.4456  133.2557  153.3198 C   0  0  0  0  0  0  0  0  0  0  0  0
  147.6198  133.1160  152.0322 C   0  0  0  0  0  0  0  0  0  0  0  0
  146.2464  133.3416  152.3268 O   0  0  0  0  0  0  0  0  0  0  0  0
  146.0162  134.6533  152.8275 C   0  0  0  0  0  0  0  0  0  0  0  0
  146.8035  134.8629  154.1324 C   0  0  0  0  0  0  0  0  0  0  0  0
  149.4110  134.6120  157.2035 H   0  0  0  0  0  0  0  0  0  0  0  0
  149.0633  133.1509  156.2923 H   0  0  0  0  0  0  0  0  0  0  0  0
  147.7839  134.3078  156.6433 H   0  0  0  0  0  0  0  0  0  0  0  0
  148.9053  136.0290  155.2926 H   0  0  0  0  0  0  0  0  0  0  0  0
  150.9555  133.9720  154.5024 H   0  0  0  0  0  0  0  0  0  0  0  0
  150.7013  135.4532  153.6485 H   0  0  0  0  0  0  0  0  0  0  0  0
  153.0370  136.8354  156.8773 H   0  0  0  0  0  0  0  0  0  0  0  0
  153.4933  137.8259  159.0837 H   0  0  0  0  0  0  0  0  0  0  0  0
  153.7490  139.9439  160.3180 H   0  0  0  0  0  0  0  0  0  0  0  0
  151.1654  143.4889  158.6531 H   0  0  0  0  0  0  0  0  0  0  0  0
  152.7395  143.7428  157.8823 H   0  0  0  0  0  0  0  0  0  0  0  0
  152.3932  144.4747  159.4464 H   0  0  0  0  0  0  0  0  0  0  0  0
  154.2594  142.0913  160.9341 H   0  0  0  0  0  0  0  0  0  0  0  0
  152.6055  141.8654  161.5298 H   0  0  0  0  0  0  0  0  0  0  0  0
  153.2298  143.4871  161.2384 H   0  0  0  0  0  0  0  0  0  0  0  0
  151.2541  140.0266  156.0615 H   0  0  0  0  0  0  0  0  0  0  0  0
  149.4982  133.0878  153.0927 H   0  0  0  0  0  0  0  0  0  0  0  0
  148.1405  132.4879  154.0318 H   0  0  0  0  0  0  0  0  0  0  0  0
  147.9647  133.8167  151.2698 H   0  0  0  0  0  0  0  0  0  0  0  0
  147.7330  132.1134  151.6196 H   0  0  0  0  0  0  0  0  0  0  0  0
  146.3028  135.3940  152.0793 H   0  0  0  0  0  0  0  0  0  0  0  0
  144.9489  134.7801  153.0085 H   0  0  0  0  0  0  0  0  0  0  0  0
  146.4342  134.1963  154.9131 H   0  0  0  0  0  0  0  0  0  0  0  0
  146.6537  135.8857  154.4807 H   0  0  0  0  0  0  0  0  0  0  0  0
  151.5774  141.9169  157.2987 H   0  0  0  0  0  0  0  0  0  0  0  0
  148.5154  135.2563  153.1730 H   0  0  0  0  0  0  0  0  0  0  0  0
  1  2  1  0  0  0  0
  1 23  1  0  0  0  0
  1 24  1  0  0  0  0
  1 25  1  0  0  0  0
  2  3  1  0  0  0  0
  2 17  1  0  0  0  0
  2 26  1  0  0  0  0
  3  4  1  0  0  0  0
  3 27  1  0  0  0  0
  3 28  1  0  0  0  0
  4  5  1  0  0  0  0
  5  6  2  0  0  0  0
  5  7  1  0  0  0  0
  7  8  1  0  0  0  0
  7 29  1  0  0  0  0
  8 16  1  0  0  0  0
  8  9  2  0  0  0  0
  9 10  1  0  0  0  0
  9 30  1  0  0  0  0
 10 11  2  0  0  0  0
 10 31  1  0  0  0  0
 11 12  1  0  0  0  0
 11 15  1  0  0  0  0
 12 13  1  0  0  0  0
 12 14  1  0  0  0  0
 13 32  1  0  0  0  0
 13 33  1  0  0  0  0
 13 34  1  0  0  0  0
 14 35  1  0  0  0  0
 14 36  1  0  0  0  0
 14 37  1  0  0  0  0
 15 16  2  0  0  0  0
 15 47  1  0  0  0  0
 16 38  1  0  0  0  0
 17 22  1  0  0  0  0
 17 18  1  0  0  0  0
 17 48  1  0  0  0  0
 18 19  1  0  0  0  0
 18 39  1  0  0  0  0
 18 40  1  0  0  0  0
 19 20  1  0  0  0  0
 19 41  1  0  0  0  0
 19 42  1  0  0  0  0
 20 21  1  0  0  0  0
 21 22  1  0  0  0  0
 21 43  1  0  0  0  0
 21 44  1  0  0  0  0
 22 45  1  0  0  0  0
 22 46  1  0  0  0  0
M  CHG  1   4  -1
M  CHG  1  15   1
M  CHG  1  17   1
M  END
> <s_m_source_file>
AV-unprocessed.smi

> <i_m_source_file_index>
1239

> <i_lp_mmshare_version>
43012

> <i_f3d_flags>
0

> <s_epik_input>
W0NIMl0xW0NIMl1PW0NIMl1bQ0gyXU4xW0NASF0oW0NIM10pW0NIMl1bTkhdQyg9TylbTkhdYzJbY0hdW2NIXWMoTihbQ0gzXSlbQ0gzXSluW2NIXTI=

> <s_epik_cmdline>
J2VwaWtfcHl0aG9uJywgJy1waCcsICc3LjAnLCAnLXRuJywgJzgnLCAnLW1hJywgJzIwMCcsICctbWV0YWxfYmluZGluZycsICctaW1hZScsICc8aW5maWxlLm1hZT4nLCAnLW9tYWUnLCAnPG91dGZpbGUubWFlPic=

> <r_lp_tautomer_probability>
0.999994

> <r_epik_Ionization_Penalty>
7.43905

> <r_epik_Ionization_Penalty_Charging>
7.43905

> <r_epik_Ionization_Penalty_Neutral>
3.43851e-06

> <r_epik_State_Penalty>
7.63789

> <r_epik_Charging_Adjusted_Penalty>
15.0769

> <i_epik_Tot_Q>
1

> <i_epik_Tot_abs_Q>
3

> <r_epik_Metal_State_Penalty>
3.83826

> <b_epik_Metal_Only>
1

> <s_lp_Force_Field>
OPLS_2005

> <r_lp_Energy>
25.3923

> <b_lp_Chiralities_Consistent>
1

> <s_lp_Variant>
AV-unprocessed.smi:1239-10

> <Gold.Version>
5.8.1

> <Gold.Id.Protein>
6NUR|6NUR_protein|mol2

> <Gold.PLP.Fitness>
43.9901

> <Gold.PLP.PLP>
-32.5948

> <Gold.PLP.part.hbond>
-2.0000

> <Gold.PLP.part.metal>
0.0000

> <Gold.PLP.part.buried>
-3.3591

> <Gold.PLP.part.nonpolar>
-27.4975

> <Gold.PLP.part.repulsive>
0.4161

> <Gold.PLP.ligand.clash>
0.0000

> <Gold.PLP.ligand.torsion>
0.4122

> <Gold.PLP.Chemscore.Hbond>
4.0000

> <Gold.PLP.Chemscore.CHOScore>
0.0000

> <Gold.PLP.Chemscore.Metal>
0.0000

> <Gold.Chemscore.Hbonds>
donor molecule, donor type, donor heavy atom, donor atom, acceptor molecule, acceptor atom, score
      L1  H    17    48       P1  7948  2.00
      P1  H 10752 10764       L1     4  1.90

> <Gold.PLP.Chemscore.Internal.Correction>
0.2197

> <Gold.Rescore>
     Score         DG    S(hbond)    S(metal)    S(lipo)     H(rot)  DE(clash)    DE(int)     intcor
     13.71     -15.27       1.47        0.00      74.05       1.48       0.02       1.53       ----

> <Gold.Chemscore.Fitness>
13.7119

> <Gold.Chemscore.DG>
-15.2652

> <Gold.Chemscore.ZeroCoef>
-5.4800

> <Gold.Chemscore.Hbond>
1.4724

> <Gold.Chemscore.Metal>
0.0000

> <Gold.Chemscore.Lipo>
74.0486

> <Gold.Chemscore.Internal_Hbond>
0.0000

> <Gold.Chemscore.DEClash>
0.0221

> <Gold.Chemscore.DEInternal>
1.5312

> <Gold.Chemscore.Rot>
1.4830

> <Gold.Chemscore.Internal.Correction>
   9.000000E+99

> <Gold.Chemscore.Hbonds>
donor molecule, donor type, donor heavy atom, donor atom, acceptor molecule, acceptor atom, score
      L1  H    17    48       P1  7948  0.91
      P1  H 10752 10764       L1     4  0.18

> <Gold.Chemscore.Hbond.Weighted>
-4.9179

> <Gold.Chemscore.Metal.Weighted>
-0.0000

> <Gold.Chemscore.Lipo.Weighted>
-8.6637

> <Gold.Chemscore.Internal_Hbond.Weighted>
0.0000

> <Gold.Chemscore.DEClash.Weighted>
0.0221

> <Gold.Chemscore.DEInternal.Weighted>
1.5312

> <Gold.Chemscore.Rot.Weighted>
3.7964

> <Gold.Chemscore.Internal.Correction.Weighted>
   9.000000E+99

> <Gold.Protein.RotatedTorsions>
[ 6907 6896 6895 6894 ] final -133.73 input  -60.11 | X-H torsion
[ 7974 7965 7964 7962 ] final   49.70 input  175.53 | X-H torsion
[ 8008 7997 7996 7995 ] final  -14.23 input   59.86 | X-H torsion
[ 10167 10162 10161 10158 ] final  -22.68 input  -65.29 | X-H torsion
[ 10718 10713 10712 10709 ] final  123.87 input   66.30 | X-H torsion
[ 10763 10752 10751 10750 ] final  -42.92 input  -60.55 | X-H torsion
[ 11005 11000 10999 10996 ] final  -70.74 input  -57.11 | X-H torsion

> <Gold.Protein.ActiveResidues>
 VAL166  LYS551  ARG553  GLY616  TRP617  ASP618  TYR619  PRO620  LYS621  CYS622 
 ASP623  PHE694  ASN695  SER759  ASP760  ASP761  ALA762  ILE779  LEU786  VAL792 
 PHE793  MET794  SER795  GLU796  ALA797  LYS798  CYS799  TRP800  GLU811  SER814 

> <Gold.Protein.RotatedAtoms>
  150.9774  133.6280  159.2727 H   0  0  0  0  0  0  0  0  0  0  0  0  # atno 6907 bound_to 6896
  151.3547  135.0891  159.9424 H   0  0  0  0  0  0  0  0  0  0  0  0  # atno 6908 bound_to 6896
  152.5204  133.9360  159.7658 H   0  0  0  0  0  0  0  0  0  0  0  0  # atno 6909 bound_to 6896
  146.0083  139.4515  142.9972 H   0  0  0  0  0  0  0  0  0  0  0  0  # atno 7974 bound_to 7965
  154.5227  140.2228  155.8946 H   0  0  0  0  0  0  0  0  0  0  0  0  # atno 8008 bound_to 7997
  156.1679  140.3128  155.8887 H   0  0  0  0  0  0  0  0  0  0  0  0  # atno 8009 bound_to 7997
  155.3618  140.0461  157.3037 H   0  0  0  0  0  0  0  0  0  0  0  0  # atno 8010 bound_to 7997
  140.7286  143.4513  151.0513 H   0  0  0  0  0  0  0  0  0  0  0  0  # atno 10167 bound_to 10162
  157.5630  131.1088  150.8504 H   0  0  0  0  0  0  0  0  0  0  0  0  # atno 10718 bound_to 10713
  153.9871  135.6710  153.4752 H   0  0  0  0  0  0  0  0  0  0  0  0  # atno 10763 bound_to 10752
  153.0722  135.4968  154.8325 H   0  0  0  0  0  0  0  0  0  0  0  0  # atno 10764 bound_to 10752
  154.7131  135.3101  154.9128 H   0  0  0  0  0  0  0  0  0  0  0  0  # atno 10765 bound_to 10752
  141.1580  133.6798  156.6799 H   0  0  0  0  0  0  0  0  0  0  0  0  # atno 11005 bound_to 11000
  145.7381  141.0018  143.1315 LP  0  0  0  0  0  0  0  0  0  0  0  0  # atno 17320 bound_to 7965
  144.6943  139.9066  143.7461 LP  0  0  0  0  0  0  0  0  0  0  0  0  # atno 17321 bound_to 7965
  139.8189  143.7847  152.3176 LP  0  0  0  0  0  0  0  0  0  0  0  0  # atno 17342 bound_to 10162
  139.7923  144.7405  150.9938 LP  0  0  0  0  0  0  0  0  0  0  0  0  # atno 17343 bound_to 10162
  156.8996  130.5242  149.5283 LP  0  0  0  0  0  0  0  0  0  0  0  0  # atno 17370 bound_to 10713
  156.0681  130.5720  150.9329 LP  0  0  0  0  0  0  0  0  0  0  0  0  # atno 17371 bound_to 10713
  140.3110  134.8086  157.4176 LP  0  0  0  0  0  0  0  0  0  0  0  0  # atno 17394 bound_to 11000
  140.1178  134.5259  155.8209 LP  0  0  0  0  0  0  0  0  0  0  0  0  # atno 17395 bound_to 11000

$$$$
