AV-unprocessed.smi:1005|AV-procd|sdf|4374|dock10
  -GOLD-   22720 2283D 1   1.00000     0.00000
 Structure written by MMmdl.
 57 59  0  0  0  0  0  0  0  0  3 V2000
  153.1583  142.5467  161.1865 C   0  0  0  0  0  0  0  0  0  0  0  0
  152.4685  142.2526  159.8651 C   0  0  0  0  0  0  0  0  0  0  0  0
  152.4462  140.9186  159.3982 C   0  0  0  0  0  0  0  0  0  0  0  0
  151.8069  140.6811  158.1871 C   0  0  0  0  0  0  0  0  0  0  0  0
  151.6126  139.4987  157.4694 N   0  3  0  0  0  0  0  0  0  0  0  0
  150.9208  139.7685  156.3274 C   0  0  0  0  0  0  0  0  0  0  0  0
  150.6718  141.1060  156.3063 N   0  0  0  0  0  0  0  0  0  0  0  0
  149.9598  141.9206  155.3133 C   0  0  0  0  0  0  0  0  0  0  0  0
  148.9514  141.1007  154.4859 C   0  0  2  0  0  0  0  0  0  0  0  0
  149.5856  140.6544  153.3032 O   0  0  0  0  0  0  0  0  0  0  0  0
  147.7191  141.9425  154.0994 C   0  0  0  0  0  0  0  0  0  0  0  0
  146.6263  141.9488  155.0744 N   0  0  0  0  0  0  0  0  0  0  0  0
  147.0881  142.1878  156.4404 C   0  0  0  0  0  0  0  0  0  0  0  0
  145.9207  142.2324  157.4396 C   0  0  0  0  0  0  0  0  0  0  0  0
  144.9771  143.2153  157.0269 O   0  0  0  0  0  0  0  0  0  0  0  0
  144.4479  142.9750  155.7254 C   0  0  1  0  0  0  0  0  0  0  0  0
  143.4163  144.0841  155.4265 C   0  0  0  0  0  0  0  0  0  0  0  0
  142.3201  143.6508  154.5216 N   0  3  0  0  0  0  0  0  0  0  0  0
  141.4215  144.7499  154.1016 C   0  0  0  0  0  0  0  0  0  0  0  0
  141.5596  142.5124  155.0842 C   0  0  0  0  0  0  0  0  0  0  0  0
  145.6320  142.9601  154.7321 C   0  0  0  0  0  0  0  0  0  0  0  0
  151.2048  141.7159  157.4459 C   0  0  0  0  0  0  0  0  0  0  0  0
  151.2169  143.0354  157.8908 C   0  0  0  0  0  0  0  0  0  0  0  0
  151.8606  143.2973  159.1212 C   0  0  0  0  0  0  0  0  0  0  0  0
  151.8885  144.7272  159.6334 C   0  0  0  0  0  0  0  0  0  0  0  0
  153.5950  141.6455  161.6179 H   0  0  0  0  0  0  0  0  0  0  0  0
  152.4471  142.9499  161.9075 H   0  0  0  0  0  0  0  0  0  0  0  0
  153.9608  143.2717  161.0482 H   0  0  0  0  0  0  0  0  0  0  0  0
  152.9055  140.1181  159.9598 H   0  0  0  0  0  0  0  0  0  0  0  0
  150.6195  139.0513  155.5771 H   0  0  0  0  0  0  0  0  0  0  0  0
  149.4641  142.7405  155.8344 H   0  0  0  0  0  0  0  0  0  0  0  0
  150.7083  142.3757  154.6628 H   0  0  0  0  0  0  0  0  0  0  0  0
  148.6559  140.2291  155.0678 H   0  0  0  0  0  0  0  0  0  0  0  0
  149.1778  139.8453  153.0334 H   0  0  0  0  0  0  0  0  0  0  0  0
  148.0335  142.9709  153.9146 H   0  0  0  0  0  0  0  0  0  0  0  0
  147.3467  141.5730  153.1425 H   0  0  0  0  0  0  0  0  0  0  0  0
  147.7781  141.4064  156.7552 H   0  0  0  0  0  0  0  0  0  0  0  0
  147.6378  143.1292  156.4866 H   0  0  0  0  0  0  0  0  0  0  0  0
  145.4354  141.2579  157.5110 H   0  0  0  0  0  0  0  0  0  0  0  0
  146.2837  142.4834  158.4364 H   0  0  0  0  0  0  0  0  0  0  0  0
  143.9500  142.0034  155.7387 H   0  0  0  0  0  0  0  0  0  0  0  0
  142.9526  144.3738  156.3709 H   0  0  0  0  0  0  0  0  0  0  0  0
  143.9009  144.9840  155.0442 H   0  0  0  0  0  0  0  0  0  0  0  0
  140.9905  145.2578  154.9654 H   0  0  0  0  0  0  0  0  0  0  0  0
  140.6039  144.3675  153.4895 H   0  0  0  0  0  0  0  0  0  0  0  0
  141.9542  145.4814  153.4953 H   0  0  0  0  0  0  0  0  0  0  0  0
  141.0581  142.7976  156.0100 H   0  0  0  0  0  0  0  0  0  0  0  0
  142.2201  141.6712  155.2976 H   0  0  0  0  0  0  0  0  0  0  0  0
  140.8041  142.1638  154.3792 H   0  0  0  0  0  0  0  0  0  0  0  0
  146.1025  143.9447  154.7166 H   0  0  0  0  0  0  0  0  0  0  0  0
  145.2681  142.7815  153.7215 H   0  0  0  0  0  0  0  0  0  0  0  0
  150.7533  143.8292  157.3238 H   0  0  0  0  0  0  0  0  0  0  0  0
  151.3422  145.3996  158.9712 H   0  0  0  0  0  0  0  0  0  0  0  0
  152.9148  145.0880  159.7023 H   0  0  0  0  0  0  0  0  0  0  0  0
  151.4311  144.7910  160.6208 H   0  0  0  0  0  0  0  0  0  0  0  0
  142.7603  143.3018  153.6820 H   0  0  0  0  0  0  0  0  0  0  0  0
  151.9248  138.5742  157.7374 H   0  0  0  0  0  0  0  0  0  0  0  0
  1  2  1  0  0  0  0
  1 26  1  0  0  0  0
  1 27  1  0  0  0  0
  1 28  1  0  0  0  0
  2 24  1  0  0  0  0
  2  3  2  0  0  0  0
  3  4  1  0  0  0  0
  3 29  1  0  0  0  0
  4 22  2  0  0  0  0
  4  5  1  0  0  0  0
  5  6  2  0  0  0  0
  5 57  1  0  0  0  0
  6  7  1  0  0  0  0
  6 30  1  0  0  0  0
  7  8  1  0  0  0  0
  7 22  1  0  0  0  0
  8  9  1  0  0  0  0
  8 31  1  0  0  0  0
  8 32  1  0  0  0  0
  9 10  1  0  0  0  0
  9 11  1  0  0  0  0
  9 33  1  0  0  0  0
 10 34  1  0  0  0  0
 11 12  1  0  0  0  0
 11 35  1  0  0  0  0
 11 36  1  0  0  0  0
 12 21  1  0  0  0  0
 12 13  1  0  0  0  0
 13 14  1  0  0  0  0
 13 37  1  0  0  0  0
 13 38  1  0  0  0  0
 14 15  1  0  0  0  0
 14 39  1  0  0  0  0
 14 40  1  0  0  0  0
 15 16  1  0  0  0  0
 16 17  1  0  0  0  0
 16 21  1  0  0  0  0
 16 41  1  0  0  0  0
 17 18  1  0  0  0  0
 17 42  1  0  0  0  0
 17 43  1  0  0  0  0
 18 19  1  0  0  0  0
 18 20  1  0  0  0  0
 18 56  1  0  0  0  0
 19 44  1  0  0  0  0
 19 45  1  0  0  0  0
 19 46  1  0  0  0  0
 20 47  1  0  0  0  0
 20 48  1  0  0  0  0
 20 49  1  0  0  0  0
 21 50  1  0  0  0  0
 21 51  1  0  0  0  0
 22 23  1  0  0  0  0
 23 24  2  0  0  0  0
 23 52  1  0  0  0  0
 24 25  1  0  0  0  0
 25 53  1  0  0  0  0
 25 54  1  0  0  0  0
 25 55  1  0  0  0  0
M  CHG  1   5   1
M  CHG  1  18   1
M  END
> <s_m_source_file>
AV-unprocessed.smi

> <i_m_source_file_index>
1005

> <i_lp_mmshare_version>
43012

> <i_f3d_flags>
0

> <s_epik_input>
W0NIM11jKFtjSF0xKWMoW0NIM10pW2NIXWMoYzEyKW4oW2NIXW4yKVtDSDJdW0NASF0oW09IXSlbQ0gyXU4zW0NIMl1bQ0gyXU9bQ0BIXShbQ0gyXTMpW0NIMl1OKFtDSDNdKVtDSDNd

> <s_epik_cmdline>
J2VwaWtfcHl0aG9uJywgJy1waCcsICc3LjAnLCAnLXRuJywgJzgnLCAnLW1hJywgJzIwMCcsICctbWV0YWxfYmluZGluZycsICctaW1hZScsICc8aW5maWxlLm1hZT4nLCAnLW9tYWUnLCAnPG91dGZpbGUubWFlPic=

> <r_epik_Ionization_Penalty>
1.3281

> <r_epik_Ionization_Penalty_Charging>
1.21988

> <r_epik_Ionization_Penalty_Neutral>
0.10822

> <r_epik_State_Penalty>
1.32886

> <r_epik_Charging_Adjusted_Penalty>
2.54875

> <i_epik_Tot_Q>
2

> <i_epik_Tot_abs_Q>
2

> <r_epik_Metal_State_Penalty>
5.33912

> <b_epik_Metal_Only>
0

> <s_lp_Force_Field>
OPLS_2005

> <r_lp_Energy>
44.7977

> <b_lp_Chiralities_Consistent>
1

> <s_lp_Variant>
AV-unprocessed.smi:1005-13

> <Gold.Version>
5.8.1

> <Gold.Id.Protein>
6NUR|6NUR_protein|mol2

> <Gold.PLP.Fitness>
55.0203

> <Gold.PLP.PLP>
-48.2255

> <Gold.PLP.part.hbond>
-2.9282

> <Gold.PLP.part.metal>
0.0000

> <Gold.PLP.part.buried>
-4.5796

> <Gold.PLP.part.nonpolar>
-40.7255

> <Gold.PLP.part.repulsive>
0.3299

> <Gold.PLP.ligand.clash>
0.0000

> <Gold.PLP.ligand.torsion>
1.5763

> <Gold.PLP.Chemscore.Hbond>
3.3016

> <Gold.PLP.Chemscore.CHOScore>
0.0000

> <Gold.PLP.Chemscore.Metal>
0.0000

> <Gold.Chemscore.Hbonds>
donor molecule, donor type, donor heavy atom, donor atom, acceptor molecule, acceptor atom, score
      L1  H    18    56       P1 10174  2.00
      P1  H  7989  7998       L1    10  0.32
      P1  H  8011  8017       L1    10  1.00

> <Gold.PLP.Chemscore.Internal.Correction>
0.0427

> <Gold.Rescore>
     Score         DG    S(hbond)    S(metal)    S(lipo)     H(rot)  DE(clash)    DE(int)     intcor
     16.71     -18.50       1.51        0.00     122.63       2.49       0.13       1.66       ----

> <Gold.Chemscore.Fitness>
16.7053

> <Gold.Chemscore.DG>
-18.5013

> <Gold.Chemscore.ZeroCoef>
-5.4800

> <Gold.Chemscore.Hbond>
1.5110

> <Gold.Chemscore.Metal>
0.0000

> <Gold.Chemscore.Lipo>
122.6342

> <Gold.Chemscore.Internal_Hbond>
0.0000

> <Gold.Chemscore.DEClash>
0.1323

> <Gold.Chemscore.DEInternal>
1.6638

> <Gold.Chemscore.Rot>
2.4897

> <Gold.Chemscore.Internal.Correction>
   9.000000E+99

> <Gold.Chemscore.Hbonds>
donor molecule, donor type, donor heavy atom, donor atom, acceptor molecule, acceptor atom, score
      L1  H    10    34       P1  7957  0.02
      L1  H    18    56       P1 10174  0.94
      P1  H  7989  7998       L1    10  0.22
      P1  H  8011  8017       L1    10  0.28

> <Gold.Chemscore.Hbond.Weighted>
-5.0468

> <Gold.Chemscore.Metal.Weighted>
-0.0000

> <Gold.Chemscore.Lipo.Weighted>
-14.3482

> <Gold.Chemscore.Internal_Hbond.Weighted>
0.0000

> <Gold.Chemscore.DEClash.Weighted>
0.1323

> <Gold.Chemscore.DEInternal.Weighted>
1.6638

> <Gold.Chemscore.Rot.Weighted>
6.3737

> <Gold.Chemscore.Internal.Correction.Weighted>
   9.000000E+99

> <Gold.Protein.RotatedTorsions>
[ 6907 6896 6895 6894 ] final -110.21 input  -60.11 | X-H torsion
[ 7974 7965 7964 7962 ] final  -59.59 input  175.53 | X-H torsion
[ 8008 7997 7996 7995 ] final   68.81 input   59.86 | X-H torsion
[ 10167 10162 10161 10158 ] final  -97.28 input  -65.29 | X-H torsion
[ 10718 10713 10712 10709 ] final -139.07 input   66.30 | X-H torsion
[ 10763 10752 10751 10750 ] final  -67.38 input  -60.55 | X-H torsion
[ 11005 11000 10999 10996 ] final  -19.73 input  -57.11 | X-H torsion

> <Gold.Protein.ActiveResidues>
 VAL166  LYS551  ARG553  GLY616  TRP617  ASP618  TYR619  PRO620  LYS621  CYS622 
 ASP623  PHE694  ASN695  SER759  ASP760  ASP761  ALA762  ILE779  LEU786  VAL792 
 PHE793  MET794  SER795  GLU796  ALA797  LYS798  CYS799  TRP800  GLU811  SER814 

> <Gold.Protein.RotatedAtoms>
  150.7610  133.9416  159.3457 H   0  0  0  0  0  0  0  0  0  0  0  0  # atno 6907 bound_to 6896
  151.7324  135.0870  160.0312 H   0  0  0  0  0  0  0  0  0  0  0  0  # atno 6908 bound_to 6896
  152.3581  133.6225  159.6030 H   0  0  0  0  0  0  0  0  0  0  0  0  # atno 6909 bound_to 6896
  145.8257  140.8512  143.0110 H   0  0  0  0  0  0  0  0  0  0  0  0  # atno 7974 bound_to 7965
  155.7140  140.3494  155.4986 H   0  0  0  0  0  0  0  0  0  0  0  0  # atno 8008 bound_to 7997
  155.9330  140.1087  157.1139 H   0  0  0  0  0  0  0  0  0  0  0  0  # atno 8009 bound_to 7997
  154.4088  140.1227  156.4814 H   0  0  0  0  0  0  0  0  0  0  0  0  # atno 8010 bound_to 7997
  140.2851  143.3257  152.0402 H   0  0  0  0  0  0  0  0  0  0  0  0  # atno 10167 bound_to 10162
  156.3065  130.7458  151.1523 H   0  0  0  0  0  0  0  0  0  0  0  0  # atno 10718 bound_to 10713
  154.3737  135.6089  153.5753 H   0  0  0  0  0  0  0  0  0  0  0  0  # atno 10763 bound_to 10752
  152.9789  135.5844  154.4492 H   0  0  0  0  0  0  0  0  0  0  0  0  # atno 10764 bound_to 10752
  154.4250  135.2846  155.1928 H   0  0  0  0  0  0  0  0  0  0  0  0  # atno 10765 bound_to 10752
  140.8395  133.7937  155.9845 H   0  0  0  0  0  0  0  0  0  0  0  0  # atno 11005 bound_to 11000
  144.6744  140.0598  143.7476 LP  0  0  0  0  0  0  0  0  0  0  0  0  # atno 17320 bound_to 7965
  145.9626  139.2812  143.1146 LP  0  0  0  0  0  0  0  0  0  0  0  0  # atno 17321 bound_to 7965
  139.4952  144.6565  151.6562 LP  0  0  0  0  0  0  0  0  0  0  0  0  # atno 17342 bound_to 10162
  140.5779  143.9996  150.6252 LP  0  0  0  0  0  0  0  0  0  0  0  0  # atno 17343 bound_to 10162
  157.7381  131.0545  150.5316 LP  0  0  0  0  0  0  0  0  0  0  0  0  # atno 17370 bound_to 10713
  156.5450  130.4217  149.6135 LP  0  0  0  0  0  0  0  0  0  0  0  0  # atno 17371 bound_to 10713
  140.8911  134.2494  157.5094 LP  0  0  0  0  0  0  0  0  0  0  0  0  # atno 17394 bound_to 11000
  139.8703  134.9662  156.4553 LP  0  0  0  0  0  0  0  0  0  0  0  0  # atno 17395 bound_to 11000

$$$$
