AV-unprocessed.smi:653|AV-procd|sdf|3211|dock6
  -GOLD-   22720 0153D 1   1.00000     0.00000
 Structure written by MMmdl.
 45 46  0  0  0  0  0  0  0  0  2 V2000
  144.5439  137.9369  153.8495 C   0  0  0  0  0  0  0  0  0  0  0  0
  145.6411  138.9374  154.1454 C   0  0  0  0  0  0  0  0  0  0  0  0
  146.9640  138.5407  154.4367 C   0  0  0  0  0  0  0  0  0  0  0  0
  147.9375  139.5275  154.6963 C   0  0  0  0  0  0  0  0  0  0  0  0
  147.5705  140.8911  154.6581 C   0  0  0  0  0  0  0  0  0  0  0  0
  148.5965  141.9777  154.9268 C   0  0  0  0  0  0  0  0  0  0  0  0
  149.6871  141.4601  155.8649 C   0  0  0  0  0  0  0  0  0  0  0  0
  150.3824  140.5024  155.5284 O   0  0  0  0  0  0  0  0  0  0  0  0
  149.8227  142.0986  157.0375 N   0  0  0  0  0  0  0  0  0  0  0  0
  150.8013  141.7624  158.0657 C   0  0  0  0  0  0  0  0  0  0  0  0
  151.7327  142.9486  158.3828 C   0  0  1  0  0  0  0  0  0  0  0  0
  151.0600  144.3064  158.3132 C   0  0  0  0  0  0  0  0  0  0  0  0
  152.0286  145.1703  159.1112 C   0  0  0  0  0  0  0  0  0  0  0  0
  152.5295  144.3235  160.1398 O   0  0  0  0  0  0  0  0  0  0  0  0
  152.2687  142.9564  159.8232 C   0  0  2  0  0  0  0  0  0  0  0  0
  153.5096  142.0739  160.0915 C   0  0  0  0  0  0  0  0  0  0  0  0
  153.3115  140.6640  159.5132 C   0  0  0  0  0  0  0  0  0  0  0  0
  153.8967  141.9978  161.5801 C   0  0  0  0  0  0  0  0  0  0  0  0
  146.2313  141.2277  154.3634 C   0  0  0  0  0  0  0  0  0  0  0  0
  145.3285  140.2526  154.1197 N   0  3  0  0  0  0  0  0  0  0  0  0
  144.8437  136.9300  154.1415 H   0  0  0  0  0  0  0  0  0  0  0  0
  144.3169  137.9301  152.7831 H   0  0  0  0  0  0  0  0  0  0  0  0
  143.6341  138.1906  154.3946 H   0  0  0  0  0  0  0  0  0  0  0  0
  147.2323  137.4944  154.4601 H   0  0  0  0  0  0  0  0  0  0  0  0
  148.9547  139.2385  154.9182 H   0  0  0  0  0  0  0  0  0  0  0  0
  149.0427  142.2998  153.9847 H   0  0  0  0  0  0  0  0  0  0  0  0
  148.1156  142.8544  155.3633 H   0  0  0  0  0  0  0  0  0  0  0  0
  149.2100  142.8776  157.2303 H   0  0  0  0  0  0  0  0  0  0  0  0
  150.2583  141.4602  158.9617 H   0  0  0  0  0  0  0  0  0  0  0  0
  151.3847  140.8945  157.7540 H   0  0  0  0  0  0  0  0  0  0  0  0
  152.5634  142.9533  157.6777 H   0  0  0  0  0  0  0  0  0  0  0  0
  150.9164  144.6646  157.2933 H   0  0  0  0  0  0  0  0  0  0  0  0
  150.0880  144.2796  158.8080 H   0  0  0  0  0  0  0  0  0  0  0  0
  152.8627  145.4844  158.4824 H   0  0  0  0  0  0  0  0  0  0  0  0
  151.5558  146.0630  159.5209 H   0  0  0  0  0  0  0  0  0  0  0  0
  151.4595  142.6406  160.4837 H   0  0  0  0  0  0  0  0  0  0  0  0
  154.3512  142.5168  159.5577 H   0  0  0  0  0  0  0  0  0  0  0  0
  152.4837  140.1483  160.0010 H   0  0  0  0  0  0  0  0  0  0  0  0
  154.2063  140.0551  159.6452 H   0  0  0  0  0  0  0  0  0  0  0  0
  153.0964  140.7018  158.4450 H   0  0  0  0  0  0  0  0  0  0  0  0
  153.0845  141.5895  162.1825 H   0  0  0  0  0  0  0  0  0  0  0  0
  154.1552  142.9744  161.9871 H   0  0  0  0  0  0  0  0  0  0  0  0
  154.7658  141.3551  161.7230 H   0  0  0  0  0  0  0  0  0  0  0  0
  145.8589  142.2407  154.3095 H   0  0  0  0  0  0  0  0  0  0  0  0
  144.3678  140.5213  153.9055 H   0  0  0  0  0  0  0  0  0  0  0  0
  1  2  1  0  0  0  0
  1 21  1  0  0  0  0
  1 22  1  0  0  0  0
  1 23  1  0  0  0  0
  2 20  1  0  0  0  0
  2  3  2  0  0  0  0
  3  4  1  0  0  0  0
  3 24  1  0  0  0  0
  4  5  2  0  0  0  0
  4 25  1  0  0  0  0
  5  6  1  0  0  0  0
  5 19  1  0  0  0  0
  6  7  1  0  0  0  0
  6 26  1  0  0  0  0
  6 27  1  0  0  0  0
  7  8  2  0  0  0  0
  7  9  1  0  0  0  0
  9 10  1  0  0  0  0
  9 28  1  0  0  0  0
 10 11  1  0  0  0  0
 10 29  1  0  0  0  0
 10 30  1  0  0  0  0
 11 15  1  0  0  0  0
 11 12  1  0  0  0  0
 11 31  1  0  0  0  0
 12 13  1  0  0  0  0
 12 32  1  0  0  0  0
 12 33  1  0  0  0  0
 13 14  1  0  0  0  0
 13 34  1  0  0  0  0
 13 35  1  0  0  0  0
 14 15  1  0  0  0  0
 15 16  1  0  0  0  0
 15 36  1  0  0  0  0
 16 17  1  0  0  0  0
 16 18  1  0  0  0  0
 16 37  1  0  0  0  0
 17 38  1  0  0  0  0
 17 39  1  0  0  0  0
 17 40  1  0  0  0  0
 18 41  1  0  0  0  0
 18 42  1  0  0  0  0
 18 43  1  0  0  0  0
 19 20  2  0  0  0  0
 19 44  1  0  0  0  0
 20 45  1  0  0  0  0
M  CHG  1  20   1
M  END
> <s_m_source_file>
AV-unprocessed.smi

> <i_m_source_file_index>
653

> <i_lp_mmshare_version>
43012

> <i_f3d_flags>
0

> <s_epik_input>
W0NIM11jMVtjSF1bY0hdYyhbY0hdbjEpW0NIMl1DKD1PKVtOSF1bQ0gyXVtDQEBIXTJbQ0gyXVtDSDJdT1tDQEhdMltDSF0oW0NIM10pW0NIM10=

> <s_epik_cmdline>
J2VwaWtfcHl0aG9uJywgJy1waCcsICc3LjAnLCAnLXRuJywgJzgnLCAnLW1hJywgJzIwMCcsICctbWV0YWxfYmluZGluZycsICctaW1hZScsICc8aW5maWxlLm1hZT4nLCAnLW9tYWUnLCAnPG91dGZpbGUubWFlPic=

> <r_epik_Ionization_Penalty>
2.12486

> <r_epik_Ionization_Penalty_Charging>
2.12486

> <r_epik_Ionization_Penalty_Neutral>
9.0873e-08

> <r_epik_State_Penalty>
2.26279

> <r_epik_Charging_Adjusted_Penalty>
4.38765

> <i_epik_Tot_Q>
1

> <i_epik_Tot_abs_Q>
1

> <r_epik_Metal_State_Penalty>
2.27914

> <b_epik_Metal_Only>
0

> <s_lp_Force_Field>
OPLS_2005

> <r_lp_Energy>
26.1393

> <b_lp_Chiralities_Consistent>
1

> <s_lp_Variant>
AV-unprocessed.smi:653-8

> <Gold.Version>
5.8.1

> <Gold.Id.Protein>
6NUR|6NUR_protein|mol2

> <Gold.PLP.Fitness>
52.3756

> <Gold.PLP.PLP>
-43.5756

> <Gold.PLP.part.hbond>
-2.8936

> <Gold.PLP.part.metal>
0.0000

> <Gold.PLP.part.buried>
0.8176

> <Gold.PLP.part.nonpolar>
-40.1846

> <Gold.PLP.part.repulsive>
0.1401

> <Gold.PLP.ligand.clash>
0.0000

> <Gold.PLP.ligand.torsion>
0.7678

> <Gold.PLP.Chemscore.Hbond>
3.4339

> <Gold.PLP.Chemscore.CHOScore>
0.0000

> <Gold.PLP.Chemscore.Metal>
0.0000

> <Gold.Chemscore.Hbonds>
donor molecule, donor type, donor heavy atom, donor atom, acceptor molecule, acceptor atom, score
      L1  H    20    45       P1 10175  1.09
      P1  H  7989  7998       L1     8  0.06

> <Gold.PLP.Chemscore.Internal.Correction>
0.0339

> <Gold.Rescore>
     Score         DG    S(hbond)    S(metal)    S(lipo)     H(rot)  DE(clash)    DE(int)     intcor
     17.79     -19.73       1.68        0.00     108.05       1.57       0.03       1.92       ----

> <Gold.Chemscore.Fitness>
17.7862

> <Gold.Chemscore.DG>
-19.7292

> <Gold.Chemscore.ZeroCoef>
-5.4800

> <Gold.Chemscore.Hbond>
1.6847

> <Gold.Chemscore.Metal>
0.0000

> <Gold.Chemscore.Lipo>
108.0497

> <Gold.Chemscore.Internal_Hbond>
0.0000

> <Gold.Chemscore.DEClash>
0.0262

> <Gold.Chemscore.DEInternal>
1.9167

> <Gold.Chemscore.Rot>
1.5701

> <Gold.Chemscore.Internal.Correction>
   9.000000E+99

> <Gold.Chemscore.Hbonds>
donor molecule, donor type, donor heavy atom, donor atom, acceptor molecule, acceptor atom, score
      L1  H     9    28       P1  8028  0.03
      L1  H    20    45       P1 10175  0.54
      P1  H  7989  7998       L1     8  0.08

> <Gold.Chemscore.Hbond.Weighted>
-5.6270

> <Gold.Chemscore.Metal.Weighted>
-0.0000

> <Gold.Chemscore.Lipo.Weighted>
-12.6418

> <Gold.Chemscore.Internal_Hbond.Weighted>
0.0000

> <Gold.Chemscore.DEClash.Weighted>
0.0262

> <Gold.Chemscore.DEInternal.Weighted>
1.9167

> <Gold.Chemscore.Rot.Weighted>
4.0196

> <Gold.Chemscore.Internal.Correction.Weighted>
   9.000000E+99

> <Gold.Protein.RotatedTorsions>
[ 6907 6896 6895 6894 ] final   54.65 input  -60.11 | X-H torsion
[ 7974 7965 7964 7962 ] final   45.94 input  175.53 | X-H torsion
[ 8008 7997 7996 7995 ] final  104.41 input   59.86 | X-H torsion
[ 10167 10162 10161 10158 ] final  139.93 input  -65.29 | X-H torsion
[ 10718 10713 10712 10709 ] final  153.86 input   66.30 | X-H torsion
[ 10763 10752 10751 10750 ] final  -65.79 input  -60.55 | X-H torsion
[ 11005 11000 10999 10996 ] final  -37.42 input  -57.11 | X-H torsion

> <Gold.Protein.ActiveResidues>
 VAL166  LYS551  ARG553  GLY616  TRP617  ASP618  TYR619  PRO620  LYS621  CYS622 
 ASP623  PHE694  ASN695  SER759  ASP760  ASP761  ALA762  ILE779  LEU786  VAL792 
 PHE793  MET794  SER795  GLU796  ALA797  LYS798  CYS799  TRP800  GLU811  SER814 

> <Gold.Protein.RotatedAtoms>
  152.3461  134.7070  160.0249 H   0  0  0  0  0  0  0  0  0  0  0  0  # atno 6907 bound_to 6896
  151.7439  133.3318  159.3381 H   0  0  0  0  0  0  0  0  0  0  0  0  # atno 6908 bound_to 6896
  150.7510  134.6186  159.6168 H   0  0  0  0  0  0  0  0  0  0  0  0  # atno 6909 bound_to 6896
  146.0435  139.4910  142.9763 H   0  0  0  0  0  0  0  0  0  0  0  0  # atno 7974 bound_to 7965
  156.1571  140.3148  155.8744 H   0  0  0  0  0  0  0  0  0  0  0  0  # atno 8008 bound_to 7997
  155.3857  140.0490  157.3059 H   0  0  0  0  0  0  0  0  0  0  0  0  # atno 8009 bound_to 7997
  154.5111  140.2165  155.9166 H   0  0  0  0  0  0  0  0  0  0  0  0  # atno 8010 bound_to 7997
  139.5064  144.6265  151.5924 H   0  0  0  0  0  0  0  0  0  0  0  0  # atno 10167 bound_to 10162
  157.2393  131.0755  151.1803 H   0  0  0  0  0  0  0  0  0  0  0  0  # atno 10718 bound_to 10713
  154.3502  135.6138  153.5639 H   0  0  0  0  0  0  0  0  0  0  0  0  # atno 10763 bound_to 10752
  152.9799  135.5790  154.4752 H   0  0  0  0  0  0  0  0  0  0  0  0  # atno 10764 bound_to 10752
  154.4472  135.2852  155.1784 H   0  0  0  0  0  0  0  0  0  0  0  0  # atno 10765 bound_to 10752
  140.9951  133.6984  156.1919 H   0  0  0  0  0  0  0  0  0  0  0  0  # atno 11005 bound_to 11000
  145.6845  141.0182  143.1588 LP  0  0  0  0  0  0  0  0  0  0  0  0  # atno 17320 bound_to 7965
  144.7086  139.8460  143.7422 LP  0  0  0  0  0  0  0  0  0  0  0  0  # atno 17321 bound_to 7965
  140.5984  143.9655  150.6369 LP  0  0  0  0  0  0  0  0  0  0  0  0  # atno 17342 bound_to 10162
  140.2858  143.3358  152.1108 LP  0  0  0  0  0  0  0  0  0  0  0  0  # atno 17343 bound_to 10162
  157.3396  130.7026  149.6373 LP  0  0  0  0  0  0  0  0  0  0  0  0  # atno 17370 bound_to 10713
  155.9671  130.4284  150.4785 LP  0  0  0  0  0  0  0  0  0  0  0  0  # atno 17371 bound_to 10713
  140.6979  134.4595  157.5587 LP  0  0  0  0  0  0  0  0  0  0  0  0  # atno 17394 bound_to 11000
  139.9010  134.8555  156.1894 LP  0  0  0  0  0  0  0  0  0  0  0  0  # atno 17395 bound_to 11000

$$$$
