#       Name:                AV-unprocessed.smi:3232
#       Creating user name   scv26
#       Creation time:       Fri Mar 27 18:20:08 2020


#       File generated by GOLD software.
#

@<TRIPOS>MOLECULE
AV-unprocessed.smi:3232
    44    45     1
SMALL
NO_CHARGES


@<TRIPOS>ATOM
      1 ****        -4.7586   1.2173  -0.8776 C.3            1 S1                 0.0000
      2 ****        -3.3480   0.6278  -1.0225 C.3            1 S1                 0.0000
      3 ****        -2.4133   1.1355   0.0168 N.4            1 S1                 1.0000
      4 ****        -2.8149   0.8132   1.4063 C.3            1 S1                 0.0000
      5 ****        -1.5275   0.8155   2.2218 C.3            1 S1                 0.0000
      6 ****        -0.5257   0.2306   1.2393 C.3            1 S1                 0.0000
      7 ****        -0.9613   0.8022  -0.1214 C.3            1 S1                 0.0000
      8 ****        -0.5697  -0.0914  -1.3260 C.3            1 S1                 0.0000
      9 ****         0.8690  -0.3344  -1.3600 N.am           1 S1                 0.0000
     10 ****         1.4819  -1.4568  -0.9490 C.2            1 S1                 0.0000
     11 ****         0.8705  -2.4552  -0.5669 O.2            1 S1                 0.0000
     12 ****         3.0185  -1.4252  -0.9465 C.3            1 S1                 0.0000
     13 ****         3.6504  -2.8287  -0.8509 C.3            1 S1                 0.0000
     14 ****         3.4951  -0.5389   0.1087 N.pl3          1 S1                 0.0000
     15 ****         3.9375   0.7184   0.0387 C.2            1 S1                 0.0000
     16 ****         4.2391   1.2497   1.2149 N.2            1 S1                 0.0000
     17 ****         3.9362   0.1939   2.0268 C.2            1 S1                 0.0000
     18 ****         3.4741  -0.8973   1.4170 N.2            1 S1                 0.0000
     19 ****        -5.3983   0.8864  -1.6961 H              1 S1                 0.0000
     20 ****        -4.7354   2.3073  -0.8972 H              1 S1                 0.0000
     21 ****        -5.2357   0.9061   0.0521 H              1 S1                 0.0000
     22 ****        -3.3951  -0.4615  -0.9887 H              1 S1                 0.0000
     23 ****        -2.9793   0.9064  -2.0093 H              1 S1                 0.0000
     24 ****        -3.5480   1.5232   1.7901 H              1 S1                 0.0000
     25 ****        -3.2604  -0.1826   1.4396 H              1 S1                 0.0000
     26 ****        -1.2462   1.8369   2.4816 H              1 S1                 0.0000
     27 ****        -1.6067   0.2382   3.1435 H              1 S1                 0.0000
     28 ****         0.5065   0.4771   1.4920 H              1 S1                 0.0000
     29 ****        -0.6185  -0.8564   1.2414 H              1 S1                 0.0000
     30 ****        -0.4617   1.7639  -0.2472 H              1 S1                 0.0000
     31 ****        -1.1190  -1.0339  -1.3091 H              1 S1                 0.0000
     32 ****        -0.8227   0.4024  -2.2639 H              1 S1                 0.0000
     33 ****         1.4506   0.4311  -1.6691 H              1 S1                 0.0000
     34 ****         3.3330  -0.9921  -1.8974 H              1 S1                 0.0000
     35 ****         3.3283  -3.4624  -1.6778 H              1 S1                 0.0000
     36 ****         3.3844  -3.3359   0.0775 H              1 S1                 0.0000
     37 ****         4.7383  -2.7677  -0.8922 H              1 S1                 0.0000
     38 ****         4.0321   1.2602  -0.8911 H              1 S1                 0.0000
     39 ****         4.0502   0.2340   3.1002 H              1 S1                 0.0000
     40 ****        -2.4502   2.1427  -0.0502 H              1 S1                 0.0000
     41 ****        -0.1294  -2.4543  -0.5529 LP             1 S1                 0.0000
     42 ****         1.3740  -3.2668  -0.2705 LP             1 S1                 0.0000
     43 ****         4.5873   2.1592   1.4420 LP             1 S1                 0.0000
     44 ****         3.1842  -1.7641   1.8227 LP             1 S1                 0.0000
@<TRIPOS>BOND
    1    1    2 1     
    2    1   19 1     
    3    1   20 1     
    4    1   21 1     
    5    2    3 1     
    6    2   22 1     
    7    2   23 1     
    8    3    7 1     
    9    3    4 1     
   10    3   40 1     
   11    4    5 1     
   12    4   24 1     
   13    4   25 1     
   14    5    6 1     
   15    5   26 1     
   16    5   27 1     
   17    6    7 1     
   18    6   28 1     
   19    6   29 1     
   20    7    8 1     
   21    7   30 1     
   22    8    9 1     
   23    8   31 1     
   24    8   32 1     
   25    9   10 am    
   26    9   33 1     
   27   10   11 2     
   28   10   12 1     
   29   12   13 1     
   30   12   14 1     
   31   12   34 1     
   32   13   35 1     
   33   13   36 1     
   34   13   37 1     
   35   14   18 1     
   36   14   15 1     
   37   15   16 2     
   38   15   38 1     
   39   16   17 1     
   40   17   18 2     
   41   17   39 1     
   42   11   41 1     
   43   11   42 1     
   44   16   43 1     
   45   18   44 1     
@<TRIPOS>SUBSTRUCTURE
      1 S1             1
@<TRIPOS>SET
LONE_PAIRS      STATIC     ATOMS    <user>   **** ""
4 41 42 43 44
DONOR_HYDROGENS      STATIC     ATOMS    <user>   **** ""
2 40 33
ATOM$BLUE        STATIC     ATOMS    COLORGROUP SYSTEM
4 41 42 43 44
ATOM$RED        STATIC     ATOMS    COLORGROUP SYSTEM
2 40 33
