AV-unprocessed.smi:2816|AV-procd|sdf|10845|dock6
  -GOLD-   2272015283D 1   1.00000     0.00000
 Structure written by MMmdl.
 43 45  0  0  0  0  0  0  0  0  1 V2000
  151.6194  128.5980  157.0860 C   0  0  0  0  0  0  0  0  0  0  0  0
  152.0118  129.7703  156.1699 C   0  0  0  0  0  0  0  0  0  0  0  0
  153.5455  129.8921  156.1180 C   0  0  0  0  0  0  0  0  0  0  0  0
  151.4438  129.5292  154.7591 C   0  0  0  0  0  0  0  0  0  0  0  0
  151.2865  131.3249  156.8937 S   0  0  0  0  0  0  0  0  0  0  0  0
  150.3676  130.9466  157.9791 O   0  0  0  0  0  0  0  0  0  0  0  0
  152.3968  132.2464  157.1836 O   0  0  0  0  0  0  0  0  0  0  0  0
  150.3023  132.0630  155.5876 C   0  0  0  0  0  0  0  0  0  0  0  0
  150.5985  133.3633  155.1312 C   0  0  0  0  0  0  0  0  0  0  0  0
  149.8319  133.8862  154.0731 C   0  0  0  0  0  0  0  0  0  0  0  0
  148.8086  133.0893  153.5066 C   0  0  0  0  0  0  0  0  0  0  0  0
  147.9967  133.5148  152.4447 N   0  0  0  0  0  0  0  0  0  0  0  0
  146.7576  132.8222  152.1112 C   0  0  1  0  0  0  0  0  0  0  0  0
  145.5321  133.3925  152.8386 C   0  0  0  0  0  0  0  0  0  0  0  0
  144.6019  133.7404  151.6704 C   0  0  2  0  0  0  0  0  0  0  0  0
  144.0671  132.4895  150.9599 C   0  0  0  0  0  0  0  0  0  0  0  0
  145.3043  132.0088  150.2021 C   0  0  0  0  0  0  0  0  0  0  0  0
  146.3614  133.0323  150.6394 C   0  0  1  0  0  0  0  0  0  0  0  0
  145.5533  134.1950  150.7248 O   0  0  0  0  0  0  0  0  0  0  0  0
  148.6066  131.7990  154.0431 C   0  0  0  0  0  0  0  0  0  0  0  0
  149.3354  131.2849  155.0558 N   0  0  0  0  0  0  0  0  0  0  0  0
  152.0168  127.6527  156.7147 H   0  0  0  0  0  0  0  0  0  0  0  0
  150.5360  128.4952  157.1561 H   0  0  0  0  0  0  0  0  0  0  0  0
  152.0014  128.7400  158.0975 H   0  0  0  0  0  0  0  0  0  0  0  0
  153.9628  130.0956  157.1045 H   0  0  0  0  0  0  0  0  0  0  0  0
  153.8626  130.6954  155.4529 H   0  0  0  0  0  0  0  0  0  0  0  0
  154.0014  128.9710  155.7532 H   0  0  0  0  0  0  0  0  0  0  0  0
  151.7928  128.5797  154.3522 H   0  0  0  0  0  0  0  0  0  0  0  0
  151.7504  130.3076  154.0615 H   0  0  0  0  0  0  0  0  0  0  0  0
  150.3540  129.5009  154.7670 H   0  0  0  0  0  0  0  0  0  0  0  0
  151.3931  133.9451  155.5741 H   0  0  0  0  0  0  0  0  0  0  0  0
  150.0430  134.8815  153.7126 H   0  0  0  0  0  0  0  0  0  0  0  0
  148.1400  134.4378  152.0597 H   0  0  0  0  0  0  0  0  0  0  0  0
  146.8823  131.7562  152.3052 H   0  0  0  0  0  0  0  0  0  0  0  0
  145.0835  132.6782  153.5293 H   0  0  0  0  0  0  0  0  0  0  0  0
  145.7792  134.2948  153.4003 H   0  0  0  0  0  0  0  0  0  0  0  0
  143.8327  134.4716  151.9206 H   0  0  0  0  0  0  0  0  0  0  0  0
  143.6838  131.7479  151.6613 H   0  0  0  0  0  0  0  0  0  0  0  0
  143.2684  132.7473  150.2636 H   0  0  0  0  0  0  0  0  0  0  0  0
  145.5845  130.9850  150.4515 H   0  0  0  0  0  0  0  0  0  0  0  0
  145.1369  132.0638  149.1258 H   0  0  0  0  0  0  0  0  0  0  0  0
  147.2021  133.1118  149.9489 H   0  0  0  0  0  0  0  0  0  0  0  0
  147.8392  131.1530  153.6415 H   0  0  0  0  0  0  0  0  0  0  0  0
  1  2  1  0  0  0  0
  1 22  1  0  0  0  0
  1 23  1  0  0  0  0
  1 24  1  0  0  0  0
  2  3  1  0  0  0  0
  2  4  1  0  0  0  0
  2  5  1  0  0  0  0
  3 25  1  0  0  0  0
  3 26  1  0  0  0  0
  3 27  1  0  0  0  0
  4 28  1  0  0  0  0
  4 29  1  0  0  0  0
  4 30  1  0  0  0  0
  5  6  2  0  0  0  0
  5  7  2  0  0  0  0
  5  8  1  0  0  0  0
  8 21  1  0  0  0  0
  8  9  2  0  0  0  0
  9 10  1  0  0  0  0
  9 31  1  0  0  0  0
 10 11  2  0  0  0  0
 10 32  1  0  0  0  0
 11 12  1  0  0  0  0
 11 20  1  0  0  0  0
 12 13  1  0  0  0  0
 12 33  1  0  0  0  0
 13 18  1  0  0  0  0
 13 14  1  0  0  0  0
 13 34  1  0  0  0  0
 14 15  1  0  0  0  0
 14 35  1  0  0  0  0
 14 36  1  0  0  0  0
 15 19  1  0  0  0  0
 15 16  1  0  0  0  0
 15 37  1  0  0  0  0
 16 17  1  0  0  0  0
 16 38  1  0  0  0  0
 16 39  1  0  0  0  0
 17 18  1  0  0  0  0
 17 40  1  0  0  0  0
 17 41  1  0  0  0  0
 18 19  1  0  0  0  0
 18 42  1  0  0  0  0
 20 21  2  0  0  0  0
 20 43  1  0  0  0  0
M  END
> <s_m_source_file>
AV-unprocessed.smi

> <i_m_source_file_index>
2816

> <i_lp_mmshare_version>
43012

> <i_f3d_flags>
0

> <s_epik_input>
W0NIM11DKFtDSDNdKShbQ0gzXSlTKD1PKSg9TyljMVtjSF1bY0hdYyhbY0hdbjEpW05IXVtDQEhdKFtDSDJdW0NAQEhdMjMpW0NAQEhdKE8zKVtDSDJdW0NIMl0y

> <s_epik_cmdline>
J2VwaWtfcHl0aG9uJywgJy1waCcsICc3LjAnLCAnLXRuJywgJzgnLCAnLW1hJywgJzIwMCcsICctbWV0YWxfYmluZGluZycsICctaW1hZScsICc8aW5maWxlLm1hZT4nLCAnLW9tYWUnLCAnPG91dGZpbGUubWFlPic=

> <r_lp_tautomer_probability>
1

> <r_epik_Ionization_Penalty>
1.94439e-07

> <r_epik_Ionization_Penalty_Charging>
0

> <r_epik_Ionization_Penalty_Neutral>
1.94439e-07

> <r_epik_State_Penalty>
-0

> <r_epik_Charging_Adjusted_Penalty>
0

> <i_epik_Tot_Q>
0

> <i_epik_Tot_abs_Q>
0

> <r_epik_Metal_State_Penalty>
-0

> <b_epik_Metal_Only>
0

> <s_lp_Force_Field>
OPLS_2005

> <r_lp_Energy>
42.0373

> <b_lp_Chiralities_Consistent>
1

> <s_lp_Variant>
AV-unprocessed.smi:2816-4

> <Gold.Version>
5.8.1

> <Gold.Id.Protein>
6NUR|6NUR_protein|mol2

> <Gold.PLP.Fitness>
40.4446

> <Gold.PLP.PLP>
-35.5688

> <Gold.PLP.part.hbond>
-2.0000

> <Gold.PLP.part.metal>
0.0000

> <Gold.PLP.part.buried>
-4.3545

> <Gold.PLP.part.nonpolar>
-29.6616

> <Gold.PLP.part.repulsive>
0.5632

> <Gold.PLP.ligand.clash>
0.0000

> <Gold.PLP.ligand.torsion>
1.6683

> <Gold.PLP.Chemscore.Hbond>
1.9913

> <Gold.PLP.Chemscore.CHOScore>
0.0000

> <Gold.PLP.Chemscore.Metal>
0.0000

> <Gold.Chemscore.Hbonds>
donor molecule, donor type, donor heavy atom, donor atom, acceptor molecule, acceptor atom, score
      L1  H    12    33       P1  7948  0.70

> <Gold.PLP.Chemscore.Internal.Correction>
2.2386

> <Gold.Rescore>
     Score         DG    S(hbond)    S(metal)    S(lipo)     H(rot)  DE(clash)    DE(int)     intcor
     14.09     -17.23       1.75        0.00      75.49       1.15       0.01       3.13       ----

> <Gold.Chemscore.Fitness>
14.0916

> <Gold.Chemscore.DG>
-17.2274

> <Gold.Chemscore.ZeroCoef>
-5.4800

> <Gold.Chemscore.Hbond>
1.7520

> <Gold.Chemscore.Metal>
0.0000

> <Gold.Chemscore.Lipo>
75.4899

> <Gold.Chemscore.Internal_Hbond>
0.0000

> <Gold.Chemscore.DEClash>
0.0073

> <Gold.Chemscore.DEInternal>
3.1285

> <Gold.Chemscore.Rot>
1.1471

> <Gold.Chemscore.Internal.Correction>
   9.000000E+99

> <Gold.Chemscore.Hbonds>
donor molecule, donor type, donor heavy atom, donor atom, acceptor molecule, acceptor atom, score
      L1  H    12    33       P1  7948  0.07
      P1  H  6896  6908       L1     7  0.02

> <Gold.Chemscore.Hbond.Weighted>
-5.8517

> <Gold.Chemscore.Metal.Weighted>
-0.0000

> <Gold.Chemscore.Lipo.Weighted>
-8.8323

> <Gold.Chemscore.Internal_Hbond.Weighted>
0.0000

> <Gold.Chemscore.DEClash.Weighted>
0.0073

> <Gold.Chemscore.DEInternal.Weighted>
3.1285

> <Gold.Chemscore.Rot.Weighted>
2.9366

> <Gold.Chemscore.Internal.Correction.Weighted>
   9.000000E+99

> <Gold.Protein.RotatedTorsions>
[ 6907 6896 6895 6894 ] final   61.36 input  -60.11 | X-H torsion
[ 7974 7965 7964 7962 ] final  -25.27 input  175.53 | X-H torsion
[ 8008 7997 7996 7995 ] final  -93.97 input   59.86 | X-H torsion
[ 10167 10162 10161 10158 ] final -154.30 input  -65.29 | X-H torsion
[ 10718 10713 10712 10709 ] final  -24.65 input   66.30 | X-H torsion
[ 10763 10752 10751 10750 ] final  124.91 input  -60.55 | X-H torsion
[ 11005 11000 10999 10996 ] final  -11.19 input  -57.11 | X-H torsion

> <Gold.Protein.ActiveResidues>
 VAL166  LYS551  ARG553  GLY616  TRP617  ASP618  TYR619  PRO620  LYS621  CYS622 
 ASP623  PHE694  ASN695  SER759  ASP760  ASP761  ALA762  ILE779  LEU786  VAL792 
 PHE793  MET794  SER795  GLU796  ALA797  LYS798  CYS799  TRP800  GLU811  SER814 

> <Gold.Protein.RotatedAtoms>
  152.4082  134.6170  160.0040 H   0  0  0  0  0  0  0  0  0  0  0  0  # atno 6907 bound_to 6896
  151.6355  133.3323  159.3126 H   0  0  0  0  0  0  0  0  0  0  0  0  # atno 6908 bound_to 6896
  150.7975  134.7087  159.6636 H   0  0  0  0  0  0  0  0  0  0  0  0  # atno 6909 bound_to 6896
  146.1502  140.4863  142.8614 H   0  0  0  0  0  0  0  0  0  0  0  0  # atno 7974 bound_to 7965
  154.7425  140.0493  157.0823 H   0  0  0  0  0  0  0  0  0  0  0  0  # atno 8008 bound_to 7997
  155.0160  140.3141  155.4792 H   0  0  0  0  0  0  0  0  0  0  0  0  # atno 8009 bound_to 7997
  156.2867  140.2175  156.5276 H   0  0  0  0  0  0  0  0  0  0  0  0  # atno 8010 bound_to 7997
  139.7024  143.9241  152.2434 H   0  0  0  0  0  0  0  0  0  0  0  0  # atno 10167 bound_to 10162
  156.4749  130.4532  149.6847 H   0  0  0  0  0  0  0  0  0  0  0  0  # atno 10718 bound_to 10713
  153.6688  135.3334  155.3148 H   0  0  0  0  0  0  0  0  0  0  0  0  # atno 10763 bound_to 10752
  154.8496  135.4381  154.1726 H   0  0  0  0  0  0  0  0  0  0  0  0  # atno 10764 bound_to 10752
  153.2712  135.7000  153.7554 H   0  0  0  0  0  0  0  0  0  0  0  0  # atno 10765 bound_to 10752
  140.7527  133.8579  155.9058 H   0  0  0  0  0  0  0  0  0  0  0  0  # atno 11005 bound_to 11000
  144.7894  140.6002  143.6551 LP  0  0  0  0  0  0  0  0  0  0  0  0  # atno 17320 bound_to 7965
  145.4842  139.1493  143.3745 LP  0  0  0  0  0  0  0  0  0  0  0  0  # atno 17321 bound_to 7965
  139.9087  144.6869  150.8586 LP  0  0  0  0  0  0  0  0  0  0  0  0  # atno 17342 bound_to 10162
  140.7713  143.3459  151.2111 LP  0  0  0  0  0  0  0  0  0  0  0  0  # atno 17343 bound_to 10162
  156.3581  130.7467  151.2435 LP  0  0  0  0  0  0  0  0  0  0  0  0  # atno 17370 bound_to 10713
  157.7488  131.0358  150.4380 LP  0  0  0  0  0  0  0  0  0  0  0  0  # atno 17371 bound_to 10713
  140.9736  134.1498  157.4555 LP  0  0  0  0  0  0  0  0  0  0  0  0  # atno 17394 bound_to 11000
  139.8785  134.9987  156.5914 LP  0  0  0  0  0  0  0  0  0  0  0  0  # atno 17395 bound_to 11000

$$$$
