AV-unprocessed.smi:598|AV-procd|sdf|3028|dock8
  -GOLD-   2262023543D 1   1.00000     0.00000
 Structure written by MMmdl.
 43 44  0  0  0  0  0  0  0  0  3 V2000
  144.4978  133.4629  162.4312 C   0  0  0  0  0  0  0  0  0  0  0  0
  145.2875  134.6898  161.9402 C   0  0  1  0  0  0  0  0  0  0  0  0
  144.7284  135.9661  162.6027 C   0  0  0  0  0  0  0  0  0  0  0  0
  145.4687  137.2299  162.1448 C   0  0  0  0  0  0  0  0  0  0  0  0
  146.9776  137.1076  162.4033 C   0  0  0  0  0  0  0  0  0  0  0  0
  147.5729  135.8493  161.7449 C   0  0  2  0  0  0  0  0  0  0  0  0
  147.5754  136.0109  160.2888 N   0  0  0  0  0  0  0  0  0  0  0  0
  148.6095  136.4172  159.5358 C   0  0  0  0  0  0  0  0  0  0  0  0
  149.7200  136.6849  159.9970 O   0  0  0  0  0  0  0  0  0  0  0  0
  148.3321  136.5180  158.0287 C   0  0  0  0  0  0  0  0  0  0  0  0
  148.8780  137.7367  157.4070 N   0  0  0  0  0  0  0  0  0  0  0  0
  150.0023  137.5790  156.5726 C   0  0  0  0  0  0  0  0  0  0  0  0
  150.5877  138.6236  155.9546 C   0  0  0  0  0  0  0  0  0  0  0  0
  151.7429  138.4430  155.1029 N   0  3  0  0  0  0  0  0  0  0  0  0
  152.2180  139.4240  154.5398 O   0  0  0  0  0  0  0  0  0  0  0  0
  152.2121  137.3169  154.9667 O   0  5  0  0  0  0  0  0  0  0  0  0
  150.0211  139.9404  156.1734 C   0  0  0  0  0  0  0  0  0  0  0  0
  148.9480  140.0984  156.9730 C   0  0  0  0  0  0  0  0  0  0  0  0
  148.3141  138.9604  157.6467 C   0  0  0  0  0  0  0  0  0  0  0  0
  147.3362  139.0988  158.3818 O   0  0  0  0  0  0  0  0  0  0  0  0
  146.8169  134.5676  162.1902 C   0  0  2  0  0  0  0  0  0  0  0  0
  147.4329  133.2978  161.5687 C   0  0  0  0  0  0  0  0  0  0  0  0
  144.6719  133.2770  163.4915 H   0  0  0  0  0  0  0  0  0  0  0  0
  144.7682  132.5612  161.8825 H   0  0  0  0  0  0  0  0  0  0  0  0
  143.4256  133.6063  162.2920 H   0  0  0  0  0  0  0  0  0  0  0  0
  145.1214  134.7725  160.8652 H   0  0  0  0  0  0  0  0  0  0  0  0
  143.6664  136.0693  162.3763 H   0  0  0  0  0  0  0  0  0  0  0  0
  144.8025  135.8791  163.6877 H   0  0  0  0  0  0  0  0  0  0  0  0
  145.2838  137.4008  161.0837 H   0  0  0  0  0  0  0  0  0  0  0  0
  145.0733  138.1006  162.6688 H   0  0  0  0  0  0  0  0  0  0  0  0
  147.4921  138.0006  162.0460 H   0  0  0  0  0  0  0  0  0  0  0  0
  147.1532  137.0673  163.4791 H   0  0  0  0  0  0  0  0  0  0  0  0
  148.6039  135.7700  162.0940 H   0  0  0  0  0  0  0  0  0  0  0  0
  146.7067  135.8065  159.8162 H   0  0  0  0  0  0  0  0  0  0  0  0
  148.7411  135.6291  157.5453 H   0  0  0  0  0  0  0  0  0  0  0  0
  147.2546  136.4591  157.8635 H   0  0  0  0  0  0  0  0  0  0  0  0
  150.3521  136.5607  156.4803 H   0  0  0  0  0  0  0  0  0  0  0  0
  150.4531  140.8090  155.6981 H   0  0  0  0  0  0  0  0  0  0  0  0
  148.5425  141.0883  157.1230 H   0  0  0  0  0  0  0  0  0  0  0  0
  146.9606  134.4825  163.2686 H   0  0  0  0  0  0  0  0  0  0  0  0
  147.2150  133.2239  160.5032 H   0  0  0  0  0  0  0  0  0  0  0  0
  147.0587  132.3936  162.0480 H   0  0  0  0  0  0  0  0  0  0  0  0
  148.5167  133.2917  161.6881 H   0  0  0  0  0  0  0  0  0  0  0  0
  1  2  1  0  0  0  0
  1 23  1  0  0  0  0
  1 24  1  0  0  0  0
  1 25  1  0  0  0  0
  2 21  1  0  0  0  0
  2  3  1  0  0  0  0
  2 26  1  0  0  0  0
  3  4  1  0  0  0  0
  3 27  1  0  0  0  0
  3 28  1  0  0  0  0
  4  5  1  0  0  0  0
  4 29  1  0  0  0  0
  4 30  1  0  0  0  0
  5  6  1  0  0  0  0
  5 31  1  0  0  0  0
  5 32  1  0  0  0  0
  6  7  1  0  0  0  0
  6 21  1  0  0  0  0
  6 33  1  0  0  0  0
  7  8  1  0  0  0  0
  7 34  1  0  0  0  0
  8  9  2  0  0  0  0
  8 10  1  0  0  0  0
 10 11  1  0  0  0  0
 10 35  1  0  0  0  0
 10 36  1  0  0  0  0
 11 19  1  0  0  0  0
 11 12  1  0  0  0  0
 12 13  2  0  0  0  0
 12 37  1  0  0  0  0
 13 14  1  0  0  0  0
 13 17  1  0  0  0  0
 14 15  2  0  0  0  0
 14 16  1  0  0  0  0
 17 18  2  0  0  0  0
 17 38  1  0  0  0  0
 18 19  1  0  0  0  0
 18 39  1  0  0  0  0
 19 20  2  0  0  0  0
 21 22  1  0  0  0  0
 21 40  1  0  0  0  0
 22 41  1  0  0  0  0
 22 42  1  0  0  0  0
 22 43  1  0  0  0  0
M  CHG  1  14   1
M  CHG  1  16  -1
M  END
> <s_m_source_file>
AV-unprocessed.smi

> <i_m_source_file_index>
598

> <i_lp_mmshare_version>
43012

> <i_f3d_flags>
0

> <s_epik_input>
W0NIM11bQ0BASF0xW0NIMl1bQ0gyXVtDSDJdW0NASF0oW0NASF0xW0NIM10pW05IXUMoPU8pW0NIMl1uMltjSF1jKFtOK10oPU8pW08tXSlbY0hdW2NIXWMyPU8=

> <s_epik_cmdline>
J2VwaWtfcHl0aG9uJywgJy1waCcsICc3LjAnLCAnLXRuJywgJzgnLCAnLW1hJywgJzIwMCcsICctbWV0YWxfYmluZGluZycsICctaW1hZScsICc8aW5maWxlLm1hZT4nLCAnLW9tYWUnLCAnPG91dGZpbGUubWFlPic=

> <r_lp_tautomer_probability>
1

> <r_epik_Ionization_Penalty>
1.91291e-08

> <r_epik_Ionization_Penalty_Charging>
8.21931e-11

> <r_epik_Ionization_Penalty_Neutral>
1.90469e-08

> <r_epik_State_Penalty>
-0

> <r_epik_Charging_Adjusted_Penalty>
8.21931e-11

> <i_epik_Tot_Q>
0

> <i_epik_Tot_abs_Q>
2

> <r_epik_Metal_State_Penalty>
-0

> <b_epik_Metal_Only>
0

> <s_lp_Force_Field>
OPLS_2005

> <r_lp_Energy>
23.1067

> <b_lp_Chiralities_Consistent>
1

> <s_lp_Variant>
AV-unprocessed.smi:598-8

> <Gold.Version>
5.8.1

> <Gold.Id.Protein>
6NUR|6NUR_protein|mol2

> <Gold.PLP.Fitness>
43.0214

> <Gold.PLP.PLP>
-36.3642

> <Gold.PLP.part.hbond>
-5.8014

> <Gold.PLP.part.metal>
0.0000

> <Gold.PLP.part.buried>
-3.2035

> <Gold.PLP.part.nonpolar>
-27.7409

> <Gold.PLP.part.repulsive>
0.2000

> <Gold.PLP.ligand.clash>
0.0000

> <Gold.PLP.ligand.torsion>
0.6385

> <Gold.PLP.Chemscore.Hbond>
2.6393

> <Gold.PLP.Chemscore.CHOScore>
0.0000

> <Gold.PLP.Chemscore.Metal>
0.0000

> <Gold.Chemscore.Hbonds>
donor molecule, donor type, donor heavy atom, donor atom, acceptor molecule, acceptor atom, score
      P1  H  6896  6909       L1     9  0.76
      P1  H  7989  7998       L1    15  0.77
      P1  H 10752 10765       L1    16  0.64

> <Gold.PLP.Chemscore.Internal.Correction>
0.0164

> <Gold.Rescore>
     Score         DG    S(hbond)    S(metal)    S(lipo)     H(rot)  DE(clash)    DE(int)     intcor
     18.00     -18.89       2.44        0.00      78.62       1.54       0.23       0.67       ----

> <Gold.Chemscore.Fitness>
17.9955

> <Gold.Chemscore.DG>
-18.8920

> <Gold.Chemscore.ZeroCoef>
-5.4800

> <Gold.Chemscore.Hbond>
2.4412

> <Gold.Chemscore.Metal>
0.0000

> <Gold.Chemscore.Lipo>
78.6248

> <Gold.Chemscore.Internal_Hbond>
0.0000

> <Gold.Chemscore.DEClash>
0.2257

> <Gold.Chemscore.DEInternal>
0.6708

> <Gold.Chemscore.Rot>
1.5393

> <Gold.Chemscore.Internal.Correction>
   9.000000E+99

> <Gold.Chemscore.Hbonds>
donor molecule, donor type, donor heavy atom, donor atom, acceptor molecule, acceptor atom, score
      P1  H  6896  6909       L1     9  0.66
      P1  H  7989  7998       L1    15  0.78
      P1  H 10752 10765       L1    16  0.63

> <Gold.Chemscore.Hbond.Weighted>
-8.1536

> <Gold.Chemscore.Metal.Weighted>
-0.0000

> <Gold.Chemscore.Lipo.Weighted>
-9.1991

> <Gold.Chemscore.Internal_Hbond.Weighted>
0.0000

> <Gold.Chemscore.DEClash.Weighted>
0.2257

> <Gold.Chemscore.DEInternal.Weighted>
0.6708

> <Gold.Chemscore.Rot.Weighted>
3.9407

> <Gold.Chemscore.Internal.Correction.Weighted>
   9.000000E+99

> <Gold.Protein.RotatedTorsions>
[ 6907 6896 6895 6894 ] final   92.45 input  -60.11 | X-H torsion
[ 7974 7965 7964 7962 ] final    1.57 input  175.53 | X-H torsion
[ 8008 7997 7996 7995 ] final -127.16 input   59.86 | X-H torsion
[ 10167 10162 10161 10158 ] final  166.72 input  -65.29 | X-H torsion
[ 10718 10713 10712 10709 ] final -141.82 input   66.30 | X-H torsion
[ 10763 10752 10751 10750 ] final -161.35 input  -60.55 | X-H torsion
[ 11005 11000 10999 10996 ] final -172.38 input  -57.11 | X-H torsion

> <Gold.Protein.ActiveResidues>
 VAL166  LYS551  ARG553  GLY616  TRP617  ASP618  TYR619  PRO620  LYS621  CYS622 
 ASP623  PHE694  ASN695  SER759  ASP760  ASP761  ALA762  ILE779  LEU786  VAL792 
 PHE793  MET794  SER795  GLU796  ALA797  LYS798  CYS799  TRP800  GLU811  SER814 

> <Gold.Protein.RotatedAtoms>
  152.5452  134.1500  159.8514 H   0  0  0  0  0  0  0  0  0  0  0  0  # atno 6907 bound_to 6896
  151.1528  133.4889  159.2602 H   0  0  0  0  0  0  0  0  0  0  0  0  # atno 6908 bound_to 6896
  151.1454  135.0211  159.8699 H   0  0  0  0  0  0  0  0  0  0  0  0  # atno 6909 bound_to 6896
  146.2441  140.0968  142.8349 H   0  0  0  0  0  0  0  0  0  0  0  0  # atno 7974 bound_to 7965
  155.2416  140.0429  157.2975 H   0  0  0  0  0  0  0  0  0  0  0  0  # atno 8008 bound_to 7997
  154.5824  140.2404  155.8004 H   0  0  0  0  0  0  0  0  0  0  0  0  # atno 8009 bound_to 7997
  156.2202  140.2972  155.9944 H   0  0  0  0  0  0  0  0  0  0  0  0  # atno 8010 bound_to 7997
  139.4930  144.3998  151.9423 H   0  0  0  0  0  0  0  0  0  0  0  0  # atno 10167 bound_to 10162
  156.3386  130.7625  151.1757 H   0  0  0  0  0  0  0  0  0  0  0  0  # atno 10718 bound_to 10713
  154.7311  135.3046  154.8889 H   0  0  0  0  0  0  0  0  0  0  0  0  # atno 10763 bound_to 10752
  153.9732  135.6739  153.4752 H   0  0  0  0  0  0  0  0  0  0  0  0  # atno 10764 bound_to 10752
  153.0919  135.4955  154.8627 H   0  0  0  0  0  0  0  0  0  0  0  0  # atno 10765 bound_to 10752
  140.4976  134.5925  157.4976 H   0  0  0  0  0  0  0  0  0  0  0  0  # atno 11005 bound_to 11000
  145.0603  140.9083  143.4942 LP  0  0  0  0  0  0  0  0  0  0  0  0  # atno 17320 bound_to 7965
  145.1082  139.2775  143.5651 LP  0  0  0  0  0  0  0  0  0  0  0  0  # atno 17321 bound_to 7965
  140.3437  144.3173  150.5962 LP  0  0  0  0  0  0  0  0  0  0  0  0  # atno 17342 bound_to 10162
  140.5544  143.2201  151.7872 LP  0  0  0  0  0  0  0  0  0  0  0  0  # atno 17343 bound_to 10162
  157.7443  131.0461  150.4876 LP  0  0  0  0  0  0  0  0  0  0  0  0  # atno 17370 bound_to 10713
  156.5053  130.4126  149.6331 LP  0  0  0  0  0  0  0  0  0  0  0  0  # atno 17371 bound_to 10713
  139.9732  134.7258  156.0000 LP  0  0  0  0  0  0  0  0  0  0  0  0  # atno 17394 bound_to 11000
  141.1452  133.6557  156.3847 LP  0  0  0  0  0  0  0  0  0  0  0  0  # atno 17395 bound_to 11000

$$$$
