AV-unprocessed.smi:245|AV-procd|sdf|1876|dock8
  -GOLD-   2262020513D 1   1.00000     0.00000
 Structure written by MMmdl.
 54 58  0  0  0  0  0  0  0  0  1 V2000
  146.8263  143.1685  153.9041 O   0  0  0  0  0  0  0  0  0  0  0  0
  147.2150  142.1525  154.4755 C   0  0  0  0  0  0  0  0  0  0  0  0
  146.6617  140.7821  154.0462 C   0  0  0  0  0  0  0  0  0  0  0  0
  147.2844  139.6025  154.6777 N   0  0  0  0  0  0  0  0  0  0  0  0
  146.8770  138.3544  154.2775 C   0  0  0  0  0  0  0  0  0  0  0  0
  146.8593  137.3517  155.1985 N   0  0  0  0  0  0  0  0  0  0  0  0
  146.4760  136.1153  154.8775 C   0  0  0  0  0  0  0  0  0  0  0  0
  146.0672  135.6534  153.6985 N   0  0  0  0  0  0  0  0  0  0  0  0
  146.0695  136.6377  152.7559 C   0  0  0  0  0  0  0  0  0  0  0  0
  146.4533  137.9995  152.9538 C   0  0  0  0  0  0  0  0  0  0  0  0
  146.3130  138.6847  151.7497 N   0  0  0  0  0  0  0  0  0  0  0  0
  145.8803  137.7933  150.9031 C   0  0  0  0  0  0  0  0  0  0  0  0
  145.7049  136.5331  151.4222 N   0  0  0  0  0  0  0  0  0  0  0  0
  145.2388  135.3760  150.7091 C   0  0  0  0  0  0  0  0  0  0  0  0
  144.1255  134.4910  151.2739 C   0  0  0  0  0  0  0  0  0  0  0  0
  144.8353  133.2298  150.7320 C   0  0  0  0  0  0  0  0  0  0  0  0
  144.9796  132.0804  151.7413 C   0  0  0  0  0  0  0  0  0  0  0  0
  145.3632  132.5543  153.0165 O   0  0  0  0  0  0  0  0  0  0  0  0
  144.2827  132.6241  149.4234 C   0  0  0  0  0  0  0  0  0  0  0  0
  143.0030  132.0434  149.5781 O   0  0  0  0  0  0  0  0  0  0  0  0
  146.0966  134.1132  150.5943 C   0  0  0  0  0  0  0  0  0  0  0  0
  148.5998  139.7719  155.3194 C   0  0  1  0  0  0  0  0  0  0  0  0
  149.7412  139.8094  154.2728 C   0  0  0  0  0  0  0  0  0  0  0  0
  151.1070  140.0599  154.9295 C   0  0  0  0  0  0  0  0  0  0  0  0
  151.0927  141.3493  155.7631 C   0  0  0  0  0  0  0  0  0  0  0  0
  149.9798  141.3059  156.8229 C   0  0  0  0  0  0  0  0  0  0  0  0
  148.5934  141.0409  156.2030 C   0  0  1  0  0  0  0  0  0  0  0  0
  148.1247  142.2042  155.4591 N   0  0  0  0  0  0  0  0  0  0  0  0
  145.6020  140.8004  154.2992 H   0  0  0  0  0  0  0  0  0  0  0  0
  146.7491  140.7051  152.9614 H   0  0  0  0  0  0  0  0  0  0  0  0
  146.5004  135.3940  155.6808 H   0  0  0  0  0  0  0  0  0  0  0  0
  145.6762  138.0360  149.8703 H   0  0  0  0  0  0  0  0  0  0  0  0
  144.9615  135.7224  149.7124 H   0  0  0  0  0  0  0  0  0  0  0  0
  144.0763  134.5130  152.3634 H   0  0  0  0  0  0  0  0  0  0  0  0
  143.1425  134.6806  150.8415 H   0  0  0  0  0  0  0  0  0  0  0  0
  144.0491  131.5195  151.8370 H   0  0  0  0  0  0  0  0  0  0  0  0
  145.7363  131.3675  151.4117 H   0  0  0  0  0  0  0  0  0  0  0  0
  144.7117  132.2842  153.6458 H   0  0  0  0  0  0  0  0  0  0  0  0
  144.2094  133.3855  148.6462 H   0  0  0  0  0  0  0  0  0  0  0  0
  144.9470  131.8490  149.0400 H   0  0  0  0  0  0  0  0  0  0  0  0
  142.3593  132.7352  149.5890 H   0  0  0  0  0  0  0  0  0  0  0  0
  146.6207  134.0163  149.6431 H   0  0  0  0  0  0  0  0  0  0  0  0
  146.7918  133.9962  151.4263 H   0  0  0  0  0  0  0  0  0  0  0  0
  148.7952  138.9498  156.0093 H   0  0  0  0  0  0  0  0  0  0  0  0
  149.7750  138.8708  153.7193 H   0  0  0  0  0  0  0  0  0  0  0  0
  149.5529  140.5885  153.5335 H   0  0  0  0  0  0  0  0  0  0  0  0
  151.3678  139.2135  155.5663 H   0  0  0  0  0  0  0  0  0  0  0  0
  151.8805  140.1212  154.1634 H   0  0  0  0  0  0  0  0  0  0  0  0
  152.0598  141.4885  156.2471 H   0  0  0  0  0  0  0  0  0  0  0  0
  150.9492  142.2093  155.1080 H   0  0  0  0  0  0  0  0  0  0  0  0
  150.2052  140.5179  157.5426 H   0  0  0  0  0  0  0  0  0  0  0  0
  149.9679  142.2379  157.3893 H   0  0  0  0  0  0  0  0  0  0  0  0
  147.8818  140.8932  157.0171 H   0  0  0  0  0  0  0  0  0  0  0  0
  148.4933  143.1057  155.7251 H   0  0  0  0  0  0  0  0  0  0  0  0
  1  2  2  0  0  0  0
  2 28  1  0  0  0  0
  2  3  1  0  0  0  0
  3  4  1  0  0  0  0
  3 29  1  0  0  0  0
  3 30  1  0  0  0  0
  4  5  1  0  0  0  0
  4 22  1  0  0  0  0
  5 10  1  0  0  0  0
  5  6  2  0  0  0  0
  6  7  1  0  0  0  0
  7  8  2  0  0  0  0
  7 31  1  0  0  0  0
  8  9  1  0  0  0  0
  9 13  1  0  0  0  0
  9 10  2  0  0  0  0
 10 11  1  0  0  0  0
 11 12  2  0  0  0  0
 12 13  1  0  0  0  0
 12 32  1  0  0  0  0
 13 14  1  0  0  0  0
 14 21  1  0  0  0  0
 14 15  1  0  0  0  0
 14 33  1  0  0  0  0
 15 16  1  0  0  0  0
 15 34  1  0  0  0  0
 15 35  1  0  0  0  0
 16 17  1  0  0  0  0
 16 19  1  0  0  0  0
 16 21  1  0  0  0  0
 17 18  1  0  0  0  0
 17 36  1  0  0  0  0
 17 37  1  0  0  0  0
 18 38  1  0  0  0  0
 19 20  1  0  0  0  0
 19 39  1  0  0  0  0
 19 40  1  0  0  0  0
 20 41  1  0  0  0  0
 21 42  1  0  0  0  0
 21 43  1  0  0  0  0
 22 27  1  0  0  0  0
 22 23  1  0  0  0  0
 22 44  1  0  0  0  0
 23 24  1  0  0  0  0
 23 45  1  0  0  0  0
 23 46  1  0  0  0  0
 24 25  1  0  0  0  0
 24 47  1  0  0  0  0
 24 48  1  0  0  0  0
 25 26  1  0  0  0  0
 25 49  1  0  0  0  0
 25 50  1  0  0  0  0
 26 27  1  0  0  0  0
 26 51  1  0  0  0  0
 26 52  1  0  0  0  0
 27 28  1  0  0  0  0
 27 53  1  0  0  0  0
 28 54  1  0  0  0  0
M  END
> <s_m_source_file>
AV-unprocessed.smi

> <i_m_source_file_index>
245

> <i_lp_mmshare_version>
43012

> <i_f3d_flags>
0

> <s_epik_input>
W0NIMl0xW0NIMl1bQ0gyXVtDSDJdW0NASF0oW0NASF0xMilbTkhdQyg9TylbQ0gyXU4yYyhuW2NIXW4zKWMoYzM0KW5bY0hdbjRbQ0hdKFtDSDJdNSlbQ0gyXUM1KFtDSDJdW09IXSlbQ0gyXVtPSF0=

> <s_epik_cmdline>
J2VwaWtfcHl0aG9uJywgJy1waCcsICc3LjAnLCAnLXRuJywgJzgnLCAnLW1hJywgJzIwMCcsICctbWV0YWxfYmluZGluZycsICctaW1hZScsICc8aW5maWxlLm1hZT4nLCAnLW9tYWUnLCAnPG91dGZpbGUubWFlPic=

> <r_lp_tautomer_probability>
1

> <r_epik_Ionization_Penalty>
0.000702616

> <r_epik_Ionization_Penalty_Charging>
0

> <r_epik_Ionization_Penalty_Neutral>
0.000702616

> <r_epik_State_Penalty>
0.000343985

> <r_epik_Charging_Adjusted_Penalty>
0.000343985

> <i_epik_Tot_Q>
0

> <i_epik_Tot_abs_Q>
0

> <r_epik_Metal_State_Penalty>
-0

> <b_epik_Metal_Only>
0

> <s_lp_Force_Field>
OPLS_2005

> <r_lp_Energy>
53.0031

> <b_lp_Chiralities_Consistent>
1

> <s_lp_Variant>
AV-unprocessed.smi:245-1

> <Gold.Version>
5.8.1

> <Gold.Id.Protein>
6NUR|6NUR_protein|mol2

> <Gold.PLP.Fitness>
52.2617

> <Gold.PLP.PLP>
-40.9361

> <Gold.PLP.part.hbond>
-5.6686

> <Gold.PLP.part.metal>
0.0000

> <Gold.PLP.part.buried>
0.4278

> <Gold.PLP.part.nonpolar>
-38.2738

> <Gold.PLP.part.repulsive>
1.3604

> <Gold.PLP.ligand.clash>
0.0000

> <Gold.PLP.ligand.torsion>
0.9885

> <Gold.PLP.Chemscore.Hbond>
3.8590

> <Gold.PLP.Chemscore.CHOScore>
0.4158

> <Gold.PLP.Chemscore.Metal>
0.0000

> <Gold.Chemscore.Hbonds>
donor molecule, donor type, donor heavy atom, donor atom, acceptor molecule, acceptor atom, score
      L1  H    18    38       P1 10957  0.10
      L1  H    20    41       P1 10186  0.70
      L1  H    28    54       P1  8028  1.00
      P1  H  8022  8030       L1     1  0.06
      P1  H 10785 10796       L1    20  0.86
      L1  C    12    32       P1 10171  0.32

> <Gold.PLP.Chemscore.Internal.Correction>
0.4784

> <Gold.Rescore>
     Score         DG    S(hbond)    S(metal)    S(lipo)     H(rot)  DE(clash)    DE(int)     intcor
     13.42     -18.48       3.12        0.00      85.93       2.91       4.04       1.03       ----

> <Gold.Chemscore.Fitness>
13.4163

> <Gold.Chemscore.DG>
-18.4815

> <Gold.Chemscore.ZeroCoef>
-5.4800

> <Gold.Chemscore.Hbond>
3.1167

> <Gold.Chemscore.Metal>
0.0000

> <Gold.Chemscore.Lipo>
85.9258

> <Gold.Chemscore.Internal_Hbond>
0.0000

> <Gold.Chemscore.DEClash>
4.0384

> <Gold.Chemscore.DEInternal>
1.0267

> <Gold.Chemscore.Rot>
2.9147

> <Gold.Chemscore.Internal.Correction>
   9.000000E+99

> <Gold.Chemscore.Hbonds>
donor molecule, donor type, donor heavy atom, donor atom, acceptor molecule, acceptor atom, score
      L1  H    18    38       P1 10957  0.02
      L1  H    20    41       P1 10186  0.69
      L1  H    28    54       P1  8028  0.98
      P1  H  8022  8030       L1     1  0.06
      P1  H 10785 10796       L1    20  0.38

> <Gold.Chemscore.Hbond.Weighted>
-10.4098

> <Gold.Chemscore.Metal.Weighted>
-0.0000

> <Gold.Chemscore.Lipo.Weighted>
-10.0533

> <Gold.Chemscore.Internal_Hbond.Weighted>
0.0000

> <Gold.Chemscore.DEClash.Weighted>
4.0384

> <Gold.Chemscore.DEInternal.Weighted>
1.0267

> <Gold.Chemscore.Rot.Weighted>
7.4617

> <Gold.Chemscore.Internal.Correction.Weighted>
   9.000000E+99

> <Gold.Protein.RotatedTorsions>
[ 6907 6896 6895 6894 ] final  -59.73 input  -60.11 | X-H torsion
[ 7974 7965 7964 7962 ] final  -65.67 input  175.53 | X-H torsion
[ 8008 7997 7996 7995 ] final   -1.43 input   59.86 | X-H torsion
[ 10167 10162 10161 10158 ] final  104.43 input  -65.29 | X-H torsion
[ 10718 10713 10712 10709 ] final -161.59 input   66.30 | X-H torsion
[ 10763 10752 10751 10750 ] final  167.69 input  -60.55 | X-H torsion
[ 11005 11000 10999 10996 ] final  172.21 input  -57.11 | X-H torsion

> <Gold.Protein.ActiveResidues>
 VAL166  LYS551  ARG553  GLY616  TRP617  ASP618  TYR619  PRO620  LYS621  CYS622 
 ASP623  PHE694  ASN695  SER759  ASP760  ASP761  ALA762  ILE779  LEU786  VAL792 
 PHE793  MET794  SER795  GLU796  ALA797  LYS798  CYS799  TRP800  GLU811  SER814 

> <Gold.Protein.RotatedAtoms>
  150.7908  134.6930  159.6507 H   0  0  0  0  0  0  0  0  0  0  0  0  # atno 6907 bound_to 6896
  152.4013  134.6277  160.0077 H   0  0  0  0  0  0  0  0  0  0  0  0  # atno 6908 bound_to 6896
  151.6548  133.3282  159.3196 H   0  0  0  0  0  0  0  0  0  0  0  0  # atno 6909 bound_to 6896
  145.7513  140.8907  143.0478 H   0  0  0  0  0  0  0  0  0  0  0  0  # atno 7974 bound_to 7965
  154.6468  140.2559  155.7258 H   0  0  0  0  0  0  0  0  0  0  0  0  # atno 8008 bound_to 7997
  156.2556  140.2876  156.0806 H   0  0  0  0  0  0  0  0  0  0  0  0  # atno 8009 bound_to 7997
  155.1511  140.0382  157.2811 H   0  0  0  0  0  0  0  0  0  0  0  0  # atno 8010 bound_to 7997
  139.7178  144.7064  151.0922 H   0  0  0  0  0  0  0  0  0  0  0  0  # atno 10167 bound_to 10162
  156.5984  130.8800  151.2907 H   0  0  0  0  0  0  0  0  0  0  0  0  # atno 10718 bound_to 10713
  154.3576  135.2753  155.2338 H   0  0  0  0  0  0  0  0  0  0  0  0  # atno 10763 bound_to 10752
  154.4540  135.5924  153.6214 H   0  0  0  0  0  0  0  0  0  0  0  0  # atno 10764 bound_to 10752
  152.9845  135.6049  154.3793 H   0  0  0  0  0  0  0  0  0  0  0  0  # atno 10765 bound_to 10752
  140.3273  134.7387  157.4108 H   0  0  0  0  0  0  0  0  0  0  0  0  # atno 11005 bound_to 11000
  144.6849  139.9596  143.7480 LP  0  0  0  0  0  0  0  0  0  0  0  0  # atno 17320 bound_to 7965
  146.0353  139.3372  143.0730 LP  0  0  0  0  0  0  0  0  0  0  0  0  # atno 17321 bound_to 7965
  140.7747  143.5206  150.9541 LP  0  0  0  0  0  0  0  0  0  0  0  0  # atno 17342 bound_to 10162
  139.8893  143.6974  152.3147 LP  0  0  0  0  0  0  0  0  0  0  0  0  # atno 17343 bound_to 10162
  157.7286  130.9659  150.1749 LP  0  0  0  0  0  0  0  0  0  0  0  0  # atno 17370 bound_to 10713
  156.2490  130.3698  149.8253 LP  0  0  0  0  0  0  0  0  0  0  0  0  # atno 17371 bound_to 10713
  140.0890  134.5627  155.8463 LP  0  0  0  0  0  0  0  0  0  0  0  0  # atno 17394 bound_to 11000
  141.2072  133.6662  156.6290 LP  0  0  0  0  0  0  0  0  0  0  0  0  # atno 17395 bound_to 11000

$$$$
