#       Name:                AV-unprocessed.smi:2569
#       Creating user name   scv26
#       Creation time:       Fri Mar 27 14:12:03 2020


#       File generated by GOLD software.
#

@<TRIPOS>MOLECULE
AV-unprocessed.smi:2569
    45    47     1
SMALL
NO_CHARGES


@<TRIPOS>ATOM
      1 ****        -3.4547   3.4906  -2.1803 C.3            1 S1                 0.0000
      2 ****        -2.6875   2.6196  -1.1998 C.ar           1 S1                 0.0000
      3 ****        -2.3078   3.1757   0.0423 C.ar           1 S1                 0.0000
      4 ****        -1.6095   2.3536   0.9188 C.ar           1 S1                 0.0000
      5 ****        -1.1028   2.6022   2.1960 N.pl3          1 S1                 1.0000
      6 ****        -0.4869   1.4827   2.6663 C.2            1 S1                 0.0000
      7 ****        -0.5943   0.5214   1.7092 N.pl3          1 S1                 0.0000
      8 ****        -0.0989  -0.8628   1.7148 C.3            1 S1                 0.0000
      9 ****         1.3905  -0.9642   1.3342 C.3            1 S1                 0.0000
     10 ****         1.6018  -0.4120   0.0482 O.3            1 S1                 0.0000
     11 ****         1.8930  -2.4204   1.3679 C.3            1 S1                 0.0000
     12 ****         3.3166  -2.5275   1.0935 N.pl3          1 S1                 0.0000
     13 ****         4.2312  -2.2368   2.0511 N.2            1 S1                 0.0000
     14 ****         5.4040  -2.4241   1.5175 N.2            1 S1                 0.0000
     15 ****         5.2979  -2.8415   0.2038 N.2            1 S1                 0.0000
     16 ****         3.9891  -2.8892  -0.0073 C.2            1 S1                 0.0000
     17 ****         3.3333  -3.2879  -1.2882 C.3            1 S1                 0.0000
     18 ****        -1.2867   1.0202   0.5986 C.ar           1 S1                 0.0000
     19 ****        -1.6518   0.4579  -0.6229 C.ar           1 S1                 0.0000
     20 ****        -2.3627   1.2779  -1.5284 C.ar           1 S1                 0.0000
     21 ****        -2.7739   0.6907  -2.8681 C.3            1 S1                 0.0000
     22 ****        -3.5927   4.5007  -1.7933 H              1 S1                 0.0000
     23 ****        -4.4417   3.0696  -2.3734 H              1 S1                 0.0000
     24 ****        -2.9195   3.5684  -3.1268 H              1 S1                 0.0000
     25 ****        -2.5506   4.1966   0.2990 H              1 S1                 0.0000
     26 ****         0.0006   1.3774   3.6249 H              1 S1                 0.0000
     27 ****        -0.2485  -1.2508   2.7231 H              1 S1                 0.0000
     28 ****        -0.7192  -1.4746   1.0597 H              1 S1                 0.0000
     29 ****         1.9719  -0.3725   2.0426 H              1 S1                 0.0000
     30 ****         1.1141  -0.9190  -0.5825 H              1 S1                 0.0000
     31 ****         1.7037  -2.8587   2.3489 H              1 S1                 0.0000
     32 ****         1.3462  -3.0309   0.6488 H              1 S1                 0.0000
     33 ****         4.0839  -3.4912  -2.0524 H              1 S1                 0.0000
     34 ****         2.6846  -2.4879  -1.6447 H              1 S1                 0.0000
     35 ****         2.7363  -4.1878  -1.1400 H              1 S1                 0.0000
     36 ****        -1.4040  -0.5614  -0.8782 H              1 S1                 0.0000
     37 ****        -2.4593  -0.3491  -2.9626 H              1 S1                 0.0000
     38 ****        -2.3204   1.2507  -3.6861 H              1 S1                 0.0000
     39 ****        -3.8575   0.7223  -2.9845 H              1 S1                 0.0000
     40 ****        -1.1695   3.4712   2.7104 H              1 S1                 0.0000
     41 ****         2.5760  -0.4432  -0.1757 LP             1 S1                 0.0000
     42 ****         1.2867   0.5369   0.0334 LP             1 S1                 0.0000
     43 ****         4.0418  -1.9367   2.9860 LP             1 S1                 0.0000
     44 ****         6.2706  -2.2840   1.9966 LP             1 S1                 0.0000
     45 ****         6.0349  -3.0569  -0.4369 LP             1 S1                 0.0000
@<TRIPOS>BOND
    1    1    2 1     
    2    1   22 1     
    3    1   23 1     
    4    1   24 1     
    5    2   20 ar    
    6    2    3 ar    
    7    3    4 ar    
    8    3   25 1     
    9    4   18 ar    
   10    4    5 1     
   11    5    6 2     
   12    5   40 1     
   13    6    7 1     
   14    6   26 1     
   15    7    8 1     
   16    7   18 1     
   17    8    9 1     
   18    8   27 1     
   19    8   28 1     
   20    9   10 1     
   21    9   11 1     
   22    9   29 1     
   23   10   30 1     
   24   11   12 1     
   25   11   31 1     
   26   11   32 1     
   27   12   16 1     
   28   12   13 1     
   29   13   14 2     
   30   14   15 1     
   31   15   16 2     
   32   16   17 1     
   33   17   33 1     
   34   17   34 1     
   35   17   35 1     
   36   18   19 ar    
   37   19   20 ar    
   38   19   36 1     
   39   20   21 1     
   40   21   37 1     
   41   21   38 1     
   42   21   39 1     
   43   10   41 1     
   44   10   42 1     
   45   13   43 1     
   46   14   44 1     
   47   15   45 1     
@<TRIPOS>SUBSTRUCTURE
      1 S1             1
@<TRIPOS>SET
LONE_PAIRS      STATIC     ATOMS    <user>   **** ""
5 41 42 43 44 45
DONOR_HYDROGENS      STATIC     ATOMS    <user>   **** ""
2 40 30
ATOM$BLUE        STATIC     ATOMS    COLORGROUP SYSTEM
5 41 42 43 44 45
ATOM$RED        STATIC     ATOMS    COLORGROUP SYSTEM
2 40 30
