AV-unprocessed.smi:577|AV-procd|sdf|2980|dock6
  -GOLD-   2262023493D 1   1.00000     0.00000
 Structure written by MMmdl.
 41 42  0  0  0  0  0  0  0  0  1 V2000
  149.6131  140.9296  154.3223 C   0  0  0  0  0  0  0  0  0  0  0  0
  148.4108  140.0379  154.5818 C   0  0  0  0  0  0  0  0  0  0  0  0
  148.0079  139.0310  153.7999 C   0  0  0  0  0  0  0  0  0  0  0  0
  146.6087  138.2000  154.4344 S   0  0  0  0  0  0  0  0  0  0  0  0
  146.5881  139.3032  155.8566 C   0  0  0  0  0  0  0  0  0  0  0  0
  145.7543  139.2151  156.7566 O   0  0  0  0  0  0  0  0  0  0  0  0
  147.6344  140.2173  155.7356 N   0  0  0  0  0  0  0  0  0  0  0  0
  147.8857  141.2707  156.7280 C   0  0  0  0  0  0  0  0  0  0  0  0
  149.3112  141.2444  157.2961 C   0  0  0  0  0  0  0  0  0  0  0  0
  149.7687  140.2256  157.8158 O   0  0  0  0  0  0  0  0  0  0  0  0
  150.0029  142.3880  157.1755 N   0  0  0  0  0  0  0  0  0  0  0  0
  151.3758  142.6191  157.6225 C   0  0  0  0  0  0  0  0  0  0  0  0
  151.5771  141.9345  158.9904 C   0  0  0  0  0  0  0  0  0  0  0  0
  152.8957  142.2951  159.6998 C   0  0  0  0  0  0  0  0  0  0  0  0
  152.7241  143.0905  161.0074 C   0  0  0  0  0  0  0  0  0  0  0  0
  151.7020  144.2468  161.0002 C   0  0  0  0  0  0  0  0  0  0  0  0
  151.8605  145.2925  159.8822 C   0  0  0  0  0  0  0  0  0  0  0  0
  151.0274  145.0315  158.6084 C   0  0  0  0  0  0  0  0  0  0  0  0
  151.7008  144.1303  157.5563 C   0  0  0  0  0  0  0  0  0  0  0  0
  150.2978  140.4453  153.6258 H   0  0  0  0  0  0  0  0  0  0  0  0
  150.1720  141.1364  155.2346 H   0  0  0  0  0  0  0  0  0  0  0  0
  149.2952  141.8748  153.8825 H   0  0  0  0  0  0  0  0  0  0  0  0
  148.4672  138.7149  152.8749 H   0  0  0  0  0  0  0  0  0  0  0  0
  147.6795  142.2552  156.3078 H   0  0  0  0  0  0  0  0  0  0  0  0
  147.1852  141.1609  157.5577 H   0  0  0  0  0  0  0  0  0  0  0  0
  149.5410  143.1677  156.7305 H   0  0  0  0  0  0  0  0  0  0  0  0
  152.0674  142.1363  156.9300 H   0  0  0  0  0  0  0  0  0  0  0  0
  150.7235  142.1230  159.6402 H   0  0  0  0  0  0  0  0  0  0  0  0
  151.5577  140.8557  158.8286 H   0  0  0  0  0  0  0  0  0  0  0  0
  153.4287  141.3736  159.9367 H   0  0  0  0  0  0  0  0  0  0  0  0
  153.5679  142.8287  159.0296 H   0  0  0  0  0  0  0  0  0  0  0  0
  152.4355  142.3972  161.7984 H   0  0  0  0  0  0  0  0  0  0  0  0
  153.6996  143.4786  161.3027 H   0  0  0  0  0  0  0  0  0  0  0  0
  150.6813  143.8655  161.0121 H   0  0  0  0  0  0  0  0  0  0  0  0
  151.8091  144.7629  161.9551 H   0  0  0  0  0  0  0  0  0  0  0  0
  151.5144  146.2429  160.2907 H   0  0  0  0  0  0  0  0  0  0  0  0
  152.9125  145.4526  159.6434 H   0  0  0  0  0  0  0  0  0  0  0  0
  150.0271  144.6747  158.8553 H   0  0  0  0  0  0  0  0  0  0  0  0
  150.8724  146.0017  158.1350 H   0  0  0  0  0  0  0  0  0  0  0  0
  152.7784  144.2923  157.5708 H   0  0  0  0  0  0  0  0  0  0  0  0
  151.3966  144.4829  156.5696 H   0  0  0  0  0  0  0  0  0  0  0  0
  1  2  1  0  0  0  0
  1 20  1  0  0  0  0
  1 21  1  0  0  0  0
  1 22  1  0  0  0  0
  2  7  1  0  0  0  0
  2  3  2  0  0  0  0
  3  4  1  0  0  0  0
  3 23  1  0  0  0  0
  4  5  1  0  0  0  0
  5  6  2  0  0  0  0
  5  7  1  0  0  0  0
  7  8  1  0  0  0  0
  8  9  1  0  0  0  0
  8 24  1  0  0  0  0
  8 25  1  0  0  0  0
  9 10  2  0  0  0  0
  9 11  1  0  0  0  0
 11 12  1  0  0  0  0
 11 26  1  0  0  0  0
 12 19  1  0  0  0  0
 12 13  1  0  0  0  0
 12 27  1  0  0  0  0
 13 14  1  0  0  0  0
 13 28  1  0  0  0  0
 13 29  1  0  0  0  0
 14 15  1  0  0  0  0
 14 30  1  0  0  0  0
 14 31  1  0  0  0  0
 15 16  1  0  0  0  0
 15 32  1  0  0  0  0
 15 33  1  0  0  0  0
 16 17  1  0  0  0  0
 16 34  1  0  0  0  0
 16 35  1  0  0  0  0
 17 18  1  0  0  0  0
 17 36  1  0  0  0  0
 17 37  1  0  0  0  0
 18 19  1  0  0  0  0
 18 38  1  0  0  0  0
 18 39  1  0  0  0  0
 19 40  1  0  0  0  0
 19 41  1  0  0  0  0
M  END
> <s_m_source_file>
AV-unprocessed.smi

> <i_m_source_file_index>
577

> <i_lp_mmshare_version>
43012

> <i_f3d_flags>
0

> <s_epik_input>
W0NIM11jMVtjSF1zYyg9TyluMVtDSDJdQyg9TylbTkhdW0NIXTJbQ0gyXVtDSDJdW0NIMl1bQ0gyXVtDSDJdW0NIMl1bQ0gyXTI=

> <s_epik_cmdline>
J2VwaWtfcHl0aG9uJywgJy1waCcsICc3LjAnLCAnLXRuJywgJzgnLCAnLW1hJywgJzIwMCcsICctbWV0YWxfYmluZGluZycsICctaW1hZScsICc8aW5maWxlLm1hZT4nLCAnLW9tYWUnLCAnPG91dGZpbGUubWFlPic=

> <r_lp_tautomer_probability>
1

> <r_epik_Ionization_Penalty>
1.32564e-06

> <r_epik_Ionization_Penalty_Charging>
1.22505e-06

> <r_epik_Ionization_Penalty_Neutral>
1.00582e-07

> <r_epik_State_Penalty>
-0

> <r_epik_Charging_Adjusted_Penalty>
1.22505e-06

> <i_epik_Tot_Q>
0

> <i_epik_Tot_abs_Q>
0

> <r_epik_Metal_State_Penalty>
-0

> <b_epik_Metal_Only>
0

> <s_lp_Force_Field>
OPLS_2005

> <r_lp_Energy>
25.6493

> <b_lp_Chiralities_Consistent>
1

> <s_lp_Variant>
AV-unprocessed.smi:577-1

> <Gold.Version>
5.8.1

> <Gold.Id.Protein>
6NUR|6NUR_protein|mol2

> <Gold.PLP.Fitness>
43.5144

> <Gold.PLP.PLP>
-35.9723

> <Gold.PLP.part.hbond>
-1.0000

> <Gold.PLP.part.metal>
0.0000

> <Gold.PLP.part.buried>
-3.7967

> <Gold.PLP.part.nonpolar>
-32.5740

> <Gold.PLP.part.repulsive>
0.0183

> <Gold.PLP.ligand.clash>
0.0000

> <Gold.PLP.ligand.torsion>
0.2384

> <Gold.PLP.Chemscore.Hbond>
1.0000

> <Gold.PLP.Chemscore.CHOScore>
1.6606

> <Gold.PLP.Chemscore.Metal>
0.0000

> <Gold.Chemscore.Hbonds>
donor molecule, donor type, donor heavy atom, donor atom, acceptor molecule, acceptor atom, score
      L1  H    11    26       P1  8028  1.00
      L1  C     3    23       P1  7948  0.58
      L1  C     3    23       P1  7957  1.00

> <Gold.PLP.Chemscore.Internal.Correction>
0.0370

> <Gold.Rescore>
     Score         DG    S(hbond)    S(metal)    S(lipo)     H(rot)  DE(clash)    DE(int)     intcor
     17.15     -18.88       0.99        0.00     116.41       1.39       0.14       1.59       ----

> <Gold.Chemscore.Fitness>
17.1519

> <Gold.Chemscore.DG>
-18.8758

> <Gold.Chemscore.ZeroCoef>
-5.4800

> <Gold.Chemscore.Hbond>
0.9949

> <Gold.Chemscore.Metal>
0.0000

> <Gold.Chemscore.Lipo>
116.4149

> <Gold.Chemscore.Internal_Hbond>
0.0000

> <Gold.Chemscore.DEClash>
0.1383

> <Gold.Chemscore.DEInternal>
1.5856

> <Gold.Chemscore.Rot>
1.3858

> <Gold.Chemscore.Internal.Correction>
   9.000000E+99

> <Gold.Chemscore.Hbonds>
donor molecule, donor type, donor heavy atom, donor atom, acceptor molecule, acceptor atom, score
      L1  H    11    26       P1  8028  0.97

> <Gold.Chemscore.Hbond.Weighted>
-3.3229

> <Gold.Chemscore.Metal.Weighted>
-0.0000

> <Gold.Chemscore.Lipo.Weighted>
-13.6205

> <Gold.Chemscore.Internal_Hbond.Weighted>
0.0000

> <Gold.Chemscore.DEClash.Weighted>
0.1383

> <Gold.Chemscore.DEInternal.Weighted>
1.5856

> <Gold.Chemscore.Rot.Weighted>
3.5476

> <Gold.Chemscore.Internal.Correction.Weighted>
   9.000000E+99

> <Gold.Protein.RotatedTorsions>
[ 6907 6896 6895 6894 ] final   -7.43 input  -60.11 | X-H torsion
[ 7974 7965 7964 7962 ] final   84.03 input  175.53 | X-H torsion
[ 8008 7997 7996 7995 ] final  -42.45 input   59.86 | X-H torsion
[ 10167 10162 10161 10158 ] final  155.45 input  -65.29 | X-H torsion
[ 10718 10713 10712 10709 ] final   21.68 input   66.30 | X-H torsion
[ 10763 10752 10751 10750 ] final  125.47 input  -60.55 | X-H torsion
[ 11005 11000 10999 10996 ] final   23.10 input  -57.11 | X-H torsion

> <Gold.Protein.ActiveResidues>
 VAL166  LYS551  ARG553  GLY616  TRP617  ASP618  TYR619  PRO620  LYS621  CYS622 
 ASP623  PHE694  ASN695  SER759  ASP760  ASP761  ALA762  ILE779  LEU786  VAL792 
 PHE793  MET794  SER795  GLU796  ALA797  LYS798  CYS799  TRP800  GLU811  SER814 

> <Gold.Protein.RotatedAtoms>
  151.4497  135.1028  159.9693 H   0  0  0  0  0  0  0  0  0  0  0  0  # atno 6907 bound_to 6896
  152.4893  133.8452  159.7183 H   0  0  0  0  0  0  0  0  0  0  0  0  # atno 6908 bound_to 6896
  150.9031  133.7033  159.2901 H   0  0  0  0  0  0  0  0  0  0  0  0  # atno 6909 bound_to 6896
  145.6040  139.2357  143.2229 H   0  0  0  0  0  0  0  0  0  0  0  0  # atno 7974 bound_to 7965
  154.3999  140.1473  156.3356 H   0  0  0  0  0  0  0  0  0  0  0  0  # atno 8008 bound_to 7997
  155.8403  140.3462  155.5606 H   0  0  0  0  0  0  0  0  0  0  0  0  # atno 8009 bound_to 7997
  155.8094  140.0882  157.1903 H   0  0  0  0  0  0  0  0  0  0  0  0  # atno 8010 bound_to 7997
  139.4821  144.5098  151.8042 H   0  0  0  0  0  0  0  0  0  0  0  0  # atno 10167 bound_to 10162
  157.1419  130.6636  149.5983 H   0  0  0  0  0  0  0  0  0  0  0  0  # atno 10718 bound_to 10713
  153.6779  135.3319  155.3170 H   0  0  0  0  0  0  0  0  0  0  0  0  # atno 10763 bound_to 10752
  154.8474  135.4402  154.1637 H   0  0  0  0  0  0  0  0  0  0  0  0  # atno 10764 bound_to 10752
  153.2645  135.6994  153.7620 H   0  0  0  0  0  0  0  0  0  0  0  0  # atno 10765 bound_to 10752
  140.3733  134.1999  155.7666 H   0  0  0  0  0  0  0  0  0  0  0  0  # atno 11005 bound_to 11000
  146.1554  140.6865  142.9302 LP  0  0  0  0  0  0  0  0  0  0  0  0  # atno 17320 bound_to 7965
  144.7297  140.4635  143.6946 LP  0  0  0  0  0  0  0  0  0  0  0  0  # atno 17321 bound_to 7965
  140.4599  144.1736  150.5905 LP  0  0  0  0  0  0  0  0  0  0  0  0  # atno 17342 bound_to 10162
  140.4495  143.2492  151.9366 LP  0  0  0  0  0  0  0  0  0  0  0  0  # atno 17343 bound_to 10162
  155.9787  130.4775  150.6671 LP  0  0  0  0  0  0  0  0  0  0  0  0  # atno 17370 bound_to 10713
  157.4300  131.0848  151.1048 LP  0  0  0  0  0  0  0  0  0  0  0  0  # atno 17371 bound_to 10713
  141.1947  133.8121  157.0744 LP  0  0  0  0  0  0  0  0  0  0  0  0  # atno 17394 bound_to 11000
  140.0535  134.9793  157.1178 LP  0  0  0  0  0  0  0  0  0  0  0  0  # atno 17395 bound_to 11000

$$$$
