AV-unprocessed.smi:3333|AV-procd|sdf|12834|dock6
  -GOLD-   2272019213D 1   1.00000     0.00000
 Structure written by MMmdl.
 41 43  0  0  0  0  0  0  0  0  1 V2000
  153.0900  142.5835  162.0895 C   0  0  0  0  0  0  0  0  0  0  0  0
  152.8859  142.4813  160.5743 C   0  0  0  0  0  0  0  0  0  0  0  0
  151.8842  143.4619  160.0639 C   0  0  0  0  0  0  0  0  0  0  0  0
  150.6109  143.4921  160.4665 N   0  0  0  0  0  0  0  0  0  0  0  0
  149.8626  144.4777  159.8143 C   0  0  0  0  0  0  0  0  0  0  0  0
  148.4088  144.6581  160.1447 C   0  0  0  0  0  0  0  0  0  0  0  0
  147.5762  143.4969  159.5925 C   0  0  0  0  0  0  0  0  0  0  0  0
  146.9232  142.7824  160.3540 O   0  0  0  0  0  0  0  0  0  0  0  0
  147.6172  143.3101  158.2641 N   0  0  0  0  0  0  0  0  0  0  0  0
  146.9207  142.2496  157.5430 C   0  0  0  0  0  0  0  0  0  0  0  0
  147.8948  141.2132  156.9410 C   0  0  1  0  0  0  0  0  0  0  0  0
  148.4734  141.6497  155.5766 C   0  0  0  0  0  0  0  0  0  0  0  0
  149.9938  141.5326  155.7888 C   0  0  2  0  0  0  0  0  0  0  0  0
  150.3865  140.0484  155.9139 C   0  0  0  0  0  0  0  0  0  0  0  0
  149.8441  139.6702  157.3053 C   0  0  0  0  0  0  0  0  0  0  0  0
  149.1773  140.9767  157.7755 C   0  0  1  0  0  0  0  0  0  0  0  0
  150.1417  142.0220  157.2234 C   0  0  0  0  0  0  0  0  0  0  0  0
  150.5964  145.1991  158.9047 C   0  0  0  0  0  0  0  0  0  0  0  0
  152.2476  144.6518  158.8195 S   0  0  0  0  0  0  0  0  0  0  0  0
  153.8199  141.8507  162.4332 H   0  0  0  0  0  0  0  0  0  0  0  0
  152.1576  142.4020  162.6249 H   0  0  0  0  0  0  0  0  0  0  0  0
  153.4520  143.5726  162.3716 H   0  0  0  0  0  0  0  0  0  0  0  0
  153.8329  142.6422  160.0578 H   0  0  0  0  0  0  0  0  0  0  0  0
  152.5537  141.4765  160.3121 H   0  0  0  0  0  0  0  0  0  0  0  0
  148.2693  144.7410  161.2237 H   0  0  0  0  0  0  0  0  0  0  0  0
  148.0319  145.5864  159.7144 H   0  0  0  0  0  0  0  0  0  0  0  0
  148.1782  143.9433  157.7131 H   0  0  0  0  0  0  0  0  0  0  0  0
  146.2142  141.7566  158.2131 H   0  0  0  0  0  0  0  0  0  0  0  0
  146.3238  142.7134  156.7576 H   0  0  0  0  0  0  0  0  0  0  0  0
  147.3585  140.2711  156.8180 H   0  0  0  0  0  0  0  0  0  0  0  0
  148.1192  141.0234  154.7570 H   0  0  0  0  0  0  0  0  0  0  0  0
  148.2036  142.6807  155.3432 H   0  0  0  0  0  0  0  0  0  0  0  0
  150.5810  142.0806  155.0515 H   0  0  0  0  0  0  0  0  0  0  0  0
  149.9555  139.4385  155.1192 H   0  0  0  0  0  0  0  0  0  0  0  0
  151.4700  139.9277  155.8799 H   0  0  0  0  0  0  0  0  0  0  0  0
  149.1463  138.8329  157.2693 H   0  0  0  0  0  0  0  0  0  0  0  0
  150.6618  139.3933  157.9720 H   0  0  0  0  0  0  0  0  0  0  0  0
  149.0269  141.0154  158.8545 H   0  0  0  0  0  0  0  0  0  0  0  0
  151.1571  141.9223  157.6115 H   0  0  0  0  0  0  0  0  0  0  0  0
  149.8047  143.0495  157.3682 H   0  0  0  0  0  0  0  0  0  0  0  0
  150.2618  146.0086  158.2728 H   0  0  0  0  0  0  0  0  0  0  0  0
  1  2  1  0  0  0  0
  1 20  1  0  0  0  0
  1 21  1  0  0  0  0
  1 22  1  0  0  0  0
  2  3  1  0  0  0  0
  2 23  1  0  0  0  0
  2 24  1  0  0  0  0
  3 19  1  0  0  0  0
  3  4  2  0  0  0  0
  4  5  1  0  0  0  0
  5  6  1  0  0  0  0
  5 18  2  0  0  0  0
  6  7  1  0  0  0  0
  6 25  1  0  0  0  0
  6 26  1  0  0  0  0
  7  8  2  0  0  0  0
  7  9  1  0  0  0  0
  9 10  1  0  0  0  0
  9 27  1  0  0  0  0
 10 11  1  0  0  0  0
 10 28  1  0  0  0  0
 10 29  1  0  0  0  0
 11 16  1  0  0  0  0
 11 12  1  0  0  0  0
 11 30  1  0  0  0  0
 12 13  1  0  0  0  0
 12 31  1  0  0  0  0
 12 32  1  0  0  0  0
 13 17  1  0  0  0  0
 13 14  1  0  0  0  0
 13 33  1  0  0  0  0
 14 15  1  0  0  0  0
 14 34  1  0  0  0  0
 14 35  1  0  0  0  0
 15 16  1  0  0  0  0
 15 36  1  0  0  0  0
 15 37  1  0  0  0  0
 16 17  1  0  0  0  0
 16 38  1  0  0  0  0
 17 39  1  0  0  0  0
 17 40  1  0  0  0  0
 18 19  1  0  0  0  0
 18 41  1  0  0  0  0
M  END
> <s_m_source_file>
AV-unprocessed.smi

> <i_m_source_file_index>
3333

> <i_lp_mmshare_version>
43012

> <i_f3d_flags>
0

> <s_epik_input>
W0NIM11bQ0gyXWMxbmMoW2NIXXMxKVtDSDJdQyg9TylbTkhdW0NIMl1bQ0BIXShbQ0gyXVtDQEBIXTIzKVtDQEBIXShbQ0gyXTMpW0NIMl1bQ0gyXTI=

> <s_epik_cmdline>
J2VwaWtfcHl0aG9uJywgJy1waCcsICc3LjAnLCAnLXRuJywgJzgnLCAnLW1hJywgJzIwMCcsICctbWV0YWxfYmluZGluZycsICctaW1hZScsICc8aW5maWxlLm1hZT4nLCAnLW9tYWUnLCAnPG91dGZpbGUubWFlPic=

> <r_lp_tautomer_probability>
1

> <r_epik_Ionization_Penalty>
6.68371e-05

> <r_epik_Ionization_Penalty_Charging>
0

> <r_epik_Ionization_Penalty_Neutral>
6.68371e-05

> <r_epik_State_Penalty>
-0

> <r_epik_Charging_Adjusted_Penalty>
0

> <i_epik_Tot_Q>
0

> <i_epik_Tot_abs_Q>
0

> <r_epik_Metal_State_Penalty>
-0

> <b_epik_Metal_Only>
0

> <s_lp_Force_Field>
OPLS_2005

> <r_lp_Energy>
43.9975

> <b_lp_Chiralities_Consistent>
1

> <s_lp_Variant>
AV-unprocessed.smi:3333-4

> <Gold.Version>
5.8.1

> <Gold.Id.Protein>
6NUR|6NUR_protein|mol2

> <Gold.PLP.Fitness>
44.8635

> <Gold.PLP.PLP>
-38.2971

> <Gold.PLP.part.hbond>
-4.7411

> <Gold.PLP.part.metal>
0.0000

> <Gold.PLP.part.buried>
-2.2812

> <Gold.PLP.part.nonpolar>
-32.5668

> <Gold.PLP.part.repulsive>
0.2124

> <Gold.PLP.ligand.clash>
0.0000

> <Gold.PLP.ligand.torsion>
0.4442

> <Gold.PLP.Chemscore.Hbond>
1.7008

> <Gold.PLP.Chemscore.CHOScore>
0.7719

> <Gold.PLP.Chemscore.Metal>
0.0000

> <Gold.Chemscore.Hbonds>
donor molecule, donor type, donor heavy atom, donor atom, acceptor molecule, acceptor atom, score
      L1  H     9    27       P1  8029  0.20
      P1  H  6933  6944       L1     8  0.56
      P1  H  6934  6946       L1     8  0.88
      L1  C    18    41       P1  8029  0.80

> <Gold.PLP.Chemscore.Internal.Correction>
0.0367

> <Gold.Rescore>
     Score         DG    S(hbond)    S(metal)    S(lipo)     H(rot)  DE(clash)    DE(int)     intcor
     15.48     -17.00       0.98        0.00     101.62       1.42       0.15       1.36       ----

> <Gold.Chemscore.Fitness>
15.4820

> <Gold.Chemscore.DG>
-16.9961

> <Gold.Chemscore.ZeroCoef>
-5.4800

> <Gold.Chemscore.Hbond>
0.9786

> <Gold.Chemscore.Metal>
0.0000

> <Gold.Chemscore.Lipo>
101.6202

> <Gold.Chemscore.Internal_Hbond>
0.0000

> <Gold.Chemscore.DEClash>
0.1507

> <Gold.Chemscore.DEInternal>
1.3634

> <Gold.Chemscore.Rot>
1.4227

> <Gold.Chemscore.Internal.Correction>
   9.000000E+99

> <Gold.Chemscore.Hbonds>
donor molecule, donor type, donor heavy atom, donor atom, acceptor molecule, acceptor atom, score
      P1  H  6933  6944       L1     8  0.05
      P1  H  6934  6946       L1     8  0.86

> <Gold.Chemscore.Hbond.Weighted>
-3.2687

> <Gold.Chemscore.Metal.Weighted>
-0.0000

> <Gold.Chemscore.Lipo.Weighted>
-11.8896

> <Gold.Chemscore.Internal_Hbond.Weighted>
0.0000

> <Gold.Chemscore.DEClash.Weighted>
0.1507

> <Gold.Chemscore.DEInternal.Weighted>
1.3634

> <Gold.Chemscore.Rot.Weighted>
3.6421

> <Gold.Chemscore.Internal.Correction.Weighted>
   9.000000E+99

> <Gold.Protein.RotatedTorsions>
[ 6907 6896 6895 6894 ] final   69.27 input  -60.11 | X-H torsion
[ 7974 7965 7964 7962 ] final  157.72 input  175.53 | X-H torsion
[ 8008 7997 7996 7995 ] final   68.89 input   59.86 | X-H torsion
[ 10167 10162 10161 10158 ] final   28.65 input  -65.29 | X-H torsion
[ 10718 10713 10712 10709 ] final   96.84 input   66.30 | X-H torsion
[ 10763 10752 10751 10750 ] final   -9.34 input  -60.55 | X-H torsion
[ 11005 11000 10999 10996 ] final -166.65 input  -57.11 | X-H torsion

> <Gold.Protein.ActiveResidues>
 VAL166  LYS551  ARG553  GLY616  TRP617  ASP618  TYR619  PRO620  LYS621  CYS622 
 ASP623  PHE694  ASN695  SER759  ASP760  ASP761  ALA762  ILE779  LEU786  VAL792 
 PHE793  MET794  SER795  GLU796  ALA797  LYS798  CYS799  TRP800  GLU811  SER814 

> <Gold.Protein.RotatedAtoms>
  152.4675  134.5041  159.9733 H   0  0  0  0  0  0  0  0  0  0  0  0  # atno 6907 bound_to 6896
  151.5075  133.3486  159.2887 H   0  0  0  0  0  0  0  0  0  0  0  0  # atno 6908 bound_to 6896
  150.8667  134.8060  159.7186 H   0  0  0  0  0  0  0  0  0  0  0  0  # atno 6909 bound_to 6896
  144.7887  139.7379  143.6230 H   0  0  0  0  0  0  0  0  0  0  0  0  # atno 7974 bound_to 7965
  155.7152  140.3494  155.4991 H   0  0  0  0  0  0  0  0  0  0  0  0  # atno 8008 bound_to 7997
  155.9319  140.1086  157.1147 H   0  0  0  0  0  0  0  0  0  0  0  0  # atno 8009 bound_to 7997
  154.4087  140.1229  156.4801 H   0  0  0  0  0  0  0  0  0  0  0  0  # atno 8010 bound_to 7997
  140.4834  144.0580  150.6273 H   0  0  0  0  0  0  0  0  0  0  0  0  # atno 10167 bound_to 10162
  157.6921  131.0591  150.4552 H   0  0  0  0  0  0  0  0  0  0  0  0  # atno 10718 bound_to 10713
  153.4533  135.7015  153.6095 H   0  0  0  0  0  0  0  0  0  0  0  0  # atno 10763 bound_to 10752
  153.4420  135.3778  155.2234 H   0  0  0  0  0  0  0  0  0  0  0  0  # atno 10764 bound_to 10752
  154.8728  135.3976  154.3949 H   0  0  0  0  0  0  0  0  0  0  0  0  # atno 10765 bound_to 10752
  140.5620  134.5323  157.5145 H   0  0  0  0  0  0  0  0  0  0  0  0  # atno 11005 bound_to 11000
  146.2130  139.5500  142.9668 LP  0  0  0  0  0  0  0  0  0  0  0  0  # atno 17320 bound_to 7965
  145.5852  141.0377  143.2100 LP  0  0  0  0  0  0  0  0  0  0  0  0  # atno 17321 bound_to 7965
  140.3828  143.2793  152.0150 LP  0  0  0  0  0  0  0  0  0  0  0  0  # atno 17342 bound_to 10162
  139.4837  144.6140  151.7380 LP  0  0  0  0  0  0  0  0  0  0  0  0  # atno 17343 bound_to 10162
  156.4901  130.4093  149.6412 LP  0  0  0  0  0  0  0  0  0  0  0  0  # atno 17370 bound_to 10713
  156.3425  130.7390  151.2337 LP  0  0  0  0  0  0  0  0  0  0  0  0  # atno 17371 bound_to 10713
  139.9403  134.7799  156.0696 LP  0  0  0  0  0  0  0  0  0  0  0  0  # atno 17394 bound_to 11000
  141.1108  133.6644  156.2975 LP  0  0  0  0  0  0  0  0  0  0  0  0  # atno 17395 bound_to 11000

$$$$
