AV-unprocessed.smi:3072|AV-procd|sdf|11718|dock6
  -GOLD-   2272017123D 1   1.00000     0.00000
 Structure written by MMmdl.
 25 26  0  0  0  0  0  0  0  0  2 V2000
  153.1667  142.4428  161.5807 C   0  0  0  0  0  0  0  0  0  0  0  0
  153.0965  142.9846  162.7861 N   0  0  0  0  0  0  0  0  0  0  0  0
  152.3232  144.0702  162.6030 N   0  0  0  0  0  0  0  0  0  0  0  0
  151.9075  144.2169  161.3008 C   0  0  0  0  0  0  0  0  0  0  0  0
  152.4394  143.1729  160.5942 C   0  0  0  0  0  0  0  0  0  0  0  0
  152.3075  142.8499  159.1277 C   0  0  1  0  0  0  0  0  0  0  0  0
  151.7780  141.4189  158.9115 C   0  0  0  0  0  0  0  0  0  0  0  0
  151.6102  141.1266  157.4122 C   0  0  0  0  0  0  0  0  0  0  0  0
  150.7229  142.1876  156.7406 C   0  0  0  0  0  0  0  0  0  0  0  0
  151.2623  143.5445  156.9756 N   0  3  0  0  0  0  0  0  0  0  0  0
  151.3982  143.8705  158.4122 C   0  0  0  0  0  0  0  0  0  0  0  0
  152.0913  144.6917  163.3651 H   0  0  0  0  0  0  0  0  0  0  0  0
  153.7439  141.5386  161.4549 H   0  0  0  0  0  0  0  0  0  0  0  0
  151.2793  145.0390  160.9908 H   0  0  0  0  0  0  0  0  0  0  0  0
  153.2926  142.9072  158.6615 H   0  0  0  0  0  0  0  0  0  0  0  0
  152.4593  140.6930  159.3571 H   0  0  0  0  0  0  0  0  0  0  0  0
  150.8176  141.2939  159.4138 H   0  0  0  0  0  0  0  0  0  0  0  0
  152.5889  141.1090  156.9305 H   0  0  0  0  0  0  0  0  0  0  0  0
  151.1786  140.1353  157.2714 H   0  0  0  0  0  0  0  0  0  0  0  0
  150.6644  142.0081  155.6668 H   0  0  0  0  0  0  0  0  0  0  0  0
  149.7049  142.1330  157.1291 H   0  0  0  0  0  0  0  0  0  0  0  0
  152.1736  143.6070  156.5445 H   0  0  0  0  0  0  0  0  0  0  0  0
  150.4063  143.8891  158.8660 H   0  0  0  0  0  0  0  0  0  0  0  0
  151.8097  144.8761  158.5052 H   0  0  0  0  0  0  0  0  0  0  0  0
  150.6498  144.2207  156.5423 H   0  0  0  0  0  0  0  0  0  0  0  0
  1  5  1  0  0  0  0
  1  2  2  0  0  0  0
  1 13  1  0  0  0  0
  2  3  1  0  0  0  0
  3 12  1  0  0  0  0
  3  4  1  0  0  0  0
  4  5  2  0  0  0  0
  4 14  1  0  0  0  0
  5  6  1  0  0  0  0
  6 11  1  0  0  0  0
  6  7  1  0  0  0  0
  6 15  1  0  0  0  0
  7  8  1  0  0  0  0
  7 16  1  0  0  0  0
  7 17  1  0  0  0  0
  8  9  1  0  0  0  0
  8 18  1  0  0  0  0
  8 19  1  0  0  0  0
  9 10  1  0  0  0  0
  9 20  1  0  0  0  0
  9 21  1  0  0  0  0
 10 11  1  0  0  0  0
 10 22  1  0  0  0  0
 10 25  1  0  0  0  0
 11 23  1  0  0  0  0
 11 24  1  0  0  0  0
M  CHG  1  10   1
M  END
> <s_m_source_file>
AV-unprocessed.smi

> <i_m_source_file_index>
3072

> <i_lp_mmshare_version>
43012

> <i_f3d_flags>
0

> <s_epik_input>
W2NIXTFbbkhdbltjSF1jMVtDQEBIXTJbQ0gyXVtDSDJdW0NIMl1bTkhdW0NIMl0y

> <s_epik_cmdline>
J2VwaWtfcHl0aG9uJywgJy1waCcsICc3LjAnLCAnLXRuJywgJzgnLCAnLW1hJywgJzIwMCcsICctbWV0YWxfYmluZGluZycsICctaW1hZScsICc8aW5maWxlLm1hZT4nLCAnLW9tYWUnLCAnPG91dGZpbGUubWFlPic=

> <r_lp_tautomer_probability>
1

> <r_epik_Ionization_Penalty>
0.000160186

> <r_epik_Ionization_Penalty_Charging>
0.000157527

> <r_epik_Ionization_Penalty_Neutral>
2.65916e-06

> <r_epik_State_Penalty>
-0

> <r_epik_Charging_Adjusted_Penalty>
0.000157527

> <i_epik_Tot_Q>
1

> <i_epik_Tot_abs_Q>
1

> <r_epik_Metal_State_Penalty>
-0

> <b_epik_Metal_Only>
0

> <s_lp_Force_Field>
OPLS_2005

> <r_lp_Energy>
12.3326

> <b_lp_Chiralities_Consistent>
1

> <s_lp_Variant>
AV-unprocessed.smi:3072-2

> <Gold.Version>
5.8.1

> <Gold.Id.Protein>
6NUR|6NUR_protein|mol2

> <Gold.PLP.Fitness>
35.5206

> <Gold.PLP.PLP>
-29.5675

> <Gold.PLP.part.hbond>
-2.9406

> <Gold.PLP.part.metal>
0.0000

> <Gold.PLP.part.buried>
-4.4950

> <Gold.PLP.part.nonpolar>
-22.6223

> <Gold.PLP.part.repulsive>
0.2194

> <Gold.PLP.ligand.clash>
0.0000

> <Gold.PLP.ligand.torsion>
0.0296

> <Gold.PLP.Chemscore.Hbond>
2.0000

> <Gold.PLP.Chemscore.CHOScore>
0.0000

> <Gold.PLP.Chemscore.Metal>
0.0000

> <Gold.Chemscore.Hbonds>
donor molecule, donor type, donor heavy atom, donor atom, acceptor molecule, acceptor atom, score
      L1  H    10    25       P1  8028  2.00

> <Gold.PLP.Chemscore.Internal.Correction>
0.0123

> <Gold.Rescore>
     Score         DG    S(hbond)    S(metal)    S(lipo)     H(rot)  DE(clash)    DE(int)     intcor
     14.61     -14.63       1.00        0.00      71.57       1.00       0.01       0.01       ----

> <Gold.Chemscore.Fitness>
14.6090

> <Gold.Chemscore.DG>
-14.6326

> <Gold.Chemscore.ZeroCoef>
-5.4800

> <Gold.Chemscore.Hbond>
0.9997

> <Gold.Chemscore.Metal>
0.0000

> <Gold.Chemscore.Lipo>
71.5698

> <Gold.Chemscore.Internal_Hbond>
0.0000

> <Gold.Chemscore.DEClash>
0.0092

> <Gold.Chemscore.DEInternal>
0.0144

> <Gold.Chemscore.Rot>
1.0000

> <Gold.Chemscore.Internal.Correction>
   9.000000E+99

> <Gold.Chemscore.Hbonds>
donor molecule, donor type, donor heavy atom, donor atom, acceptor molecule, acceptor atom, score
      L1  H    10    25       P1  8028  0.92

> <Gold.Chemscore.Hbond.Weighted>
-3.3390

> <Gold.Chemscore.Metal.Weighted>
-0.0000

> <Gold.Chemscore.Lipo.Weighted>
-8.3737

> <Gold.Chemscore.Internal_Hbond.Weighted>
0.0000

> <Gold.Chemscore.DEClash.Weighted>
0.0092

> <Gold.Chemscore.DEInternal.Weighted>
0.0144

> <Gold.Chemscore.Rot.Weighted>
2.5600

> <Gold.Chemscore.Internal.Correction.Weighted>
   9.000000E+99

> <Gold.Protein.RotatedTorsions>
[ 6907 6896 6895 6894 ] final    8.43 input  -60.11 | X-H torsion
[ 7974 7965 7964 7962 ] final   52.42 input  175.53 | X-H torsion
[ 8008 7997 7996 7995 ] final    4.21 input   59.86 | X-H torsion
[ 10167 10162 10161 10158 ] final -146.71 input  -65.29 | X-H torsion
[ 10718 10713 10712 10709 ] final   -5.73 input   66.30 | X-H torsion
[ 10763 10752 10751 10750 ] final  162.93 input  -60.55 | X-H torsion
[ 11005 11000 10999 10996 ] final  147.69 input  -57.11 | X-H torsion

> <Gold.Protein.ActiveResidues>
 VAL166  LYS551  ARG553  GLY616  TRP617  ASP618  TYR619  PRO620  LYS621  CYS622 
 ASP623  PHE694  ASN695  SER759  ASP760  ASP761  ALA762  ILE779  LEU786  VAL792 
 PHE793  MET794  SER795  GLU796  ALA797  LYS798  CYS799  TRP800  GLU811  SER814 

> <Gold.Protein.RotatedAtoms>
  151.7059  135.0921  160.0258 H   0  0  0  0  0  0  0  0  0  0  0  0  # atno 6907 bound_to 6896
  152.3691  133.6391  159.6082 H   0  0  0  0  0  0  0  0  0  0  0  0  # atno 6908 bound_to 6896
  150.7660  133.9215  159.3441 H   0  0  0  0  0  0  0  0  0  0  0  0  # atno 6909 bound_to 6896
  145.9815  139.4247  143.0129 H   0  0  0  0  0  0  0  0  0  0  0  0  # atno 7974 bound_to 7965
  154.7132  140.2697  155.6610 H   0  0  0  0  0  0  0  0  0  0  0  0  # atno 8008 bound_to 7997
  156.2801  140.2749  156.1704 H   0  0  0  0  0  0  0  0  0  0  0  0  # atno 8009 bound_to 7997
  155.0607  140.0371  157.2565 H   0  0  0  0  0  0  0  0  0  0  0  0  # atno 8010 bound_to 7997
  139.7688  143.8268  152.2621 H   0  0  0  0  0  0  0  0  0  0  0  0  # atno 10167 bound_to 10162
  156.7422  130.5213  149.5821 H   0  0  0  0  0  0  0  0  0  0  0  0  # atno 10718 bound_to 10713
  154.2860  135.2762  155.2676 H   0  0  0  0  0  0  0  0  0  0  0  0  # atno 10763 bound_to 10752
  154.5176  135.5765  153.6658 H   0  0  0  0  0  0  0  0  0  0  0  0  # atno 10764 bound_to 10752
  152.9921  135.6196  154.3022 H   0  0  0  0  0  0  0  0  0  0  0  0  # atno 10765 bound_to 10752
  140.0897  134.9048  157.1631 H   0  0  0  0  0  0  0  0  0  0  0  0  # atno 11005 bound_to 11000
  145.7762  140.9876  143.1123 LP  0  0  0  0  0  0  0  0  0  0  0  0  # atno 17320 bound_to 7965
  144.6863  139.9508  143.7478 LP  0  0  0  0  0  0  0  0  0  0  0  0  # atno 17321 bound_to 7965
  139.8296  144.7259  150.9467 LP  0  0  0  0  0  0  0  0  0  0  0  0  # atno 17342 bound_to 10162
  140.7812  143.4082  151.1036 LP  0  0  0  0  0  0  0  0  0  0  0  0  # atno 17343 bound_to 10162
  156.1457  130.6275  151.0527 LP  0  0  0  0  0  0  0  0  0  0  0  0  # atno 17370 bound_to 10713
  157.6813  131.0837  150.7361 LP  0  0  0  0  0  0  0  0  0  0  0  0  # atno 17371 bound_to 10713
  140.3370  134.2746  155.7218 LP  0  0  0  0  0  0  0  0  0  0  0  0  # atno 17394 bound_to 11000
  141.2074  133.7807  157.0122 LP  0  0  0  0  0  0  0  0  0  0  0  0  # atno 17395 bound_to 11000

$$$$
