AV-unprocessed.smi:315|AV-procd|sdf|2317|dock3
  -GOLD-   2262022223D 1   1.00000     0.00000
 Structure written by MMmdl.
 47 49  0  0  0  0  0  0  0  0  2 V2000
  151.8865  138.8600  155.9423 C   0  0  0  0  0  0  0  0  0  0  0  0
  151.8413  138.4139  154.4785 C   0  0  0  0  0  0  0  0  0  0  0  0
  150.4804  138.2151  154.1131 O   0  0  0  0  0  0  0  0  0  0  0  0
  149.5671  139.2213  154.3633 C   0  0  0  0  0  0  0  0  0  0  0  0
  150.0305  140.4561  154.6780 N   0  0  0  0  0  0  0  0  0  0  0  0
  149.1325  141.4336  154.9214 C   0  0  0  0  0  0  0  0  0  0  0  0
  147.7400  141.2330  154.8704 C   0  0  0  0  0  0  0  0  0  0  0  0
  147.2578  139.9522  154.5425 C   0  0  0  0  0  0  0  0  0  0  0  0
  148.1888  138.9224  154.2715 C   0  0  0  0  0  0  0  0  0  0  0  0
  147.8153  137.5922  153.9498 N   0  0  0  0  0  0  0  0  0  0  0  0
  146.6272  136.9917  154.1465 C   0  0  0  0  0  0  0  0  0  0  0  0
  145.7161  137.4504  154.8314 O   0  0  0  0  0  0  0  0  0  0  0  0
  146.4966  135.8178  153.5014 N   0  0  0  0  0  0  0  0  0  0  0  0
  145.3439  134.9103  153.4968 C   0  0  1  0  0  0  0  0  0  0  0  0
  144.0210  135.6249  153.1839 C   0  0  0  0  0  0  0  0  0  0  0  0
  143.1648  134.5876  152.4351 C   0  0  0  0  0  0  0  0  0  0  0  0
  143.9893  133.3629  152.3465 N   0  3  1  0  0  0  0  0  0  0  0  0
  143.6685  132.4227  151.2424 C   0  0  0  0  0  0  0  0  0  0  0  0
  144.2329  132.8819  149.8876 C   0  0  0  0  0  0  0  0  0  0  0  0
  145.7349  133.1648  149.9935 C   0  0  0  0  0  0  0  0  0  0  0  0
  145.9843  134.2200  151.0758 C   0  0  0  0  0  0  0  0  0  0  0  0
  145.4032  133.7853  152.4450 C   0  0  1  0  0  0  0  0  0  0  0  0
  152.9135  139.0303  156.2659 H   0  0  0  0  0  0  0  0  0  0  0  0
  151.4506  138.1043  156.5958 H   0  0  0  0  0  0  0  0  0  0  0  0
  151.3322  139.7877  156.0856 H   0  0  0  0  0  0  0  0  0  0  0  0
  152.2989  139.1773  153.8474 H   0  0  0  0  0  0  0  0  0  0  0  0
  152.4076  137.4891  154.3582 H   0  0  0  0  0  0  0  0  0  0  0  0
  149.5364  142.4037  155.1697 H   0  0  0  0  0  0  0  0  0  0  0  0
  147.0571  142.0423  155.0824 H   0  0  0  0  0  0  0  0  0  0  0  0
  146.1928  139.7783  154.5177 H   0  0  0  0  0  0  0  0  0  0  0  0
  148.4527  137.1078  153.3355 H   0  0  0  0  0  0  0  0  0  0  0  0
  147.2840  135.5294  152.9384 H   0  0  0  0  0  0  0  0  0  0  0  0
  145.2492  134.4574  154.4858 H   0  0  0  0  0  0  0  0  0  0  0  0
  143.5332  135.9796  154.0925 H   0  0  0  0  0  0  0  0  0  0  0  0
  144.1867  136.4918  152.5424 H   0  0  0  0  0  0  0  0  0  0  0  0
  142.2308  134.3746  152.9551 H   0  0  0  0  0  0  0  0  0  0  0  0
  142.9150  134.9606  151.4412 H   0  0  0  0  0  0  0  0  0  0  0  0
  144.0968  131.4525  151.4970 H   0  0  0  0  0  0  0  0  0  0  0  0
  142.5892  132.2776  151.1822 H   0  0  0  0  0  0  0  0  0  0  0  0
  144.0516  132.1153  149.1335 H   0  0  0  0  0  0  0  0  0  0  0  0
  143.7119  133.7766  149.5455 H   0  0  0  0  0  0  0  0  0  0  0  0
  146.2736  132.2478  150.2353 H   0  0  0  0  0  0  0  0  0  0  0  0
  146.1208  133.5121  149.0344 H   0  0  0  0  0  0  0  0  0  0  0  0
  147.0561  134.4001  151.1620 H   0  0  0  0  0  0  0  0  0  0  0  0
  145.5402  135.1649  150.7597 H   0  0  0  0  0  0  0  0  0  0  0  0
  145.9830  132.9411  152.8178 H   0  0  0  0  0  0  0  0  0  0  0  0
  143.7984  132.8641  153.2037 H   0  0  0  0  0  0  0  0  0  0  0  0
  1  2  1  0  0  0  0
  1 23  1  0  0  0  0
  1 24  1  0  0  0  0
  1 25  1  0  0  0  0
  2  3  1  0  0  0  0
  2 26  1  0  0  0  0
  2 27  1  0  0  0  0
  3  4  1  0  0  0  0
  4  9  1  0  0  0  0
  4  5  2  0  0  0  0
  5  6  1  0  0  0  0
  6  7  2  0  0  0  0
  6 28  1  0  0  0  0
  7  8  1  0  0  0  0
  7 29  1  0  0  0  0
  8  9  2  0  0  0  0
  8 30  1  0  0  0  0
  9 10  1  0  0  0  0
 10 11  1  0  0  0  0
 10 31  1  0  0  0  0
 11 12  2  0  0  0  0
 11 13  1  0  0  0  0
 13 14  1  0  0  0  0
 13 32  1  0  0  0  0
 14 22  1  0  0  0  0
 14 15  1  0  0  0  0
 14 33  1  0  0  0  0
 15 16  1  0  0  0  0
 15 34  1  0  0  0  0
 15 35  1  0  0  0  0
 16 17  1  0  0  0  0
 16 36  1  0  0  0  0
 16 37  1  0  0  0  0
 17 22  1  0  0  0  0
 17 18  1  0  0  0  0
 17 47  1  0  0  0  0
 18 19  1  0  0  0  0
 18 38  1  0  0  0  0
 18 39  1  0  0  0  0
 19 20  1  0  0  0  0
 19 40  1  0  0  0  0
 19 41  1  0  0  0  0
 20 21  1  0  0  0  0
 20 42  1  0  0  0  0
 20 43  1  0  0  0  0
 21 22  1  0  0  0  0
 21 44  1  0  0  0  0
 21 45  1  0  0  0  0
 22 46  1  0  0  0  0
M  CHG  1  17   1
M  END
> <s_m_source_file>
AV-unprocessed.smi

> <i_m_source_file_index>
315

> <i_lp_mmshare_version>
43012

> <i_f3d_flags>
0

> <s_epik_input>
W0NIM11bQ0gyXU9jMW5bY0hdW2NIXVtjSF1jMVtOSF1DKD1PKVtOSF1bQ0BIXShbQ0gyXVtDSDJdMilbQ0BASF0oTjIzKVtDSDJdW0NIMl1bQ0gyXVtDSDJdMw==

> <s_epik_cmdline>
J2VwaWtfcHl0aG9uJywgJy1waCcsICc3LjAnLCAnLXRuJywgJzgnLCAnLW1hJywgJzIwMCcsICctbWV0YWxfYmluZGluZycsICctaW1hZScsICc8aW5maWxlLm1hZT4nLCAnLW9tYWUnLCAnPG91dGZpbGUubWFlPic=

> <r_lp_tautomer_probability>
1

> <r_epik_Ionization_Penalty>
0.00106455

> <r_epik_Ionization_Penalty_Charging>
0.000974069

> <r_epik_Ionization_Penalty_Neutral>
9.04821e-05

> <r_epik_State_Penalty>
0.000633842

> <r_epik_Charging_Adjusted_Penalty>
0.00160791

> <i_epik_Tot_Q>
1

> <i_epik_Tot_abs_Q>
1

> <r_epik_Metal_State_Penalty>
-0

> <b_epik_Metal_Only>
0

> <s_lp_Force_Field>
OPLS_2005

> <r_lp_Energy>
48.3447

> <b_lp_Chiralities_Consistent>
1

> <s_lp_Variant>
AV-unprocessed.smi:315-2

> <Gold.Version>
5.8.1

> <Gold.Id.Protein>
6NUR|6NUR_protein|mol2

> <Gold.PLP.Fitness>
50.4996

> <Gold.PLP.PLP>
-36.5921

> <Gold.PLP.part.hbond>
-3.6698

> <Gold.PLP.part.metal>
0.0000

> <Gold.PLP.part.buried>
-4.6951

> <Gold.PLP.part.nonpolar>
-29.0510

> <Gold.PLP.part.repulsive>
0.4501

> <Gold.PLP.ligand.clash>
0.0000

> <Gold.PLP.ligand.torsion>
0.3612

> <Gold.PLP.Chemscore.Hbond>
3.8754

> <Gold.PLP.Chemscore.CHOScore>
1.0000

> <Gold.PLP.Chemscore.Metal>
0.0000

> <Gold.Chemscore.Hbonds>
donor molecule, donor type, donor heavy atom, donor atom, acceptor molecule, acceptor atom, score
      L1  H    10    31       P1  7948  1.00
      L1  H    13    32       P1  7948  0.76
      L1  H    17    47       P1 10957  1.04
      P1  H  7989  7998       L1     5  0.93
      L1  C     6    28       P1  8028  1.00

> <Gold.PLP.Chemscore.Internal.Correction>
0.0039

> <Gold.Rescore>
     Score         DG    S(hbond)    S(metal)    S(lipo)     H(rot)  DE(clash)    DE(int)     intcor
     17.69     -20.97       2.73        0.00      84.58       1.38       0.11       3.16       ----

> <Gold.Chemscore.Fitness>
17.6944

> <Gold.Chemscore.DG>
-20.9661

> <Gold.Chemscore.ZeroCoef>
-5.4800

> <Gold.Chemscore.Hbond>
2.7291

> <Gold.Chemscore.Metal>
0.0000

> <Gold.Chemscore.Lipo>
84.5834

> <Gold.Chemscore.Internal_Hbond>
0.0000

> <Gold.Chemscore.DEClash>
0.1090

> <Gold.Chemscore.DEInternal>
3.1628

> <Gold.Chemscore.Rot>
1.3770

> <Gold.Chemscore.Internal.Correction>
   9.000000E+99

> <Gold.Chemscore.Hbonds>
donor molecule, donor type, donor heavy atom, donor atom, acceptor molecule, acceptor atom, score
      L1  H    10    31       P1  7948  0.99
      L1  H    13    32       P1  7948  0.72
      L1  H    17    47       P1 10957  0.26
      P1  H  7989  7998       L1     5  0.56

> <Gold.Chemscore.Hbond.Weighted>
-9.1150

> <Gold.Chemscore.Metal.Weighted>
-0.0000

> <Gold.Chemscore.Lipo.Weighted>
-9.8963

> <Gold.Chemscore.Internal_Hbond.Weighted>
0.0000

> <Gold.Chemscore.DEClash.Weighted>
0.1090

> <Gold.Chemscore.DEInternal.Weighted>
3.1628

> <Gold.Chemscore.Rot.Weighted>
3.5252

> <Gold.Chemscore.Internal.Correction.Weighted>
   9.000000E+99

> <Gold.Protein.RotatedTorsions>
[ 6907 6896 6895 6894 ] final  -54.61 input  -60.11 | X-H torsion
[ 7974 7965 7964 7962 ] final    9.44 input  175.53 | X-H torsion
[ 8008 7997 7996 7995 ] final  120.08 input   59.86 | X-H torsion
[ 10167 10162 10161 10158 ] final -110.95 input  -65.29 | X-H torsion
[ 10718 10713 10712 10709 ] final   -1.34 input   66.30 | X-H torsion
[ 10763 10752 10751 10750 ] final   32.24 input  -60.55 | X-H torsion
[ 11005 11000 10999 10996 ] final    0.40 input  -57.11 | X-H torsion

> <Gold.Protein.ActiveResidues>
 VAL166  LYS551  ARG553  GLY616  TRP617  ASP618  TYR619  PRO620  LYS621  CYS622 
 ASP623  PHE694  ASN695  SER759  ASP760  ASP761  ALA762  ILE779  LEU786  VAL792 
 PHE793  MET794  SER795  GLU796  ALA797  LYS798  CYS799  TRP800  GLU811  SER814 

> <Gold.Protein.RotatedAtoms>
  150.8323  134.7582  159.6863 H   0  0  0  0  0  0  0  0  0  0  0  0  # atno 6907 bound_to 6896
  152.4426  134.5557  159.9889 H   0  0  0  0  0  0  0  0  0  0  0  0  # atno 6908 bound_to 6896
  151.5715  133.3351  159.3026 H   0  0  0  0  0  0  0  0  0  0  0  0  # atno 6909 bound_to 6896
  146.2403  139.9783  142.8439 H   0  0  0  0  0  0  0  0  0  0  0  0  # atno 7974 bound_to 7965
  156.2626  140.2839  156.1093 H   0  0  0  0  0  0  0  0  0  0  0  0  # atno 8008 bound_to 7997
  155.1275  140.0393  157.2783 H   0  0  0  0  0  0  0  0  0  0  0  0  # atno 8009 bound_to 7997
  154.6624  140.2569  155.7100 H   0  0  0  0  0  0  0  0  0  0  0  0  # atno 8010 bound_to 7997
  140.1389  143.4296  152.1576 H   0  0  0  0  0  0  0  0  0  0  0  0  # atno 10167 bound_to 10162
  156.8070  130.5412  149.5714 H   0  0  0  0  0  0  0  0  0  0  0  0  # atno 10718 bound_to 10713
  153.0272  135.6418  154.1325 H   0  0  0  0  0  0  0  0  0  0  0  0  # atno 10763 bound_to 10752
  154.1052  135.2857  155.3244 H   0  0  0  0  0  0  0  0  0  0  0  0  # atno 10764 bound_to 10752
  154.6371  135.5473  153.7809 H   0  0  0  0  0  0  0  0  0  0  0  0  # atno 10765 bound_to 10752
  140.6270  133.9609  155.8254 H   0  0  0  0  0  0  0  0  0  0  0  0  # atno 11005 bound_to 11000
  145.1616  140.9675  143.4374 LP  0  0  0  0  0  0  0  0  0  0  0  0  # atno 17320 bound_to 7965
  145.0111  139.3509  143.6119 LP  0  0  0  0  0  0  0  0  0  0  0  0  # atno 17321 bound_to 7965
  139.5482  144.7316  151.4517 LP  0  0  0  0  0  0  0  0  0  0  0  0  # atno 17342 bound_to 10162
  140.6772  143.8162  150.7074 LP  0  0  0  0  0  0  0  0  0  0  0  0  # atno 17343 bound_to 10162
  156.1067  130.6010  150.9982 LP  0  0  0  0  0  0  0  0  0  0  0  0  # atno 17370 bound_to 10713
  157.6525  131.0894  150.8020 LP  0  0  0  0  0  0  0  0  0  0  0  0  # atno 17371 bound_to 10713
  141.0702  134.0216  157.3537 LP  0  0  0  0  0  0  0  0  0  0  0  0  # atno 17394 bound_to 11000
  139.9131  135.0193  156.7772 LP  0  0  0  0  0  0  0  0  0  0  0  0  # atno 17395 bound_to 11000

$$$$
