AV-unprocessed.smi:1761|AV-procd|sdf|7095|dock7
  -GOLD-   22720 8313D 1   1.00000     0.00000
 Structure written by MMmdl.
 34 35  0  0  0  0  0  0  0  0  1 V2000
  149.7996  140.7016  157.0227 O   0  0  0  0  0  0  0  0  0  0  0  0
  149.6834  141.8351  156.5557 C   0  0  0  0  0  0  0  0  0  0  0  0
  150.2626  142.9427  157.0510 N   0  0  0  0  0  0  0  0  0  0  0  0
  151.1298  143.0552  158.1704 C   0  0  0  0  0  0  0  0  0  0  0  0
  151.3422  144.3743  158.6314 C   0  0  0  0  0  0  0  0  0  0  0  0
  152.1885  144.5947  159.7352 C   0  0  0  0  0  0  0  0  0  0  0  0
  152.8022  143.4889  160.3500 C   0  0  0  0  0  0  0  0  0  0  0  0
  152.5379  142.2089  159.8288 C   0  0  0  0  0  0  0  0  0  0  0  0
  151.7270  141.9954  158.7712 N   0  0  0  0  0  0  0  0  0  0  0  0
  148.9454  142.1196  155.4727 N   0  0  0  0  0  0  0  0  0  0  0  0
  148.1722  141.1541  154.6940 C   0  0  2  0  0  0  0  0  0  0  0  0
  146.8498  140.8907  155.4440 C   0  0  0  0  0  0  0  0  0  0  0  0
  146.0221  139.7766  154.7874 C   0  0  0  0  0  0  0  0  0  0  0  0
  146.8387  138.4827  154.6726 C   0  0  0  0  0  0  0  0  0  0  0  0
  148.1324  138.7268  153.8842 C   0  0  0  0  0  0  0  0  0  0  0  0
  148.9826  139.8474  154.5135 C   0  0  1  0  0  0  0  0  0  0  0  0
  150.0817  140.0771  153.6545 O   0  0  0  0  0  0  0  0  0  0  0  0
  150.0631  143.8064  156.5685 H   0  0  0  0  0  0  0  0  0  0  0  0
  150.8629  145.2126  158.1467 H   0  0  0  0  0  0  0  0  0  0  0  0
  152.3625  145.5953  160.1026 H   0  0  0  0  0  0  0  0  0  0  0  0
  153.4581  143.6179  161.1982 H   0  0  0  0  0  0  0  0  0  0  0  0
  152.9891  141.3334  160.2717 H   0  0  0  0  0  0  0  0  0  0  0  0
  148.9063  143.0803  155.1657 H   0  0  0  0  0  0  0  0  0  0  0  0
  147.9220  141.5578  153.7108 H   0  0  0  0  0  0  0  0  0  0  0  0
  147.0609  140.6110  156.4775 H   0  0  0  0  0  0  0  0  0  0  0  0
  146.2595  141.8066  155.4897 H   0  0  0  0  0  0  0  0  0  0  0  0
  145.1171  139.5949  155.3676 H   0  0  0  0  0  0  0  0  0  0  0  0
  145.6961  140.0968  153.7970 H   0  0  0  0  0  0  0  0  0  0  0  0
  147.0792  138.1080  155.6682 H   0  0  0  0  0  0  0  0  0  0  0  0
  146.2453  137.7094  154.1839 H   0  0  0  0  0  0  0  0  0  0  0  0
  148.7107  137.8036  153.8319 H   0  0  0  0  0  0  0  0  0  0  0  0
  147.8770  138.9890  152.8562 H   0  0  0  0  0  0  0  0  0  0  0  0
  149.3613  139.5089  155.4793 H   0  0  0  0  0  0  0  0  0  0  0  0
  149.7589  140.1691  152.7709 H   0  0  0  0  0  0  0  0  0  0  0  0
  1  2  2  0  0  0  0
  2  3  1  0  0  0  0
  2 10  1  0  0  0  0
  3  4  1  0  0  0  0
  3 18  1  0  0  0  0
  4  9  1  0  0  0  0
  4  5  2  0  0  0  0
  5  6  1  0  0  0  0
  5 19  1  0  0  0  0
  6  7  2  0  0  0  0
  6 20  1  0  0  0  0
  7  8  1  0  0  0  0
  7 21  1  0  0  0  0
  8  9  2  0  0  0  0
  8 22  1  0  0  0  0
 10 11  1  0  0  0  0
 10 23  1  0  0  0  0
 11 16  1  0  0  0  0
 11 12  1  0  0  0  0
 11 24  1  0  0  0  0
 12 13  1  0  0  0  0
 12 25  1  0  0  0  0
 12 26  1  0  0  0  0
 13 14  1  0  0  0  0
 13 27  1  0  0  0  0
 13 28  1  0  0  0  0
 14 15  1  0  0  0  0
 14 29  1  0  0  0  0
 14 30  1  0  0  0  0
 15 16  1  0  0  0  0
 15 31  1  0  0  0  0
 15 32  1  0  0  0  0
 16 17  1  0  0  0  0
 16 33  1  0  0  0  0
 17 34  1  0  0  0  0
M  END
> <s_m_source_file>
AV-unprocessed.smi

> <i_m_source_file_index>
1761

> <i_lp_mmshare_version>
43012

> <i_f3d_flags>
0

> <s_epik_input>
bjFbY0hdW2NIXVtjSF1bY0hdYzFbTkhdQyg9TylbTkhdW0NAQEhdMltDSDJdW0NIMl1bQ0gyXVtDSDJdW0NASF0yW09IXQ==

> <s_epik_cmdline>
J2VwaWtfcHl0aG9uJywgJy1waCcsICc3LjAnLCAnLXRuJywgJzgnLCAnLW1hJywgJzIwMCcsICctbWV0YWxfYmluZGluZycsICctaW1hZScsICc8aW5maWxlLm1hZT4nLCAnLW9tYWUnLCAnPG91dGZpbGUubWFlPic=

> <r_lp_tautomer_probability>
1

> <r_epik_Ionization_Penalty>
4.92589e-05

> <r_epik_Ionization_Penalty_Charging>
0

> <r_epik_Ionization_Penalty_Neutral>
4.92589e-05

> <r_epik_State_Penalty>
-0

> <r_epik_Charging_Adjusted_Penalty>
0

> <i_epik_Tot_Q>
0

> <i_epik_Tot_abs_Q>
0

> <r_epik_Metal_State_Penalty>
-0

> <b_epik_Metal_Only>
0

> <s_lp_Force_Field>
OPLS_2005

> <r_lp_Energy>
12.6575

> <b_lp_Chiralities_Consistent>
1

> <s_lp_Variant>
AV-unprocessed.smi:1761-1

> <Gold.Version>
5.8.1

> <Gold.Id.Protein>
6NUR|6NUR_protein|mol2

> <Gold.PLP.Fitness>
40.9819

> <Gold.PLP.PLP>
-30.6306

> <Gold.PLP.part.hbond>
-3.9529

> <Gold.PLP.part.metal>
0.0000

> <Gold.PLP.part.buried>
-3.7742

> <Gold.PLP.part.nonpolar>
-24.0266

> <Gold.PLP.part.repulsive>
0.1919

> <Gold.PLP.ligand.clash>
0.0000

> <Gold.PLP.ligand.torsion>
0.3089

> <Gold.PLP.Chemscore.Hbond>
3.6560

> <Gold.PLP.Chemscore.CHOScore>
0.0000

> <Gold.PLP.Chemscore.Metal>
0.0000

> <Gold.Chemscore.Hbonds>
donor molecule, donor type, donor heavy atom, donor atom, acceptor molecule, acceptor atom, score
      L1  H     3    18       P1  8028  0.94
      L1  H    10    23       P1  8028  0.93
      L1  H    17    34       P1  7957  1.00
      P1  H  7989  7998       L1    17  0.71

> <Gold.PLP.Chemscore.Internal.Correction>
0.0011

> <Gold.Rescore>
     Score         DG    S(hbond)    S(metal)    S(lipo)     H(rot)  DE(clash)    DE(int)     intcor
     18.32     -21.43       3.32        0.00      73.57       1.47       0.03       3.07       ----

> <Gold.Chemscore.Fitness>
18.3230

> <Gold.Chemscore.DG>
-21.4281

> <Gold.Chemscore.ZeroCoef>
-5.4800

> <Gold.Chemscore.Hbond>
3.3210

> <Gold.Chemscore.Metal>
0.0000

> <Gold.Chemscore.Lipo>
73.5656

> <Gold.Chemscore.Internal_Hbond>
0.0000

> <Gold.Chemscore.DEClash>
0.0329

> <Gold.Chemscore.DEInternal>
3.0722

> <Gold.Chemscore.Rot>
1.4653

> <Gold.Chemscore.Internal.Correction>
   9.000000E+99

> <Gold.Chemscore.Hbonds>
donor molecule, donor type, donor heavy atom, donor atom, acceptor molecule, acceptor atom, score
      L1  H     3    18       P1  8028  0.91
      L1  H    10    23       P1  8028  0.91
      L1  H    17    34       P1  7957  0.99
      P1  H  7989  7998       L1    17  0.16

> <Gold.Chemscore.Hbond.Weighted>
-11.0920

> <Gold.Chemscore.Metal.Weighted>
-0.0000

> <Gold.Chemscore.Lipo.Weighted>
-8.6072

> <Gold.Chemscore.Internal_Hbond.Weighted>
0.0000

> <Gold.Chemscore.DEClash.Weighted>
0.0329

> <Gold.Chemscore.DEInternal.Weighted>
3.0722

> <Gold.Chemscore.Rot.Weighted>
3.7511

> <Gold.Chemscore.Internal.Correction.Weighted>
   9.000000E+99

> <Gold.Protein.RotatedTorsions>
[ 6907 6896 6895 6894 ] final  132.93 input  -60.11 | X-H torsion
[ 7974 7965 7964 7962 ] final  -93.25 input  175.53 | X-H torsion
[ 8008 7997 7996 7995 ] final  112.45 input   59.86 | X-H torsion
[ 10167 10162 10161 10158 ] final  -28.87 input  -65.29 | X-H torsion
[ 10718 10713 10712 10709 ] final  -56.80 input   66.30 | X-H torsion
[ 10763 10752 10751 10750 ] final -143.46 input  -60.55 | X-H torsion
[ 11005 11000 10999 10996 ] final -165.97 input  -57.11 | X-H torsion

> <Gold.Protein.ActiveResidues>
 VAL166  LYS551  ARG553  GLY616  TRP617  ASP618  TYR619  PRO620  LYS621  CYS622 
 ASP623  PHE694  ASN695  SER759  ASP760  ASP761  ALA762  ILE779  LEU786  VAL792 
 PHE793  MET794  SER795  GLU796  ALA797  LYS798  CYS799  TRP800  GLU811  SER814 

> <Gold.Protein.RotatedAtoms>
  152.3272  133.5918  159.5784 H   0  0  0  0  0  0  0  0  0  0  0  0  # atno 6907 bound_to 6896
  150.7403  133.9922  159.3619 H   0  0  0  0  0  0  0  0  0  0  0  0  # atno 6908 bound_to 6896
  151.7800  135.0764  160.0423 H   0  0  0  0  0  0  0  0  0  0  0  0  # atno 6909 bound_to 6896
  145.3891  140.9526  143.2351 H   0  0  0  0  0  0  0  0  0  0  0  0  # atno 7974 bound_to 7965
  156.2193  140.2999  155.9913 H   0  0  0  0  0  0  0  0  0  0  0  0  # atno 8008 bound_to 7997
  155.2524  140.0426  157.3005 H   0  0  0  0  0  0  0  0  0  0  0  0  # atno 8009 bound_to 7997
  154.5815  140.2376  155.8055 H   0  0  0  0  0  0  0  0  0  0  0  0  # atno 8010 bound_to 7997
  140.7266  143.3975  151.1322 H   0  0  0  0  0  0  0  0  0  0  0  0  # atno 10167 bound_to 10162
  156.1260  130.4162  150.0354 H   0  0  0  0  0  0  0  0  0  0  0  0  # atno 10718 bound_to 10713
  154.8469  135.3467  154.6190 H   0  0  0  0  0  0  0  0  0  0  0  0  # atno 10763 bound_to 10752
  153.6799  135.6980  153.5126 H   0  0  0  0  0  0  0  0  0  0  0  0  # atno 10764 bound_to 10752
  153.2676  135.4303  155.0912 H   0  0  0  0  0  0  0  0  0  0  0  0  # atno 10765 bound_to 10752
  140.5697  134.5250  157.5159 H   0  0  0  0  0  0  0  0  0  0  0  0  # atno 11005 bound_to 11000
  144.8453  139.5407  143.6881 LP  0  0  0  0  0  0  0  0  0  0  0  0  # atno 17320 bound_to 7965
  146.2806  139.6867  142.9232 LP  0  0  0  0  0  0  0  0  0  0  0  0  # atno 17321 bound_to 7965
  139.7589  143.8665  152.3095 LP  0  0  0  0  0  0  0  0  0  0  0  0  # atno 17342 bound_to 10162
  139.8544  144.7148  150.9175 LP  0  0  0  0  0  0  0  0  0  0  0  0  # atno 17343 bound_to 10162
  156.8280  130.9382  151.3638 LP  0  0  0  0  0  0  0  0  0  0  0  0  # atno 17370 bound_to 10713
  157.6441  130.8830  149.9505 LP  0  0  0  0  0  0  0  0  0  0  0  0  # atno 17371 bound_to 10713
  139.9368  134.7861  156.0783 LP  0  0  0  0  0  0  0  0  0  0  0  0  # atno 17394 bound_to 11000
  141.1063  133.6658  156.2873 LP  0  0  0  0  0  0  0  0  0  0  0  0  # atno 17395 bound_to 11000

$$$$
