AV-unprocessed.smi:1512|AV-procd|sdf|6100|dock6
  -GOLD-   22720 6233D 1   1.00000     0.00000
 Structure written by MMmdl.
 44 46  0  0  0  0  0  0  0  0  3 V2000
  149.6575  141.7843  156.5048 C   0  0  0  0  0  0  0  0  0  0  0  0
  151.0443  141.5469  157.1250 C   0  0  2  0  0  0  0  0  0  0  0  0
  151.3137  140.1098  157.1032 N   0  0  0  0  0  0  0  0  0  0  0  0
  152.0856  139.4644  156.2146 C   0  0  0  0  0  0  0  0  0  0  0  0
  152.6894  140.0305  155.3024 O   0  0  0  0  0  0  0  0  0  0  0  0
  152.2061  137.9467  156.4120 C   0  0  0  0  0  0  0  0  0  0  0  0
  151.0672  137.1956  155.8561 N   0  0  0  0  0  0  0  0  0  0  0  0
  150.0354  137.9490  155.2658 C   0  0  0  0  0  0  0  0  0  0  0  0
  148.9507  137.3693  154.7324 C   0  0  0  0  0  0  0  0  0  0  0  0
  148.8526  135.9308  154.7792 C   0  0  0  0  0  0  0  0  0  0  0  0
  149.8289  135.1855  155.3467 C   0  0  0  0  0  0  0  0  0  0  0  0
  149.6626  133.7502  155.3694 N   0  3  0  0  0  0  0  0  0  0  0  0
  148.6966  133.2558  154.7962 O   0  0  0  0  0  0  0  0  0  0  0  0
  150.5036  133.0724  155.9523 O   0  5  0  0  0  0  0  0  0  0  0  0
  151.0283  135.8282  155.9233 C   0  0  0  0  0  0  0  0  0  0  0  0
  151.9517  135.1882  156.4304 O   0  0  0  0  0  0  0  0  0  0  0  0
  151.1441  142.0939  158.5714 C   0  0  2  0  0  0  0  0  0  0  0  0
  150.5100  143.4961  158.7445 C   0  0  0  0  0  0  0  0  0  0  0  0
  151.6429  144.3250  159.3746 C   0  0  1  0  0  0  0  0  0  0  0  0
  151.8874  143.8508  160.8184 C   0  0  0  0  0  0  0  0  0  0  0  0
  152.5662  142.4842  160.6130 C   0  0  0  0  0  0  0  0  0  0  0  0
  152.5891  142.3421  159.0788 C   0  0  2  0  0  0  0  0  0  0  0  0
  152.8632  143.7785  158.6462 C   0  0  0  0  0  0  0  0  0  0  0  0
  149.4184  142.8459  156.4458 H   0  0  0  0  0  0  0  0  0  0  0  0
  148.8733  141.3003  157.0878 H   0  0  0  0  0  0  0  0  0  0  0  0
  149.6103  141.3864  155.4906 H   0  0  0  0  0  0  0  0  0  0  0  0
  151.7731  142.0709  156.5048 H   0  0  0  0  0  0  0  0  0  0  0  0
  150.8667  139.5585  157.8214 H   0  0  0  0  0  0  0  0  0  0  0  0
  153.1414  137.6199  155.9551 H   0  0  0  0  0  0  0  0  0  0  0  0
  152.3181  137.7266  157.4756 H   0  0  0  0  0  0  0  0  0  0  0  0
  150.1793  139.0196  155.2797 H   0  0  0  0  0  0  0  0  0  0  0  0
  148.1670  137.9641  154.2863 H   0  0  0  0  0  0  0  0  0  0  0  0
  147.9759  135.4561  154.3630 H   0  0  0  0  0  0  0  0  0  0  0  0
  150.6487  141.3823  159.2340 H   0  0  0  0  0  0  0  0  0  0  0  0
  150.2306  143.9312  157.7844 H   0  0  0  0  0  0  0  0  0  0  0  0
  149.6154  143.4725  159.3679 H   0  0  0  0  0  0  0  0  0  0  0  0
  151.4973  145.4019  159.2863 H   0  0  0  0  0  0  0  0  0  0  0  0
  152.5542  144.5345  161.3454 H   0  0  0  0  0  0  0  0  0  0  0  0
  150.9622  143.7756  161.3909 H   0  0  0  0  0  0  0  0  0  0  0  0
  153.5806  142.4981  161.0137 H   0  0  0  0  0  0  0  0  0  0  0  0
  152.0273  141.6715  161.1013 H   0  0  0  0  0  0  0  0  0  0  0  0
  153.3264  141.6162  158.7375 H   0  0  0  0  0  0  0  0  0  0  0  0
  152.8264  143.9232  157.5654 H   0  0  0  0  0  0  0  0  0  0  0  0
  153.8072  144.1729  159.0265 H   0  0  0  0  0  0  0  0  0  0  0  0
  1  2  1  0  0  0  0
  1 24  1  0  0  0  0
  1 25  1  0  0  0  0
  1 26  1  0  0  0  0
  2  3  1  0  0  0  0
  2 17  1  0  0  0  0
  2 27  1  0  0  0  0
  3  4  1  0  0  0  0
  3 28  1  0  0  0  0
  4  5  2  0  0  0  0
  4  6  1  0  0  0  0
  6  7  1  0  0  0  0
  6 29  1  0  0  0  0
  6 30  1  0  0  0  0
  7 15  1  0  0  0  0
  7  8  1  0  0  0  0
  8  9  2  0  0  0  0
  8 31  1  0  0  0  0
  9 10  1  0  0  0  0
  9 32  1  0  0  0  0
 10 11  2  0  0  0  0
 10 33  1  0  0  0  0
 11 12  1  0  0  0  0
 11 15  1  0  0  0  0
 12 13  2  0  0  0  0
 12 14  1  0  0  0  0
 15 16  2  0  0  0  0
 17 22  1  0  0  0  0
 17 18  1  0  0  0  0
 17 34  1  0  0  0  0
 18 19  1  0  0  0  0
 18 35  1  0  0  0  0
 18 36  1  0  0  0  0
 19 23  1  0  0  0  0
 19 20  1  0  0  0  0
 19 37  1  0  0  0  0
 20 21  1  0  0  0  0
 20 38  1  0  0  0  0
 20 39  1  0  0  0  0
 21 22  1  0  0  0  0
 21 40  1  0  0  0  0
 21 41  1  0  0  0  0
 22 23  1  0  0  0  0
 22 42  1  0  0  0  0
 23 43  1  0  0  0  0
 23 44  1  0  0  0  0
M  CHG  1  12   1
M  CHG  1  14  -1
M  END
> <s_m_source_file>
AV-unprocessed.smi

> <i_m_source_file_index>
1512

> <i_lp_mmshare_version>
43012

> <i_f3d_flags>
0

> <s_epik_input>
W0NIMl0xW0NIMl1bQ0BIXShbQ0gyXTIpW0NAQEhdKFtDSDJdW0NAQEhdMTIpW0NASF0oW0NIM10pW05IXUMoPU8pW0NIMl1uM1tjSF1bY0hdW2NIXWMoW04rXSg9TylbTy1dKWMzPU8=

> <s_epik_cmdline>
J2VwaWtfcHl0aG9uJywgJy1waCcsICc3LjAnLCAnLXRuJywgJzgnLCAnLW1hJywgJzIwMCcsICctbWV0YWxfYmluZGluZycsICctaW1hZScsICc8aW5maWxlLm1hZT4nLCAnLW9tYWUnLCAnPG91dGZpbGUubWFlPic=

> <r_lp_tautomer_probability>
1

> <r_epik_Ionization_Penalty>
2.17697e-08

> <r_epik_Ionization_Penalty_Charging>
1.42735e-10

> <r_epik_Ionization_Penalty_Neutral>
2.16269e-08

> <r_epik_State_Penalty>
-0

> <r_epik_Charging_Adjusted_Penalty>
1.42735e-10

> <i_epik_Tot_Q>
0

> <i_epik_Tot_abs_Q>
2

> <r_epik_Metal_State_Penalty>
-0

> <b_epik_Metal_Only>
0

> <s_lp_Force_Field>
OPLS_2005

> <r_lp_Energy>
64.3974

> <b_lp_Chiralities_Consistent>
1

> <s_lp_Variant>
AV-unprocessed.smi:1512-1

> <Gold.Version>
5.8.1

> <Gold.Id.Protein>
6NUR|6NUR_protein|mol2

> <Gold.PLP.Fitness>
44.1090

> <Gold.PLP.PLP>
-39.4137

> <Gold.PLP.part.hbond>
-3.0000

> <Gold.PLP.part.metal>
0.0000

> <Gold.PLP.part.buried>
-3.7229

> <Gold.PLP.part.nonpolar>
-32.8343

> <Gold.PLP.part.repulsive>
0.1018

> <Gold.PLP.ligand.clash>
1.0729

> <Gold.PLP.ligand.torsion>
0.8514

> <Gold.PLP.Chemscore.Hbond>
2.4780

> <Gold.PLP.Chemscore.CHOScore>
0.0000

> <Gold.PLP.Chemscore.Metal>
0.0000

> <Gold.Chemscore.Hbonds>
donor molecule, donor type, donor heavy atom, donor atom, acceptor molecule, acceptor atom, score
      P1  H  7989  7998       L1     5  0.27
      P1  H  7997  8008       L1     5  1.00
      P1  H 10752 10764       L1    16  1.00

> <Gold.PLP.Chemscore.Internal.Correction>
0.0370

> <Gold.Rescore>
     Score         DG    S(hbond)    S(metal)    S(lipo)     H(rot)  DE(clash)    DE(int)     intcor
     16.35     -18.89       1.66        0.00     105.37       1.75       0.21       2.33       ----

> <Gold.Chemscore.Fitness>
16.3535

> <Gold.Chemscore.DG>
-18.8907

> <Gold.Chemscore.ZeroCoef>
-5.4800

> <Gold.Chemscore.Hbond>
1.6633

> <Gold.Chemscore.Metal>
0.0000

> <Gold.Chemscore.Lipo>
105.3724

> <Gold.Chemscore.Internal_Hbond>
0.0000

> <Gold.Chemscore.DEClash>
0.2058

> <Gold.Chemscore.DEInternal>
2.3313

> <Gold.Chemscore.Rot>
1.7474

> <Gold.Chemscore.Internal.Correction>
   9.000000E+99

> <Gold.Chemscore.Hbonds>
donor molecule, donor type, donor heavy atom, donor atom, acceptor molecule, acceptor atom, score
      P1  H  7989  7998       L1     5  0.26
      P1  H  7997  8008       L1     5  0.55
      P1  H 10752 10764       L1    16  0.30

> <Gold.Chemscore.Hbond.Weighted>
-5.5554

> <Gold.Chemscore.Metal.Weighted>
-0.0000

> <Gold.Chemscore.Lipo.Weighted>
-12.3286

> <Gold.Chemscore.Internal_Hbond.Weighted>
0.0000

> <Gold.Chemscore.DEClash.Weighted>
0.2058

> <Gold.Chemscore.DEInternal.Weighted>
2.3313

> <Gold.Chemscore.Rot.Weighted>
4.4733

> <Gold.Chemscore.Internal.Correction.Weighted>
   9.000000E+99

> <Gold.Protein.RotatedTorsions>
[ 6907 6896 6895 6894 ] final  144.83 input  -60.11 | X-H torsion
[ 7974 7965 7964 7962 ] final   96.03 input  175.53 | X-H torsion
[ 8008 7997 7996 7995 ] final  -15.89 input   59.86 | X-H torsion
[ 10167 10162 10161 10158 ] final  -67.39 input  -65.29 | X-H torsion
[ 10718 10713 10712 10709 ] final -179.74 input   66.30 | X-H torsion
[ 10763 10752 10751 10750 ] final  -18.65 input  -60.55 | X-H torsion
[ 11005 11000 10999 10996 ] final -145.54 input  -57.11 | X-H torsion

> <Gold.Protein.ActiveResidues>
 VAL166  LYS551  ARG553  GLY616  TRP617  ASP618  TYR619  PRO620  LYS621  CYS622 
 ASP623  PHE694  ASN695  SER759  ASP760  ASP761  ALA762  ILE779  LEU786  VAL792 
 PHE793  MET794  SER795  GLU796  ALA797  LYS798  CYS799  TRP800  GLU811  SER814 

> <Gold.Protein.RotatedAtoms>
  152.1887  133.4758  159.4996 H   0  0  0  0  0  0  0  0  0  0  0  0  # atno 6907 bound_to 6896
  150.6947  134.1740  159.4232 H   0  0  0  0  0  0  0  0  0  0  0  0  # atno 6908 bound_to 6896
  151.9654  135.0102  160.0600 H   0  0  0  0  0  0  0  0  0  0  0  0  # atno 6909 bound_to 6896
  145.4443  139.2298  143.3075 H   0  0  0  0  0  0  0  0  0  0  0  0  # atno 7974 bound_to 7965
  154.5095  140.2184  155.9184 H   0  0  0  0  0  0  0  0  0  0  0  0  # atno 8008 bound_to 7997
  156.1535  140.3157  155.8653 H   0  0  0  0  0  0  0  0  0  0  0  0  # atno 8009 bound_to 7997
  155.3893  140.0477  157.3032 H   0  0  0  0  0  0  0  0  0  0  0  0  # atno 8010 bound_to 7997
  140.5586  143.2312  151.6772 H   0  0  0  0  0  0  0  0  0  0  0  0  # atno 10167 bound_to 10162
  156.8636  130.9760  151.3081 H   0  0  0  0  0  0  0  0  0  0  0  0  # atno 10718 bound_to 10713
  153.5926  135.7002  153.5417 H   0  0  0  0  0  0  0  0  0  0  0  0  # atno 10763 bound_to 10752
  153.3165  135.4086  155.1380 H   0  0  0  0  0  0  0  0  0  0  0  0  # atno 10764 bound_to 10752
  154.8597  135.3685  154.5459 H   0  0  0  0  0  0  0  0  0  0  0  0  # atno 10765 bound_to 10752
  140.7912  134.2966  157.5013 H   0  0  0  0  0  0  0  0  0  0  0  0  # atno 11005 bound_to 11000
  146.2539  140.5195  142.8882 LP  0  0  0  0  0  0  0  0  0  0  0  0  # atno 17320 bound_to 7965
  144.8101  140.6371  143.6420 LP  0  0  0  0  0  0  0  0  0  0  0  0  # atno 17321 bound_to 7965
  139.5059  144.3699  152.0480 LP  0  0  0  0  0  0  0  0  0  0  0  0  # atno 17342 bound_to 10162
  140.2823  144.3845  150.6115 LP  0  0  0  0  0  0  0  0  0  0  0  0  # atno 17343 bound_to 10162
  157.6236  130.8674  149.9151 LP  0  0  0  0  0  0  0  0  0  0  0  0  # atno 17370 bound_to 10713
  156.0764  130.3678  150.0670 LP  0  0  0  0  0  0  0  0  0  0  0  0  # atno 17371 bound_to 10713
  139.8731  134.9375  156.3690 LP  0  0  0  0  0  0  0  0  0  0  0  0  # atno 17394 bound_to 11000
  140.9388  133.7529  156.0119 LP  0  0  0  0  0  0  0  0  0  0  0  0  # atno 17395 bound_to 11000

$$$$
