AV-unprocessed.smi:883|AV-procd|sdf|4038|dock2
  -GOLD-   22720 1533D 1   1.00000     0.00000
 Structure written by MMmdl.
 29 31  0  0  0  0  0  0  0  0  1 V2000
  151.4079  136.6587  154.3721 N   0  0  0  0  0  0  0  0  0  0  0  0
  151.2734  137.7174  154.8191 C   0  0  0  0  0  0  0  0  0  0  0  0
  151.1048  139.0466  155.3810 C   0  0  0  0  0  0  0  0  0  0  0  0
  151.5171  139.3326  156.6974 C   0  0  0  0  0  0  0  0  0  0  0  0
  151.3335  140.6369  157.1973 C   0  0  0  0  0  0  0  0  0  0  0  0
  150.7442  141.6099  156.3623 C   0  0  0  0  0  0  0  0  0  0  0  0
  150.5646  142.9060  156.8668 N   0  0  0  0  0  0  0  0  0  0  0  0
  150.8407  143.2233  158.2641 C   0  0  2  0  0  0  0  0  0  0  0  0
  150.5704  144.6926  158.6137 C   0  0  0  0  0  0  0  0  0  0  0  0
  151.9235  145.1375  159.1826 C   0  0  1  0  0  0  0  0  0  0  0  0
  152.2335  144.4784  160.5335 C   0  0  0  0  0  0  0  0  0  0  0  0
  152.5605  143.0454  160.1142 C   0  0  0  0  0  0  0  0  0  0  0  0
  152.3377  143.1015  158.5967 C   0  0  2  0  0  0  0  0  0  0  0  0
  152.7974  144.4173  158.3318 O   0  0  0  0  0  0  0  0  0  0  0  0
  150.3448  141.3348  155.0973 N   0  0  0  0  0  0  0  0  0  0  0  0
  150.5237  140.0831  154.6229 C   0  0  0  0  0  0  0  0  0  0  0  0
  151.9670  138.5705  157.3175 H   0  0  0  0  0  0  0  0  0  0  0  0
  151.6419  140.8819  158.2034 H   0  0  0  0  0  0  0  0  0  0  0  0
  150.1003  143.6005  156.2995 H   0  0  0  0  0  0  0  0  0  0  0  0
  150.2673  142.5496  158.9024 H   0  0  0  0  0  0  0  0  0  0  0  0
  150.3258  145.2793  157.7267 H   0  0  0  0  0  0  0  0  0  0  0  0
  149.7572  144.8105  159.3302 H   0  0  0  0  0  0  0  0  0  0  0  0
  152.0736  146.2173  159.1711 H   0  0  0  0  0  0  0  0  0  0  0  0
  153.0986  144.9450  161.0060 H   0  0  0  0  0  0  0  0  0  0  0  0
  151.3920  144.5368  161.2247 H   0  0  0  0  0  0  0  0  0  0  0  0
  153.6003  142.8090  160.3428 H   0  0  0  0  0  0  0  0  0  0  0  0
  151.9274  142.3043  160.6030 H   0  0  0  0  0  0  0  0  0  0  0  0
  152.8625  142.3165  158.0508 H   0  0  0  0  0  0  0  0  0  0  0  0
  150.1917  139.9096  153.6093 H   0  0  0  0  0  0  0  0  0  0  0  0
  1  2  3  0  0  0  0
  2  3  1  0  0  0  0
  3 16  1  0  0  0  0
  3  4  2  0  0  0  0
  4  5  1  0  0  0  0
  4 17  1  0  0  0  0
  5  6  2  0  0  0  0
  5 18  1  0  0  0  0
  6  7  1  0  0  0  0
  6 15  1  0  0  0  0
  7  8  1  0  0  0  0
  7 19  1  0  0  0  0
  8 13  1  0  0  0  0
  8  9  1  0  0  0  0
  8 20  1  0  0  0  0
  9 10  1  0  0  0  0
  9 21  1  0  0  0  0
  9 22  1  0  0  0  0
 10 14  1  0  0  0  0
 10 11  1  0  0  0  0
 10 23  1  0  0  0  0
 11 12  1  0  0  0  0
 11 24  1  0  0  0  0
 11 25  1  0  0  0  0
 12 13  1  0  0  0  0
 12 26  1  0  0  0  0
 12 27  1  0  0  0  0
 13 14  1  0  0  0  0
 13 28  1  0  0  0  0
 15 16  2  0  0  0  0
 16 29  1  0  0  0  0
M  END
> <s_m_source_file>
AV-unprocessed.smi

> <i_m_source_file_index>
883

> <i_lp_mmshare_version>
43012

> <i_f3d_flags>
0

> <s_epik_input>
TiNDYzFbY0hdW2NIXWMobltjSF0xKVtOSF1bQ0BIXShbQ0gyXVtDQEBIXTIzKVtDQEBIXShPMylbQ0gyXVtDSDJdMg==

> <s_epik_cmdline>
J2VwaWtfcHl0aG9uJywgJy1waCcsICc3LjAnLCAnLXRuJywgJzgnLCAnLW1hJywgJzIwMCcsICctbWV0YWxfYmluZGluZycsICctaW1hZScsICc8aW5maWxlLm1hZT4nLCAnLW9tYWUnLCAnPG91dGZpbGUubWFlPic=

> <r_lp_tautomer_probability>
1

> <r_epik_Ionization_Penalty>
1.50983e-05

> <r_epik_Ionization_Penalty_Charging>
0

> <r_epik_Ionization_Penalty_Neutral>
1.50983e-05

> <r_epik_State_Penalty>
-0

> <r_epik_Charging_Adjusted_Penalty>
0

> <i_epik_Tot_Q>
0

> <i_epik_Tot_abs_Q>
0

> <r_epik_Metal_State_Penalty>
-0

> <b_epik_Metal_Only>
0

> <s_lp_Force_Field>
OPLS_2005

> <r_lp_Energy>
39.3096

> <b_lp_Chiralities_Consistent>
1

> <s_lp_Variant>
AV-unprocessed.smi:883-1

> <Gold.Version>
5.8.1

> <Gold.Id.Protein>
6NUR|6NUR_protein|mol2

> <Gold.PLP.Fitness>
44.4076

> <Gold.PLP.PLP>
-35.4905

> <Gold.PLP.part.hbond>
-3.0000

> <Gold.PLP.part.metal>
0.0000

> <Gold.PLP.part.buried>
-1.9261

> <Gold.PLP.part.nonpolar>
-31.6436

> <Gold.PLP.part.repulsive>
1.2215

> <Gold.PLP.ligand.clash>
0.0000

> <Gold.PLP.ligand.torsion>
0.0315

> <Gold.PLP.Chemscore.Hbond>
2.0000

> <Gold.PLP.Chemscore.CHOScore>
0.9869

> <Gold.PLP.Chemscore.Metal>
0.0000

> <Gold.Chemscore.Hbonds>
donor molecule, donor type, donor heavy atom, donor atom, acceptor molecule, acceptor atom, score
      L1  H     7    19       P1  8028  1.00
      P1  H 10752 10764       L1     1  1.00
      L1  C    16    29       P1  7957  1.00

> <Gold.PLP.Chemscore.Internal.Correction>
0.0192

> <Gold.Rescore>
     Score         DG    S(hbond)    S(metal)    S(lipo)     H(rot)  DE(clash)    DE(int)     intcor
     19.09     -20.24       2.00        0.00      90.93       1.00       0.16       0.99       ----

> <Gold.Chemscore.Fitness>
19.0856

> <Gold.Chemscore.DG>
-20.2370

> <Gold.Chemscore.ZeroCoef>
-5.4800

> <Gold.Chemscore.Hbond>
1.9995

> <Gold.Chemscore.Metal>
0.0000

> <Gold.Chemscore.Lipo>
90.9302

> <Gold.Chemscore.Internal_Hbond>
0.0000

> <Gold.Chemscore.DEClash>
0.1644

> <Gold.Chemscore.DEInternal>
0.9871

> <Gold.Chemscore.Rot>
1.0000

> <Gold.Chemscore.Internal.Correction>
   9.000000E+99

> <Gold.Chemscore.Hbonds>
donor molecule, donor type, donor heavy atom, donor atom, acceptor molecule, acceptor atom, score
      L1  H     7    19       P1  8028  1.00
      P1  H 10752 10764       L1     1  0.99

> <Gold.Chemscore.Hbond.Weighted>
-6.6782

> <Gold.Chemscore.Metal.Weighted>
-0.0000

> <Gold.Chemscore.Lipo.Weighted>
-10.6388

> <Gold.Chemscore.Internal_Hbond.Weighted>
0.0000

> <Gold.Chemscore.DEClash.Weighted>
0.1644

> <Gold.Chemscore.DEInternal.Weighted>
0.9871

> <Gold.Chemscore.Rot.Weighted>
2.5600

> <Gold.Chemscore.Internal.Correction.Weighted>
   9.000000E+99

> <Gold.Protein.RotatedTorsions>
[ 6907 6896 6895 6894 ] final -117.94 input  -60.11 | X-H torsion
[ 7974 7965 7964 7962 ] final  139.87 input  175.53 | X-H torsion
[ 8008 7997 7996 7995 ] final   95.98 input   59.86 | X-H torsion
[ 10167 10162 10161 10158 ] final -123.16 input  -65.29 | X-H torsion
[ 10718 10713 10712 10709 ] final -149.03 input   66.30 | X-H torsion
[ 10763 10752 10751 10750 ] final  -60.80 input  -60.55 | X-H torsion
[ 11005 11000 10999 10996 ] final   94.79 input  -57.11 | X-H torsion

> <Gold.Protein.ActiveResidues>
 VAL166  LYS551  ARG553  GLY616  TRP617  ASP618  TYR619  PRO620  LYS621  CYS622 
 ASP623  PHE694  ASN695  SER759  ASP760  ASP761  ALA762  ILE779  LEU786  VAL792 
 PHE793  MET794  SER795  GLU796  ALA797  LYS798  CYS799  TRP800  GLU811  SER814 

> <Gold.Protein.RotatedAtoms>
  150.8178  133.8306  159.3152 H   0  0  0  0  0  0  0  0  0  0  0  0  # atno 6907 bound_to 6896
  151.6073  135.1041  160.0083 H   0  0  0  0  0  0  0  0  0  0  0  0  # atno 6908 bound_to 6896
  152.4269  133.7169  159.6568 H   0  0  0  0  0  0  0  0  0  0  0  0  # atno 6909 bound_to 6896
  144.9239  139.5132  143.5650 H   0  0  0  0  0  0  0  0  0  0  0  0  # atno 7974 bound_to 7965
  156.0747  140.3279  155.7619 H   0  0  0  0  0  0  0  0  0  0  0  0  # atno 8008 bound_to 7997
  155.5249  140.0588  157.2917 H   0  0  0  0  0  0  0  0  0  0  0  0  # atno 8009 bound_to 7997
  154.4549  140.1937  156.0427 H   0  0  0  0  0  0  0  0  0  0  0  0  # atno 8010 bound_to 7997
  140.0065  143.5486  152.2281 H   0  0  0  0  0  0  0  0  0  0  0  0  # atno 10167 bound_to 10162
  156.4279  130.8061  151.2287 H   0  0  0  0  0  0  0  0  0  0  0  0  # atno 10718 bound_to 10713
  154.2748  135.6283  153.5324 H   0  0  0  0  0  0  0  0  0  0  0  0  # atno 10763 bound_to 10752
  152.9874  135.5619  154.5560 H   0  0  0  0  0  0  0  0  0  0  0  0  # atno 10764 bound_to 10752
  154.5138  135.2878  155.1296 H   0  0  0  0  0  0  0  0  0  0  0  0  # atno 10765 bound_to 10752
  139.8795  134.8864  156.3916 H   0  0  0  0  0  0  0  0  0  0  0  0  # atno 11005 bound_to 11000
  146.3217  139.8139  142.8940 LP  0  0  0  0  0  0  0  0  0  0  0  0  # atno 17320 bound_to 7965
  145.3251  141.0253  143.3478 LP  0  0  0  0  0  0  0  0  0  0  0  0  # atno 17321 bound_to 7965
  139.6235  144.7633  151.2689 LP  0  0  0  0  0  0  0  0  0  0  0  0  # atno 17342 bound_to 10162
  140.7398  143.6606  150.8167 LP  0  0  0  0  0  0  0  0  0  0  0  0  # atno 17343 bound_to 10162
  157.7508  131.0207  150.3721 LP  0  0  0  0  0  0  0  0  0  0  0  0  # atno 17370 bound_to 10713
  156.4052  130.3923  149.6931 LP  0  0  0  0  0  0  0  0  0  0  0  0  # atno 17371 bound_to 10713
  140.9329  133.7567  156.0047 LP  0  0  0  0  0  0  0  0  0  0  0  0  # atno 17394 bound_to 11000
  140.8310  134.3179  157.5349 LP  0  0  0  0  0  0  0  0  0  0  0  0  # atno 17395 bound_to 11000

$$$$
