AV-unprocessed.smi:766|AV-procd|sdf|3654|dock1
  -GOLD-   22720 1 63D 1   1.00000     0.00000
 Structure written by MMmdl.
 48 50  0  0  0  0  0  0  0  0  3 V2000
  152.7128  143.9548  159.9401 C   0  0  0  0  0  0  0  0  0  0  0  0
  152.3495  142.9140  158.8945 C   0  0  0  0  0  0  0  0  0  0  0  0
  151.4079  143.2582  157.8988 C   0  0  0  0  0  0  0  0  0  0  0  0
  151.0946  142.2843  156.9579 C   0  0  0  0  0  0  0  0  0  0  0  0
  150.2193  142.3127  155.8704 N   0  3  0  0  0  0  0  0  0  0  0  0
  150.2448  141.1087  155.2344 C   0  0  0  0  0  0  0  0  0  0  0  0
  151.1261  140.3114  155.8982 N   0  0  0  0  0  0  0  0  0  0  0  0
  151.5108  138.9160  155.6369 C   0  0  0  0  0  0  0  0  0  0  0  0
  150.8841  138.3441  154.3499 C   0  0  1  0  0  0  0  0  0  0  0  0
  151.4382  137.0727  154.0730 O   0  0  0  0  0  0  0  0  0  0  0  0
  149.3588  138.1977  154.4810 C   0  0  0  0  0  0  0  0  0  0  0  0
  148.6805  138.4165  153.1882 N   0  3  0  0  0  0  0  0  0  0  0  0
  147.2589  138.7960  153.3132 C   0  0  0  0  0  0  0  0  0  0  0  0
  146.4057  138.1715  152.1947 C   0  0  0  0  0  0  0  0  0  0  0  0
  145.5072  137.1323  152.6715 N   0  0  0  0  0  0  0  0  0  0  0  0
  144.1303  137.0942  152.5953 C   0  0  0  0  0  0  0  0  0  0  0  0
  143.7239  135.9128  153.1462 C   0  0  0  0  0  0  0  0  0  0  0  0
  144.9403  135.2785  153.5226 C   0  0  0  0  0  0  0  0  0  0  0  0
  146.0055  136.0077  153.2313 N   0  0  0  0  0  0  0  0  0  0  0  0
  151.6812  141.0038  156.9821 C   0  0  0  0  0  0  0  0  0  0  0  0
  152.6138  140.6501  157.9550 C   0  0  0  0  0  0  0  0  0  0  0  0
  152.9447  141.6263  158.9218 C   0  0  0  0  0  0  0  0  0  0  0  0
  153.9569  141.2671  159.9966 C   0  0  0  0  0  0  0  0  0  0  0  0
  152.1984  144.8990  159.7588 H   0  0  0  0  0  0  0  0  0  0  0  0
  153.7847  144.1532  159.9294 H   0  0  0  0  0  0  0  0  0  0  0  0
  152.4340  143.6095  160.9359 H   0  0  0  0  0  0  0  0  0  0  0  0
  150.9503  144.2363  157.8718 H   0  0  0  0  0  0  0  0  0  0  0  0
  149.6655  140.8352  154.3641 H   0  0  0  0  0  0  0  0  0  0  0  0
  152.5983  138.8402  155.6149 H   0  0  0  0  0  0  0  0  0  0  0  0
  151.1853  138.3299  156.4973 H   0  0  0  0  0  0  0  0  0  0  0  0
  151.1176  139.0084  153.5166 H   0  0  0  0  0  0  0  0  0  0  0  0
  150.7678  136.4184  154.2020 H   0  0  0  0  0  0  0  0  0  0  0  0
  149.1006  137.2127  154.8731 H   0  0  0  0  0  0  0  0  0  0  0  0
  148.9806  138.9330  155.1927 H   0  0  0  0  0  0  0  0  0  0  0  0
  149.1631  139.1541  152.6949 H   0  0  0  0  0  0  0  0  0  0  0  0
  146.8891  138.4640  154.2841 H   0  0  0  0  0  0  0  0  0  0  0  0
  147.1663  139.8829  153.2983 H   0  0  0  0  0  0  0  0  0  0  0  0
  145.8152  138.9429  151.6983 H   0  0  0  0  0  0  0  0  0  0  0  0
  147.0532  137.7345  151.4335 H   0  0  0  0  0  0  0  0  0  0  0  0
  143.5593  137.9021  152.1614 H   0  0  0  0  0  0  0  0  0  0  0  0
  142.7115  135.5528  153.2568 H   0  0  0  0  0  0  0  0  0  0  0  0
  145.0802  134.3159  153.9920 H   0  0  0  0  0  0  0  0  0  0  0  0
  153.0726  139.6727  157.9768 H   0  0  0  0  0  0  0  0  0  0  0  0
  154.2830  140.2303  159.9079 H   0  0  0  0  0  0  0  0  0  0  0  0
  153.5251  141.3949  160.9896 H   0  0  0  0  0  0  0  0  0  0  0  0
  154.8395  141.9024  159.9176 H   0  0  0  0  0  0  0  0  0  0  0  0
  148.7439  137.5676  152.6442 H   0  0  0  0  0  0  0  0  0  0  0  0
  149.6421  143.0934  155.5847 H   0  0  0  0  0  0  0  0  0  0  0  0
  1  2  1  0  0  0  0
  1 24  1  0  0  0  0
  1 25  1  0  0  0  0
  1 26  1  0  0  0  0
  2 22  1  0  0  0  0
  2  3  2  0  0  0  0
  3  4  1  0  0  0  0
  3 27  1  0  0  0  0
  4 20  2  0  0  0  0
  4  5  1  0  0  0  0
  5  6  2  0  0  0  0
  5 48  1  0  0  0  0
  6  7  1  0  0  0  0
  6 28  1  0  0  0  0
  7  8  1  0  0  0  0
  7 20  1  0  0  0  0
  8  9  1  0  0  0  0
  8 29  1  0  0  0  0
  8 30  1  0  0  0  0
  9 10  1  0  0  0  0
  9 11  1  0  0  0  0
  9 31  1  0  0  0  0
 10 32  1  0  0  0  0
 11 12  1  0  0  0  0
 11 33  1  0  0  0  0
 11 34  1  0  0  0  0
 12 13  1  0  0  0  0
 12 35  1  0  0  0  0
 12 47  1  0  0  0  0
 13 14  1  0  0  0  0
 13 36  1  0  0  0  0
 13 37  1  0  0  0  0
 14 15  1  0  0  0  0
 14 38  1  0  0  0  0
 14 39  1  0  0  0  0
 15 19  1  0  0  0  0
 15 16  1  0  0  0  0
 16 17  2  0  0  0  0
 16 40  1  0  0  0  0
 17 18  1  0  0  0  0
 17 41  1  0  0  0  0
 18 19  2  0  0  0  0
 18 42  1  0  0  0  0
 20 21  1  0  0  0  0
 21 22  2  0  0  0  0
 21 43  1  0  0  0  0
 22 23  1  0  0  0  0
 23 44  1  0  0  0  0
 23 45  1  0  0  0  0
 23 46  1  0  0  0  0
M  CHG  1   5   1
M  CHG  1  12   1
M  END
> <s_m_source_file>
AV-unprocessed.smi

> <i_m_source_file_index>
766

> <i_lp_mmshare_version>
43012

> <i_f3d_flags>
0

> <s_epik_input>
W0NIM11jKFtjSF0xKWMoW0NIM10pW2NIXWMoYzEyKW4oW2NIXW4yKVtDSDJdW0NASF0oW09IXSlbQ0gyXVtOSF1bQ0gyXVtDSDJdbjNbY0hdW2NIXVtjSF1uMw==

> <s_epik_cmdline>
J2VwaWtfcHl0aG9uJywgJy1waCcsICc3LjAnLCAnLXRuJywgJzgnLCAnLW1hJywgJzIwMCcsICctbWV0YWxfYmluZGluZycsICctaW1hZScsICc8aW5maWxlLm1hZT4nLCAnLW9tYWUnLCAnPG91dGZpbGUubWFlPic=

> <r_lp_tautomer_probability>
1

> <r_epik_Ionization_Penalty>
1.25103

> <r_epik_Ionization_Penalty_Charging>
1.25102

> <r_epik_Ionization_Penalty_Neutral>
6.05394e-06

> <r_epik_State_Penalty>
1.2613

> <r_epik_Charging_Adjusted_Penalty>
2.51232

> <i_epik_Tot_Q>
2

> <i_epik_Tot_abs_Q>
2

> <r_epik_Metal_State_Penalty>
1.33164

> <b_epik_Metal_Only>
0

> <s_lp_Force_Field>
OPLS_2005

> <r_lp_Energy>
19.1357

> <b_lp_Chiralities_Consistent>
1

> <s_lp_Variant>
AV-unprocessed.smi:766-4

> <Gold.Version>
5.8.1

> <Gold.Id.Protein>
6NUR|6NUR_protein|mol2

> <Gold.PLP.Fitness>
67.7045

> <Gold.PLP.PLP>
-47.0478

> <Gold.PLP.part.hbond>
-4.7914

> <Gold.PLP.part.metal>
0.0000

> <Gold.PLP.part.buried>
-3.7848

> <Gold.PLP.part.nonpolar>
-39.9118

> <Gold.PLP.part.repulsive>
0.3033

> <Gold.PLP.ligand.clash>
0.0000

> <Gold.PLP.ligand.torsion>
1.1854

> <Gold.PLP.Chemscore.Hbond>
5.7101

> <Gold.PLP.Chemscore.CHOScore>
1.8655

> <Gold.PLP.Chemscore.Metal>
0.0000

> <Gold.Chemscore.Hbonds>
donor molecule, donor type, donor heavy atom, donor atom, acceptor molecule, acceptor atom, score
      L1  H     5    48       P1  8028  2.00
      L1  H    12    35       P1  7957  1.00
      L1  H    12    47       P1  7948  2.00
      P1  H 10752 10764       L1    10  0.65
      L1  C    16    40       P1 10171  0.85
      L1  C    16    40       P1 10175  0.96

> <Gold.PLP.Chemscore.Internal.Correction>
0.3006

> <Gold.Rescore>
     Score         DG    S(hbond)    S(metal)    S(lipo)     H(rot)  DE(clash)    DE(int)     intcor
     20.87     -22.43       3.25        0.00     118.24       3.02       0.34       1.23       ----

> <Gold.Chemscore.Fitness>
20.8659

> <Gold.Chemscore.DG>
-22.4290

> <Gold.Chemscore.ZeroCoef>
-5.4800

> <Gold.Chemscore.Hbond>
3.2496

> <Gold.Chemscore.Metal>
0.0000

> <Gold.Chemscore.Lipo>
118.2383

> <Gold.Chemscore.Internal_Hbond>
0.0000

> <Gold.Chemscore.DEClash>
0.3352

> <Gold.Chemscore.DEInternal>
1.2279

> <Gold.Chemscore.Rot>
3.0229

> <Gold.Chemscore.Internal.Correction>
   9.000000E+99

> <Gold.Chemscore.Hbonds>
donor molecule, donor type, donor heavy atom, donor atom, acceptor molecule, acceptor atom, score
      L1  H     5    48       P1  8028  0.99
      L1  H    12    35       P1  7957  0.95
      L1  H    12    47       P1  7948  0.94
      P1  H 10752 10764       L1    10  0.08

> <Gold.Chemscore.Hbond.Weighted>
-10.8537

> <Gold.Chemscore.Metal.Weighted>
-0.0000

> <Gold.Chemscore.Lipo.Weighted>
-13.8339

> <Gold.Chemscore.Internal_Hbond.Weighted>
0.0000

> <Gold.Chemscore.DEClash.Weighted>
0.3352

> <Gold.Chemscore.DEInternal.Weighted>
1.2279

> <Gold.Chemscore.Rot.Weighted>
7.7386

> <Gold.Chemscore.Internal.Correction.Weighted>
   9.000000E+99

> <Gold.Protein.RotatedTorsions>
[ 6907 6896 6895 6894 ] final   75.16 input  -60.11 | X-H torsion
[ 7974 7965 7964 7962 ] final -147.27 input  175.53 | X-H torsion
[ 8008 7997 7996 7995 ] final -107.39 input   59.86 | X-H torsion
[ 10167 10162 10161 10158 ] final  176.16 input  -65.29 | X-H torsion
[ 10718 10713 10712 10709 ] final  -61.84 input   66.30 | X-H torsion
[ 10763 10752 10751 10750 ] final  -92.33 input  -60.55 | X-H torsion
[ 11005 11000 10999 10996 ] final  127.33 input  -57.11 | X-H torsion

> <Gold.Protein.ActiveResidues>
 VAL166  LYS551  ARG553  GLY616  TRP617  ASP618  TYR619  PRO620  LYS621  CYS622 
 ASP623  PHE694  ASN695  SER759  ASP760  ASP761  ALA762  ILE779  LEU786  VAL792 
 PHE793  MET794  SER795  GLU796  ALA797  LYS798  CYS799  TRP800  GLU811  SER814 

> <Gold.Protein.RotatedAtoms>
  152.5012  134.4162  159.9465 H   0  0  0  0  0  0  0  0  0  0  0  0  # atno 6907 bound_to 6896
  151.4132  133.3714  159.2754 H   0  0  0  0  0  0  0  0  0  0  0  0  # atno 6908 bound_to 6896
  150.9276  134.8714  159.7589 H   0  0  0  0  0  0  0  0  0  0  0  0  # atno 6909 bound_to 6896
  144.8105  140.5349  143.5646 H   0  0  0  0  0  0  0  0  0  0  0  0  # atno 7974 bound_to 7965
  154.9286  140.0405  157.2036 H   0  0  0  0  0  0  0  0  0  0  0  0  # atno 8008 bound_to 7997
  154.8183  140.2879  155.5783 H   0  0  0  0  0  0  0  0  0  0  0  0  # atno 8009 bound_to 7997
  156.2978  140.2523  156.3085 H   0  0  0  0  0  0  0  0  0  0  0  0  # atno 8010 bound_to 7997
  139.5204  144.2947  152.0432 H   0  0  0  0  0  0  0  0  0  0  0  0  # atno 10167 bound_to 10162
  156.0895  130.4202  150.1050 H   0  0  0  0  0  0  0  0  0  0  0  0  # atno 10718 bound_to 10713
  154.6850  135.5235  153.8314 H   0  0  0  0  0  0  0  0  0  0  0  0  # atno 10763 bound_to 10752
  153.0591  135.6562  154.0515 H   0  0  0  0  0  0  0  0  0  0  0  0  # atno 10764 bound_to 10752
  154.0397  135.2978  155.3336 H   0  0  0  0  0  0  0  0  0  0  0  0  # atno 10765 bound_to 10752
  139.9502  134.9623  156.8838 H   0  0  0  0  0  0  0  0  0  0  0  0  # atno 11005 bound_to 11000
  145.5336  139.1475  143.3486 LP  0  0  0  0  0  0  0  0  0  0  0  0  # atno 17320 bound_to 7965
  146.2402  140.5477  142.8937 LP  0  0  0  0  0  0  0  0  0  0  0  0  # atno 17321 bound_to 7965
  140.2397  144.4282  150.6265 LP  0  0  0  0  0  0  0  0  0  0  0  0  # atno 17342 bound_to 10162
  140.6299  143.2186  151.6517 LP  0  0  0  0  0  0  0  0  0  0  0  0  # atno 17343 bound_to 10162
  156.9064  130.9637  151.3569 LP  0  0  0  0  0  0  0  0  0  0  0  0  # atno 17370 bound_to 10713
  157.6040  130.8533  149.8846 LP  0  0  0  0  0  0  0  0  0  0  0  0  # atno 17371 bound_to 10713
  140.5738  134.0418  155.7440 LP  0  0  0  0  0  0  0  0  0  0  0  0  # atno 17394 bound_to 11000
  141.1162  133.9535  157.2817 LP  0  0  0  0  0  0  0  0  0  0  0  0  # atno 17395 bound_to 11000

$$$$
