AV-unprocessed.smi:2361|AV-procd|sdf|9411|dock3
  -GOLD-   2272013 43D 1   1.00000     0.00000
 Structure written by MMmdl.
 26 27  0  0  0  0  0  0  0  0  1 V2000
  151.5782  141.6849  158.0689 O   0  0  0  0  0  0  0  0  0  0  0  0
  150.8623  142.5158  157.5096 C   0  0  0  0  0  0  0  0  0  0  0  0
  150.1788  142.2918  156.3727 N   0  0  0  0  0  0  0  0  0  0  0  0
  150.1178  141.1023  155.5943 C   0  0  0  0  0  0  0  0  0  0  0  0
  151.1516  140.1336  155.5695 C   0  0  0  0  0  0  0  0  0  0  0  0
  151.0886  138.9937  154.8496 N   0  0  0  0  0  0  0  0  0  0  0  0
  149.9768  138.7653  154.1211 C   0  0  0  0  0  0  0  0  0  0  0  0
  148.8812  139.6492  154.0834 C   0  0  0  0  0  0  0  0  0  0  0  0
  147.4940  139.2641  153.1282 Cl  0  0  0  0  0  0  0  0  0  0  0  0
  148.9510  140.8397  154.8392 C   0  0  0  0  0  0  0  0  0  0  0  0
  147.6304  141.9596  154.8338 Cl  0  0  0  0  0  0  0  0  0  0  0  0
  150.7141  143.9207  158.1058 C   0  0  2  0  0  0  0  0  0  0  0  0
  152.0497  144.6559  158.3280 C   0  0  0  0  0  0  0  0  0  0  0  0
  152.1789  144.7220  159.8375 C   0  0  0  0  0  0  0  0  0  0  0  0
  150.7222  144.7296  160.2770 C   0  0  0  0  0  0  0  0  0  0  0  0
  150.1209  143.7939  159.3967 O   0  0  0  0  0  0  0  0  0  0  0  0
  149.7012  143.0910  155.9812 H   0  0  0  0  0  0  0  0  0  0  0  0
  152.0518  140.2464  156.1536 H   0  0  0  0  0  0  0  0  0  0  0  0
  149.9583  137.8451  153.5556 H   0  0  0  0  0  0  0  0  0  0  0  0
  150.0632  144.5306  157.4769 H   0  0  0  0  0  0  0  0  0  0  0  0
  152.9109  144.1714  157.8660 H   0  0  0  0  0  0  0  0  0  0  0  0
  151.9860  145.6633  157.9154 H   0  0  0  0  0  0  0  0  0  0  0  0
  152.6765  143.8259  160.2110 H   0  0  0  0  0  0  0  0  0  0  0  0
  152.7353  145.5938  160.1825 H   0  0  0  0  0  0  0  0  0  0  0  0
  150.5926  144.4421  161.3205 H   0  0  0  0  0  0  0  0  0  0  0  0
  150.2737  145.7133  160.1289 H   0  0  0  0  0  0  0  0  0  0  0  0
  1  2  2  0  0  0  0
  2  3  1  0  0  0  0
  2 12  1  0  0  0  0
  3  4  1  0  0  0  0
  3 17  1  0  0  0  0
  4 10  1  0  0  0  0
  4  5  2  0  0  0  0
  5  6  1  0  0  0  0
  5 18  1  0  0  0  0
  6  7  2  0  0  0  0
  7  8  1  0  0  0  0
  7 19  1  0  0  0  0
  8  9  1  0  0  0  0
  8 10  2  0  0  0  0
 10 11  1  0  0  0  0
 12 16  1  0  0  0  0
 12 13  1  0  0  0  0
 12 20  1  0  0  0  0
 13 14  1  0  0  0  0
 13 21  1  0  0  0  0
 13 22  1  0  0  0  0
 14 15  1  0  0  0  0
 14 23  1  0  0  0  0
 14 24  1  0  0  0  0
 15 16  1  0  0  0  0
 15 25  1  0  0  0  0
 15 26  1  0  0  0  0
M  END
> <s_m_source_file>
AV-unprocessed.smi

> <i_m_source_file_index>
2361

> <i_lp_mmshare_version>
43012

> <i_f3d_flags>
0

> <s_epik_input>
TzFbQ0gyXVtDSDJdW0NIMl1bQ0BIXTFDKD1PKVtOSF1jMltjSF1uW2NIXWMoQ2wpYzJDbA==

> <s_epik_cmdline>
J2VwaWtfcHl0aG9uJywgJy1waCcsICc3LjAnLCAnLXRuJywgJzgnLCAnLW1hJywgJzIwMCcsICctbWV0YWxfYmluZGluZycsICctaW1hZScsICc8aW5maWxlLm1hZT4nLCAnLW9tYWUnLCAnPG91dGZpbGUubWFlPic=

> <r_lp_tautomer_probability>
1

> <r_epik_Ionization_Penalty>
7.18707e-06

> <r_epik_Ionization_Penalty_Charging>
0

> <r_epik_Ionization_Penalty_Neutral>
7.18707e-06

> <r_epik_State_Penalty>
-0

> <r_epik_Charging_Adjusted_Penalty>
0

> <i_epik_Tot_Q>
0

> <i_epik_Tot_abs_Q>
0

> <r_epik_Metal_State_Penalty>
-0

> <b_epik_Metal_Only>
0

> <s_lp_Force_Field>
OPLS_2005

> <r_lp_Energy>
24.4573

> <b_lp_Chiralities_Consistent>
1

> <s_lp_Variant>
AV-unprocessed.smi:2361-1

> <Gold.Version>
5.8.1

> <Gold.Id.Protein>
6NUR|6NUR_protein|mol2

> <Gold.PLP.Fitness>
40.4218

> <Gold.PLP.PLP>
-34.7896

> <Gold.PLP.part.hbond>
-1.0000

> <Gold.PLP.part.metal>
0.0000

> <Gold.PLP.part.buried>
-0.5184

> <Gold.PLP.part.nonpolar>
-33.0154

> <Gold.PLP.part.repulsive>
0.3053

> <Gold.PLP.ligand.clash>
0.0000

> <Gold.PLP.ligand.torsion>
0.1876

> <Gold.PLP.Chemscore.Hbond>
1.0000

> <Gold.PLP.Chemscore.CHOScore>
1.0000

> <Gold.PLP.Chemscore.Metal>
0.0000

> <Gold.Chemscore.Hbonds>
donor molecule, donor type, donor heavy atom, donor atom, acceptor molecule, acceptor atom, score
      L1  H     3    17       P1  8028  1.00
      L1  C     7    19       P1  7948  1.00

> <Gold.PLP.Chemscore.Internal.Correction>
0.0075

> <Gold.Rescore>
     Score         DG    S(hbond)    S(metal)    S(lipo)     H(rot)  DE(clash)    DE(int)     intcor
     15.91     -17.24       1.00        0.00      93.83       1.00       0.06       1.27       ----

> <Gold.Chemscore.Fitness>
15.9088

> <Gold.Chemscore.DG>
-17.2379

> <Gold.Chemscore.ZeroCoef>
-5.4800

> <Gold.Chemscore.Hbond>
0.9999

> <Gold.Chemscore.Metal>
0.0000

> <Gold.Chemscore.Lipo>
93.8303

> <Gold.Chemscore.Internal_Hbond>
0.0000

> <Gold.Chemscore.DEClash>
0.0581

> <Gold.Chemscore.DEInternal>
1.2710

> <Gold.Chemscore.Rot>
1.0000

> <Gold.Chemscore.Internal.Correction>
   9.000000E+99

> <Gold.Chemscore.Hbonds>
donor molecule, donor type, donor heavy atom, donor atom, acceptor molecule, acceptor atom, score
      L1  H     3    17       P1  8028  1.00

> <Gold.Chemscore.Hbond.Weighted>
-3.3398

> <Gold.Chemscore.Metal.Weighted>
-0.0000

> <Gold.Chemscore.Lipo.Weighted>
-10.9781

> <Gold.Chemscore.Internal_Hbond.Weighted>
0.0000

> <Gold.Chemscore.DEClash.Weighted>
0.0581

> <Gold.Chemscore.DEInternal.Weighted>
1.2710

> <Gold.Chemscore.Rot.Weighted>
2.5600

> <Gold.Chemscore.Internal.Correction.Weighted>
   9.000000E+99

> <Gold.Protein.RotatedTorsions>
[ 6907 6896 6895 6894 ] final   43.28 input  -60.11 | X-H torsion
[ 7974 7965 7964 7962 ] final -130.84 input  175.53 | X-H torsion
[ 8008 7997 7996 7995 ] final  140.47 input   59.86 | X-H torsion
[ 10167 10162 10161 10158 ] final  -34.13 input  -65.29 | X-H torsion
[ 10718 10713 10712 10709 ] final  123.60 input   66.30 | X-H torsion
[ 10763 10752 10751 10750 ] final   87.44 input  -60.55 | X-H torsion
[ 11005 11000 10999 10996 ] final   82.59 input  -57.11 | X-H torsion

> <Gold.Protein.ActiveResidues>
 VAL166  LYS551  ARG553  GLY616  TRP617  ASP618  TYR619  PRO620  LYS621  CYS622 
 ASP623  PHE694  ASN695  SER759  ASP760  ASP761  ALA762  ILE779  LEU786  VAL792 
 PHE793  MET794  SER795  GLU796  ALA797  LYS798  CYS799  TRP800  GLU811  SER814 

> <Gold.Protein.RotatedAtoms>
  152.2183  134.8437  160.0488 H   0  0  0  0  0  0  0  0  0  0  0  0  # atno 6907 bound_to 6896
  151.9230  133.3585  159.3912 H   0  0  0  0  0  0  0  0  0  0  0  0  # atno 6908 bound_to 6896
  150.6993  134.4541  159.5394 H   0  0  0  0  0  0  0  0  0  0  0  0  # atno 6909 bound_to 6896
  144.9436  140.7267  143.4831 H   0  0  0  0  0  0  0  0  0  0  0  0  # atno 7974 bound_to 7965
  156.2978  140.2340  156.4407 H   0  0  0  0  0  0  0  0  0  0  0  0  # atno 8008 bound_to 7997
  154.8189  140.0439  157.1417 H   0  0  0  0  0  0  0  0  0  0  0  0  # atno 8009 bound_to 7997
  154.9338  140.3020  155.5158 H   0  0  0  0  0  0  0  0  0  0  0  0  # atno 8010 bound_to 7997
  140.7191  143.3570  151.2039 H   0  0  0  0  0  0  0  0  0  0  0  0  # atno 10167 bound_to 10162
  157.5652  131.1087  150.8468 H   0  0  0  0  0  0  0  0  0  0  0  0  # atno 10718 bound_to 10713
  153.1668  135.4543  154.9848 H   0  0  0  0  0  0  0  0  0  0  0  0  # atno 10763 bound_to 10752
  154.7938  135.3230  154.7718 H   0  0  0  0  0  0  0  0  0  0  0  0  # atno 10764 bound_to 10752
  153.8200  135.6947  153.4883 H   0  0  0  0  0  0  0  0  0  0  0  0  # atno 10765 bound_to 10752
  139.9058  134.8083  156.2195 H   0  0  0  0  0  0  0  0  0  0  0  0  # atno 11005 bound_to 11000
  145.2952  139.1869  143.4719 LP  0  0  0  0  0  0  0  0  0  0  0  0  # atno 17320 bound_to 7965
  146.3295  140.2935  142.8616 LP  0  0  0  0  0  0  0  0  0  0  0  0  # atno 17321 bound_to 7965
  139.7114  143.9371  152.2949 LP  0  0  0  0  0  0  0  0  0  0  0  0  # atno 17342 bound_to 10162
  139.9097  144.6864  150.8576 LP  0  0  0  0  0  0  0  0  0  0  0  0  # atno 17343 bound_to 10162
  156.8955  130.5228  149.5284 LP  0  0  0  0  0  0  0  0  0  0  0  0  # atno 17370 bound_to 10713
  156.0700  130.5735  150.9365 LP  0  0  0  0  0  0  0  0  0  0  0  0  # atno 17371 bound_to 10713
  141.0414  133.6936  156.1605 LP  0  0  0  0  0  0  0  0  0  0  0  0  # atno 17394 bound_to 11000
  140.6949  134.4626  157.5588 LP  0  0  0  0  0  0  0  0  0  0  0  0  # atno 17395 bound_to 11000

$$$$
