AV-unprocessed.smi:625|AV-procd|sdf|3108|dock4
  -GOLD-   22720 0 33D 1   1.00000     0.00000
 Structure written by MMmdl.
 49 51  0  0  0  0  0  0  0  0  1 V2000
  153.1544  142.4584  159.6403 C   0  0  0  0  0  0  0  0  0  0  0  0
  152.3364  142.0192  158.5198 N   0  0  0  0  0  0  0  0  0  0  0  0
  152.4555  140.8280  157.9105 C   0  0  0  0  0  0  0  0  0  0  0  0
  153.2916  139.9979  158.2708 O   0  0  0  0  0  0  0  0  0  0  0  0
  151.5128  140.6310  156.8064 C   0  0  0  0  0  0  0  0  0  0  0  0
  150.6680  141.6939  156.2820 C   0  0  0  0  0  0  0  0  0  0  0  0
  149.8064  141.4514  155.2749 C   0  0  0  0  0  0  0  0  0  0  0  0
  149.6826  140.1234  154.6682 C   0  0  0  0  0  0  0  0  0  0  0  0
  148.8844  139.8925  153.7599 O   0  0  0  0  0  0  0  0  0  0  0  0
  150.5029  139.1564  155.1813 N   0  0  0  0  0  0  0  0  0  0  0  0
  150.4561  137.7766  154.6621 C   0  0  0  0  0  0  0  0  0  0  0  0
  149.4421  136.8633  155.3723 C   0  0  0  0  0  0  0  0  0  0  0  0
  149.2722  136.9817  156.5851 O   0  0  0  0  0  0  0  0  0  0  0  0
  148.7913  135.9530  154.6283 N   0  0  0  0  0  0  0  0  0  0  0  0
  147.8647  134.9388  155.1203 C   0  0  1  0  0  0  0  0  0  0  0  0
  146.5145  135.0606  154.3925 C   0  0  0  0  0  0  0  0  0  0  0  0
  148.5103  133.5461  154.9305 C   0  0  1  0  0  0  0  0  0  0  0  0
  147.5781  132.3480  155.2274 C   0  0  0  0  0  0  0  0  0  0  0  0
  147.7749  131.4441  153.9964 C   0  0  1  0  0  0  0  0  0  0  0  0
  147.0440  132.0695  152.7948 C   0  0  0  0  0  0  0  0  0  0  0  0
  147.9370  133.2743  152.4468 C   0  0  0  0  0  0  0  0  0  0  0  0
  149.0449  133.2023  153.5182 C   0  0  2  0  0  0  0  0  0  0  0  0
  149.2363  131.6935  153.6398 C   0  0  0  0  0  0  0  0  0  0  0  0
  151.3984  139.4146  156.2378 C   0  0  0  0  0  0  0  0  0  0  0  0
  152.8646  143.4656  159.9392 H   0  0  0  0  0  0  0  0  0  0  0  0
  154.2105  142.4745  159.3684 H   0  0  0  0  0  0  0  0  0  0  0  0
  153.0249  141.7974  160.4981 H   0  0  0  0  0  0  0  0  0  0  0  0
  151.6335  142.6610  158.1830 H   0  0  0  0  0  0  0  0  0  0  0  0
  150.7097  142.6957  156.6835 H   0  0  0  0  0  0  0  0  0  0  0  0
  149.1893  142.2561  154.9031 H   0  0  0  0  0  0  0  0  0  0  0  0
  150.2329  137.7830  153.5937 H   0  0  0  0  0  0  0  0  0  0  0  0
  151.4391  137.3102  154.7397 H   0  0  0  0  0  0  0  0  0  0  0  0
  148.9878  135.9355  153.6381 H   0  0  0  0  0  0  0  0  0  0  0  0
  147.7089  135.1204  156.1839 H   0  0  0  0  0  0  0  0  0  0  0  0
  145.7929  134.3390  154.7751 H   0  0  0  0  0  0  0  0  0  0  0  0
  146.6238  134.8871  153.3214 H   0  0  0  0  0  0  0  0  0  0  0  0
  146.0795  136.0513  154.5261 H   0  0  0  0  0  0  0  0  0  0  0  0
  149.3559  133.4841  155.6186 H   0  0  0  0  0  0  0  0  0  0  0  0
  147.8875  131.8412  156.1423 H   0  0  0  0  0  0  0  0  0  0  0  0
  146.5334  132.6375  155.3498 H   0  0  0  0  0  0  0  0  0  0  0  0
  147.5126  130.4006  154.1730 H   0  0  0  0  0  0  0  0  0  0  0  0
  146.9993  131.3710  151.9582 H   0  0  0  0  0  0  0  0  0  0  0  0
  146.0227  132.3647  153.0388 H   0  0  0  0  0  0  0  0  0  0  0  0
  148.3651  133.1482  151.4514 H   0  0  0  0  0  0  0  0  0  0  0  0
  147.3936  134.2180  152.4437 H   0  0  0  0  0  0  0  0  0  0  0  0
  149.9492  133.7485  153.2481 H   0  0  0  0  0  0  0  0  0  0  0  0
  149.9308  131.4044  154.4307 H   0  0  0  0  0  0  0  0  0  0  0  0
  149.5415  131.2179  152.7057 H   0  0  0  0  0  0  0  0  0  0  0  0
  151.9711  138.5540  156.5548 H   0  0  0  0  0  0  0  0  0  0  0  0
  1  2  1  0  0  0  0
  1 25  1  0  0  0  0
  1 26  1  0  0  0  0
  1 27  1  0  0  0  0
  2  3  1  0  0  0  0
  2 28  1  0  0  0  0
  3  4  2  0  0  0  0
  3  5  1  0  0  0  0
  5 24  2  0  0  0  0
  5  6  1  0  0  0  0
  6  7  2  0  0  0  0
  6 29  1  0  0  0  0
  7  8  1  0  0  0  0
  7 30  1  0  0  0  0
  8  9  2  0  0  0  0
  8 10  1  0  0  0  0
 10 11  1  0  0  0  0
 10 24  1  0  0  0  0
 11 12  1  0  0  0  0
 11 31  1  0  0  0  0
 11 32  1  0  0  0  0
 12 13  2  0  0  0  0
 12 14  1  0  0  0  0
 14 15  1  0  0  0  0
 14 33  1  0  0  0  0
 15 16  1  0  0  0  0
 15 17  1  0  0  0  0
 15 34  1  0  0  0  0
 16 35  1  0  0  0  0
 16 36  1  0  0  0  0
 16 37  1  0  0  0  0
 17 22  1  0  0  0  0
 17 18  1  0  0  0  0
 17 38  1  0  0  0  0
 18 19  1  0  0  0  0
 18 39  1  0  0  0  0
 18 40  1  0  0  0  0
 19 23  1  0  0  0  0
 19 20  1  0  0  0  0
 19 41  1  0  0  0  0
 20 21  1  0  0  0  0
 20 42  1  0  0  0  0
 20 43  1  0  0  0  0
 21 22  1  0  0  0  0
 21 44  1  0  0  0  0
 21 45  1  0  0  0  0
 22 23  1  0  0  0  0
 22 46  1  0  0  0  0
 23 47  1  0  0  0  0
 23 48  1  0  0  0  0
 24 49  1  0  0  0  0
M  END
> <s_m_source_file>
AV-unprocessed.smi

> <i_m_source_file_index>
625

> <i_lp_mmshare_version>
43012

> <i_f3d_flags>
0

> <s_epik_input>
W0NIM11bTkhdQyg9TyljMVtjSF1bY0hdYyg9TyluKFtjSF0xKVtDSDJdQyg9TylbTkhdW0NASF0oW0NIM10pW0NASF0oW0NIMl1bQ0BIXTIzKVtDQEhdKFtDSDJdMylbQ0gyXVtDSDJdMg==

> <s_epik_cmdline>
J2VwaWtfcHl0aG9uJywgJy1waCcsICc3LjAnLCAnLXRuJywgJzgnLCAnLW1hJywgJzIwMCcsICctbWV0YWxfYmluZGluZycsICctaW1hZScsICc8aW5maWxlLm1hZT4nLCAnLW9tYWUnLCAnPG91dGZpbGUubWFlPic=

> <r_lp_tautomer_probability>
1

> <r_epik_Ionization_Penalty>
3.7129e-07

> <r_epik_Ionization_Penalty_Charging>
5.04114e-08

> <r_epik_Ionization_Penalty_Neutral>
3.20879e-07

> <r_epik_State_Penalty>
-0

> <r_epik_Charging_Adjusted_Penalty>
5.04114e-08

> <i_epik_Tot_Q>
0

> <i_epik_Tot_abs_Q>
0

> <r_epik_Metal_State_Penalty>
-0

> <b_epik_Metal_Only>
0

> <s_lp_Force_Field>
OPLS_2005

> <r_lp_Energy>
63.411

> <b_lp_Chiralities_Consistent>
1

> <s_lp_Variant>
AV-unprocessed.smi:625-8

> <Gold.Version>
5.8.1

> <Gold.Id.Protein>
6NUR|6NUR_protein|mol2

> <Gold.PLP.Fitness>
40.5017

> <Gold.PLP.PLP>
-36.1389

> <Gold.PLP.part.hbond>
-2.0000

> <Gold.PLP.part.metal>
0.0000

> <Gold.PLP.part.buried>
-3.8733

> <Gold.PLP.part.nonpolar>
-31.0716

> <Gold.PLP.part.repulsive>
2.6125

> <Gold.PLP.ligand.clash>
0.0000

> <Gold.PLP.ligand.torsion>
0.8669

> <Gold.PLP.Chemscore.Hbond>
2.0000

> <Gold.PLP.Chemscore.CHOScore>
0.0000

> <Gold.PLP.Chemscore.Metal>
0.0000

> <Gold.Chemscore.Hbonds>
donor molecule, donor type, donor heavy atom, donor atom, acceptor molecule, acceptor atom, score
      L1  H    14    33       P1  7948  1.00
      P1  H  7997  8008       L1     4  0.96

> <Gold.PLP.Chemscore.Internal.Correction>
0.0966

> <Gold.Rescore>
     Score         DG    S(hbond)    S(metal)    S(lipo)     H(rot)  DE(clash)    DE(int)     intcor
     14.64     -16.91       1.78        0.00      83.37       1.67       1.27       1.00       ----

> <Gold.Chemscore.Fitness>
14.6381

> <Gold.Chemscore.DG>
-16.9148

> <Gold.Chemscore.ZeroCoef>
-5.4800

> <Gold.Chemscore.Hbond>
1.7837

> <Gold.Chemscore.Metal>
0.0000

> <Gold.Chemscore.Lipo>
83.3730

> <Gold.Chemscore.Internal_Hbond>
0.0000

> <Gold.Chemscore.DEClash>
1.2735

> <Gold.Chemscore.DEInternal>
1.0031

> <Gold.Chemscore.Rot>
1.6709

> <Gold.Chemscore.Internal.Correction>
   9.000000E+99

> <Gold.Chemscore.Hbonds>
donor molecule, donor type, donor heavy atom, donor atom, acceptor molecule, acceptor atom, score
      L1  H    14    33       P1  7948  0.94
      P1  H  7997  8008       L1     4  0.72

> <Gold.Chemscore.Hbond.Weighted>
-5.9575

> <Gold.Chemscore.Metal.Weighted>
-0.0000

> <Gold.Chemscore.Lipo.Weighted>
-9.7546

> <Gold.Chemscore.Internal_Hbond.Weighted>
0.0000

> <Gold.Chemscore.DEClash.Weighted>
1.2735

> <Gold.Chemscore.DEInternal.Weighted>
1.0031

> <Gold.Chemscore.Rot.Weighted>
4.2774

> <Gold.Chemscore.Internal.Correction.Weighted>
   9.000000E+99

> <Gold.Protein.RotatedTorsions>
[ 6907 6896 6895 6894 ] final   20.72 input  -60.11 | X-H torsion
[ 7974 7965 7964 7962 ] final  -70.69 input  175.53 | X-H torsion
[ 8008 7997 7996 7995 ] final  -99.72 input   59.86 | X-H torsion
[ 10167 10162 10161 10158 ] final -126.72 input  -65.29 | X-H torsion
[ 10718 10713 10712 10709 ] final    5.49 input   66.30 | X-H torsion
[ 10763 10752 10751 10750 ] final  -23.17 input  -60.55 | X-H torsion
[ 11005 11000 10999 10996 ] final   18.20 input  -57.11 | X-H torsion

> <Gold.Protein.ActiveResidues>
 VAL166  LYS551  ARG553  GLY616  TRP617  ASP618  TYR619  PRO620  LYS621  CYS622 
 ASP623  PHE694  ASN695  SER759  ASP760  ASP761  ALA762  ILE779  LEU786  VAL792 
 PHE793  MET794  SER795  GLU796  ALA797  LYS798  CYS799  TRP800  GLU811  SER814 

> <Gold.Protein.RotatedAtoms>
  151.9007  135.0379  160.0505 H   0  0  0  0  0  0  0  0  0  0  0  0  # atno 6907 bound_to 6896
  152.2361  133.5092  159.5251 H   0  0  0  0  0  0  0  0  0  0  0  0  # atno 6908 bound_to 6896
  150.7039  134.1069  159.4028 H   0  0  0  0  0  0  0  0  0  0  0  0  # atno 6909 bound_to 6896
  145.6877  140.9165  143.0798 H   0  0  0  0  0  0  0  0  0  0  0  0  # atno 7974 bound_to 7965
  154.8188  140.0446  157.1395 H   0  0  0  0  0  0  0  0  0  0  0  0  # atno 8008 bound_to 7997
  154.9284  140.3036  155.5160 H   0  0  0  0  0  0  0  0  0  0  0  0  # atno 8009 bound_to 7997
  156.2978  140.2327  156.4341 H   0  0  0  0  0  0  0  0  0  0  0  0  # atno 8010 bound_to 7997
  139.9685  143.5871  152.2421 H   0  0  0  0  0  0  0  0  0  0  0  0  # atno 10167 bound_to 10162
  156.9082  130.5746  149.5647 H   0  0  0  0  0  0  0  0  0  0  0  0  # atno 10718 bound_to 10713
  153.6635  135.6975  153.5169 H   0  0  0  0  0  0  0  0  0  0  0  0  # atno 10763 bound_to 10752
  153.2613  135.4244  155.0896 H   0  0  0  0  0  0  0  0  0  0  0  0  # atno 10764 bound_to 10752
  154.8445  135.3555  154.6180 H   0  0  0  0  0  0  0  0  0  0  0  0  # atno 10765 bound_to 10752
  140.4274  134.1455  155.7677 H   0  0  0  0  0  0  0  0  0  0  0  0  # atno 11005 bound_to 11000
  144.7006  139.8780  143.7445 LP  0  0  0  0  0  0  0  0  0  0  0  0  # atno 17320 bound_to 7965
  146.0909  139.3899  143.0406 LP  0  0  0  0  0  0  0  0  0  0  0  0  # atno 17321 bound_to 7965
  139.6499  144.7660  151.2169 LP  0  0  0  0  0  0  0  0  0  0  0  0  # atno 17342 bound_to 10162
  140.7530  143.6178  150.8543 LP  0  0  0  0  0  0  0  0  0  0  0  0  # atno 17343 bound_to 10162
  156.0549  130.5612  150.9069 LP  0  0  0  0  0  0  0  0  0  0  0  0  # atno 17370 bound_to 10713
  157.5984  131.0942  150.9002 LP  0  0  0  0  0  0  0  0  0  0  0  0  # atno 17371 bound_to 10713
  141.1759  133.8514  157.1421 LP  0  0  0  0  0  0  0  0  0  0  0  0  # atno 17394 bound_to 11000
  140.0158  134.9968  157.0490 LP  0  0  0  0  0  0  0  0  0  0  0  0  # atno 17395 bound_to 11000

$$$$
