AV-unprocessed.smi:1999|AV-procd|sdf|8096|dock2
  -GOLD-   2272010313D 1   1.00000     0.00000
 Structure written by MMmdl.
 37 38  0  0  0  0  0  0  0  0  2 V2000
  146.8524  136.0511  162.9310 C   0  0  0  0  0  0  0  0  0  0  0  0
  147.0349  136.6549  161.5808 C   0  0  0  0  0  0  0  0  0  0  0  0
  148.1665  137.2552  161.2043 N   0  0  0  0  0  0  0  0  0  0  0  0
  148.0964  137.7335  159.9038 N   0  0  0  0  0  0  0  0  0  0  0  0
  146.9206  137.4793  159.3123 C   0  0  0  0  0  0  0  0  0  0  0  0
  146.6511  137.8598  158.0526 N   0  5  0  0  0  0  0  0  0  0  0  0
  147.3213  138.8981  157.5026 C   0  0  0  0  0  0  0  0  0  0  0  0
  148.1270  139.6335  158.0780 O   0  0  0  0  0  0  0  0  0  0  0  0
  147.0407  139.0959  156.2064 N   0  0  0  0  0  0  0  0  0  0  0  0
  147.6212  140.1238  155.3436 C   0  0  2  0  0  0  0  0  0  0  0  0
  146.5395  140.7144  154.4260 C   0  0  0  0  0  0  0  0  0  0  0  0
  148.7830  139.5273  154.5225 C   0  0  0  0  0  0  0  0  0  0  0  0
  149.9510  139.0941  155.2925 N   0  0  0  0  0  0  0  0  0  0  0  0
  150.7155  140.2120  155.8411 C   0  0  0  0  0  0  0  0  0  0  0  0
  151.9504  139.7327  156.6236 C   0  0  0  0  0  0  0  0  0  0  0  0
  152.7653  138.9204  155.7848 O   0  0  0  0  0  0  0  0  0  0  0  0
  152.0665  137.7914  155.2708 C   0  0  0  0  0  0  0  0  0  0  0  0
  150.8348  138.2654  154.4804 C   0  0  0  0  0  0  0  0  0  0  0  0
  145.7794  136.6293  160.3540 S   0  0  0  0  0  0  0  0  0  0  0  0
  147.2557  135.0386  162.9426 H   0  0  0  0  0  0  0  0  0  0  0  0
  145.7934  136.0102  163.1862 H   0  0  0  0  0  0  0  0  0  0  0  0
  147.3694  136.6447  163.6854 H   0  0  0  0  0  0  0  0  0  0  0  0
  146.3791  138.4660  155.7770 H   0  0  0  0  0  0  0  0  0  0  0  0
  148.0093  140.9368  155.9582 H   0  0  0  0  0  0  0  0  0  0  0  0
  146.9545  141.4880  153.7796 H   0  0  0  0  0  0  0  0  0  0  0  0
  145.7350  141.1688  155.0049 H   0  0  0  0  0  0  0  0  0  0  0  0
  146.0983  139.9479  153.7880 H   0  0  0  0  0  0  0  0  0  0  0  0
  148.3928  138.6706  153.9708 H   0  0  0  0  0  0  0  0  0  0  0  0
  149.0947  140.2490  153.7660 H   0  0  0  0  0  0  0  0  0  0  0  0
  151.0324  140.8755  155.0352 H   0  0  0  0  0  0  0  0  0  0  0  0
  150.0927  140.8049  156.5100 H   0  0  0  0  0  0  0  0  0  0  0  0
  152.5341  140.5856  156.9701 H   0  0  0  0  0  0  0  0  0  0  0  0
  151.6511  139.1682  157.5082 H   0  0  0  0  0  0  0  0  0  0  0  0
  152.7352  137.2220  154.6252 H   0  0  0  0  0  0  0  0  0  0  0  0
  151.7710  137.1327  156.0887 H   0  0  0  0  0  0  0  0  0  0  0  0
  150.2899  137.3966  154.1097 H   0  0  0  0  0  0  0  0  0  0  0  0
  151.1634  138.8248  153.6032 H   0  0  0  0  0  0  0  0  0  0  0  0
  1  2  1  0  0  0  0
  1 20  1  0  0  0  0
  1 21  1  0  0  0  0
  1 22  1  0  0  0  0
  2 19  1  0  0  0  0
  2  3  2  0  0  0  0
  3  4  1  0  0  0  0
  4  5  2  0  0  0  0
  5  6  1  0  0  0  0
  5 19  1  0  0  0  0
  6  7  1  0  0  0  0
  7  8  2  0  0  0  0
  7  9  1  0  0  0  0
  9 10  1  0  0  0  0
  9 23  1  0  0  0  0
 10 11  1  0  0  0  0
 10 12  1  0  0  0  0
 10 24  1  0  0  0  0
 11 25  1  0  0  0  0
 11 26  1  0  0  0  0
 11 27  1  0  0  0  0
 12 13  1  0  0  0  0
 12 28  1  0  0  0  0
 12 29  1  0  0  0  0
 13 18  1  0  0  0  0
 13 14  1  0  0  0  0
 14 15  1  0  0  0  0
 14 30  1  0  0  0  0
 14 31  1  0  0  0  0
 15 16  1  0  0  0  0
 15 32  1  0  0  0  0
 15 33  1  0  0  0  0
 16 17  1  0  0  0  0
 17 18  1  0  0  0  0
 17 34  1  0  0  0  0
 17 35  1  0  0  0  0
 18 36  1  0  0  0  0
 18 37  1  0  0  0  0
M  CHG  1   6  -1
M  END
> <s_m_source_file>
AV-unprocessed.smi

> <i_m_source_file_index>
1999

> <i_lp_mmshare_version>
43012

> <i_f3d_flags>
0

> <s_epik_input>
W0NIM11jMW5uYyhzMSlbTkhdQyg9TylbTkhdW0NASF0oW0NIM10pW0NIMl1OMltDSDJdW0NIMl1PW0NIMl1bQ0gyXTI=

> <s_epik_cmdline>
J2VwaWtfcHl0aG9uJywgJy1waCcsICc3LjAnLCAnLXRuJywgJzgnLCAnLW1hJywgJzIwMCcsICctbWV0YWxfYmluZGluZycsICctaW1hZScsICc8aW5maWxlLm1hZT4nLCAnLW9tYWUnLCAnPG91dGZpbGUubWFlPic=

> <r_lp_tautomer_probability>
1

> <r_epik_Ionization_Penalty>
3.74165

> <r_epik_Ionization_Penalty_Charging>
3.28066

> <r_epik_Ionization_Penalty_Neutral>
0.460988

> <r_epik_State_Penalty>
3.48767

> <r_epik_Charging_Adjusted_Penalty>
6.76834

> <i_epik_Tot_Q>
-1

> <i_epik_Tot_abs_Q>
1

> <r_epik_Metal_State_Penalty>
0.700129

> <b_epik_Metal_Only>
1

> <s_lp_Force_Field>
OPLS_2005

> <r_lp_Energy>
23.1925

> <b_lp_Chiralities_Consistent>
1

> <s_lp_Variant>
AV-unprocessed.smi:1999-5

> <Gold.Version>
5.8.1

> <Gold.Id.Protein>
6NUR|6NUR_protein|mol2

> <Gold.PLP.Fitness>
34.0073

> <Gold.PLP.PLP>
-28.9455

> <Gold.PLP.part.hbond>
-5.2804

> <Gold.PLP.part.metal>
0.0000

> <Gold.PLP.part.buried>
-4.9277

> <Gold.PLP.part.nonpolar>
-19.8961

> <Gold.PLP.part.repulsive>
0.0541

> <Gold.PLP.ligand.clash>
0.0000

> <Gold.PLP.ligand.torsion>
0.5348

> <Gold.PLP.Chemscore.Hbond>
2.0067

> <Gold.PLP.Chemscore.CHOScore>
0.0000

> <Gold.PLP.Chemscore.Metal>
0.0000

> <Gold.Chemscore.Hbonds>
donor molecule, donor type, donor heavy atom, donor atom, acceptor molecule, acceptor atom, score
      P1  H  6931  6943       L1     3  0.91
      P1  H  7997  8010       L1    16  0.44

> <Gold.PLP.Chemscore.Internal.Correction>
0.1113

> <Gold.Rescore>
     Score         DG    S(hbond)    S(metal)    S(lipo)     H(rot)  DE(clash)    DE(int)     intcor
     11.33     -14.21       1.63        0.00      62.04       1.56       0.75       2.13       ----

> <Gold.Chemscore.Fitness>
11.3327

> <Gold.Chemscore.DG>
-14.2125

> <Gold.Chemscore.ZeroCoef>
-5.4800

> <Gold.Chemscore.Hbond>
1.6334

> <Gold.Chemscore.Metal>
0.0000

> <Gold.Chemscore.Lipo>
62.0436

> <Gold.Chemscore.Internal_Hbond>
0.0000

> <Gold.Chemscore.DEClash>
0.7501

> <Gold.Chemscore.DEInternal>
2.1298

> <Gold.Chemscore.Rot>
1.5556

> <Gold.Chemscore.Internal.Correction>
   9.000000E+99

> <Gold.Chemscore.Hbonds>
donor molecule, donor type, donor heavy atom, donor atom, acceptor molecule, acceptor atom, score
      P1  H  6931  6943       L1     3  0.33
      P1  H  7997  8010       L1    16  0.01

> <Gold.Chemscore.Hbond.Weighted>
-5.4557

> <Gold.Chemscore.Metal.Weighted>
-0.0000

> <Gold.Chemscore.Lipo.Weighted>
-7.2591

> <Gold.Chemscore.Internal_Hbond.Weighted>
0.0000

> <Gold.Chemscore.DEClash.Weighted>
0.7501

> <Gold.Chemscore.DEInternal.Weighted>
2.1298

> <Gold.Chemscore.Rot.Weighted>
3.9823

> <Gold.Chemscore.Internal.Correction.Weighted>
   9.000000E+99

> <Gold.Protein.RotatedTorsions>
[ 6907 6896 6895 6894 ] final -179.44 input  -60.11 | X-H torsion
[ 7974 7965 7964 7962 ] final  -87.13 input  175.53 | X-H torsion
[ 8008 7997 7996 7995 ] final   82.69 input   59.86 | X-H torsion
[ 10167 10162 10161 10158 ] final -131.66 input  -65.29 | X-H torsion
[ 10718 10713 10712 10709 ] final   43.22 input   66.30 | X-H torsion
[ 10763 10752 10751 10750 ] final -108.59 input  -60.55 | X-H torsion
[ 11005 11000 10999 10996 ] final   60.96 input  -57.11 | X-H torsion

> <Gold.Protein.ActiveResidues>
 VAL166  LYS551  ARG553  GLY616  TRP617  ASP618  TYR619  PRO620  LYS621  CYS622 
 ASP623  PHE694  ASN695  SER759  ASP760  ASP761  ALA762  ILE779  LEU786  VAL792 
 PHE793  MET794  SER795  GLU796  ALA797  LYS798  CYS799  TRP800  GLU811  SER814 

> <Gold.Protein.RotatedAtoms>
  151.6534  133.3320  159.3156 H   0  0  0  0  0  0  0  0  0  0  0  0  # atno 6907 bound_to 6896
  150.7949  134.7004  159.6556 H   0  0  0  0  0  0  0  0  0  0  0  0  # atno 6908 bound_to 6896
  152.4034  134.6252  160.0112 H   0  0  0  0  0  0  0  0  0  0  0  0  # atno 6909 bound_to 6896
  145.4707  140.9559  143.1919 H   0  0  0  0  0  0  0  0  0  0  0  0  # atno 7974 bound_to 7965
  155.9140  140.3425  155.6121 H   0  0  0  0  0  0  0  0  0  0  0  0  # atno 8008 bound_to 7997
  155.7353  140.0800  157.2289 H   0  0  0  0  0  0  0  0  0  0  0  0  # atno 8009 bound_to 7997
  154.4060  140.1580  156.2542 H   0  0  0  0  0  0  0  0  0  0  0  0  # atno 8010 bound_to 7997
  139.9166  143.6431  152.2563 H   0  0  0  0  0  0  0  0  0  0  0  0  # atno 10167 bound_to 10162
  157.4135  130.7928  149.7451 H   0  0  0  0  0  0  0  0  0  0  0  0  # atno 10718 bound_to 10713
  154.8144  135.4632  154.0603 H   0  0  0  0  0  0  0  0  0  0  0  0  # atno 10763 bound_to 10752
  153.2008  135.6868  153.8240 H   0  0  0  0  0  0  0  0  0  0  0  0  # atno 10764 bound_to 10752
  153.7725  135.3268  155.3331 H   0  0  0  0  0  0  0  0  0  0  0  0  # atno 10765 bound_to 10752
  140.0194  134.6175  155.9661 H   0  0  0  0  0  0  0  0  0  0  0  0  # atno 11005 bound_to 11000
  144.7947  139.6258  143.7098 LP  0  0  0  0  0  0  0  0  0  0  0  0  # atno 17320 bound_to 7965
  146.2398  139.5979  142.9499 LP  0  0  0  0  0  0  0  0  0  0  0  0  # atno 17321 bound_to 7965
  139.6897  144.7648  151.1461 LP  0  0  0  0  0  0  0  0  0  0  0  0  # atno 17342 bound_to 10162
  140.7672  143.5607  150.9102 LP  0  0  0  0  0  0  0  0  0  0  0  0  # atno 17343 bound_to 10162
  155.9858  130.3980  150.3244 LP  0  0  0  0  0  0  0  0  0  0  0  0  # atno 17370 bound_to 10713
  157.1385  131.0290  151.2938 LP  0  0  0  0  0  0  0  0  0  0  0  0  # atno 17371 bound_to 10713
  141.1764  133.6541  156.4846 LP  0  0  0  0  0  0  0  0  0  0  0  0  # atno 17394 bound_to 11000
  140.4413  134.7013  157.4993 LP  0  0  0  0  0  0  0  0  0  0  0  0  # atno 17395 bound_to 11000

$$$$
