AV-unprocessed.smi:235|AV-procd|sdf|1802|dock6
  -GOLD-   2262020373D 1   1.00000     0.00000
 Structure written by MMmdl.
 54 58  0  0  0  0  0  0  0  0  1 V2000
  146.0325  137.6948  162.1721 O   0  0  0  0  0  0  0  0  0  0  0  0
  145.9695  136.7548  161.3798 C   0  0  0  0  0  0  0  0  0  0  0  0
  144.8505  136.0350  161.1942 N   0  0  0  0  0  0  0  0  0  0  0  0
  143.6038  136.2334  161.8560 C   0  0  0  0  0  0  0  0  0  0  0  0
  143.6477  136.6522  163.3097 C   0  0  0  0  0  0  0  0  0  0  0  0
  143.2254  135.2552  162.9472 C   0  0  0  0  0  0  0  0  0  0  0  0
  147.2099  136.3928  160.5366 C   0  0  1  0  0  0  0  0  0  0  0  0
  147.6622  134.9296  160.7378 C   0  0  0  0  0  0  0  0  0  0  0  0
  147.2449  134.2065  159.4596 C   0  0  0  0  0  0  0  0  0  0  0  0
  147.3868  135.2992  158.4079 C   0  0  0  0  0  0  0  0  0  0  0  0
  146.9738  136.5127  159.0922 N   0  0  0  0  0  0  0  0  0  0  0  0
  147.2985  137.6762  158.4885 C   0  0  0  0  0  0  0  0  0  0  0  0
  146.3370  138.4324  157.8982 N   0  0  0  0  0  0  0  0  0  0  0  0
  146.6708  139.5774  157.2938 C   0  0  0  0  0  0  0  0  0  0  0  0
  147.8779  140.1354  157.1672 N   0  0  0  0  0  0  0  0  0  0  0  0
  148.8403  139.3749  157.7647 C   0  0  0  0  0  0  0  0  0  0  0  0
  148.6366  138.1441  158.4466 C   0  0  0  0  0  0  0  0  0  0  0  0
  149.8448  137.6563  158.9281 N   0  0  0  0  0  0  0  0  0  0  0  0
  150.7185  138.5471  158.5445 C   0  0  0  0  0  0  0  0  0  0  0  0
  150.2010  139.6108  157.8390 N   0  0  0  0  0  0  0  0  0  0  0  0
  150.9370  140.7358  157.2901 C   0  0  0  0  0  0  0  0  0  0  0  0
  150.3294  142.0942  157.7017 C   0  0  2  0  0  0  0  0  0  0  0  0
  149.6614  142.6363  156.5780 O   0  0  0  0  0  0  0  0  0  0  0  0
  151.3891  143.1165  158.1593 C   0  0  2  0  0  0  0  0  0  0  0  0
  152.1233  142.7453  159.4497 C   0  0  0  0  0  0  0  0  0  0  0  0
  152.5933  144.0842  159.9934 C   0  0  0  0  0  0  0  0  0  0  0  0
  151.7124  145.1037  159.2678 C   0  0  0  0  0  0  0  0  0  0  0  0
  150.7618  144.3290  158.5502 O   0  0  0  0  0  0  0  0  0  0  0  0
  144.8866  135.2853  160.5179 H   0  0  0  0  0  0  0  0  0  0  0  0
  142.7828  136.6404  161.2672 H   0  0  0  0  0  0  0  0  0  0  0  0
  144.6240  136.7747  163.7754 H   0  0  0  0  0  0  0  0  0  0  0  0
  142.8762  137.3358  163.6581 H   0  0  0  0  0  0  0  0  0  0  0  0
  142.1717  135.0053  163.0522 H   0  0  0  0  0  0  0  0  0  0  0  0
  143.9194  134.4465  163.1696 H   0  0  0  0  0  0  0  0  0  0  0  0
  148.0138  137.0558  160.8609 H   0  0  0  0  0  0  0  0  0  0  0  0
  148.7485  134.8989  160.8320 H   0  0  0  0  0  0  0  0  0  0  0  0
  147.2508  134.4528  161.6286 H   0  0  0  0  0  0  0  0  0  0  0  0
  147.8523  133.3267  159.2462 H   0  0  0  0  0  0  0  0  0  0  0  0
  146.2028  133.8924  159.5345 H   0  0  0  0  0  0  0  0  0  0  0  0
  148.4232  135.3779  158.0744 H   0  0  0  0  0  0  0  0  0  0  0  0
  146.7607  135.1035  157.5366 H   0  0  0  0  0  0  0  0  0  0  0  0
  145.8541  140.1234  156.8450 H   0  0  0  0  0  0  0  0  0  0  0  0
  151.7721  138.4490  158.7621 H   0  0  0  0  0  0  0  0  0  0  0  0
  151.9683  140.6544  157.6336 H   0  0  0  0  0  0  0  0  0  0  0  0
  150.9623  140.6408  156.2034 H   0  0  0  0  0  0  0  0  0  0  0  0
  149.6027  141.9365  158.4999 H   0  0  0  0  0  0  0  0  0  0  0  0
  149.2529  143.4488  156.8342 H   0  0  0  0  0  0  0  0  0  0  0  0
  152.1140  143.3133  157.3665 H   0  0  0  0  0  0  0  0  0  0  0  0
  151.4293  142.2894  160.1576 H   0  0  0  0  0  0  0  0  0  0  0  0
  152.9440  142.0465  159.2848 H   0  0  0  0  0  0  0  0  0  0  0  0
  152.4729  144.1349  161.0759 H   0  0  0  0  0  0  0  0  0  0  0  0
  153.6450  144.2577  159.7626 H   0  0  0  0  0  0  0  0  0  0  0  0
  151.2161  145.7916  159.9525 H   0  0  0  0  0  0  0  0  0  0  0  0
  152.3042  145.6905  158.5641 H   0  0  0  0  0  0  0  0  0  0  0  0
  1  2  2  0  0  0  0
  2  3  1  0  0  0  0
  2  7  1  0  0  0  0
  3  4  1  0  0  0  0
  3 29  1  0  0  0  0
  4  6  1  0  0  0  0
  4  5  1  0  0  0  0
  4 30  1  0  0  0  0
  5  6  1  0  0  0  0
  5 31  1  0  0  0  0
  5 32  1  0  0  0  0
  6 33  1  0  0  0  0
  6 34  1  0  0  0  0
  7 11  1  0  0  0  0
  7  8  1  0  0  0  0
  7 35  1  0  0  0  0
  8  9  1  0  0  0  0
  8 36  1  0  0  0  0
  8 37  1  0  0  0  0
  9 10  1  0  0  0  0
  9 38  1  0  0  0  0
  9 39  1  0  0  0  0
 10 11  1  0  0  0  0
 10 40  1  0  0  0  0
 10 41  1  0  0  0  0
 11 12  1  0  0  0  0
 12 17  1  0  0  0  0
 12 13  2  0  0  0  0
 13 14  1  0  0  0  0
 14 15  2  0  0  0  0
 14 42  1  0  0  0  0
 15 16  1  0  0  0  0
 16 20  1  0  0  0  0
 16 17  2  0  0  0  0
 17 18  1  0  0  0  0
 18 19  2  0  0  0  0
 19 20  1  0  0  0  0
 19 43  1  0  0  0  0
 20 21  1  0  0  0  0
 21 22  1  0  0  0  0
 21 44  1  0  0  0  0
 21 45  1  0  0  0  0
 22 23  1  0  0  0  0
 22 24  1  0  0  0  0
 22 46  1  0  0  0  0
 23 47  1  0  0  0  0
 24 28  1  0  0  0  0
 24 25  1  0  0  0  0
 24 48  1  0  0  0  0
 25 26  1  0  0  0  0
 25 49  1  0  0  0  0
 25 50  1  0  0  0  0
 26 27  1  0  0  0  0
 26 51  1  0  0  0  0
 26 52  1  0  0  0  0
 27 28  1  0  0  0  0
 27 53  1  0  0  0  0
 27 54  1  0  0  0  0
M  END
> <s_m_source_file>
AV-unprocessed.smi

> <i_m_source_file_index>
235

> <i_lp_mmshare_version>
43012

> <i_f3d_flags>
0

> <s_epik_input>
W0NIMl0xW0NIMl1bQ0hdMVtOSF1DKD1PKVtDQEBIXTJbQ0gyXVtDSDJdW0NIMl1OMmMobltjSF1uMyljKGMzNCluW2NIXW40W0NIMl1bQ0BIXShbT0hdKVtDQEBIXTVbQ0gyXVtDSDJdW0NIMl1PNQ==

> <s_epik_cmdline>
J2VwaWtfcHl0aG9uJywgJy1waCcsICc3LjAnLCAnLXRuJywgJzgnLCAnLW1hJywgJzIwMCcsICctbWV0YWxfYmluZGluZycsICctaW1hZScsICc8aW5maWxlLm1hZT4nLCAnLW9tYWUnLCAnPG91dGZpbGUubWFlPic=

> <r_lp_tautomer_probability>
1

> <r_epik_Ionization_Penalty>
0.000526714

> <r_epik_Ionization_Penalty_Charging>
0

> <r_epik_Ionization_Penalty_Neutral>
0.000526714

> <r_epik_State_Penalty>
0.000272704

> <r_epik_Charging_Adjusted_Penalty>
0.000272704

> <i_epik_Tot_Q>
0

> <i_epik_Tot_abs_Q>
0

> <r_epik_Metal_State_Penalty>
-0

> <b_epik_Metal_Only>
0

> <s_lp_Force_Field>
OPLS_2005

> <r_lp_Energy>
60.5906

> <b_lp_Chiralities_Consistent>
1

> <s_lp_Variant>
AV-unprocessed.smi:235-2

> <Gold.Version>
5.8.1

> <Gold.Id.Protein>
6NUR|6NUR_protein|mol2

> <Gold.PLP.Fitness>
43.4721

> <Gold.PLP.PLP>
-40.2666

> <Gold.PLP.part.hbond>
-2.5296

> <Gold.PLP.part.metal>
0.0000

> <Gold.PLP.part.buried>
-8.6631

> <Gold.PLP.part.nonpolar>
-28.9329

> <Gold.PLP.part.repulsive>
0.1948

> <Gold.PLP.ligand.clash>
0.0000

> <Gold.PLP.ligand.torsion>
1.1382

> <Gold.PLP.Chemscore.Hbond>
1.6880

> <Gold.PLP.Chemscore.CHOScore>
0.0000

> <Gold.PLP.Chemscore.Metal>
0.0000

> <Gold.Chemscore.Hbonds>
donor molecule, donor type, donor heavy atom, donor atom, acceptor molecule, acceptor atom, score
      L1  H    23    47       P1  8028  0.46
      P1  H  6934  6947       L1     1  0.49

> <Gold.PLP.Chemscore.Internal.Correction>
0.4179

> <Gold.Rescore>
     Score         DG    S(hbond)    S(metal)    S(lipo)     H(rot)  DE(clash)    DE(int)     intcor
     11.17     -14.78       1.84        0.00      92.54       3.00       0.05       3.57       ----

> <Gold.Chemscore.Fitness>
11.1692

> <Gold.Chemscore.DG>
-14.7814

> <Gold.Chemscore.ZeroCoef>
-5.4800

> <Gold.Chemscore.Hbond>
1.8418

> <Gold.Chemscore.Metal>
0.0000

> <Gold.Chemscore.Lipo>
92.5369

> <Gold.Chemscore.Internal_Hbond>
0.0000

> <Gold.Chemscore.DEClash>
0.0462

> <Gold.Chemscore.DEInternal>
3.5660

> <Gold.Chemscore.Rot>
2.9989

> <Gold.Chemscore.Internal.Correction>
   9.000000E+99

> <Gold.Chemscore.Hbonds>
donor molecule, donor type, donor heavy atom, donor atom, acceptor molecule, acceptor atom, score
      L1  H    23    47       P1  8028  0.43
      P1  H  6934  6947       L1     1  0.11

> <Gold.Chemscore.Hbond.Weighted>
-6.1518

> <Gold.Chemscore.Metal.Weighted>
-0.0000

> <Gold.Chemscore.Lipo.Weighted>
-10.8268

> <Gold.Chemscore.Internal_Hbond.Weighted>
0.0000

> <Gold.Chemscore.DEClash.Weighted>
0.0462

> <Gold.Chemscore.DEInternal.Weighted>
3.5660

> <Gold.Chemscore.Rot.Weighted>
7.6772

> <Gold.Chemscore.Internal.Correction.Weighted>
   9.000000E+99

> <Gold.Protein.RotatedTorsions>
[ 6907 6896 6895 6894 ] final   77.87 input  -60.11 | X-H torsion
[ 7974 7965 7964 7962 ] final  -14.23 input  175.53 | X-H torsion
[ 8008 7997 7996 7995 ] final  -58.37 input   59.86 | X-H torsion
[ 10167 10162 10161 10158 ] final -131.71 input  -65.29 | X-H torsion
[ 10718 10713 10712 10709 ] final -141.09 input   66.30 | X-H torsion
[ 10763 10752 10751 10750 ] final  101.77 input  -60.55 | X-H torsion
[ 11005 11000 10999 10996 ] final -157.17 input  -57.11 | X-H torsion

> <Gold.Protein.ActiveResidues>
 VAL166  LYS551  ARG553  GLY616  TRP617  ASP618  TYR619  PRO620  LYS621  CYS622 
 ASP623  PHE694  ASN695  SER759  ASP760  ASP761  ALA762  ILE779  LEU786  VAL792 
 PHE793  MET794  SER795  GLU796  ALA797  LYS798  CYS799  TRP800  GLU811  SER814 

> <Gold.Protein.RotatedAtoms>
  152.5136  134.3751  159.9331 H   0  0  0  0  0  0  0  0  0  0  0  0  # atno 6907 bound_to 6896
  151.3707  133.3850  159.2707 H   0  0  0  0  0  0  0  0  0  0  0  0  # atno 6908 bound_to 6896
  150.9580  134.8991  159.7771 H   0  0  0  0  0  0  0  0  0  0  0  0  # atno 6909 bound_to 6896
  146.2082  140.3318  142.8400 H   0  0  0  0  0  0  0  0  0  0  0  0  # atno 7974 bound_to 7965
  154.4306  140.1085  156.5947 H   0  0  0  0  0  0  0  0  0  0  0  0  # atno 8008 bound_to 7997
  155.5975  140.3493  155.4565 H   0  0  0  0  0  0  0  0  0  0  0  0  # atno 8009 bound_to 7997
  156.0199  140.1237  157.0357 H   0  0  0  0  0  0  0  0  0  0  0  0  # atno 8010 bound_to 7997
  139.9161  143.6437  152.2564 H   0  0  0  0  0  0  0  0  0  0  0  0  # atno 10167 bound_to 10162
  156.3300  130.7580  151.1696 H   0  0  0  0  0  0  0  0  0  0  0  0  # atno 10718 bound_to 10713
  153.3310  135.4033  155.1495 H   0  0  0  0  0  0  0  0  0  0  0  0  # atno 10763 bound_to 10752
  154.8623  135.3610  154.5471 H   0  0  0  0  0  0  0  0  0  0  0  0  # atno 10764 bound_to 10752
  153.5909  135.7074  153.5483 H   0  0  0  0  0  0  0  0  0  0  0  0  # atno 10765 bound_to 10752
  140.6676  134.4282  157.5233 H   0  0  0  0  0  0  0  0  0  0  0  0  # atno 11005 bound_to 11000
  144.8847  140.7446  143.5964 LP  0  0  0  0  0  0  0  0  0  0  0  0  # atno 17320 bound_to 7965
  145.3239  139.1780  143.4573 LP  0  0  0  0  0  0  0  0  0  0  0  0  # atno 17321 bound_to 7965
  139.6901  144.7647  151.1454 LP  0  0  0  0  0  0  0  0  0  0  0  0  # atno 17342 bound_to 10162
  140.7674  143.5601  150.9108 LP  0  0  0  0  0  0  0  0  0  0  0  0  # atno 17343 bound_to 10162
  157.7428  131.0484  150.4993 LP  0  0  0  0  0  0  0  0  0  0  0  0  # atno 17370 bound_to 10713
  156.5158  130.4150  149.6277 LP  0  0  0  0  0  0  0  0  0  0  0  0  # atno 17371 bound_to 10713
  139.8992  134.8596  156.1970 LP  0  0  0  0  0  0  0  0  0  0  0  0  # atno 17394 bound_to 11000
  141.0417  133.6934  156.1610 LP  0  0  0  0  0  0  0  0  0  0  0  0  # atno 17395 bound_to 11000

$$$$
