AV-unprocessed.smi:74|AV-procd|sdf|763|dock1
  -GOLD-   2262017103D 1   1.00000     0.00000
 Structure written by MMmdl.
 58 62  0  0  0  0  0  0  0  0  1 V2000
  142.2628  145.1806  154.1930 O   0  0  0  0  0  0  0  0  0  0  0  0
  142.8344  145.1458  155.4848 C   0  0  0  0  0  0  0  0  0  0  0  0
  142.8995  143.7080  156.0257 C   0  0  0  0  0  0  0  0  0  0  0  0
  141.4656  143.1768  156.2264 C   0  0  0  0  0  0  0  0  0  0  0  0
  140.7348  143.9878  157.1241 O   0  0  0  0  0  0  0  0  0  0  0  0
  143.8556  142.7561  155.2718 C   0  0  0  0  0  0  0  0  0  0  0  0
  144.3251  142.1793  156.6090 C   0  0  0  0  0  0  0  0  0  0  0  0
  145.6712  141.7188  156.7835 N   0  0  0  0  0  0  0  0  0  0  0  0
  146.3370  141.5513  157.9766 C   0  0  0  0  0  0  0  0  0  0  0  0
  147.5468  141.0727  157.8762 N   0  0  0  0  0  0  0  0  0  0  0  0
  147.7185  140.8638  156.5126 C   0  0  0  0  0  0  0  0  0  0  0  0
  148.7801  140.3519  155.7132 C   0  0  0  0  0  0  0  0  0  0  0  0
  149.9706  139.9614  156.2364 N   0  0  0  0  0  0  0  0  0  0  0  0
  151.0580  139.6540  155.3101 C   0  0  0  0  0  0  0  0  0  0  0  0
  152.2146  138.9727  156.0590 C   0  0  0  0  0  0  0  0  0  0  0  0
  152.6396  139.7982  157.1386 O   0  0  0  0  0  0  0  0  0  0  0  0
  151.5980  140.0310  158.0836 C   0  0  1  0  0  0  0  0  0  0  0  0
  152.1674  140.8333  159.2618 C   0  0  0  0  0  0  0  0  0  0  0  0
  152.6139  142.1017  158.8100 O   0  0  0  0  0  0  0  0  0  0  0  0
  152.5270  143.1020  159.8091 C   0  0  0  0  0  0  0  0  0  0  0  0
  151.3802  144.0312  159.4741 C   0  0  0  0  0  0  0  0  0  0  0  0
  151.5835  145.2055  158.5437 C   0  0  0  0  0  0  0  0  0  0  0  0
  151.3600  145.4427  160.0154 C   0  0  0  0  0  0  0  0  0  0  0  0
  150.4089  140.7312  157.3963 C   0  0  0  0  0  0  0  0  0  0  0  0
  148.5628  140.2593  154.3734 N   0  0  0  0  0  0  0  0  0  0  0  0
  147.3973  140.6476  153.8482 C   0  0  0  0  0  0  0  0  0  0  0  0
  146.3296  141.1513  154.4693 N   0  0  0  0  0  0  0  0  0  0  0  0
  146.5372  141.2437  155.8140 C   0  0  0  0  0  0  0  0  0  0  0  0
  143.8516  143.4987  157.2239 C   0  0  0  0  0  0  0  0  0  0  0  0
  142.4233  146.0326  153.8169 H   0  0  0  0  0  0  0  0  0  0  0  0
  143.8212  145.6078  155.4488 H   0  0  0  0  0  0  0  0  0  0  0  0
  142.2269  145.7770  156.1340 H   0  0  0  0  0  0  0  0  0  0  0  0
  140.9189  143.1509  155.2836 H   0  0  0  0  0  0  0  0  0  0  0  0
  141.4681  142.1532  156.6015 H   0  0  0  0  0  0  0  0  0  0  0  0
  140.1304  144.5171  156.6268 H   0  0  0  0  0  0  0  0  0  0  0  0
  143.3691  142.0322  154.6172 H   0  0  0  0  0  0  0  0  0  0  0  0
  144.6537  143.2812  154.7435 H   0  0  0  0  0  0  0  0  0  0  0  0
  143.6821  141.3544  156.9200 H   0  0  0  0  0  0  0  0  0  0  0  0
  145.8975  141.8018  158.9313 H   0  0  0  0  0  0  0  0  0  0  0  0
  150.7007  138.9986  154.5147 H   0  0  0  0  0  0  0  0  0  0  0  0
  151.4103  140.5746  154.8423 H   0  0  0  0  0  0  0  0  0  0  0  0
  151.9124  137.9931  156.4328 H   0  0  0  0  0  0  0  0  0  0  0  0
  153.0549  138.8102  155.3840 H   0  0  0  0  0  0  0  0  0  0  0  0
  151.2672  139.0647  158.4688 H   0  0  0  0  0  0  0  0  0  0  0  0
  151.3943  140.9671  160.0204 H   0  0  0  0  0  0  0  0  0  0  0  0
  152.9882  140.2848  159.7265 H   0  0  0  0  0  0  0  0  0  0  0  0
  152.3423  142.6497  160.7844 H   0  0  0  0  0  0  0  0  0  0  0  0
  153.4581  143.6678  159.8705 H   0  0  0  0  0  0  0  0  0  0  0  0
  150.4132  143.5346  159.4202 H   0  0  0  0  0  0  0  0  0  0  0  0
  152.5849  145.3768  158.1536 H   0  0  0  0  0  0  0  0  0  0  0  0
  150.7705  145.4523  157.8639 H   0  0  0  0  0  0  0  0  0  0  0  0
  150.3979  145.8504  160.3187 H   0  0  0  0  0  0  0  0  0  0  0  0
  152.2130  145.7729  160.6051 H   0  0  0  0  0  0  0  0  0  0  0  0
  150.6977  141.7282  157.0606 H   0  0  0  0  0  0  0  0  0  0  0  0
  149.6023  140.8628  158.1163 H   0  0  0  0  0  0  0  0  0  0  0  0
  147.3093  140.5411  152.7770 H   0  0  0  0  0  0  0  0  0  0  0  0
  144.6451  144.2473  157.2697 H   0  0  0  0  0  0  0  0  0  0  0  0
  143.3569  143.3949  158.1900 H   0  0  0  0  0  0  0  0  0  0  0  0
  1  2  1  0  0  0  0
  1 30  1  0  0  0  0
  2  3  1  0  0  0  0
  2 31  1  0  0  0  0
  2 32  1  0  0  0  0
  3 29  1  0  0  0  0
  3  4  1  0  0  0  0
  3  6  1  0  0  0  0
  4  5  1  0  0  0  0
  4 33  1  0  0  0  0
  4 34  1  0  0  0  0
  5 35  1  0  0  0  0
  6  7  1  0  0  0  0
  6 36  1  0  0  0  0
  6 37  1  0  0  0  0
  7  8  1  0  0  0  0
  7 29  1  0  0  0  0
  7 38  1  0  0  0  0
  8 28  1  0  0  0  0
  8  9  1  0  0  0  0
  9 10  2  0  0  0  0
  9 39  1  0  0  0  0
 10 11  1  0  0  0  0
 11 28  2  0  0  0  0
 11 12  1  0  0  0  0
 12 13  1  0  0  0  0
 12 25  2  0  0  0  0
 13 24  1  0  0  0  0
 13 14  1  0  0  0  0
 14 15  1  0  0  0  0
 14 40  1  0  0  0  0
 14 41  1  0  0  0  0
 15 16  1  0  0  0  0
 15 42  1  0  0  0  0
 15 43  1  0  0  0  0
 16 17  1  0  0  0  0
 17 18  1  0  0  0  0
 17 24  1  0  0  0  0
 17 44  1  0  0  0  0
 18 19  1  0  0  0  0
 18 45  1  0  0  0  0
 18 46  1  0  0  0  0
 19 20  1  0  0  0  0
 20 21  1  0  0  0  0
 20 47  1  0  0  0  0
 20 48  1  0  0  0  0
 21 23  1  0  0  0  0
 21 22  1  0  0  0  0
 21 49  1  0  0  0  0
 22 23  1  0  0  0  0
 22 50  1  0  0  0  0
 22 51  1  0  0  0  0
 23 52  1  0  0  0  0
 23 53  1  0  0  0  0
 24 54  1  0  0  0  0
 24 55  1  0  0  0  0
 25 26  1  0  0  0  0
 26 27  2  0  0  0  0
 26 56  1  0  0  0  0
 27 28  1  0  0  0  0
 29 57  1  0  0  0  0
 29 58  1  0  0  0  0
M  END
> <s_m_source_file>
AV-unprocessed.smi

> <i_m_source_file_index>
74

> <i_lp_mmshare_version>
43012

> <i_f3d_flags>
0

> <s_epik_input>
W09IXVtDSDJdQzEoW0NIMl1bT0hdKVtDSDJdW0NIXShbQ0gyXTEpbihbY0hdbjIpYyhjMjMpbltjSF1uYzNONFtDSDJdW0NIMl1PW0NASF0oW0NIMl00KVtDSDJdT1tDSDJdW0NIXTVbQ0gyXVtDSDJdNQ==

> <s_epik_cmdline>
J2VwaWtfcHl0aG9uJywgJy1waCcsICc3LjAnLCAnLXRuJywgJzgnLCAnLW1hJywgJzIwMCcsICctbWV0YWxfYmluZGluZycsICctaW1hZScsICc8aW5maWxlLm1hZT4nLCAnLW9tYWUnLCAnPG91dGZpbGUubWFlPic=

> <r_lp_tautomer_probability>
1

> <r_epik_Ionization_Penalty>
5.89322e-05

> <r_epik_Ionization_Penalty_Charging>
0

> <r_epik_Ionization_Penalty_Neutral>
5.89322e-05

> <r_epik_State_Penalty>
-0

> <r_epik_Charging_Adjusted_Penalty>
0

> <i_epik_Tot_Q>
0

> <i_epik_Tot_abs_Q>
0

> <r_epik_Metal_State_Penalty>
-0

> <b_epik_Metal_Only>
0

> <s_lp_Force_Field>
OPLS_2005

> <r_lp_Energy>
49.0423

> <b_lp_Chiralities_Consistent>
1

> <s_lp_Variant>
AV-unprocessed.smi:74-1

> <Gold.Version>
5.8.1

> <Gold.Id.Protein>
6NUR|6NUR_protein|mol2

> <Gold.PLP.Fitness>
54.4884

> <Gold.PLP.PLP>
-50.6925

> <Gold.PLP.part.hbond>
-3.0000

> <Gold.PLP.part.metal>
0.0000

> <Gold.PLP.part.buried>
-6.9235

> <Gold.PLP.part.nonpolar>
-40.0631

> <Gold.PLP.part.repulsive>
0.4609

> <Gold.PLP.ligand.clash>
0.0000

> <Gold.PLP.ligand.torsion>
1.7991

> <Gold.PLP.Chemscore.Hbond>
1.0000

> <Gold.PLP.Chemscore.CHOScore>
0.8794

> <Gold.PLP.Chemscore.Metal>
0.0000

> <Gold.Chemscore.Hbonds>
donor molecule, donor type, donor heavy atom, donor atom, acceptor molecule, acceptor atom, score
      P1  H  7997  8008       L1    16  1.00
      L1  C    26    56       P1  7957  0.20

> <Gold.PLP.Chemscore.Internal.Correction>
1.7559

> <Gold.Rescore>
     Score         DG    S(hbond)    S(metal)    S(lipo)     H(rot)  DE(clash)    DE(int)     intcor
      6.97     -11.14       0.93        0.00     108.56       3.97       0.31       3.86       ----

> <Gold.Chemscore.Fitness>
6.9691

> <Gold.Chemscore.DG>
-11.1431

> <Gold.Chemscore.ZeroCoef>
-5.4800

> <Gold.Chemscore.Hbond>
0.9323

> <Gold.Chemscore.Metal>
0.0000

> <Gold.Chemscore.Lipo>
108.5649

> <Gold.Chemscore.Internal_Hbond>
0.0000

> <Gold.Chemscore.DEClash>
0.3150

> <Gold.Chemscore.DEInternal>
3.8590

> <Gold.Chemscore.Rot>
3.9660

> <Gold.Chemscore.Internal.Correction>
   9.000000E+99

> <Gold.Chemscore.Hbonds>
donor molecule, donor type, donor heavy atom, donor atom, acceptor molecule, acceptor atom, score
      P1  H  7997  8008       L1    16  0.30

> <Gold.Chemscore.Hbond.Weighted>
-3.1139

> <Gold.Chemscore.Metal.Weighted>
-0.0000

> <Gold.Chemscore.Lipo.Weighted>
-12.7021

> <Gold.Chemscore.Internal_Hbond.Weighted>
0.0000

> <Gold.Chemscore.DEClash.Weighted>
0.3150

> <Gold.Chemscore.DEInternal.Weighted>
3.8590

> <Gold.Chemscore.Rot.Weighted>
10.1529

> <Gold.Chemscore.Internal.Correction.Weighted>
   9.000000E+99

> <Gold.Protein.RotatedTorsions>
[ 6907 6896 6895 6894 ] final  -32.17 input  -60.11 | X-H torsion
[ 7974 7965 7964 7962 ] final -162.85 input  175.53 | X-H torsion
[ 8008 7997 7996 7995 ] final  -64.56 input   59.86 | X-H torsion
[ 10167 10162 10161 10158 ] final  -13.85 input  -65.29 | X-H torsion
[ 10718 10713 10712 10709 ] final -121.57 input   66.30 | X-H torsion
[ 10763 10752 10751 10750 ] final  -49.04 input  -60.55 | X-H torsion
[ 11005 11000 10999 10996 ] final   14.35 input  -57.11 | X-H torsion

> <Gold.Protein.ActiveResidues>
 VAL166  LYS551  ARG553  GLY616  TRP617  ASP618  TYR619  PRO620  LYS621  CYS622 
 ASP623  PHE694  ASN695  SER759  ASP760  ASP761  ALA762  ILE779  LEU786  VAL792 
 PHE793  MET794  SER795  GLU796  ALA797  LYS798  CYS799  TRP800  GLU811  SER814 

> <Gold.Protein.RotatedAtoms>
  151.0824  134.9866  159.8362 H   0  0  0  0  0  0  0  0  0  0  0  0  # atno 6907 bound_to 6896
  152.5421  134.2166  159.8781 H   0  0  0  0  0  0  0  0  0  0  0  0  # atno 6908 bound_to 6896
  151.2197  133.4466  159.2634 H   0  0  0  0  0  0  0  0  0  0  0  0  # atno 6909 bound_to 6896
  144.7344  140.3193  143.6174 H   0  0  0  0  0  0  0  0  0  0  0  0  # atno 7974 bound_to 7965
  154.4619  140.0951  156.6916 H   0  0  0  0  0  0  0  0  0  0  0  0  # atno 8008 bound_to 7997
  155.4970  140.3472  155.4346 H   0  0  0  0  0  0  0  0  0  0  0  0  # atno 8009 bound_to 7997
  156.0886  140.1391  156.9610 H   0  0  0  0  0  0  0  0  0  0  0  0  # atno 8010 bound_to 7997
  140.7190  143.5383  150.9438 H   0  0  0  0  0  0  0  0  0  0  0  0  # atno 10167 bound_to 10162
  156.1348  130.6422  150.9679 H   0  0  0  0  0  0  0  0  0  0  0  0  # atno 10718 bound_to 10713
  154.0876  135.6582  153.4847 H   0  0  0  0  0  0  0  0  0  0  0  0  # atno 10763 bound_to 10752
  153.0333  135.5195  154.7412 H   0  0  0  0  0  0  0  0  0  0  0  0  # atno 10764 bound_to 10752
  154.6526  135.3003  154.9936 H   0  0  0  0  0  0  0  0  0  0  0  0  # atno 10765 bound_to 10752
  140.4705  134.1035  155.7732 H   0  0  0  0  0  0  0  0  0  0  0  0  # atno 11005 bound_to 11000
  145.7585  139.1817  143.2280 LP  0  0  0  0  0  0  0  0  0  0  0  0  # atno 17320 bound_to 7965
  146.1005  140.7550  142.9551 LP  0  0  0  0  0  0  0  0  0  0  0  0  # atno 17321 bound_to 7965
  139.9105  143.6725  152.3116 LP  0  0  0  0  0  0  0  0  0  0  0  0  # atno 17342 bound_to 10162
  139.7107  144.7620  151.1117 LP  0  0  0  0  0  0  0  0  0  0  0  0  # atno 17343 bound_to 10162
  157.6522  131.0895  150.8026 LP  0  0  0  0  0  0  0  0  0  0  0  0  # atno 17370 bound_to 10713
  156.8107  130.4951  149.5356 LP  0  0  0  0  0  0  0  0  0  0  0  0  # atno 17371 bound_to 10713
  141.1579  133.8848  157.1928 LP  0  0  0  0  0  0  0  0  0  0  0  0  # atno 17394 bound_to 11000
  139.9888  135.0072  156.9926 LP  0  0  0  0  0  0  0  0  0  0  0  0  # atno 17395 bound_to 11000

$$$$
