AV-unprocessed.smi:2290|AV-procd|sdf|9210|dock2
  -GOLD-   2272012423D 1   1.00000     0.00000
 Structure written by MMmdl.
 38 39  0  0  0  0  0  0  0  0  1 V2000
  155.4975  134.5898  165.6246 C   0  0  0  0  0  0  0  0  0  0  0  0
  154.9888  135.4801  164.5047 C   0  0  0  0  0  0  0  0  0  0  0  0
  154.7757  136.8187  164.8469 N   0  0  0  0  0  0  0  0  0  0  0  0
  154.3437  137.6509  163.9568 C   0  0  0  0  0  0  0  0  0  0  0  0
  154.0782  137.2483  162.6379 N   0  0  0  0  0  0  0  0  0  0  0  0
  153.5991  138.2953  161.7207 C   0  0  0  0  0  0  0  0  0  0  0  0
  154.7118  138.7952  160.7721 C   0  0  2  0  0  0  0  0  0  0  0  0
  155.7274  139.4550  161.5013 O   0  0  0  0  0  0  0  0  0  0  0  0
  154.1932  139.7689  159.7011 C   0  0  0  0  0  0  0  0  0  0  0  0
  153.3358  140.7371  160.2943 O   0  0  0  0  0  0  0  0  0  0  0  0
  153.9989  141.9264  160.7011 C   0  0  0  0  0  0  0  0  0  0  0  0
  153.3124  143.1023  160.0767 C   0  0  0  0  0  0  0  0  0  0  0  0
  153.1585  143.3576  158.7377 C   0  0  0  0  0  0  0  0  0  0  0  0
  152.4661  144.5758  158.4729 C   0  0  0  0  0  0  0  0  0  0  0  0
  152.1069  145.2414  159.6143 C   0  0  0  0  0  0  0  0  0  0  0  0
  152.6177  144.3839  161.0422 S   0  0  0  0  0  0  0  0  0  0  0  0
  154.2637  135.9630  162.2186 C   0  0  0  0  0  0  0  0  0  0  0  0
  154.0387  135.6236  161.0551 O   0  0  0  0  0  0  0  0  0  0  0  0
  154.7518  135.0262  163.2435 C   0  0  0  0  0  0  0  0  0  0  0  0
  154.9659  133.5804  162.8130 C   0  0  0  0  0  0  0  0  0  0  0  0
  154.7983  133.7748  165.8137 H   0  0  0  0  0  0  0  0  0  0  0  0
  155.6172  135.1494  166.5533 H   0  0  0  0  0  0  0  0  0  0  0  0
  156.4673  134.1651  165.3638 H   0  0  0  0  0  0  0  0  0  0  0  0
  154.1649  138.7060  164.1711 H   0  0  0  0  0  0  0  0  0  0  0  0
  152.7808  137.8821  161.1282 H   0  0  0  0  0  0  0  0  0  0  0  0
  153.1453  139.1336  162.2535 H   0  0  0  0  0  0  0  0  0  0  0  0
  155.1774  137.9544  160.2567 H   0  0  0  0  0  0  0  0  0  0  0  0
  155.3774  140.2647  161.8399 H   0  0  0  0  0  0  0  0  0  0  0  0
  155.0212  140.2532  159.1808 H   0  0  0  0  0  0  0  0  0  0  0  0
  153.6388  139.2000  158.9535 H   0  0  0  0  0  0  0  0  0  0  0  0
  153.9323  142.0041  161.7862 H   0  0  0  0  0  0  0  0  0  0  0  0
  155.0596  141.8981  160.4465 H   0  0  0  0  0  0  0  0  0  0  0  0
  153.5135  142.7158  157.9451 H   0  0  0  0  0  0  0  0  0  0  0  0
  152.2608  144.9171  157.4691 H   0  0  0  0  0  0  0  0  0  0  0  0
  151.5799  146.1800  159.7036 H   0  0  0  0  0  0  0  0  0  0  0  0
  155.6995  133.5331  162.0075 H   0  0  0  0  0  0  0  0  0  0  0  0
  154.0312  133.1559  162.4449 H   0  0  0  0  0  0  0  0  0  0  0  0
  155.3218  132.9398  163.6183 H   0  0  0  0  0  0  0  0  0  0  0  0
  1  2  1  0  0  0  0
  1 21  1  0  0  0  0
  1 22  1  0  0  0  0
  1 23  1  0  0  0  0
  2 19  2  0  0  0  0
  2  3  1  0  0  0  0
  3  4  2  0  0  0  0
  4  5  1  0  0  0  0
  4 24  1  0  0  0  0
  5  6  1  0  0  0  0
  5 17  1  0  0  0  0
  6  7  1  0  0  0  0
  6 25  1  0  0  0  0
  6 26  1  0  0  0  0
  7  8  1  0  0  0  0
  7  9  1  0  0  0  0
  7 27  1  0  0  0  0
  8 28  1  0  0  0  0
  9 10  1  0  0  0  0
  9 29  1  0  0  0  0
  9 30  1  0  0  0  0
 10 11  1  0  0  0  0
 11 12  1  0  0  0  0
 11 31  1  0  0  0  0
 11 32  1  0  0  0  0
 12 16  1  0  0  0  0
 12 13  2  0  0  0  0
 13 14  1  0  0  0  0
 13 33  1  0  0  0  0
 14 15  2  0  0  0  0
 14 34  1  0  0  0  0
 15 16  1  0  0  0  0
 15 35  1  0  0  0  0
 17 18  2  0  0  0  0
 17 19  1  0  0  0  0
 19 20  1  0  0  0  0
 20 36  1  0  0  0  0
 20 37  1  0  0  0  0
 20 38  1  0  0  0  0
M  END
> <s_m_source_file>
AV-unprocessed.smi

> <i_m_source_file_index>
2290

> <i_lp_mmshare_version>
43012

> <i_f3d_flags>
0

> <s_epik_input>
W0NIM11jMW5bY0hdbihjKD1PKWMxW0NIM10pW0NIMl1bQ0BIXShbT0hdKVtDSDJdT1tDSDJdYzJbY0hdW2NIXVtjSF1zMg==

> <s_epik_cmdline>
J2VwaWtfcHl0aG9uJywgJy1waCcsICc3LjAnLCAnLXRuJywgJzgnLCAnLW1hJywgJzIwMCcsICctbWV0YWxfYmluZGluZycsICctaW1hZScsICc8aW5maWxlLm1hZT4nLCAnLW9tYWUnLCAnPG91dGZpbGUubWFlPic=

> <r_lp_tautomer_probability>
1

> <r_epik_Ionization_Penalty>
4.77825e-05

> <r_epik_Ionization_Penalty_Charging>
1.20754e-07

> <r_epik_Ionization_Penalty_Neutral>
4.76618e-05

> <r_epik_State_Penalty>
-0

> <r_epik_Charging_Adjusted_Penalty>
1.20754e-07

> <i_epik_Tot_Q>
0

> <i_epik_Tot_abs_Q>
0

> <r_epik_Metal_State_Penalty>
-0

> <b_epik_Metal_Only>
0

> <s_lp_Force_Field>
OPLS_2005

> <r_lp_Energy>
18.6865

> <b_lp_Chiralities_Consistent>
1

> <s_lp_Variant>
AV-unprocessed.smi:2290-1

> <Gold.Version>
5.8.1

> <Gold.Id.Protein>
6NUR|6NUR_protein|mol2

> <Gold.PLP.Fitness>
46.7012

> <Gold.PLP.PLP>
-45.5141

> <Gold.PLP.part.hbond>
-1.0000

> <Gold.PLP.part.metal>
0.0000

> <Gold.PLP.part.buried>
-5.6812

> <Gold.PLP.part.nonpolar>
-39.4421

> <Gold.PLP.part.repulsive>
0.0815

> <Gold.PLP.ligand.clash>
0.0000

> <Gold.PLP.ligand.torsion>
0.9411

> <Gold.PLP.Chemscore.Hbond>
1.0000

> <Gold.PLP.Chemscore.CHOScore>
0.0000

> <Gold.PLP.Chemscore.Metal>
0.0000

> <Gold.Chemscore.Hbonds>
donor molecule, donor type, donor heavy atom, donor atom, acceptor molecule, acceptor atom, score
      P1  H  6896  6908       L1    18  0.80

> <Gold.PLP.Chemscore.Internal.Correction>
0.0694

> <Gold.Rescore>
     Score         DG    S(hbond)    S(metal)    S(lipo)     H(rot)  DE(clash)    DE(int)     intcor
     14.75     -15.76       0.98        0.00     115.60       2.55       0.05       0.97       ----

> <Gold.Chemscore.Fitness>
14.7471

> <Gold.Chemscore.DG>
-15.7640

> <Gold.Chemscore.ZeroCoef>
-5.4800

> <Gold.Chemscore.Hbond>
0.9847

> <Gold.Chemscore.Metal>
0.0000

> <Gold.Chemscore.Lipo>
115.5986

> <Gold.Chemscore.Internal_Hbond>
0.0000

> <Gold.Chemscore.DEClash>
0.0502

> <Gold.Chemscore.DEInternal>
0.9666

> <Gold.Chemscore.Rot>
2.5507

> <Gold.Chemscore.Internal.Correction>
   9.000000E+99

> <Gold.Chemscore.Hbonds>
donor molecule, donor type, donor heavy atom, donor atom, acceptor molecule, acceptor atom, score
      P1  H  6896  6908       L1    18  0.77

> <Gold.Chemscore.Hbond.Weighted>
-3.2888

> <Gold.Chemscore.Metal.Weighted>
-0.0000

> <Gold.Chemscore.Lipo.Weighted>
-13.5250

> <Gold.Chemscore.Internal_Hbond.Weighted>
0.0000

> <Gold.Chemscore.DEClash.Weighted>
0.0502

> <Gold.Chemscore.DEInternal.Weighted>
0.9666

> <Gold.Chemscore.Rot.Weighted>
6.5298

> <Gold.Chemscore.Internal.Correction.Weighted>
   9.000000E+99

> <Gold.Protein.RotatedTorsions>
[ 6907 6896 6895 6894 ] final  -61.41 input  -60.11 | X-H torsion
[ 7974 7965 7964 7962 ] final -166.73 input  175.53 | X-H torsion
[ 8008 7997 7996 7995 ] final    4.54 input   59.86 | X-H torsion
[ 10167 10162 10161 10158 ] final  141.10 input  -65.29 | X-H torsion
[ 10718 10713 10712 10709 ] final   56.24 input   66.30 | X-H torsion
[ 10763 10752 10751 10750 ] final  132.87 input  -60.55 | X-H torsion
[ 11005 11000 10999 10996 ] final   88.00 input  -57.11 | X-H torsion

> <Gold.Protein.ActiveResidues>
 VAL166  LYS551  ARG553  GLY616  TRP617  ASP618  TYR619  PRO620  LYS621  CYS622 
 ASP623  PHE694  ASN695  SER759  ASP760  ASP761  ALA762  ILE779  LEU786  VAL792 
 PHE793  MET794  SER795  GLU796  ALA797  LYS798  CYS799  TRP800  GLU811  SER814 

> <Gold.Protein.RotatedAtoms>
  150.7787  134.6709  159.6390 H   0  0  0  0  0  0  0  0  0  0  0  0  # atno 6907 bound_to 6896
  152.3865  134.6506  160.0133 H   0  0  0  0  0  0  0  0  0  0  0  0  # atno 6908 bound_to 6896
  151.6820  133.3275  159.3258 H   0  0  0  0  0  0  0  0  0  0  0  0  # atno 6909 bound_to 6896
  144.7238  140.2623  143.6263 H   0  0  0  0  0  0  0  0  0  0  0  0  # atno 7974 bound_to 7965
  154.7172  140.2704  155.6574 H   0  0  0  0  0  0  0  0  0  0  0  0  # atno 8008 bound_to 7997
  156.2813  140.2741  156.1757 H   0  0  0  0  0  0  0  0  0  0  0  0  # atno 8009 bound_to 7997
  155.0555  140.0371  157.2548 H   0  0  0  0  0  0  0  0  0  0  0  0  # atno 8010 bound_to 7997
  139.5030  144.6193  151.6090 H   0  0  0  0  0  0  0  0  0  0  0  0  # atno 10167 bound_to 10162
  157.5414  130.8700  149.8827 H   0  0  0  0  0  0  0  0  0  0  0  0  # atno 10718 bound_to 10713
  153.7979  135.3146  155.3386 H   0  0  0  0  0  0  0  0  0  0  0  0  # atno 10763 bound_to 10752
  154.8100  135.4673  154.0495 H   0  0  0  0  0  0  0  0  0  0  0  0  # atno 10764 bound_to 10752
  153.1834  135.6897  153.8535 H   0  0  0  0  0  0  0  0  0  0  0  0  # atno 10765 bound_to 10752
  139.8906  134.8459  156.2939 H   0  0  0  0  0  0  0  0  0  0  0  0  # atno 11005 bound_to 11000
  145.8124  139.2009  143.1985 LP  0  0  0  0  0  0  0  0  0  0  0  0  # atno 17320 bound_to 7965
  146.0584  140.7996  142.9747 LP  0  0  0  0  0  0  0  0  0  0  0  0  # atno 17321 bound_to 7965
  140.5890  143.9813  150.6313 LP  0  0  0  0  0  0  0  0  0  0  0  0  # atno 17342 bound_to 10162
  140.2987  143.3275  152.0992 LP  0  0  0  0  0  0  0  0  0  0  0  0  # atno 17343 bound_to 10162
  156.0500  130.3719  150.1225 LP  0  0  0  0  0  0  0  0  0  0  0  0  # atno 17370 bound_to 10713
  156.9404  130.9743  151.3517 LP  0  0  0  0  0  0  0  0  0  0  0  0  # atno 17371 bound_to 10713
  140.9958  133.7181  156.0884 LP  0  0  0  0  0  0  0  0  0  0  0  0  # atno 17394 bound_to 11000
  140.7564  134.3988  157.5533 LP  0  0  0  0  0  0  0  0  0  0  0  0  # atno 17395 bound_to 11000

$$$$
