AV-unprocessed.smi:930|AV-procd|sdf|4197|dock10
  -GOLD-   22720 2103D 1   1.00000     0.00000
 Structure written by MMmdl.
 31 32  0  0  0  0  0  0  0  0  2 V2000
  146.7802  142.2146  154.2574 C   0  0  0  0  0  0  0  0  0  0  0  0
  147.9820  141.4225  154.6427 C   0  0  0  0  0  0  0  0  0  0  0  0
  149.0940  141.3922  153.9046 N   0  0  0  0  0  0  0  0  0  0  0  0
  150.0748  140.5897  154.4697 N   0  0  0  0  0  0  0  0  0  0  0  0
  149.6958  140.0332  155.6288 C   0  0  0  0  0  0  0  0  0  0  0  0
  150.4999  139.2199  156.3334 N   0  5  0  0  0  0  0  0  0  0  0  0
  151.5909  139.7213  156.9563 C   0  0  0  0  0  0  0  0  0  0  0  0
  152.7503  139.3190  156.8345 O   0  0  0  0  0  0  0  0  0  0  0  0
  151.3213  140.7529  157.7698 N   0  0  0  0  0  0  0  0  0  0  0  0
  152.2928  141.4995  158.5654 C   0  0  0  0  0  0  0  0  0  0  0  0
  152.8708  140.6155  159.6904 C   0  0  0  0  0  0  0  0  0  0  0  0
  153.8377  141.4070  160.5859 C   0  0  0  0  0  0  0  0  0  0  0  0
  153.1648  142.6624  161.1628 C   0  0  0  0  0  0  0  0  0  0  0  0
  152.5927  143.5474  160.0445 C   0  0  0  0  0  0  0  0  0  0  0  0
  151.6234  142.7577  159.1497 C   0  0  0  0  0  0  0  0  0  0  0  0
  148.0513  140.4555  156.1062 S   0  0  0  0  0  0  0  0  0  0  0  0
  146.9259  143.2628  154.5189 H   0  0  0  0  0  0  0  0  0  0  0  0
  145.8985  141.8423  154.7789 H   0  0  0  0  0  0  0  0  0  0  0  0
  146.6066  142.1403  153.1835 H   0  0  0  0  0  0  0  0  0  0  0  0
  150.3572  141.0436  157.8405 H   0  0  0  0  0  0  0  0  0  0  0  0
  153.1089  141.8237  157.9170 H   0  0  0  0  0  0  0  0  0  0  0  0
  152.0587  140.2154  160.2992 H   0  0  0  0  0  0  0  0  0  0  0  0
  153.3896  139.7553  159.2658 H   0  0  0  0  0  0  0  0  0  0  0  0
  154.1973  140.7721  161.3961 H   0  0  0  0  0  0  0  0  0  0  0  0
  154.7154  141.6962  160.0067 H   0  0  0  0  0  0  0  0  0  0  0  0
  152.3639  142.3681  161.8422 H   0  0  0  0  0  0  0  0  0  0  0  0
  153.8819  143.2296  161.7565 H   0  0  0  0  0  0  0  0  0  0  0  0
  152.0820  144.4087  160.4760 H   0  0  0  0  0  0  0  0  0  0  0  0
  153.4085  143.9430  159.4383 H   0  0  0  0  0  0  0  0  0  0  0  0
  151.2645  143.3983  158.3434 H   0  0  0  0  0  0  0  0  0  0  0  0
  150.7458  142.4731  159.7321 H   0  0  0  0  0  0  0  0  0  0  0  0
  1  2  1  0  0  0  0
  1 17  1  0  0  0  0
  1 18  1  0  0  0  0
  1 19  1  0  0  0  0
  2 16  1  0  0  0  0
  2  3  2  0  0  0  0
  3  4  1  0  0  0  0
  4  5  2  0  0  0  0
  5  6  1  0  0  0  0
  5 16  1  0  0  0  0
  6  7  1  0  0  0  0
  7  8  2  0  0  0  0
  7  9  1  0  0  0  0
  9 10  1  0  0  0  0
  9 20  1  0  0  0  0
 10 15  1  0  0  0  0
 10 11  1  0  0  0  0
 10 21  1  0  0  0  0
 11 12  1  0  0  0  0
 11 22  1  0  0  0  0
 11 23  1  0  0  0  0
 12 13  1  0  0  0  0
 12 24  1  0  0  0  0
 12 25  1  0  0  0  0
 13 14  1  0  0  0  0
 13 26  1  0  0  0  0
 13 27  1  0  0  0  0
 14 15  1  0  0  0  0
 14 28  1  0  0  0  0
 14 29  1  0  0  0  0
 15 30  1  0  0  0  0
 15 31  1  0  0  0  0
M  CHG  1   6  -1
M  END
> <s_m_source_file>
AV-unprocessed.smi

> <i_m_source_file_index>
930

> <i_lp_mmshare_version>
43012

> <i_f3d_flags>
0

> <s_epik_input>
W0NIM11jMW5uYyhzMSlbTkhdQyg9TylbTkhdW0NIXTJbQ0gyXVtDSDJdW0NIMl1bQ0gyXVtDSDJdMg==

> <s_epik_cmdline>
J2VwaWtfcHl0aG9uJywgJy1waCcsICc3LjAnLCAnLXRuJywgJzgnLCAnLW1hJywgJzIwMCcsICctbWV0YWxfYmluZGluZycsICctaW1hZScsICc8aW5maWxlLm1hZT4nLCAnLW9tYWUnLCAnPG91dGZpbGUubWFlPic=

> <r_lp_tautomer_probability>
1

> <r_epik_Ionization_Penalty>
4.57239

> <r_epik_Ionization_Penalty_Charging>
4.41779

> <r_epik_Ionization_Penalty_Neutral>
0.154599

> <r_epik_State_Penalty>
4.41745

> <r_epik_Charging_Adjusted_Penalty>
8.83524

> <i_epik_Tot_Q>
-1

> <i_epik_Tot_abs_Q>
1

> <r_epik_Metal_State_Penalty>
0.779681

> <b_epik_Metal_Only>
1

> <s_lp_Force_Field>
OPLS_2005

> <r_lp_Energy>
6.76033

> <b_lp_Chiralities_Consistent>
1

> <s_lp_Variant>
AV-unprocessed.smi:930-2

> <Gold.Version>
5.8.1

> <Gold.Id.Protein>
6NUR|6NUR_protein|mol2

> <Gold.PLP.Fitness>
37.7247

> <Gold.PLP.PLP>
-32.3782

> <Gold.PLP.part.hbond>
-4.0000

> <Gold.PLP.part.metal>
0.0000

> <Gold.PLP.part.buried>
-5.1866

> <Gold.PLP.part.nonpolar>
-24.3030

> <Gold.PLP.part.repulsive>
1.1720

> <Gold.PLP.ligand.clash>
0.0000

> <Gold.PLP.ligand.torsion>
1.2294

> <Gold.PLP.Chemscore.Hbond>
2.6000

> <Gold.PLP.Chemscore.CHOScore>
0.0000

> <Gold.PLP.Chemscore.Metal>
0.0000

> <Gold.Chemscore.Hbonds>
donor molecule, donor type, donor heavy atom, donor atom, acceptor molecule, acceptor atom, score
      P1  H  7989  7998       L1     4  0.83
      P1  H  7997  8010       L1     8  1.00
      P1  H  8011  8017       L1     3  0.77

> <Gold.PLP.Chemscore.Internal.Correction>
0.0053

> <Gold.Rescore>
     Score         DG    S(hbond)    S(metal)    S(lipo)     H(rot)  DE(clash)    DE(int)     intcor
     17.40     -18.81       2.16        0.00      74.15       1.00       0.22       1.19       ----

> <Gold.Chemscore.Fitness>
17.4011

> <Gold.Chemscore.DG>
-18.8132

> <Gold.Chemscore.ZeroCoef>
-5.4800

> <Gold.Chemscore.Hbond>
2.1609

> <Gold.Chemscore.Metal>
0.0000

> <Gold.Chemscore.Lipo>
74.1533

> <Gold.Chemscore.Internal_Hbond>
0.0000

> <Gold.Chemscore.DEClash>
0.2212

> <Gold.Chemscore.DEInternal>
1.1909

> <Gold.Chemscore.Rot>
1.0000

> <Gold.Chemscore.Internal.Correction>
   9.000000E+99

> <Gold.Chemscore.Hbonds>
donor molecule, donor type, donor heavy atom, donor atom, acceptor molecule, acceptor atom, score
      P1  H  7989  7998       L1     4  0.46
      P1  H  7997  8010       L1     8  1.00
      P1  H  8011  8017       L1     3  0.60

> <Gold.Chemscore.Hbond.Weighted>
-7.2173

> <Gold.Chemscore.Metal.Weighted>
-0.0000

> <Gold.Chemscore.Lipo.Weighted>
-8.6759

> <Gold.Chemscore.Internal_Hbond.Weighted>
0.0000

> <Gold.Chemscore.DEClash.Weighted>
0.2212

> <Gold.Chemscore.DEInternal.Weighted>
1.1909

> <Gold.Chemscore.Rot.Weighted>
2.5600

> <Gold.Chemscore.Internal.Correction.Weighted>
   9.000000E+99

> <Gold.Protein.RotatedTorsions>
[ 6907 6896 6895 6894 ] final  -36.57 input  -60.11 | X-H torsion
[ 7974 7965 7964 7962 ] final -149.23 input  175.53 | X-H torsion
[ 8008 7997 7996 7995 ] final   70.54 input   59.86 | X-H torsion
[ 10167 10162 10161 10158 ] final  -11.51 input  -65.29 | X-H torsion
[ 10718 10713 10712 10709 ] final -111.73 input   66.30 | X-H torsion
[ 10763 10752 10751 10750 ] final   11.41 input  -60.55 | X-H torsion
[ 11005 11000 10999 10996 ] final   31.31 input  -57.11 | X-H torsion

> <Gold.Protein.ActiveResidues>
 VAL166  LYS551  ARG553  GLY616  TRP617  ASP618  TYR619  PRO620  LYS621  CYS622 
 ASP623  PHE694  ASN695  SER759  ASP760  ASP761  ALA762  ILE779  LEU786  VAL792 
 PHE793  MET794  SER795  GLU796  ALA797  LYS798  CYS799  TRP800  GLU811  SER814 

> <Gold.Protein.RotatedAtoms>
  151.0256  134.9501  159.8082 H   0  0  0  0  0  0  0  0  0  0  0  0  # atno 6907 bound_to 6896
  152.5334  134.2847  159.9030 H   0  0  0  0  0  0  0  0  0  0  0  0  # atno 6908 bound_to 6896
  151.2855  133.4147  159.2664 H   0  0  0  0  0  0  0  0  0  0  0  0  # atno 6909 bound_to 6896
  144.7980  140.5091  143.5727 H   0  0  0  0  0  0  0  0  0  0  0  0  # atno 7974 bound_to 7965
  155.7403  140.3490  155.5101 H   0  0  0  0  0  0  0  0  0  0  0  0  # atno 8008 bound_to 7997
  155.9100  140.1049  157.1308 H   0  0  0  0  0  0  0  0  0  0  0  0  # atno 8009 bound_to 7997
  154.4054  140.1269  156.4532 H   0  0  0  0  0  0  0  0  0  0  0  0  # atno 8010 bound_to 7997
  140.7140  143.5632  150.9173 H   0  0  0  0  0  0  0  0  0  0  0  0  # atno 10167 bound_to 10162
  156.0664  130.5883  150.8413 H   0  0  0  0  0  0  0  0  0  0  0  0  # atno 10718 bound_to 10713
  153.1929  135.6845  153.8329 H   0  0  0  0  0  0  0  0  0  0  0  0  # atno 10763 bound_to 10752
  153.7622  135.3208  155.3340 H   0  0  0  0  0  0  0  0  0  0  0  0  # atno 10764 bound_to 10752
  154.8128  135.4706  154.0661 H   0  0  0  0  0  0  0  0  0  0  0  0  # atno 10765 bound_to 10752
  140.2852  134.2927  155.7790 H   0  0  0  0  0  0  0  0  0  0  0  0  # atno 11005 bound_to 11000
  145.5625  139.1480  143.3333 LP  0  0  0  0  0  0  0  0  0  0  0  0  # atno 17320 bound_to 7965
  146.2253  140.5760  142.8999 LP  0  0  0  0  0  0  0  0  0  0  0  0  # atno 17321 bound_to 7965
  139.9358  143.6440  152.3066 LP  0  0  0  0  0  0  0  0  0  0  0  0  # atno 17342 bound_to 10162
  139.6907  144.7647  151.1444 LP  0  0  0  0  0  0  0  0  0  0  0  0  # atno 17343 bound_to 10162
  157.5708  131.0946  150.9420 LP  0  0  0  0  0  0  0  0  0  0  0  0  # atno 17370 bound_to 10713
  156.9637  130.5465  149.5287 LP  0  0  0  0  0  0  0  0  0  0  0  0  # atno 17371 bound_to 10713
  141.2156  133.7550  156.9541 LP  0  0  0  0  0  0  0  0  0  0  0  0  # atno 17394 bound_to 11000
  140.1246  134.9395  157.2252 LP  0  0  0  0  0  0  0  0  0  0  0  0  # atno 17395 bound_to 11000

$$$$
