AV-unprocessed.smi:148|AV-procd|sdf|1227|dock7
  -GOLD-   2262018423D 1   1.00000     0.00000
 Structure written by MMmdl.
 63 67  0  0  0  0  0  0  0  0  1 V2000
  149.8496  140.1955  153.8740 O   0  0  0  0  0  0  0  0  0  0  0  0
  149.7623  138.9801  154.5884 C   0  0  0  0  0  0  0  0  0  0  0  0
  149.1802  139.2147  156.0024 C   0  0  1  0  0  0  0  0  0  0  0  0
  148.8841  137.8598  156.6937 C   0  0  0  0  0  0  0  0  0  0  0  0
  148.0916  136.9570  155.8771 N   0  0  0  0  0  0  0  0  0  0  0  0
  148.0470  135.5845  155.9792 C   0  0  0  0  0  0  0  0  0  0  0  0
  147.2536  134.9881  155.1312 N   0  0  0  0  0  0  0  0  0  0  0  0
  146.7090  136.0307  154.3933 C   0  0  0  0  0  0  0  0  0  0  0  0
  145.7763  136.1012  153.3264 C   0  0  0  0  0  0  0  0  0  0  0  0
  145.2107  134.9938  152.7989 N   0  0  0  0  0  0  0  0  0  0  0  0
  146.1156  134.4055  151.8085 C   0  0  0  0  0  0  0  0  0  0  0  0
  145.6547  133.0068  151.3897 C   0  0  0  0  0  0  0  0  0  0  0  0
  144.2195  133.0716  150.8670 C   0  0  0  0  0  0  0  0  0  0  0  0
  143.3062  133.6907  151.9326 C   0  0  0  0  0  0  0  0  0  0  0  0
  143.7889  135.0893  152.4060 C   0  0  1  0  0  0  0  0  0  0  0  0
  142.8539  135.6273  153.5465 C   0  0  2  0  0  0  0  0  0  0  0  0
  141.3467  135.4151  153.3104 C   0  0  0  0  0  0  0  0  0  0  0  0
  140.6206  136.3513  154.2822 C   0  0  0  0  0  0  0  0  0  0  0  0
  141.6476  137.4076  154.7041 C   0  0  0  0  0  0  0  0  0  0  0  0
  142.9062  137.1386  153.8711 C   0  0  2  0  0  0  0  0  0  0  0  0
  142.8481  137.9202  152.6922 O   0  0  0  0  0  0  0  0  0  0  0  0
  145.4652  137.3276  152.8285 N   0  0  0  0  0  0  0  0  0  0  0  0
  146.0245  138.4207  153.3566 C   0  0  0  0  0  0  0  0  0  0  0  0
  146.9014  138.5085  154.3595 N   0  0  0  0  0  0  0  0  0  0  0  0
  147.2201  137.2765  154.8509 C   0  0  0  0  0  0  0  0  0  0  0  0
  150.0474  140.1517  156.8914 C   0  0  1  0  0  0  0  0  0  0  0  0
  149.3146  140.9479  157.9552 C   0  0  0  0  0  0  0  0  0  0  0  0
  150.4737  141.4334  158.8190 C   0  0  0  0  0  0  0  0  0  0  0  0
  151.4536  140.3999  158.7670 O   0  0  0  0  0  0  0  0  0  0  0  0
  151.1481  139.4821  157.7199 C   0  0  0  0  0  0  0  0  0  0  0  0
  149.4250  140.0847  153.0370 H   0  0  0  0  0  0  0  0  0  0  0  0
  149.1478  138.2814  154.0205 H   0  0  0  0  0  0  0  0  0  0  0  0
  150.7661  138.5621  154.6281 H   0  0  0  0  0  0  0  0  0  0  0  0
  148.2245  139.7251  155.8727 H   0  0  0  0  0  0  0  0  0  0  0  0
  149.8121  137.3438  156.9410 H   0  0  0  0  0  0  0  0  0  0  0  0
  148.3661  138.0245  157.6392 H   0  0  0  0  0  0  0  0  0  0  0  0
  148.6283  135.0363  156.7065 H   0  0  0  0  0  0  0  0  0  0  0  0
  146.1656  135.0509  150.9301 H   0  0  0  0  0  0  0  0  0  0  0  0
  147.1262  134.3445  152.2160 H   0  0  0  0  0  0  0  0  0  0  0  0
  146.3184  132.6057  150.6234 H   0  0  0  0  0  0  0  0  0  0  0  0
  145.7107  132.3275  152.2414 H   0  0  0  0  0  0  0  0  0  0  0  0
  144.1823  133.6686  149.9549 H   0  0  0  0  0  0  0  0  0  0  0  0
  143.8695  132.0730  150.6037 H   0  0  0  0  0  0  0  0  0  0  0  0
  142.3017  133.7476  151.5147 H   0  0  0  0  0  0  0  0  0  0  0  0
  143.2480  133.0161  152.7882 H   0  0  0  0  0  0  0  0  0  0  0  0
  143.7254  135.7593  151.5477 H   0  0  0  0  0  0  0  0  0  0  0  0
  143.1032  135.0857  154.4611 H   0  0  0  0  0  0  0  0  0  0  0  0
  141.0902  135.6958  152.2878 H   0  0  0  0  0  0  0  0  0  0  0  0
  141.0409  134.3783  153.4539 H   0  0  0  0  0  0  0  0  0  0  0  0
  139.7493  136.8045  153.8086 H   0  0  0  0  0  0  0  0  0  0  0  0
  140.2686  135.8020  155.1560 H   0  0  0  0  0  0  0  0  0  0  0  0
  141.2726  138.4253  154.5859 H   0  0  0  0  0  0  0  0  0  0  0  0
  141.8800  137.2745  155.7614 H   0  0  0  0  0  0  0  0  0  0  0  0
  143.7891  137.4266  154.4383 H   0  0  0  0  0  0  0  0  0  0  0  0
  143.2463  138.7589  152.8702 H   0  0  0  0  0  0  0  0  0  0  0  0
  145.7245  139.3591  152.9141 H   0  0  0  0  0  0  0  0  0  0  0  0
  150.5614  140.8666  156.2478 H   0  0  0  0  0  0  0  0  0  0  0  0
  148.7208  141.7671  157.5505 H   0  0  0  0  0  0  0  0  0  0  0  0
  148.6593  140.3099  158.5480 H   0  0  0  0  0  0  0  0  0  0  0  0
  150.9055  142.3419  158.3970 H   0  0  0  0  0  0  0  0  0  0  0  0
  150.1706  141.6470  159.8440 H   0  0  0  0  0  0  0  0  0  0  0  0
  150.8145  138.5548  158.1818 H   0  0  0  0  0  0  0  0  0  0  0  0
  152.0327  139.2568  157.1240 H   0  0  0  0  0  0  0  0  0  0  0  0
  1  2  1  0  0  0  0
  1 31  1  0  0  0  0
  2  3  1  0  0  0  0
  2 32  1  0  0  0  0
  2 33  1  0  0  0  0
  3  4  1  0  0  0  0
  3 26  1  0  0  0  0
  3 34  1  0  0  0  0
  4  5  1  0  0  0  0
  4 35  1  0  0  0  0
  4 36  1  0  0  0  0
  5 25  1  0  0  0  0
  5  6  1  0  0  0  0
  6  7  2  0  0  0  0
  6 37  1  0  0  0  0
  7  8  1  0  0  0  0
  8 25  2  0  0  0  0
  8  9  1  0  0  0  0
  9 10  1  0  0  0  0
  9 22  2  0  0  0  0
 10 15  1  0  0  0  0
 10 11  1  0  0  0  0
 11 12  1  0  0  0  0
 11 38  1  0  0  0  0
 11 39  1  0  0  0  0
 12 13  1  0  0  0  0
 12 40  1  0  0  0  0
 12 41  1  0  0  0  0
 13 14  1  0  0  0  0
 13 42  1  0  0  0  0
 13 43  1  0  0  0  0
 14 15  1  0  0  0  0
 14 44  1  0  0  0  0
 14 45  1  0  0  0  0
 15 16  1  0  0  0  0
 15 46  1  0  0  0  0
 16 20  1  0  0  0  0
 16 17  1  0  0  0  0
 16 47  1  0  0  0  0
 17 18  1  0  0  0  0
 17 48  1  0  0  0  0
 17 49  1  0  0  0  0
 18 19  1  0  0  0  0
 18 50  1  0  0  0  0
 18 51  1  0  0  0  0
 19 20  1  0  0  0  0
 19 52  1  0  0  0  0
 19 53  1  0  0  0  0
 20 21  1  0  0  0  0
 20 54  1  0  0  0  0
 21 55  1  0  0  0  0
 22 23  1  0  0  0  0
 23 24  2  0  0  0  0
 23 56  1  0  0  0  0
 24 25  1  0  0  0  0
 26 30  1  0  0  0  0
 26 27  1  0  0  0  0
 26 57  1  0  0  0  0
 27 28  1  0  0  0  0
 27 58  1  0  0  0  0
 27 59  1  0  0  0  0
 28 29  1  0  0  0  0
 28 60  1  0  0  0  0
 28 61  1  0  0  0  0
 29 30  1  0  0  0  0
 30 62  1  0  0  0  0
 30 63  1  0  0  0  0
M  END
> <s_m_source_file>
AV-unprocessed.smi

> <i_m_source_file_index>
148

> <i_lp_mmshare_version>
43012

> <i_f3d_flags>
0

> <s_epik_input>
W0NIMl0xT1tDSDJdW0NIMl1bQ0BIXTFbQ0BIXShbQ0gyXVtPSF0pW0NIMl1uKFtjSF1uMiljKGMyMyluW2NIXW5jM040W0NIMl1bQ0gyXVtDSDJdW0NIMl1bQ0BIXTRbQ0BASF01W0NIMl1bQ0gyXVtDSDJdW0NASF01W09IXQ==

> <s_epik_cmdline>
J2VwaWtfcHl0aG9uJywgJy1waCcsICc3LjAnLCAnLXRuJywgJzgnLCAnLW1hJywgJzIwMCcsICctbWV0YWxfYmluZGluZycsICctaW1hZScsICc8aW5maWxlLm1hZT4nLCAnLW9tYWUnLCAnPG91dGZpbGUubWFlPic=

> <r_lp_tautomer_probability>
1

> <r_epik_Ionization_Penalty>
0.00556303

> <r_epik_Ionization_Penalty_Charging>
0

> <r_epik_Ionization_Penalty_Neutral>
0.00556303

> <r_epik_State_Penalty>
0.00401767

> <r_epik_Charging_Adjusted_Penalty>
0.00401767

> <i_epik_Tot_Q>
0

> <i_epik_Tot_abs_Q>
0

> <r_epik_Metal_State_Penalty>
-0

> <b_epik_Metal_Only>
0

> <s_lp_Force_Field>
OPLS_2005

> <r_lp_Energy>
69.6846

> <b_lp_Chiralities_Consistent>
1

> <s_lp_Variant>
AV-unprocessed.smi:148-26

> <Gold.Version>
5.8.1

> <Gold.Id.Protein>
6NUR|6NUR_protein|mol2

> <Gold.PLP.Fitness>
43.6134

> <Gold.PLP.PLP>
-35.2978

> <Gold.PLP.part.hbond>
-3.8789

> <Gold.PLP.part.metal>
0.0000

> <Gold.PLP.part.buried>
-7.7758

> <Gold.PLP.part.nonpolar>
-24.4576

> <Gold.PLP.part.repulsive>
0.4955

> <Gold.PLP.ligand.clash>
0.0000

> <Gold.PLP.ligand.torsion>
1.8332

> <Gold.PLP.Chemscore.Hbond>
2.7680

> <Gold.PLP.Chemscore.CHOScore>
0.9994

> <Gold.PLP.Chemscore.Metal>
0.0000

> <Gold.Chemscore.Hbonds>
donor molecule, donor type, donor heavy atom, donor atom, acceptor molecule, acceptor atom, score
      L1  H     1    31       P1  7957  0.94
      L1  H    21    55       P1 10175  1.00
      P1  H  7989  7998       L1     1  0.75
      L1  C    23    56       P1 10175  1.00

> <Gold.PLP.Chemscore.Internal.Correction>
0.6798

> <Gold.Rescore>
     Score         DG    S(hbond)    S(metal)    S(lipo)     H(rot)  DE(clash)    DE(int)     intcor
      8.71     -14.57       2.59        0.00      76.54       3.32       0.09       5.77       ----

> <Gold.Chemscore.Fitness>
8.7113

> <Gold.Chemscore.DG>
-14.5737

> <Gold.Chemscore.ZeroCoef>
-5.4800

> <Gold.Chemscore.Hbond>
2.5863

> <Gold.Chemscore.Metal>
0.0000

> <Gold.Chemscore.Lipo>
76.5424

> <Gold.Chemscore.Internal_Hbond>
0.0000

> <Gold.Chemscore.DEClash>
0.0883

> <Gold.Chemscore.DEInternal>
5.7741

> <Gold.Chemscore.Rot>
3.3203

> <Gold.Chemscore.Internal.Correction>
   9.000000E+99

> <Gold.Chemscore.Hbonds>
donor molecule, donor type, donor heavy atom, donor atom, acceptor molecule, acceptor atom, score
      L1  H     1    31       P1  7957  0.91
      L1  H    21    55       P1 10175  0.96
      P1  H  7989  7998       L1     1  0.36

> <Gold.Chemscore.Hbond.Weighted>
-8.6382

> <Gold.Chemscore.Metal.Weighted>
-0.0000

> <Gold.Chemscore.Lipo.Weighted>
-8.9555

> <Gold.Chemscore.Internal_Hbond.Weighted>
0.0000

> <Gold.Chemscore.DEClash.Weighted>
0.0883

> <Gold.Chemscore.DEInternal.Weighted>
5.7741

> <Gold.Chemscore.Rot.Weighted>
8.5000

> <Gold.Chemscore.Internal.Correction.Weighted>
   9.000000E+99

> <Gold.Protein.RotatedTorsions>
[ 6907 6896 6895 6894 ] final   94.03 input  -60.11 | X-H torsion
[ 7974 7965 7964 7962 ] final -170.89 input  175.53 | X-H torsion
[ 8008 7997 7996 7995 ] final -175.66 input   59.86 | X-H torsion
[ 10167 10162 10161 10158 ] final -112.53 input  -65.29 | X-H torsion
[ 10718 10713 10712 10709 ] final   -4.92 input   66.30 | X-H torsion
[ 10763 10752 10751 10750 ] final   -5.63 input  -60.55 | X-H torsion
[ 11005 11000 10999 10996 ] final  -12.55 input  -57.11 | X-H torsion

> <Gold.Protein.ActiveResidues>
 VAL166  LYS551  ARG553  GLY616  TRP617  ASP618  TYR619  PRO620  LYS621  CYS622 
 ASP623  PHE694  ASN695  SER759  ASP760  ASP761  ALA762  ILE779  LEU786  VAL792 
 PHE793  MET794  SER795  GLU796  ALA797  LYS798  CYS799  TRP800  GLU811  SER814 

> <Gold.Protein.RotatedAtoms>
  152.5451  134.1256  159.8417 H   0  0  0  0  0  0  0  0  0  0  0  0  # atno 6907 bound_to 6896
  151.1307  133.5032  159.2606 H   0  0  0  0  0  0  0  0  0  0  0  0  # atno 6908 bound_to 6896
  151.1678  135.0314  159.8793 H   0  0  0  0  0  0  0  0  0  0  0  0  # atno 6909 bound_to 6896
  144.7164  140.2004  143.6339 H   0  0  0  0  0  0  0  0  0  0  0  0  # atno 7974 bound_to 7965
  155.9853  140.1190  157.0689 H   0  0  0  0  0  0  0  0  0  0  0  0  # atno 8008 bound_to 7997
  154.4195  140.1136  156.5559 H   0  0  0  0  0  0  0  0  0  0  0  0  # atno 8009 bound_to 7997
  155.6416  140.3473  155.4719 H   0  0  0  0  0  0  0  0  0  0  0  0  # atno 8010 bound_to 7997
  140.1217  143.4437  152.1686 H   0  0  0  0  0  0  0  0  0  0  0  0  # atno 10167 bound_to 10162
  156.7542  130.5249  149.5798 H   0  0  0  0  0  0  0  0  0  0  0  0  # atno 10718 bound_to 10713
  153.4011  135.7005  153.6425 H   0  0  0  0  0  0  0  0  0  0  0  0  # atno 10763 bound_to 10752
  153.4958  135.3663  155.2515 H   0  0  0  0  0  0  0  0  0  0  0  0  # atno 10764 bound_to 10752
  154.8710  135.4100  154.3346 H   0  0  0  0  0  0  0  0  0  0  0  0  # atno 10765 bound_to 10752
  140.7669  133.8469  155.9173 H   0  0  0  0  0  0  0  0  0  0  0  0  # atno 11005 bound_to 11000
  145.8685  139.2259  143.1675 LP  0  0  0  0  0  0  0  0  0  0  0  0  # atno 17320 bound_to 7965
  146.0107  140.8438  142.9972 LP  0  0  0  0  0  0  0  0  0  0  0  0  # atno 17321 bound_to 7965
  139.5565  144.7376  151.4279 LP  0  0  0  0  0  0  0  0  0  0  0  0  # atno 17342 bound_to 10162
  140.6868  143.7955  150.7197 LP  0  0  0  0  0  0  0  0  0  0  0  0  # atno 17343 bound_to 10162
  156.1381  130.6225  151.0429 LP  0  0  0  0  0  0  0  0  0  0  0  0  # atno 17370 bound_to 10713
  157.6763  131.0849  150.7485 LP  0  0  0  0  0  0  0  0  0  0  0  0  # atno 17371 bound_to 10713
  140.9610  134.1655  157.4654 LP  0  0  0  0  0  0  0  0  0  0  0  0  # atno 17394 bound_to 11000
  139.8762  134.9945  156.5695 LP  0  0  0  0  0  0  0  0  0  0  0  0  # atno 17395 bound_to 11000

$$$$
