#       Name:                AV-unprocessed.smi:1414
#       Creating user name   scv26
#       Creation time:       Fri Mar 27 05:39:52 2020


#       File generated by GOLD software.
#

@<TRIPOS>MOLECULE
AV-unprocessed.smi:1414
    50    51     1
SMALL
NO_CHARGES


@<TRIPOS>ATOM
      1 ****        -1.5455   1.1717   2.1056 C.3            1 S1                 0.0000
      2 ****        -2.9838   1.0896   1.5663 C.3            1 S1                 0.0000
      3 ****        -3.5751  -0.3398   1.5238 C.3            1 S1                 0.0000
      4 ****        -3.2832  -1.0586   0.2697 N.pl3          1 S1                 0.0000
      5 ****        -2.5692  -2.6432   0.2801 S.o2           1 S1                 0.0000
      6 ****        -3.0007  -3.3101   1.5182 O.2            1 S1                 0.0000
      7 ****        -2.8457  -3.2662  -1.0237 O.2            1 S1                 0.0000
      8 ****        -0.7591  -2.3077   0.4103 C.3            1 S1                 0.0000
      9 ****        -0.1192  -2.0530  -0.9642 C.3            1 S1                 0.0000
     10 ****         1.3104  -1.7920  -0.8488 N.am           1 S1                 0.0000
     11 ****         1.8529  -0.6049  -0.5447 C.2            1 S1                 0.0000
     12 ****         1.1906   0.4104  -0.3337 O.2            1 S1                 0.0000
     13 ****         3.1947  -0.6736  -0.5252 N.am           1 S1                 0.0000
     14 ****         4.1225   0.3509  -0.1979 C.ar           1 S1                 0.0000
     15 ****         5.4447   0.2257  -0.6714 C.ar           1 S1                 0.0000
     16 ****         6.3883   1.2164  -0.3406 C.ar           1 S1                 0.0000
     17 ****         5.9725   2.2952   0.4631 C.ar           1 S1                 0.0000
     18 ****         4.7153   2.4231   0.9373 N.ar           1 S1                 0.0000
     19 ****         3.8145   1.4701   0.6147 C.ar           1 S1                 0.0000
     20 ****        -3.3407  -0.2595  -0.9617 C.3            1 S1                 0.0000
     21 ****        -2.5740   1.0592  -0.7911 C.3            1 S1                 0.0000
     22 ****        -2.6901   1.9556  -2.0283 C.3            1 S1                 0.0000
     23 ****        -3.1159   1.7646   0.3180 O.3            1 S1                 0.0000
     24 ****        -1.4731   0.7171   3.0938 H              1 S1                 0.0000
     25 ****        -1.2300   2.2110   2.1992 H              1 S1                 0.0000
     26 ****        -0.8256   0.6729   1.4630 H              1 S1                 0.0000
     27 ****        -3.5925   1.6583   2.2700 H              1 S1                 0.0000
     28 ****        -3.2389  -0.9164   2.3852 H              1 S1                 0.0000
     29 ****        -4.6600  -0.2723   1.6097 H              1 S1                 0.0000
     30 ****        -0.6066  -1.4825   1.1014 H              1 S1                 0.0000
     31 ****        -0.3018  -3.1879   0.8623 H              1 S1                 0.0000
     32 ****        -0.2491  -2.9262  -1.6036 H              1 S1                 0.0000
     33 ****        -0.6083  -1.2227  -1.4732 H              1 S1                 0.0000
     34 ****         1.9307  -2.5707  -1.0167 H              1 S1                 0.0000
     35 ****         3.6008  -1.5501  -0.8178 H              1 S1                 0.0000
     36 ****         5.7345  -0.6158  -1.2839 H              1 S1                 0.0000
     37 ****         7.4069   1.1502  -0.6931 H              1 S1                 0.0000
     38 ****         6.6698   3.0731   0.7370 H              1 S1                 0.0000
     39 ****         2.8353   1.6110   1.0453 H              1 S1                 0.0000
     40 ****        -2.9404  -0.8261  -1.8018 H              1 S1                 0.0000
     41 ****        -4.3872  -0.0570  -1.1917 H              1 S1                 0.0000
     42 ****        -1.5176   0.8535  -0.6275 H              1 S1                 0.0000
     43 ****        -2.2801   1.4616  -2.9096 H              1 S1                 0.0000
     44 ****        -2.1427   2.8877  -1.8860 H              1 S1                 0.0000
     45 ****        -3.7298   2.2080  -2.2383 H              1 S1                 0.0000
     46 ****         0.1926   0.3760  -0.3853 LP             1 S1                 0.0000
     47 ****         1.6504   1.2699  -0.1106 LP             1 S1                 0.0000
     48 ****         4.4584   3.2009   1.5109 LP             1 S1                 0.0000
     49 ****        -2.6475   2.6454   0.3876 LP             1 S1                 0.0000
     50 ****        -4.0891   1.9172   0.1464 LP             1 S1                 0.0000
@<TRIPOS>BOND
    1    1    2 1     
    2    1   24 1     
    3    1   25 1     
    4    1   26 1     
    5    2   23 1     
    6    2    3 1     
    7    2   27 1     
    8    3    4 1     
    9    3   28 1     
   10    3   29 1     
   11    4    5 1     
   12    4   20 1     
   13    5    6 2     
   14    5    7 2     
   15    5    8 1     
   16    8    9 1     
   17    8   30 1     
   18    8   31 1     
   19    9   10 1     
   20    9   32 1     
   21    9   33 1     
   22   10   11 am    
   23   10   34 1     
   24   11   12 2     
   25   11   13 am    
   26   13   14 1     
   27   13   35 1     
   28   14   19 ar    
   29   14   15 ar    
   30   15   16 ar    
   31   15   36 1     
   32   16   17 ar    
   33   16   37 1     
   34   17   18 ar    
   35   17   38 1     
   36   18   19 ar    
   37   19   39 1     
   38   20   21 1     
   39   20   40 1     
   40   20   41 1     
   41   21   22 1     
   42   21   23 1     
   43   21   42 1     
   44   22   43 1     
   45   22   44 1     
   46   22   45 1     
   47   12   46 1     
   48   12   47 1     
   49   18   48 1     
   50   23   49 1     
   51   23   50 1     
@<TRIPOS>SUBSTRUCTURE
      1 S1             1
@<TRIPOS>SET
LONE_PAIRS      STATIC     ATOMS    <user>   **** ""
7 6 7 46 47 48 49 50
DONOR_HYDROGENS      STATIC     ATOMS    <user>   **** ""
2 34 35
ATOM$BLUE        STATIC     ATOMS    COLORGROUP SYSTEM
7 6 7 46 47 48 49 50
ATOM$RED        STATIC     ATOMS    COLORGROUP SYSTEM
2 34 35
