#       Name:                AV-unprocessed.smi:384
#       Creating user name   scv26
#       Creation time:       Thu Mar 26 22:41:00 2020


#       File generated by GOLD software.
#

@<TRIPOS>MOLECULE
AV-unprocessed.smi:384
    40    41     1
SMALL
NO_CHARGES


@<TRIPOS>ATOM
      1 ****        -2.9929  -1.6557  -1.9478 C.3            1 S1                 0.0000
      2 ****        -2.3804  -0.9485  -0.7346 C.3            1 S1                 0.0000
      3 ****        -0.8409  -0.9484  -0.7809 C.3            1 S1                 0.0000
      4 ****        -0.3073  -0.1840   0.3384 N.3            1 S1                 0.0000
      5 ****         1.0907  -0.2258   0.4124 C.ar           1 S1                 0.0000
      6 ****         1.9405   0.3373  -0.5673 C.ar           1 S1                 0.0000
      7 ****         3.3382   0.2435  -0.4063 C.ar           1 S1                 0.0000
      8 ****         3.8698  -0.4102   0.7297 C.ar           1 S1                 0.0000
      9 ****         5.3540  -0.5263   0.9302 C.2            1 S1                 0.0000
     10 ****         5.7776  -1.1128   1.9507 O.co2          1 S1                 0.0000
     11 ****         6.1174  -0.0328   0.0708 O.co2          1 S1                -1.0000
     12 ****         2.9686  -0.9529   1.6739 C.ar           1 S1                 0.0000
     13 ****         1.6354  -0.8426   1.4831 N.pl3          1 S1                 1.0000
     14 ****        -0.8438   1.1690   0.3958 C.3            1 S1                 0.0000
     15 ****        -2.3830   1.1257   0.4198 C.3            1 S1                 0.0000
     16 ****        -2.9992   2.5280   0.3815 C.3            1 S1                 0.0000
     17 ****        -2.8427   0.4005  -0.7188 O.3            1 S1                 0.0000
     18 ****        -2.6740  -2.6971  -1.9977 H              1 S1                 0.0000
     19 ****        -2.6990  -1.1702  -2.8789 H              1 S1                 0.0000
     20 ****        -4.0820  -1.6445  -1.8959 H              1 S1                 0.0000
     21 ****        -2.7221  -1.4536   0.1707 H              1 S1                 0.0000
     22 ****        -0.4638  -1.9710  -0.7393 H              1 S1                 0.0000
     23 ****        -0.4967  -0.5146  -1.7210 H              1 S1                 0.0000
     24 ****         1.5327   0.8358  -1.4343 H              1 S1                 0.0000
     25 ****         3.9892   0.6728  -1.1542 H              1 S1                 0.0000
     26 ****         3.2693  -1.4706   2.5734 H              1 S1                 0.0000
     27 ****        -0.4682   1.6744   1.2866 H              1 S1                 0.0000
     28 ****        -0.5011   1.7394  -0.4686 H              1 S1                 0.0000
     29 ****        -2.7240   0.6215   1.3259 H              1 S1                 0.0000
     30 ****        -2.6824   3.1194   1.2411 H              1 S1                 0.0000
     31 ****        -4.0880   2.4752   0.3985 H              1 S1                 0.0000
     32 ****        -2.7056   3.0647  -0.5210 H              1 S1                 0.0000
     33 ****         1.0121  -1.2452   2.1830 H              1 S1                 0.0000
     34 ****        -0.6300  -0.6424   1.1665 LP             1 S1                 0.0000
     35 ****         6.7618  -1.2014   2.1042 LP             1 S1                 0.0000
     36 ****         5.1321  -1.4931   2.6130 LP             1 S1                 0.0000
     37 ****         7.1086  -0.0990   0.1855 LP             1 S1                 0.0000
     38 ****         5.7365   0.4279  -0.7308 LP             1 S1                 0.0000
     39 ****        -3.8426   0.3961  -0.7131 LP             1 S1                 0.0000
     40 ****        -2.5160   0.8604  -1.5445 LP             1 S1                 0.0000
@<TRIPOS>BOND
    1    1    2 1     
    2    1   18 1     
    3    1   19 1     
    4    1   20 1     
    5    2   17 1     
    6    2    3 1     
    7    2   21 1     
    8    3    4 1     
    9    3   22 1     
   10    3   23 1     
   11    4    5 1     
   12    4   14 1     
   13    5   13 ar    
   14    5    6 ar    
   15    6    7 ar    
   16    6   24 1     
   17    7    8 ar    
   18    7   25 1     
   19    8    9 1     
   20    8   12 ar    
   21    9   10 ar    
   22    9   11 ar    
   23   12   13 ar    
   24   12   26 1     
   25   13   33 1     
   26   14   15 1     
   27   14   27 1     
   28   14   28 1     
   29   15   16 1     
   30   15   17 1     
   31   15   29 1     
   32   16   30 1     
   33   16   31 1     
   34   16   32 1     
   35    4   34 1     
   36   10   35 1     
   37   10   36 1     
   38   11   37 1     
   39   11   38 1     
   40   17   39 1     
   41   17   40 1     
@<TRIPOS>SUBSTRUCTURE
      1 S1             1
@<TRIPOS>SET
LONE_PAIRS      STATIC     ATOMS    <user>   **** ""
7 34 35 36 37 38 39 40
DONOR_HYDROGENS      STATIC     ATOMS    <user>   **** ""
1 33
ATOM$BLUE        STATIC     ATOMS    COLORGROUP SYSTEM
7 34 35 36 37 38 39 40
ATOM$RED        STATIC     ATOMS    COLORGROUP SYSTEM
1 33
