AV-unprocessed.smi:3092|AV-procd|sdf|11784|dock3
  -GOLD-   2272017163D 1   1.00000     0.00000
 Structure written by MMmdl.
 26 27  0  0  0  0  0  0  0  0  3 V2000
  153.0417  142.5277  160.1060 C   0  0  0  0  0  0  0  0  0  0  0  0
  152.1575  143.4799  159.4307 N   0  0  0  0  0  0  0  0  0  0  0  0
  151.9029  144.7679  159.8269 C   0  0  0  0  0  0  0  0  0  0  0  0
  151.0296  145.2956  158.9133 C   0  0  0  0  0  0  0  0  0  0  0  0
  150.7864  144.3085  157.9978 N   0  3  0  0  0  0  0  0  0  0  0  0
  151.4696  143.1990  158.3094 C   0  0  0  0  0  0  0  0  0  0  0  0
  151.4503  141.9147  157.5271 C   0  0  2  0  0  0  0  0  0  0  0  0
  150.6634  141.9539  156.2193 C   0  0  0  0  0  0  0  0  0  0  0  0
  150.4175  140.4695  155.9119 C   0  0  0  0  0  0  0  0  0  0  0  0
  150.5458  139.7427  157.1942 N   0  3  0  0  0  0  0  0  0  0  0  0
  150.8096  140.7326  158.2541 C   0  0  0  0  0  0  0  0  0  0  0  0
  153.4837  142.9988  160.9846 H   0  0  0  0  0  0  0  0  0  0  0  0
  153.8363  142.2243  159.4235 H   0  0  0  0  0  0  0  0  0  0  0  0
  152.4645  141.6567  160.4176 H   0  0  0  0  0  0  0  0  0  0  0  0
  152.3514  145.2048  160.7079 H   0  0  0  0  0  0  0  0  0  0  0  0
  150.5756  146.2738  158.8475 H   0  0  0  0  0  0  0  0  0  0  0  0
  152.4839  141.6552  157.2976 H   0  0  0  0  0  0  0  0  0  0  0  0
  149.7042  142.4513  156.3700 H   0  0  0  0  0  0  0  0  0  0  0  0
  151.1888  142.4776  155.4199 H   0  0  0  0  0  0  0  0  0  0  0  0
  149.4364  140.3065  155.4646 H   0  0  0  0  0  0  0  0  0  0  0  0
  151.1693  140.0875  155.2204 H   0  0  0  0  0  0  0  0  0  0  0  0
  149.7088  139.2147  157.3987 H   0  0  0  0  0  0  0  0  0  0  0  0
  151.4393  140.3262  159.0461 H   0  0  0  0  0  0  0  0  0  0  0  0
  149.8537  141.0206  158.6941 H   0  0  0  0  0  0  0  0  0  0  0  0
  151.3337  139.1139  157.1264 H   0  0  0  0  0  0  0  0  0  0  0  0
  150.1771  144.4052  157.1951 H   0  0  0  0  0  0  0  0  0  0  0  0
  1  2  1  0  0  0  0
  1 12  1  0  0  0  0
  1 13  1  0  0  0  0
  1 14  1  0  0  0  0
  2  6  1  0  0  0  0
  2  3  1  0  0  0  0
  3  4  2  0  0  0  0
  3 15  1  0  0  0  0
  4  5  1  0  0  0  0
  4 16  1  0  0  0  0
  5  6  2  0  0  0  0
  5 26  1  0  0  0  0
  6  7  1  0  0  0  0
  7 11  1  0  0  0  0
  7  8  1  0  0  0  0
  7 17  1  0  0  0  0
  8  9  1  0  0  0  0
  8 18  1  0  0  0  0
  8 19  1  0  0  0  0
  9 10  1  0  0  0  0
  9 20  1  0  0  0  0
  9 21  1  0  0  0  0
 10 11  1  0  0  0  0
 10 22  1  0  0  0  0
 10 25  1  0  0  0  0
 11 23  1  0  0  0  0
 11 24  1  0  0  0  0
M  CHG  1   5   1
M  CHG  1  10   1
M  END
> <s_m_source_file>
AV-unprocessed.smi

> <i_m_source_file_index>
3092

> <i_lp_mmshare_version>
43012

> <i_f3d_flags>
0

> <s_epik_input>
W0NIM11uMVtjSF1bY0hdbmMxW0NAQEhdMltDSDJdW0NIMl1bTkhdW0NIMl0y

> <s_epik_cmdline>
J2VwaWtfcHl0aG9uJywgJy1waCcsICc3LjAnLCAnLXRuJywgJzgnLCAnLW1hJywgJzIwMCcsICctbWV0YWxfYmluZGluZycsICctaW1hZScsICc8aW5maWxlLm1hZT4nLCAnLW9tYWUnLCAnPG91dGZpbGUubWFlPic=

> <r_lp_tautomer_probability>
1

> <r_epik_Ionization_Penalty>
0.803493

> <r_epik_Ionization_Penalty_Charging>
0.000689375

> <r_epik_Ionization_Penalty_Neutral>
0.802804

> <r_epik_State_Penalty>
0.834355

> <r_epik_Charging_Adjusted_Penalty>
0.835044

> <i_epik_Tot_Q>
2

> <i_epik_Tot_abs_Q>
2

> <r_epik_Metal_State_Penalty>
4.76097

> <b_epik_Metal_Only>
0

> <s_lp_Force_Field>
OPLS_2005

> <r_lp_Energy>
35.9538

> <b_lp_Chiralities_Consistent>
1

> <s_lp_Variant>
AV-unprocessed.smi:3092-3

> <Gold.Version>
5.8.1

> <Gold.Id.Protein>
6NUR|6NUR_protein|mol2

> <Gold.PLP.Fitness>
34.5080

> <Gold.PLP.PLP>
-28.6536

> <Gold.PLP.part.hbond>
-1.0000

> <Gold.PLP.part.metal>
0.0000

> <Gold.PLP.part.buried>
-3.9608

> <Gold.PLP.part.nonpolar>
-24.0177

> <Gold.PLP.part.repulsive>
0.0670

> <Gold.PLP.ligand.clash>
0.0000

> <Gold.PLP.ligand.torsion>
0.0740

> <Gold.PLP.Chemscore.Hbond>
2.0000

> <Gold.PLP.Chemscore.CHOScore>
0.0000

> <Gold.PLP.Chemscore.Metal>
0.0000

> <Gold.Chemscore.Hbonds>
donor molecule, donor type, donor heavy atom, donor atom, acceptor molecule, acceptor atom, score
      L1  H     5    26       P1  8028  2.00

> <Gold.PLP.Chemscore.Internal.Correction>
0.0025

> <Gold.Rescore>
     Score         DG    S(hbond)    S(metal)    S(lipo)     H(rot)  DE(clash)    DE(int)     intcor
     13.16     -13.20       0.95        0.00      60.67       1.00       0.01       0.02       ----

> <Gold.Chemscore.Fitness>
13.1587

> <Gold.Chemscore.DG>
-13.1963

> <Gold.Chemscore.ZeroCoef>
-5.4800

> <Gold.Chemscore.Hbond>
0.9516

> <Gold.Chemscore.Metal>
0.0000

> <Gold.Chemscore.Lipo>
60.6661

> <Gold.Chemscore.Internal_Hbond>
0.0000

> <Gold.Chemscore.DEClash>
0.0149

> <Gold.Chemscore.DEInternal>
0.0228

> <Gold.Chemscore.Rot>
1.0000

> <Gold.Chemscore.Internal.Correction>
   9.000000E+99

> <Gold.Chemscore.Hbonds>
donor molecule, donor type, donor heavy atom, donor atom, acceptor molecule, acceptor atom, score
      L1  H     5    26       P1  8028  0.63

> <Gold.Chemscore.Hbond.Weighted>
-3.1784

> <Gold.Chemscore.Metal.Weighted>
-0.0000

> <Gold.Chemscore.Lipo.Weighted>
-7.0979

> <Gold.Chemscore.Internal_Hbond.Weighted>
0.0000

> <Gold.Chemscore.DEClash.Weighted>
0.0149

> <Gold.Chemscore.DEInternal.Weighted>
0.0228

> <Gold.Chemscore.Rot.Weighted>
2.5600

> <Gold.Chemscore.Internal.Correction.Weighted>
   9.000000E+99

> <Gold.Protein.RotatedTorsions>
[ 6907 6896 6895 6894 ] final -137.00 input  -60.11 | X-H torsion
[ 7974 7965 7964 7962 ] final -143.42 input  175.53 | X-H torsion
[ 8008 7997 7996 7995 ] final  -48.76 input   59.86 | X-H torsion
[ 10167 10162 10161 10158 ] final   77.10 input  -65.29 | X-H torsion
[ 10718 10713 10712 10709 ] final  174.19 input   66.30 | X-H torsion
[ 10763 10752 10751 10750 ] final   10.48 input  -60.55 | X-H torsion
[ 11005 11000 10999 10996 ] final   80.87 input  -57.11 | X-H torsion

> <Gold.Protein.ActiveResidues>
 VAL166  LYS551  ARG553  GLY616  TRP617  ASP618  TYR619  PRO620  LYS621  CYS622 
 ASP623  PHE694  ASN695  SER759  ASP760  ASP761  ALA762  ILE779  LEU786  VAL792 
 PHE793  MET794  SER795  GLU796  ALA797  LYS798  CYS799  TRP800  GLU811  SER814 

> <Gold.Protein.RotatedAtoms>
  151.0170  133.5911  159.2675 H   0  0  0  0  0  0  0  0  0  0  0  0  # atno 6907 bound_to 6896
  151.3042  135.0776  159.9259 H   0  0  0  0  0  0  0  0  0  0  0  0  # atno 6908 bound_to 6896
  152.5314  133.9847  159.7877 H   0  0  0  0  0  0  0  0  0  0  0  0  # atno 6909 bound_to 6896
  144.8370  140.5836  143.5477 H   0  0  0  0  0  0  0  0  0  0  0  0  # atno 7974 bound_to 7965
  154.4033  140.1313  156.4392 H   0  0  0  0  0  0  0  0  0  0  0  0  # atno 8008 bound_to 7997
  155.7475  140.3488  155.5114 H   0  0  0  0  0  0  0  0  0  0  0  0  # atno 8009 bound_to 7997
  155.8981  140.1014  157.1360 H   0  0  0  0  0  0  0  0  0  0  0  0  # atno 8010 bound_to 7997
  139.9851  144.5798  150.7866 H   0  0  0  0  0  0  0  0  0  0  0  0  # atno 10167 bound_to 10162
  156.9532  131.0037  151.2944 H   0  0  0  0  0  0  0  0  0  0  0  0  # atno 10718 bound_to 10713
  153.2027  135.6858  153.8211 H   0  0  0  0  0  0  0  0  0  0  0  0  # atno 10763 bound_to 10752
  153.7471  135.3229  155.3315 H   0  0  0  0  0  0  0  0  0  0  0  0  # atno 10764 bound_to 10752
  154.8180  135.4672  154.0801 H   0  0  0  0  0  0  0  0  0  0  0  0  # atno 10765 bound_to 10752
  139.9118  134.7954  156.1967 H   0  0  0  0  0  0  0  0  0  0  0  0  # atno 11005 bound_to 11000
  145.4773  139.1498  143.3781 LP  0  0  0  0  0  0  0  0  0  0  0  0  # atno 17320 bound_to 7965
  146.2668  140.4908  142.8831 LP  0  0  0  0  0  0  0  0  0  0  0  0  # atno 17321 bound_to 7965
  140.7475  143.2907  151.3338 LP  0  0  0  0  0  0  0  0  0  0  0  0  # atno 17342 bound_to 10162
  139.6381  144.0592  152.2532 LP  0  0  0  0  0  0  0  0  0  0  0  0  # atno 17343 bound_to 10162
  157.5708  130.8309  149.8389 LP  0  0  0  0  0  0  0  0  0  0  0  0  # atno 17370 bound_to 10713
  156.0354  130.3753  150.1575 LP  0  0  0  0  0  0  0  0  0  0  0  0  # atno 17371 bound_to 10713
  141.0550  133.6869  156.1844 LP  0  0  0  0  0  0  0  0  0  0  0  0  # atno 17394 bound_to 11000
  140.6750  134.4827  157.5588 LP  0  0  0  0  0  0  0  0  0  0  0  0  # atno 17395 bound_to 11000

$$$$
