#       Name:                AV-unprocessed.smi:885
#       Creating user name   scv26
#       Creation time:       Fri Mar 27 01:53:36 2020


#       File generated by GOLD software.
#

@<TRIPOS>MOLECULE
AV-unprocessed.smi:885
    46    48     1
SMALL
NO_CHARGES


@<TRIPOS>ATOM
      1 ****        -4.2375  -0.4008  -0.3735 C.3            1 S1                 0.0000
      2 ****        -4.5608   0.0416   1.0650 C.3            1 S1                 0.0000
      3 ****        -3.5512   0.9882   1.7379 C.3            1 S1                 0.0000
      4 ****        -2.0701   0.6684   1.4733 C.3            1 S1                 0.0000
      5 ****        -1.5248   1.3167   0.1822 C.3            1 S1                 0.0000
      6 ****        -0.0258   1.3464   0.1857 C.2            1 S1                 0.0000
      7 ****         0.6424   2.4942   0.1846 N.2            1 S1                 0.0000
      8 ****         1.9847   2.0894   0.1758 O.3            1 S1                 0.0000
      9 ****         1.9647   0.7348   0.1918 C.2            1 S1                 0.0000
     10 ****         3.2645  -0.0017   0.1329 C.3            1 S1                 0.0000
     11 ****         3.7461  -0.2205  -1.3144 C.3            1 S1                 0.0000
     12 ****         4.9733  -1.0149  -1.3251 N.3            1 S1                 0.0000
     13 ****         4.7907  -2.2775  -0.6109 C.3            1 S1                 0.0000
     14 ****         4.2742  -2.0167   0.8157 C.3            1 S1                 0.0000
     15 ****         3.0651  -1.2676   0.7576 O.3            1 S1                 0.0000
     16 ****         0.7375   0.2180   0.1791 N.2            1 S1                 0.0000
     17 ****        -2.0556   0.7087  -1.1314 C.3            1 S1                 0.0000
     18 ****        -3.5881   0.6710  -1.2642 C.3            1 S1                 0.0000
     19 ****        -5.1669  -0.7322  -0.8382 H              1 S1                 0.0000
     20 ****        -3.6002  -1.2857  -0.3489 H              1 S1                 0.0000
     21 ****        -5.5373   0.5270   1.0770 H              1 S1                 0.0000
     22 ****        -4.6737  -0.8534   1.6778 H              1 S1                 0.0000
     23 ****        -3.7617   2.0173   1.4445 H              1 S1                 0.0000
     24 ****        -3.7323   0.9572   2.8128 H              1 S1                 0.0000
     25 ****        -1.5034   1.0734   2.3131 H              1 S1                 0.0000
     26 ****        -1.8893  -0.4072   1.4846 H              1 S1                 0.0000
     27 ****        -1.8511   2.3582   0.1934 H              1 S1                 0.0000
     28 ****         4.0045   0.5703   0.6960 H              1 S1                 0.0000
     29 ****         2.9709  -0.7314  -1.8873 H              1 S1                 0.0000
     30 ****         3.9170   0.7383  -1.8042 H              1 S1                 0.0000
     31 ****         5.2480  -1.2034  -2.2838 H              1 S1                 0.0000
     32 ****         4.0802  -2.9075  -1.1472 H              1 S1                 0.0000
     33 ****         5.7317  -2.8264  -0.5747 H              1 S1                 0.0000
     34 ****         4.0780  -2.9622   1.3214 H              1 S1                 0.0000
     35 ****         5.0188  -1.4856   1.4110 H              1 S1                 0.0000
     36 ****        -1.6566   1.2922  -1.9623 H              1 S1                 0.0000
     37 ****        -1.6580  -0.2986  -1.2626 H              1 S1                 0.0000
     38 ****        -3.8201   0.4290  -2.3019 H              1 S1                 0.0000
     39 ****        -4.0262   1.6532  -1.0834 H              1 S1                 0.0000
     40 ****         0.2758   3.4246   0.1890 LP             1 S1                 0.0000
     41 ****         2.4588   2.4397   0.9835 LP             1 S1                 0.0000
     42 ****         2.4424   2.4207  -0.6492 LP             1 S1                 0.0000
     43 ****         5.6893  -0.4927  -0.8618 LP             1 S1                 0.0000
     44 ****         2.3872  -1.7847   0.2350 LP             1 S1                 0.0000
     45 ****         2.7283  -1.1215   1.6878 LP             1 S1                 0.0000
     46 ****         0.4528  -0.7406   0.1678 LP             1 S1                 0.0000
@<TRIPOS>BOND
    1    1   18 1     
    2    1    2 1     
    3    1   19 1     
    4    1   20 1     
    5    2    3 1     
    6    2   21 1     
    7    2   22 1     
    8    3    4 1     
    9    3   23 1     
   10    3   24 1     
   11    4    5 1     
   12    4   25 1     
   13    4   26 1     
   14    5    6 1     
   15    5   17 1     
   16    5   27 1     
   17    6   16 1     
   18    6    7 2     
   19    7    8 1     
   20    8    9 1     
   21    9   10 1     
   22    9   16 2     
   23   10   15 1     
   24   10   11 1     
   25   10   28 1     
   26   11   12 1     
   27   11   29 1     
   28   11   30 1     
   29   12   13 1     
   30   12   31 1     
   31   13   14 1     
   32   13   32 1     
   33   13   33 1     
   34   14   15 1     
   35   14   34 1     
   36   14   35 1     
   37   17   18 1     
   38   17   36 1     
   39   17   37 1     
   40   18   38 1     
   41   18   39 1     
   42    7   40 1     
   43    8   41 1     
   44    8   42 1     
   45   12   43 1     
   46   15   44 1     
   47   15   45 1     
   48   16   46 1     
@<TRIPOS>SUBSTRUCTURE
      1 S1             1
@<TRIPOS>SET
LONE_PAIRS      STATIC     ATOMS    <user>   **** ""
7 40 41 42 43 44 45 46
DONOR_HYDROGENS      STATIC     ATOMS    <user>   **** ""
1 31
ATOM$BLUE        STATIC     ATOMS    COLORGROUP SYSTEM
7 40 41 42 43 44 45 46
ATOM$RED        STATIC     ATOMS    COLORGROUP SYSTEM
1 31
