#       Name:                AV-unprocessed.smi:691
#       Creating user name   scv26
#       Creation time:       Fri Mar 27 00:34:37 2020


#       File generated by GOLD software.
#

@<TRIPOS>MOLECULE
AV-unprocessed.smi:691
    42    43     1
SMALL
NO_CHARGES


@<TRIPOS>ATOM
      1 ****        -1.2743   3.0957   1.8824 C.3            1 S1                 0.0000
      2 ****        -0.7092   1.6591   1.7812 C.3            1 S1                 0.0000
      3 ****         0.8405   1.7174   1.8199 C.3            1 S1                 0.0000
      4 ****         1.3668   2.4057   0.7030 O.3            1 S1                 0.0000
      5 ****        -1.2562   0.8211   2.9506 C.3            1 S1                 0.0000
      6 ****        -2.6582   0.3639   2.5318 C.3            1 S1                 0.0000
      7 ****        -2.6931   0.4325   0.9989 C.3            1 S1                 0.0000
      8 ****        -1.3088   0.9310   0.5481 C.3            1 S1                 0.0000
      9 ****        -0.5016  -0.2166   0.1251 N.am           1 S1                 0.0000
     10 ****         0.0431  -0.3946  -1.0871 C.2            1 S1                 0.0000
     11 ****        -0.0828   0.4014  -2.0170 O.2            1 S1                 0.0000
     12 ****         0.7511  -1.5361  -1.1320 N.am           1 S1                 0.0000
     13 ****         1.4966  -2.0754  -2.2152 C.ar           1 S1                 0.0000
     14 ****         1.2844  -1.7436  -3.5754 C.ar           1 S1                 0.0000
     15 ****         2.0830  -2.3604  -4.5578 C.ar           1 S1                 0.0000
     16 ****         3.0576  -3.2901  -4.1468 C.ar           1 S1                 0.0000
     17 ****         3.2607  -3.6269  -2.8558 N.ar           1 S1                 0.0000
     18 ****         2.4911  -3.0319  -1.9198 C.ar           1 S1                 0.0000
     19 ****        -0.9091   3.6017   2.7765 H              1 S1                 0.0000
     20 ****        -2.3634   3.1077   1.9258 H              1 S1                 0.0000
     21 ****        -0.9826   3.7003   1.0234 H              1 S1                 0.0000
     22 ****         1.1762   2.2233   2.7257 H              1 S1                 0.0000
     23 ****         1.2789   0.7195   1.8490 H              1 S1                 0.0000
     24 ****         2.3093   2.4163   0.7714 H              1 S1                 0.0000
     25 ****        -0.6314  -0.0609   3.0979 H              1 S1                 0.0000
     26 ****        -1.2638   1.3652   3.8959 H              1 S1                 0.0000
     27 ****        -2.8721  -0.6405   2.8986 H              1 S1                 0.0000
     28 ****        -3.4145   1.0296   2.9494 H              1 S1                 0.0000
     29 ****        -2.9574  -0.5284   0.5544 H              1 S1                 0.0000
     30 ****        -3.4605   1.1422   0.6871 H              1 S1                 0.0000
     31 ****        -1.4217   1.6300  -0.2823 H              1 S1                 0.0000
     32 ****        -0.3368  -0.9277   0.8221 H              1 S1                 0.0000
     33 ****         0.8192  -2.0483  -0.2647 H              1 S1                 0.0000
     34 ****         0.5231  -1.0451  -3.8857 H              1 S1                 0.0000
     35 ****         1.9480  -2.1290  -5.6041 H              1 S1                 0.0000
     36 ****         3.6864  -3.7808  -4.8748 H              1 S1                 0.0000
     37 ****         2.6808  -3.3270  -0.8980 H              1 S1                 0.0000
     38 ****         1.0195   3.3434   0.6909 LP             1 S1                 0.0000
     39 ****         1.0955   1.9389  -0.1388 LP             1 S1                 0.0000
     40 ****        -0.6164   1.2376  -1.8906 LP             1 S1                 0.0000
     41 ****         0.3485   0.2120  -2.8992 LP             1 S1                 0.0000
     42 ****         3.9589  -4.2958  -2.6008 LP             1 S1                 0.0000
@<TRIPOS>BOND
    1    1    2 1     
    2    1   19 1     
    3    1   20 1     
    4    1   21 1     
    5    2    8 1     
    6    2    3 1     
    7    2    5 1     
    8    3    4 1     
    9    3   22 1     
   10    3   23 1     
   11    4   24 1     
   12    5    6 1     
   13    5   25 1     
   14    5   26 1     
   15    6    7 1     
   16    6   27 1     
   17    6   28 1     
   18    7    8 1     
   19    7   29 1     
   20    7   30 1     
   21    8    9 1     
   22    8   31 1     
   23    9   10 am    
   24    9   32 1     
   25   10   11 2     
   26   10   12 am    
   27   12   13 1     
   28   12   33 1     
   29   13   18 ar    
   30   13   14 ar    
   31   14   15 ar    
   32   14   34 1     
   33   15   16 ar    
   34   15   35 1     
   35   16   17 ar    
   36   16   36 1     
   37   17   18 ar    
   38   18   37 1     
   39    4   38 1     
   40    4   39 1     
   41   11   40 1     
   42   11   41 1     
   43   17   42 1     
@<TRIPOS>SUBSTRUCTURE
      1 S1             1
@<TRIPOS>SET
LONE_PAIRS      STATIC     ATOMS    <user>   **** ""
5 38 39 40 41 42
DONOR_HYDROGENS      STATIC     ATOMS    <user>   **** ""
3 24 32 33
ATOM$BLUE        STATIC     ATOMS    COLORGROUP SYSTEM
5 38 39 40 41 42
ATOM$RED        STATIC     ATOMS    COLORGROUP SYSTEM
3 24 32 33
