AV-unprocessed.smi:2484|AV-procd|sdf|9787|dock10
  -GOLD-   2272013423D 1   1.00000     0.00000
 Structure written by MMmdl.
 45 46  0  0  0  0  0  0  0  0  1 V2000
  146.6556  142.4395  153.9288 C   0  0  0  0  0  0  0  0  0  0  0  0
  147.0270  141.0087  154.3839 C   0  0  0  0  0  0  0  0  0  0  0  0
  146.2345  140.0281  153.6290 N   0  0  0  0  0  0  0  0  0  0  0  0
  146.3810  138.6925  153.5882 C   0  0  0  0  0  0  0  0  0  0  0  0
  147.2367  138.0744  154.2213 O   0  0  0  0  0  0  0  0  0  0  0  0
  145.4701  138.1330  152.7728 N   0  0  0  0  0  0  0  0  0  0  0  0
  145.3506  136.7674  152.4026 C   0  0  0  0  0  0  0  0  0  0  0  0
  144.7668  136.5305  151.1419 C   0  0  0  0  0  0  0  0  0  0  0  0
  144.6319  135.2021  150.7045 C   0  0  0  0  0  0  0  0  0  0  0  0
  145.0950  134.1773  151.5605 C   0  0  0  0  0  0  0  0  0  0  0  0
  145.0242  132.6823  151.2010 C   0  0  0  0  0  0  0  0  0  0  0  0
  143.5966  132.2351  150.8129 C   0  0  0  0  0  0  0  0  0  0  0  0
  145.4625  131.8320  152.4116 C   0  0  0  0  0  0  0  0  0  0  0  0
  145.9447  132.3944  149.9966 C   0  0  0  0  0  0  0  0  0  0  0  0
  145.6459  134.4683  152.7642 N   0  0  0  0  0  0  0  0  0  0  0  0
  145.7692  135.7336  153.1750 N   0  0  0  0  0  0  0  0  0  0  0  0
  148.5099  140.7061  154.0662 C   0  0  0  0  0  0  0  0  0  0  0  0
  149.4869  141.4164  155.0198 C   0  0  0  0  0  0  0  0  0  0  0  0
  149.1822  141.0810  156.3663 O   0  0  0  0  0  0  0  0  0  0  0  0
  147.8872  141.5178  156.7550 C   0  0  0  0  0  0  0  0  0  0  0  0
  146.8131  140.8141  155.9073 C   0  0  0  0  0  0  0  0  0  0  0  0
  147.2826  143.1946  154.4019 H   0  0  0  0  0  0  0  0  0  0  0  0
  145.6235  142.6892  154.1745 H   0  0  0  0  0  0  0  0  0  0  0  0
  146.7721  142.5525  152.8502 H   0  0  0  0  0  0  0  0  0  0  0  0
  145.4931  140.4173  153.0652 H   0  0  0  0  0  0  0  0  0  0  0  0
  144.8039  138.7588  152.3450 H   0  0  0  0  0  0  0  0  0  0  0  0
  144.4315  137.3467  150.5187 H   0  0  0  0  0  0  0  0  0  0  0  0
  144.1893  135.0043  149.7407 H   0  0  0  0  0  0  0  0  0  0  0  0
  143.5697  131.1736  150.5635 H   0  0  0  0  0  0  0  0  0  0  0  0
  143.2270  132.7756  149.9407 H   0  0  0  0  0  0  0  0  0  0  0  0
  142.8903  132.3883  151.6297 H   0  0  0  0  0  0  0  0  0  0  0  0
  144.8303  132.0237  153.2792 H   0  0  0  0  0  0  0  0  0  0  0  0
  146.4922  132.0415  152.7029 H   0  0  0  0  0  0  0  0  0  0  0  0
  145.4034  130.7655  152.1912 H   0  0  0  0  0  0  0  0  0  0  0  0
  145.9041  131.3438  149.7070 H   0  0  0  0  0  0  0  0  0  0  0  0
  146.9871  132.6257  150.2185 H   0  0  0  0  0  0  0  0  0  0  0  0
  145.6553  132.9865  149.1277 H   0  0  0  0  0  0  0  0  0  0  0  0
  148.6869  139.6323  154.1503 H   0  0  0  0  0  0  0  0  0  0  0  0
  148.7415  140.9690  153.0332 H   0  0  0  0  0  0  0  0  0  0  0  0
  150.5078  141.0995  154.8060 H   0  0  0  0  0  0  0  0  0  0  0  0
  149.4616  142.4983  154.8847 H   0  0  0  0  0  0  0  0  0  0  0  0
  147.7412  141.2796  157.8088 H   0  0  0  0  0  0  0  0  0  0  0  0
  147.8128  142.6025  156.6669 H   0  0  0  0  0  0  0  0  0  0  0  0
  145.8278  141.1677  156.2114 H   0  0  0  0  0  0  0  0  0  0  0  0
  146.8402  139.7493  156.1439 H   0  0  0  0  0  0  0  0  0  0  0  0
  1  2  1  0  0  0  0
  1 22  1  0  0  0  0
  1 23  1  0  0  0  0
  1 24  1  0  0  0  0
  2 21  1  0  0  0  0
  2  3  1  0  0  0  0
  2 17  1  0  0  0  0
  3  4  1  0  0  0  0
  3 25  1  0  0  0  0
  4  5  2  0  0  0  0
  4  6  1  0  0  0  0
  6  7  1  0  0  0  0
  6 26  1  0  0  0  0
  7 16  1  0  0  0  0
  7  8  2  0  0  0  0
  8  9  1  0  0  0  0
  8 27  1  0  0  0  0
  9 10  2  0  0  0  0
  9 28  1  0  0  0  0
 10 11  1  0  0  0  0
 10 15  1  0  0  0  0
 11 12  1  0  0  0  0
 11 13  1  0  0  0  0
 11 14  1  0  0  0  0
 12 29  1  0  0  0  0
 12 30  1  0  0  0  0
 12 31  1  0  0  0  0
 13 32  1  0  0  0  0
 13 33  1  0  0  0  0
 13 34  1  0  0  0  0
 14 35  1  0  0  0  0
 14 36  1  0  0  0  0
 14 37  1  0  0  0  0
 15 16  2  0  0  0  0
 17 18  1  0  0  0  0
 17 38  1  0  0  0  0
 17 39  1  0  0  0  0
 18 19  1  0  0  0  0
 18 40  1  0  0  0  0
 18 41  1  0  0  0  0
 19 20  1  0  0  0  0
 20 21  1  0  0  0  0
 20 42  1  0  0  0  0
 20 43  1  0  0  0  0
 21 44  1  0  0  0  0
 21 45  1  0  0  0  0
M  END
> <s_m_source_file>
AV-unprocessed.smi

> <i_m_source_file_index>
2484

> <i_lp_mmshare_version>
43012

> <i_f3d_flags>
0

> <s_epik_input>
W0NIMl0xW0NIMl1PW0NIMl1bQ0gyXUMxKFtDSDNdKVtOSF1DKD1PKVtOSF1jMltjSF1bY0hdYyhubjIpQyhbQ0gzXSkoW0NIM10pW0NIM10=

> <s_epik_cmdline>
J2VwaWtfcHl0aG9uJywgJy1waCcsICc3LjAnLCAnLXRuJywgJzgnLCAnLW1hJywgJzIwMCcsICctbWV0YWxfYmluZGluZycsICctaW1hZScsICc8aW5maWxlLm1hZT4nLCAnLW9tYWUnLCAnPG91dGZpbGUubWFlPic=

> <r_lp_tautomer_probability>
1

> <r_epik_Ionization_Penalty>
0.0115026

> <r_epik_Ionization_Penalty_Charging>
0

> <r_epik_Ionization_Penalty_Neutral>
0.0115026

> <r_epik_State_Penalty>
0.00473796

> <r_epik_Charging_Adjusted_Penalty>
0.00473796

> <i_epik_Tot_Q>
0

> <i_epik_Tot_abs_Q>
0

> <r_epik_Metal_State_Penalty>
-0

> <b_epik_Metal_Only>
0

> <s_lp_Force_Field>
OPLS_2005

> <r_lp_Energy>
18.8992

> <b_lp_Chiralities_Consistent>
1

> <s_lp_Variant>
AV-unprocessed.smi:2484-1

> <Gold.Version>
5.8.1

> <Gold.Id.Protein>
6NUR|6NUR_protein|mol2

> <Gold.PLP.Fitness>
37.6474

> <Gold.PLP.PLP>
-32.4286

> <Gold.PLP.part.hbond>
-2.0000

> <Gold.PLP.part.metal>
0.0000

> <Gold.PLP.part.buried>
-2.3687

> <Gold.PLP.part.nonpolar>
-29.4205

> <Gold.PLP.part.repulsive>
0.3797

> <Gold.PLP.ligand.clash>
0.0000

> <Gold.PLP.ligand.torsion>
0.3834

> <Gold.PLP.Chemscore.Hbond>
1.9920

> <Gold.PLP.Chemscore.CHOScore>
0.0000

> <Gold.PLP.Chemscore.Metal>
0.0000

> <Gold.Chemscore.Hbonds>
donor molecule, donor type, donor heavy atom, donor atom, acceptor molecule, acceptor atom, score
      L1  H     3    25       P1 10175  1.00
      L1  H     6    26       P1 10175  0.98

> <Gold.PLP.Chemscore.Internal.Correction>
0.0097

> <Gold.Rescore>
     Score         DG    S(hbond)    S(metal)    S(lipo)     H(rot)  DE(clash)    DE(int)     intcor
     14.69     -18.43       1.94        0.00      81.10       1.18       1.32       2.42       ----

> <Gold.Chemscore.Fitness>
14.6900

> <Gold.Chemscore.DG>
-18.4334

> <Gold.Chemscore.ZeroCoef>
-5.4800

> <Gold.Chemscore.Hbond>
1.9383

> <Gold.Chemscore.Metal>
0.0000

> <Gold.Chemscore.Lipo>
81.0976

> <Gold.Chemscore.Internal_Hbond>
0.0000

> <Gold.Chemscore.DEClash>
1.3205

> <Gold.Chemscore.DEInternal>
2.4230

> <Gold.Chemscore.Rot>
1.1753

> <Gold.Chemscore.Internal.Correction>
   9.000000E+99

> <Gold.Chemscore.Hbonds>
donor molecule, donor type, donor heavy atom, donor atom, acceptor molecule, acceptor atom, score
      L1  H     3    25       P1 10175  0.90
      L1  H     6    26       P1 10175  0.87

> <Gold.Chemscore.Hbond.Weighted>
-6.4739

> <Gold.Chemscore.Metal.Weighted>
-0.0000

> <Gold.Chemscore.Lipo.Weighted>
-9.4884

> <Gold.Chemscore.Internal_Hbond.Weighted>
0.0000

> <Gold.Chemscore.DEClash.Weighted>
1.3205

> <Gold.Chemscore.DEInternal.Weighted>
2.4230

> <Gold.Chemscore.Rot.Weighted>
3.0089

> <Gold.Chemscore.Internal.Correction.Weighted>
   9.000000E+99

> <Gold.Protein.RotatedTorsions>
[ 6907 6896 6895 6894 ] final  139.76 input  -60.11 | X-H torsion
[ 7974 7965 7964 7962 ] final   95.44 input  175.53 | X-H torsion
[ 8008 7997 7996 7995 ] final -117.23 input   59.86 | X-H torsion
[ 10167 10162 10161 10158 ] final  112.55 input  -65.29 | X-H torsion
[ 10718 10713 10712 10709 ] final   64.06 input   66.30 | X-H torsion
[ 10763 10752 10751 10750 ] final  -16.80 input  -60.55 | X-H torsion
[ 11005 11000 10999 10996 ] final  120.47 input  -57.11 | X-H torsion

> <Gold.Protein.ActiveResidues>
 VAL166  LYS551  ARG553  GLY616  TRP617  ASP618  TYR619  PRO620  LYS621  CYS622 
 ASP623  PHE694  ASN695  SER759  ASP760  ASP761  ALA762  ILE779  LEU786  VAL792 
 PHE793  MET794  SER795  GLU796  ALA797  LYS798  CYS799  TRP800  GLU811  SER814 

> <Gold.Protein.RotatedAtoms>
  152.2510  133.5215  159.5325 H   0  0  0  0  0  0  0  0  0  0  0  0  # atno 6907 bound_to 6896
  150.7094  134.0959  159.3957 H   0  0  0  0  0  0  0  0  0  0  0  0  # atno 6908 bound_to 6896
  151.8879  135.0428  160.0546 H   0  0  0  0  0  0  0  0  0  0  0  0  # atno 6909 bound_to 6896
  145.4521  139.2292  143.3034 H   0  0  0  0  0  0  0  0  0  0  0  0  # atno 7974 bound_to 7965
  155.0804  140.0394  157.2637 H   0  0  0  0  0  0  0  0  0  0  0  0  # atno 8008 bound_to 7997
  154.6911  140.2653  155.6787 H   0  0  0  0  0  0  0  0  0  0  0  0  # atno 8009 bound_to 7997
  156.2729  140.2759  156.1489 H   0  0  0  0  0  0  0  0  0  0  0  0  # atno 8010 bound_to 7997
  139.6527  144.7128  151.2017 H   0  0  0  0  0  0  0  0  0  0  0  0  # atno 10167 bound_to 10162
  157.6014  130.9139  149.9797 H   0  0  0  0  0  0  0  0  0  0  0  0  # atno 10718 bound_to 10713
  153.5641  135.7009  153.5534 H   0  0  0  0  0  0  0  0  0  0  0  0  # atno 10763 bound_to 10752
  153.3403  135.4023  155.1566 H   0  0  0  0  0  0  0  0  0  0  0  0  # atno 10764 bound_to 10752
  154.8643  135.3740  154.5160 H   0  0  0  0  0  0  0  0  0  0  0  0  # atno 10765 bound_to 10752
  139.9187  134.9635  156.7812 H   0  0  0  0  0  0  0  0  0  0  0  0  # atno 11005 bound_to 11000
  146.2498  140.5281  142.8898 LP  0  0  0  0  0  0  0  0  0  0  0  0  # atno 17320 bound_to 7965
  144.8055  140.6291  143.6450 LP  0  0  0  0  0  0  0  0  0  0  0  0  # atno 17321 bound_to 7965
  140.7545  143.6123  150.8593 LP  0  0  0  0  0  0  0  0  0  0  0  0  # atno 17342 bound_to 10162
  139.9773  143.5990  152.2954 LP  0  0  0  0  0  0  0  0  0  0  0  0  # atno 17343 bound_to 10162
  156.1088  130.3651  150.0085 LP  0  0  0  0  0  0  0  0  0  0  0  0  # atno 17370 bound_to 10713
  156.8187  130.9351  151.3642 LP  0  0  0  0  0  0  0  0  0  0  0  0  # atno 17371 bound_to 10713
  140.6542  133.9703  155.7771 LP  0  0  0  0  0  0  0  0  0  0  0  0  # atno 17394 bound_to 11000
  141.0687  134.0238  157.3557 LP  0  0  0  0  0  0  0  0  0  0  0  0  # atno 17395 bound_to 11000

$$$$
