AV-unprocessed.smi:203|AV-procd|sdf|1584|dock8
  -GOLD-   2262019473D 1   1.00000     0.00000
 Structure written by MMmdl.
 57 61  0  0  0  0  0  0  0  0  1 V2000
  143.2550  132.0086  148.3473 O   0  0  0  0  0  0  0  0  0  0  0  0
  143.9680  132.3354  149.2930 C   0  0  0  0  0  0  0  0  0  0  0  0
  143.5378  132.2207  150.7449 C   0  0  0  0  0  0  0  0  0  0  0  0
  144.8252  132.5327  151.5326 C   0  0  1  0  0  0  0  0  0  0  0  0
  145.3943  131.3142  152.3271 C   0  0  1  0  0  0  0  0  0  0  0  0
  145.6001  130.0589  151.4391 C   0  0  0  0  0  0  0  0  0  0  0  0
  146.1476  128.8759  152.2490 C   0  0  0  0  0  0  0  0  0  0  0  0
  147.4439  129.2828  152.9580 C   0  0  0  0  0  0  0  0  0  0  0  0
  147.2104  130.5242  153.8291 C   0  0  0  0  0  0  0  0  0  0  0  0
  146.6431  131.6225  153.0479 N   0  0  0  0  0  0  0  0  0  0  0  0
  146.6575  132.7680  153.7650 C   0  0  0  0  0  0  0  0  0  0  0  0
  145.4582  133.3016  154.1024 N   0  0  0  0  0  0  0  0  0  0  0  0
  145.4083  134.4127  154.8432 C   0  0  0  0  0  0  0  0  0  0  0  0
  146.4177  135.1282  155.3449 N   0  0  0  0  0  0  0  0  0  0  0  0
  147.6246  134.5958  154.9978 C   0  0  0  0  0  0  0  0  0  0  0  0
  147.8355  133.4350  154.2034 C   0  0  0  0  0  0  0  0  0  0  0  0
  149.1970  133.2059  154.0471 N   0  0  0  0  0  0  0  0  0  0  0  0
  149.7596  134.1647  154.7299 C   0  0  0  0  0  0  0  0  0  0  0  0
  148.8891  135.0267  155.3579 N   0  0  0  0  0  0  0  0  0  0  0  0
  149.2409  136.1507  156.2068 C   0  0  0  0  0  0  0  0  0  0  0  0
  149.0591  137.5235  155.5166 C   0  0  2  0  0  0  0  0  0  0  0  0
  149.7712  137.5101  154.2966 O   0  0  0  0  0  0  0  0  0  0  0  0
  149.4719  138.7808  156.3202 C   0  0  2  0  0  0  0  0  0  0  0  0
  149.1144  140.1378  155.7097 C   0  0  0  0  0  0  0  0  0  0  0  0
  150.0848  141.0491  156.4272 C   0  0  0  0  0  0  0  0  0  0  0  0
  151.3357  140.1784  156.5146 C   0  0  0  0  0  0  0  0  0  0  0  0
  150.8761  138.8299  156.5626 O   0  0  0  0  0  0  0  0  0  0  0  0
  145.8035  133.1182  150.4898 C   0  0  0  0  0  0  0  0  0  0  0  0
  145.1984  132.8352  149.2033 N   0  0  0  0  0  0  0  0  0  0  0  0
  142.7655  132.9639  150.9448 H   0  0  0  0  0  0  0  0  0  0  0  0
  143.1210  131.2381  150.9654 H   0  0  0  0  0  0  0  0  0  0  0  0
  144.5667  133.3254  152.2343 H   0  0  0  0  0  0  0  0  0  0  0  0
  144.6526  131.0465  153.0801 H   0  0  0  0  0  0  0  0  0  0  0  0
  144.6651  129.7579  150.9678 H   0  0  0  0  0  0  0  0  0  0  0  0
  146.2930  130.2777  150.6266 H   0  0  0  0  0  0  0  0  0  0  0  0
  145.4077  128.5569  152.9840 H   0  0  0  0  0  0  0  0  0  0  0  0
  146.3285  128.0231  151.5943 H   0  0  0  0  0  0  0  0  0  0  0  0
  147.8121  128.4598  153.5709 H   0  0  0  0  0  0  0  0  0  0  0  0
  148.2181  129.4930  152.2190 H   0  0  0  0  0  0  0  0  0  0  0  0
  146.5338  130.2770  154.6487 H   0  0  0  0  0  0  0  0  0  0  0  0
  148.1547  130.8346  154.2793 H   0  0  0  0  0  0  0  0  0  0  0  0
  144.4178  134.7757  155.0742 H   0  0  0  0  0  0  0  0  0  0  0  0
  150.8329  134.2557  154.8115 H   0  0  0  0  0  0  0  0  0  0  0  0
  148.6356  136.0985  157.1128 H   0  0  0  0  0  0  0  0  0  0  0  0
  150.2767  136.0249  156.5236 H   0  0  0  0  0  0  0  0  0  0  0  0
  148.0079  137.6361  155.2508 H   0  0  0  0  0  0  0  0  0  0  0  0
  149.3649  136.8823  153.7191 H   0  0  0  0  0  0  0  0  0  0  0  0
  149.0128  138.7252  157.3091 H   0  0  0  0  0  0  0  0  0  0  0  0
  149.3137  140.1639  154.6394 H   0  0  0  0  0  0  0  0  0  0  0  0
  148.0719  140.4137  155.8690 H   0  0  0  0  0  0  0  0  0  0  0  0
  150.2576  141.9908  155.9062 H   0  0  0  0  0  0  0  0  0  0  0  0
  149.7144  141.2747  157.4282 H   0  0  0  0  0  0  0  0  0  0  0  0
  151.9495  140.3043  155.6224 H   0  0  0  0  0  0  0  0  0  0  0  0
  151.9507  140.4200  157.3816 H   0  0  0  0  0  0  0  0  0  0  0  0
  145.8965  134.1984  150.6097 H   0  0  0  0  0  0  0  0  0  0  0  0
  146.8057  132.6940  150.5513 H   0  0  0  0  0  0  0  0  0  0  0  0
  145.6791  132.9979  148.3303 H   0  0  0  0  0  0  0  0  0  0  0  0
  1  2  2  0  0  0  0
  2 29  1  0  0  0  0
  2  3  1  0  0  0  0
  3  4  1  0  0  0  0
  3 30  1  0  0  0  0
  3 31  1  0  0  0  0
  4  5  1  0  0  0  0
  4 28  1  0  0  0  0
  4 32  1  0  0  0  0
  5 10  1  0  0  0  0
  5  6  1  0  0  0  0
  5 33  1  0  0  0  0
  6  7  1  0  0  0  0
  6 34  1  0  0  0  0
  6 35  1  0  0  0  0
  7  8  1  0  0  0  0
  7 36  1  0  0  0  0
  7 37  1  0  0  0  0
  8  9  1  0  0  0  0
  8 38  1  0  0  0  0
  8 39  1  0  0  0  0
  9 10  1  0  0  0  0
  9 40  1  0  0  0  0
  9 41  1  0  0  0  0
 10 11  1  0  0  0  0
 11 16  1  0  0  0  0
 11 12  2  0  0  0  0
 12 13  1  0  0  0  0
 13 14  2  0  0  0  0
 13 42  1  0  0  0  0
 14 15  1  0  0  0  0
 15 19  1  0  0  0  0
 15 16  2  0  0  0  0
 16 17  1  0  0  0  0
 17 18  2  0  0  0  0
 18 19  1  0  0  0  0
 18 43  1  0  0  0  0
 19 20  1  0  0  0  0
 20 21  1  0  0  0  0
 20 44  1  0  0  0  0
 20 45  1  0  0  0  0
 21 22  1  0  0  0  0
 21 23  1  0  0  0  0
 21 46  1  0  0  0  0
 22 47  1  0  0  0  0
 23 27  1  0  0  0  0
 23 24  1  0  0  0  0
 23 48  1  0  0  0  0
 24 25  1  0  0  0  0
 24 49  1  0  0  0  0
 24 50  1  0  0  0  0
 25 26  1  0  0  0  0
 25 51  1  0  0  0  0
 25 52  1  0  0  0  0
 26 27  1  0  0  0  0
 26 53  1  0  0  0  0
 26 54  1  0  0  0  0
 28 29  1  0  0  0  0
 28 55  1  0  0  0  0
 28 56  1  0  0  0  0
 29 57  1  0  0  0  0
M  END
> <s_m_source_file>
AV-unprocessed.smi

> <i_m_source_file_index>
203

> <i_lp_mmshare_version>
43012

> <i_f3d_flags>
0

> <s_epik_input>
Tz1DMVtDSDJdW0NASF0oW0NIMl1bTkhdMSlbQ0BASF0yW0NIMl1bQ0gyXVtDSDJdW0NIMl1OMmMobltjSF1uMyljKGMzNCluW2NIXW40W0NIMl1bQ0BIXShbT0hdKVtDQEBIXTVbQ0gyXVtDSDJdW0NIMl1PNQ==

> <s_epik_cmdline>
J2VwaWtfcHl0aG9uJywgJy1waCcsICc3LjAnLCAnLXRuJywgJzgnLCAnLW1hJywgJzIwMCcsICctbWV0YWxfYmluZGluZycsICctaW1hZScsICc8aW5maWxlLm1hZT4nLCAnLW9tYWUnLCAnPG91dGZpbGUubWFlPic=

> <r_lp_tautomer_probability>
1

> <r_epik_Ionization_Penalty>
0.00175146

> <r_epik_Ionization_Penalty_Charging>
0

> <r_epik_Ionization_Penalty_Neutral>
0.00175146

> <r_epik_State_Penalty>
0.00109045

> <r_epik_Charging_Adjusted_Penalty>
0.00109045

> <i_epik_Tot_Q>
0

> <i_epik_Tot_abs_Q>
0

> <r_epik_Metal_State_Penalty>
-0

> <b_epik_Metal_Only>
0

> <s_lp_Force_Field>
OPLS_2005

> <r_lp_Energy>
54.964

> <b_lp_Chiralities_Consistent>
1

> <s_lp_Variant>
AV-unprocessed.smi:203-3

> <Gold.Version>
5.8.1

> <Gold.Id.Protein>
6NUR|6NUR_protein|mol2

> <Gold.PLP.Fitness>
47.1224

> <Gold.PLP.PLP>
-42.3767

> <Gold.PLP.part.hbond>
-4.0000

> <Gold.PLP.part.metal>
0.0000

> <Gold.PLP.part.buried>
-6.7364

> <Gold.PLP.part.nonpolar>
-33.2608

> <Gold.PLP.part.repulsive>
0.9609

> <Gold.PLP.ligand.clash>
0.0000

> <Gold.PLP.ligand.torsion>
0.5537

> <Gold.PLP.Chemscore.Hbond>
1.8640

> <Gold.PLP.Chemscore.CHOScore>
0.0000

> <Gold.PLP.Chemscore.Metal>
0.0000

> <Gold.Chemscore.Hbonds>
donor molecule, donor type, donor heavy atom, donor atom, acceptor molecule, acceptor atom, score
      L1  H    22    47       P1  7948  0.99
      L1  H    29    57       P1  7921  0.15
      P1  H 10785 10796       L1     1  0.65

> <Gold.PLP.Chemscore.Internal.Correction>
0.2611

> <Gold.Rescore>
     Score         DG    S(hbond)    S(metal)    S(lipo)     H(rot)  DE(clash)    DE(int)     intcor
     11.77     -13.79       1.57        0.00      85.67       2.72       0.21       1.82       ----

> <Gold.Chemscore.Fitness>
11.7734

> <Gold.Chemscore.DG>
-13.7944

> <Gold.Chemscore.ZeroCoef>
-5.4800

> <Gold.Chemscore.Hbond>
1.5709

> <Gold.Chemscore.Metal>
0.0000

> <Gold.Chemscore.Lipo>
85.6700

> <Gold.Chemscore.Internal_Hbond>
0.0000

> <Gold.Chemscore.DEClash>
0.2056

> <Gold.Chemscore.DEInternal>
1.8154

> <Gold.Chemscore.Rot>
2.7171

> <Gold.Chemscore.Internal.Correction>
   9.000000E+99

> <Gold.Chemscore.Hbonds>
donor molecule, donor type, donor heavy atom, donor atom, acceptor molecule, acceptor atom, score
      L1  H    22    47       P1  7948  0.86
      P1  H 10785 10796       L1     1  0.13

> <Gold.Chemscore.Hbond.Weighted>
-5.2467

> <Gold.Chemscore.Metal.Weighted>
-0.0000

> <Gold.Chemscore.Lipo.Weighted>
-10.0234

> <Gold.Chemscore.Internal_Hbond.Weighted>
0.0000

> <Gold.Chemscore.DEClash.Weighted>
0.2056

> <Gold.Chemscore.DEInternal.Weighted>
1.8154

> <Gold.Chemscore.Rot.Weighted>
6.9557

> <Gold.Chemscore.Internal.Correction.Weighted>
   9.000000E+99

> <Gold.Protein.RotatedTorsions>
[ 6907 6896 6895 6894 ] final  120.74 input  -60.11 | X-H torsion
[ 7974 7965 7964 7962 ] final  -96.22 input  175.53 | X-H torsion
[ 8008 7997 7996 7995 ] final   -3.95 input   59.86 | X-H torsion
[ 10167 10162 10161 10158 ] final -131.53 input  -65.29 | X-H torsion
[ 10718 10713 10712 10709 ] final  100.89 input   66.30 | X-H torsion
[ 10763 10752 10751 10750 ] final   86.23 input  -60.55 | X-H torsion
[ 11005 11000 10999 10996 ] final   63.08 input  -57.11 | X-H torsion

> <Gold.Protein.ActiveResidues>
 VAL166  LYS551  ARG553  GLY616  TRP617  ASP618  TYR619  PRO620  LYS621  CYS622 
 ASP623  PHE694  ASN695  SER759  ASP760  ASP761  ALA762  ILE779  LEU786  VAL792 
 PHE793  MET794  SER795  GLU796  ALA797  LYS798  CYS799  TRP800  GLU811  SER814 

> <Gold.Protein.RotatedAtoms>
  152.4375  133.7387  159.6628 H   0  0  0  0  0  0  0  0  0  0  0  0  # atno 6907 bound_to 6896
  150.8261  133.8159  159.3124 H   0  0  0  0  0  0  0  0  0  0  0  0  # atno 6908 bound_to 6896
  151.5827  135.1060  160.0072 H   0  0  0  0  0  0  0  0  0  0  0  0  # atno 6909 bound_to 6896
  145.3497  140.9474  143.2561 H   0  0  0  0  0  0  0  0  0  0  0  0  # atno 7974 bound_to 7965
  154.6194  140.2496  155.7568 H   0  0  0  0  0  0  0  0  0  0  0  0  # atno 8008 bound_to 7997
  156.2418  140.2930  156.0414 H   0  0  0  0  0  0  0  0  0  0  0  0  # atno 8009 bound_to 7997
  155.1921  140.0392  157.2892 H   0  0  0  0  0  0  0  0  0  0  0  0  # atno 8010 bound_to 7997
  139.9179  143.6417  152.2560 H   0  0  0  0  0  0  0  0  0  0  0  0  # atno 10167 bound_to 10162
  157.6843  131.0711  150.5169 H   0  0  0  0  0  0  0  0  0  0  0  0  # atno 10718 bound_to 10713
  153.1551  135.4588  154.9692 H   0  0  0  0  0  0  0  0  0  0  0  0  # atno 10763 bound_to 10752
  154.7855  135.3202  154.7898 H   0  0  0  0  0  0  0  0  0  0  0  0  # atno 10764 bound_to 10752
  153.8397  135.6931  153.4859 H   0  0  0  0  0  0  0  0  0  0  0  0  # atno 10765 bound_to 10752
  140.0049  134.6385  155.9871 H   0  0  0  0  0  0  0  0  0  0  0  0  # atno 11005 bound_to 11000
  144.8727  139.5015  143.6760 LP  0  0  0  0  0  0  0  0  0  0  0  0  # atno 17320 bound_to 7965
  146.2973  139.7317  142.9117 LP  0  0  0  0  0  0  0  0  0  0  0  0  # atno 17321 bound_to 7965
  139.6886  144.7649  151.1478 LP  0  0  0  0  0  0  0  0  0  0  0  0  # atno 17342 bound_to 10162
  140.7669  143.5621  150.9088 LP  0  0  0  0  0  0  0  0  0  0  0  0  # atno 17343 bound_to 10162
  156.5484  130.4225  149.6120 LP  0  0  0  0  0  0  0  0  0  0  0  0  # atno 17370 bound_to 10713
  156.2924  130.7131  151.1983 LP  0  0  0  0  0  0  0  0  0  0  0  0  # atno 17371 bound_to 10713
  141.1669  133.6537  156.4512 LP  0  0  0  0  0  0  0  0  0  0  0  0  # atno 17394 bound_to 11000
  140.4660  134.6797  157.5107 LP  0  0  0  0  0  0  0  0  0  0  0  0  # atno 17395 bound_to 11000

$$$$
