AV-unprocessed.smi:1787|AV-procd|sdf|7207|dock3
  -GOLD-   22720 8453D 1   1.00000     0.00000
 Structure written by MMmdl.
 44 46  0  0  0  0  0  0  0  0  1 V2000
  144.8304  136.0630  153.3657 O   0  0  0  0  0  0  0  0  0  0  0  0
  145.9714  136.0990  152.9059 C   0  0  0  0  0  0  0  0  0  0  0  0
  146.8652  137.0498  153.2110 N   0  0  0  0  0  0  0  0  0  0  0  0
  146.6433  138.1719  154.1226 C   0  0  0  0  0  0  0  0  0  0  0  0
  147.9309  139.0326  154.3491 C   0  0  2  0  0  0  0  0  0  0  0  0
  149.1508  138.1695  154.2826 N   0  0  0  0  0  0  0  0  0  0  0  0
  149.2257  137.0788  155.2659 C   0  0  0  0  0  0  0  0  0  0  0  0
  150.4731  136.1988  155.0740 C   0  0  0  0  0  0  0  0  0  0  0  0
  151.6440  137.0019  155.1313 O   0  0  0  0  0  0  0  0  0  0  0  0
  151.6443  138.0187  154.1388 C   0  0  0  0  0  0  0  0  0  0  0  0
  150.4131  138.9209  154.3226 C   0  0  0  0  0  0  0  0  0  0  0  0
  147.7777  139.7837  155.7037 C   0  0  0  0  0  0  0  0  0  0  0  0
  146.7007  140.8647  155.5620 C   0  0  0  0  0  0  0  0  0  0  0  0
  146.7750  141.4749  153.8616 S   0  0  0  0  0  0  0  0  0  0  0  0
  147.9280  140.1857  153.3128 C   0  0  0  0  0  0  0  0  0  0  0  0
  146.4982  135.1923  152.0653 N   0  0  0  0  0  0  0  0  0  0  0  0
  145.8744  134.0483  151.4991 C   0  0  0  0  0  0  0  0  0  0  0  0
  144.4654  133.9925  151.5032 C   0  0  0  0  0  0  0  0  0  0  0  0
  143.8218  132.8614  150.9664 C   0  0  0  0  0  0  0  0  0  0  0  0
  144.6178  131.8200  150.4513 C   0  0  0  0  0  0  0  0  0  0  0  0
  145.9672  131.8497  150.4527 N   0  0  0  0  0  0  0  0  0  0  0  0
  146.5782  132.9387  150.9678 C   0  0  0  0  0  0  0  0  0  0  0  0
  147.7827  136.9863  152.7950 H   0  0  0  0  0  0  0  0  0  0  0  0
  145.8375  138.7758  153.7081 H   0  0  0  0  0  0  0  0  0  0  0  0
  146.2247  137.8137  155.0629 H   0  0  0  0  0  0  0  0  0  0  0  0
  149.2303  137.4751  156.2806 H   0  0  0  0  0  0  0  0  0  0  0  0
  148.3671  136.4171  155.1816 H   0  0  0  0  0  0  0  0  0  0  0  0
  150.5241  135.4405  155.8554 H   0  0  0  0  0  0  0  0  0  0  0  0
  150.4308  135.6715  154.1195 H   0  0  0  0  0  0  0  0  0  0  0  0
  152.5591  138.6045  154.2303 H   0  0  0  0  0  0  0  0  0  0  0  0
  151.6499  137.5703  153.1441 H   0  0  0  0  0  0  0  0  0  0  0  0
  150.4471  139.6730  153.5376 H   0  0  0  0  0  0  0  0  0  0  0  0
  150.5017  139.4515  155.2712 H   0  0  0  0  0  0  0  0  0  0  0  0
  147.5746  139.1167  156.5410 H   0  0  0  0  0  0  0  0  0  0  0  0
  148.6865  140.3238  155.9592 H   0  0  0  0  0  0  0  0  0  0  0  0
  145.7086  140.4525  155.7456 H   0  0  0  0  0  0  0  0  0  0  0  0
  146.8487  141.6796  156.2709 H   0  0  0  0  0  0  0  0  0  0  0  0
  148.9052  140.6602  153.2412 H   0  0  0  0  0  0  0  0  0  0  0  0
  147.6659  139.8477  152.3097 H   0  0  0  0  0  0  0  0  0  0  0  0
  147.4776  135.3045  151.8475 H   0  0  0  0  0  0  0  0  0  0  0  0
  143.8821  134.8073  151.9072 H   0  0  0  0  0  0  0  0  0  0  0  0
  142.7441  132.7933  150.9506 H   0  0  0  0  0  0  0  0  0  0  0  0
  144.1584  130.9374  150.0313 H   0  0  0  0  0  0  0  0  0  0  0  0
  147.6561  132.8930  150.9665 H   0  0  0  0  0  0  0  0  0  0  0  0
  1  2  2  0  0  0  0
  2  3  1  0  0  0  0
  2 16  1  0  0  0  0
  3  4  1  0  0  0  0
  3 23  1  0  0  0  0
  4  5  1  0  0  0  0
  4 24  1  0  0  0  0
  4 25  1  0  0  0  0
  5 15  1  0  0  0  0
  5  6  1  0  0  0  0
  5 12  1  0  0  0  0
  6 11  1  0  0  0  0
  6  7  1  0  0  0  0
  7  8  1  0  0  0  0
  7 26  1  0  0  0  0
  7 27  1  0  0  0  0
  8  9  1  0  0  0  0
  8 28  1  0  0  0  0
  8 29  1  0  0  0  0
  9 10  1  0  0  0  0
 10 11  1  0  0  0  0
 10 30  1  0  0  0  0
 10 31  1  0  0  0  0
 11 32  1  0  0  0  0
 11 33  1  0  0  0  0
 12 13  1  0  0  0  0
 12 34  1  0  0  0  0
 12 35  1  0  0  0  0
 13 14  1  0  0  0  0
 13 36  1  0  0  0  0
 13 37  1  0  0  0  0
 14 15  1  0  0  0  0
 15 38  1  0  0  0  0
 15 39  1  0  0  0  0
 16 17  1  0  0  0  0
 16 40  1  0  0  0  0
 17 22  1  0  0  0  0
 17 18  2  0  0  0  0
 18 19  1  0  0  0  0
 18 41  1  0  0  0  0
 19 20  2  0  0  0  0
 19 42  1  0  0  0  0
 20 21  1  0  0  0  0
 20 43  1  0  0  0  0
 21 22  2  0  0  0  0
 22 44  1  0  0  0  0
M  END
> <s_m_source_file>
AV-unprocessed.smi

> <i_m_source_file_index>
1787

> <i_lp_mmshare_version>
43012

> <i_f3d_flags>
0

> <s_epik_input>
W2NIXTFuW2NIXVtjSF1bY0hdYzFbTkhdQyg9TylbTkhdW0NIMl1bQ0BdMihbQ0gyXVtDSDJdU1tDSDJdMilOM1tDSDJdW0NIMl1PW0NIMl1bQ0gyXTM=

> <s_epik_cmdline>
J2VwaWtfcHl0aG9uJywgJy1waCcsICc3LjAnLCAnLXRuJywgJzgnLCAnLW1hJywgJzIwMCcsICctbWV0YWxfYmluZGluZycsICctaW1hZScsICc8aW5maWxlLm1hZT4nLCAnLW9tYWUnLCAnPG91dGZpbGUubWFlPic=

> <r_epik_Ionization_Penalty>
0.024212

> <r_epik_Ionization_Penalty_Charging>
0

> <r_epik_Ionization_Penalty_Neutral>
0.024212

> <r_epik_State_Penalty>
0.0155843

> <r_epik_Charging_Adjusted_Penalty>
0.0155843

> <i_epik_Tot_Q>
0

> <i_epik_Tot_abs_Q>
0

> <r_epik_Metal_State_Penalty>
0.01557

> <b_epik_Metal_Only>
0

> <s_lp_Force_Field>
OPLS_2005

> <r_lp_Energy>
56.7438

> <b_lp_Chiralities_Consistent>
1

> <s_lp_Variant>
AV-unprocessed.smi:1787-2

> <Gold.Version>
5.8.1

> <Gold.Id.Protein>
6NUR|6NUR_protein|mol2

> <Gold.PLP.Fitness>
42.1272

> <Gold.PLP.PLP>
-31.6654

> <Gold.PLP.part.hbond>
-3.0000

> <Gold.PLP.part.metal>
0.0000

> <Gold.PLP.part.buried>
-3.6425

> <Gold.PLP.part.nonpolar>
-27.0161

> <Gold.PLP.part.repulsive>
0.7815

> <Gold.PLP.ligand.clash>
0.0000

> <Gold.PLP.ligand.torsion>
0.6261

> <Gold.PLP.Chemscore.Hbond>
3.0000

> <Gold.PLP.Chemscore.CHOScore>
0.8756

> <Gold.PLP.Chemscore.Metal>
0.0000

> <Gold.Chemscore.Hbonds>
donor molecule, donor type, donor heavy atom, donor atom, acceptor molecule, acceptor atom, score
      L1  H     3    23       P1  7948  1.00
      L1  H    16    40       P1  7948  1.00
      P1  H 10752 10765       L1     9  0.90
      L1  C    22    44       P1 10747  0.89

> <Gold.PLP.Chemscore.Internal.Correction>
0.0873

> <Gold.Rescore>
     Score         DG    S(hbond)    S(metal)    S(lipo)     H(rot)  DE(clash)    DE(int)     intcor
     16.19     -19.86       2.39        0.00      86.36       1.44       1.64       2.03       ----

> <Gold.Chemscore.Fitness>
16.1892

> <Gold.Chemscore.DG>
-19.8635

> <Gold.Chemscore.ZeroCoef>
-5.4800

> <Gold.Chemscore.Hbond>
2.3886

> <Gold.Chemscore.Metal>
0.0000

> <Gold.Chemscore.Lipo>
86.3551

> <Gold.Chemscore.Internal_Hbond>
0.0000

> <Gold.Chemscore.DEClash>
1.6440

> <Gold.Chemscore.DEInternal>
2.0302

> <Gold.Chemscore.Rot>
1.4445

> <Gold.Chemscore.Internal.Correction>
   9.000000E+99

> <Gold.Chemscore.Hbonds>
donor molecule, donor type, donor heavy atom, donor atom, acceptor molecule, acceptor atom, score
      L1  H     3    23       P1  7948  0.97
      L1  H    16    40       P1  7948  0.94
      P1  H 10752 10765       L1     9  0.13

> <Gold.Chemscore.Hbond.Weighted>
-7.9779

> <Gold.Chemscore.Metal.Weighted>
-0.0000

> <Gold.Chemscore.Lipo.Weighted>
-10.1036

> <Gold.Chemscore.Internal_Hbond.Weighted>
0.0000

> <Gold.Chemscore.DEClash.Weighted>
1.6440

> <Gold.Chemscore.DEInternal.Weighted>
2.0302

> <Gold.Chemscore.Rot.Weighted>
3.6980

> <Gold.Chemscore.Internal.Correction.Weighted>
   9.000000E+99

> <Gold.Protein.RotatedTorsions>
[ 6907 6896 6895 6894 ] final  106.15 input  -60.11 | X-H torsion
[ 7974 7965 7964 7962 ] final   48.68 input  175.53 | X-H torsion
[ 8008 7997 7996 7995 ] final -141.62 input   59.86 | X-H torsion
[ 10167 10162 10161 10158 ] final  -34.46 input  -65.29 | X-H torsion
[ 10718 10713 10712 10709 ] final  145.00 input   66.30 | X-H torsion
[ 10763 10752 10751 10750 ] final -172.09 input  -60.55 | X-H torsion
[ 11005 11000 10999 10996 ] final   -7.24 input  -57.11 | X-H torsion

> <Gold.Protein.ActiveResidues>
 VAL166  LYS551  ARG553  GLY616  TRP617  ASP618  TYR619  PRO620  LYS621  CYS622 
 ASP623  PHE694  ASN695  SER759  ASP760  ASP761  ALA762  ILE779  LEU786  VAL792 
 PHE793  MET794  SER795  GLU796  ALA797  LYS798  CYS799  TRP800  GLU811  SER814 

> <Gold.Protein.RotatedAtoms>
  152.5204  133.9423  159.7631 H   0  0  0  0  0  0  0  0  0  0  0  0  # atno 6907 bound_to 6896
  150.9750  133.6296  159.2738 H   0  0  0  0  0  0  0  0  0  0  0  0  # atno 6908 bound_to 6896
  151.3493  135.0886  159.9450 H   0  0  0  0  0  0  0  0  0  0  0  0  # atno 6909 bound_to 6896
  146.0181  139.4620  142.9914 H   0  0  0  0  0  0  0  0  0  0  0  0  # atno 7974 bound_to 7965
  155.4808  140.0560  157.2967 H   0  0  0  0  0  0  0  0  0  0  0  0  # atno 8008 bound_to 7997
  154.4661  140.2019  156.0067 H   0  0  0  0  0  0  0  0  0  0  0  0  # atno 8009 bound_to 7997
  156.0976  140.3224  155.7903 H   0  0  0  0  0  0  0  0  0  0  0  0  # atno 8010 bound_to 7997
  140.7185  143.3546  151.2085 H   0  0  0  0  0  0  0  0  0  0  0  0  # atno 10167 bound_to 10162
  157.3505  131.0950  151.1004 H   0  0  0  0  0  0  0  0  0  0  0  0  # atno 10718 bound_to 10713
  154.6232  135.2877  155.0302 H   0  0  0  0  0  0  0  0  0  0  0  0  # atno 10763 bound_to 10752
  154.1489  135.6506  153.4963 H   0  0  0  0  0  0  0  0  0  0  0  0  # atno 10764 bound_to 10752
  153.0245  135.5351  154.7030 H   0  0  0  0  0  0  0  0  0  0  0  0  # atno 10765 bound_to 10752
  140.7106  133.8912  155.8748 H   0  0  0  0  0  0  0  0  0  0  0  0  # atno 11005 bound_to 11000
  145.7236  141.0066  143.1389 LP  0  0  0  0  0  0  0  0  0  0  0  0  # atno 17320 bound_to 7965
  144.6979  139.8900  143.7452 LP  0  0  0  0  0  0  0  0  0  0  0  0  # atno 17321 bound_to 7965
  139.7085  143.9416  152.2937 LP  0  0  0  0  0  0  0  0  0  0  0  0  # atno 17342 bound_to 10162
  139.9133  144.6843  150.8539 LP  0  0  0  0  0  0  0  0  0  0  0  0  # atno 17343 bound_to 10162
  157.2182  130.6469  149.5800 LP  0  0  0  0  0  0  0  0  0  0  0  0  # atno 17370 bound_to 10713
  155.9721  130.4638  150.6194 LP  0  0  0  0  0  0  0  0  0  0  0  0  # atno 17371 bound_to 10713
  141.0088  134.1049  157.4243 LP  0  0  0  0  0  0  0  0  0  0  0  0  # atno 17394 bound_to 11000
  139.8873  135.0088  156.6550 LP  0  0  0  0  0  0  0  0  0  0  0  0  # atno 17395 bound_to 11000

$$$$
