AV-unprocessed.smi:2837|AV-procd|sdf|10925|dock6
  -GOLD-   2272015373D 1   1.00000     0.00000
 Structure written by MMmdl.
 33 35  0  0  0  0  0  0  0  0  2 V2000
  138.6668  136.9472  154.0833 F   0  0  0  0  0  0  0  0  0  0  0  0
  139.3973  137.7673  153.2903 C   0  0  0  0  0  0  0  0  0  0  0  0
  138.7729  138.9700  153.2604 F   0  0  0  0  0  0  0  0  0  0  0  0
  140.6526  137.8964  153.7966 O   0  0  0  0  0  0  0  0  0  0  0  0
  141.5397  136.8513  153.6742 C   0  0  0  0  0  0  0  0  0  0  0  0
  142.6986  137.0449  152.8942 C   0  0  0  0  0  0  0  0  0  0  0  0
  143.6238  135.9929  152.7360 C   0  0  0  0  0  0  0  0  0  0  0  0
  143.3718  134.7463  153.3565 C   0  0  0  0  0  0  0  0  0  0  0  0
  144.2157  133.6302  153.2715 N   0  0  0  0  0  0  0  0  0  0  0  0
  145.4584  133.6767  152.5097 C   0  0  1  0  0  0  0  0  0  0  0  0
  146.0961  132.2983  152.3193 C   0  0  0  0  0  0  0  0  0  0  0  0
  146.2828  132.2443  150.7964 C   0  0  1  0  0  0  0  0  0  0  0  0
  144.9513  132.0033  150.0743 C   0  0  0  0  0  0  0  0  0  0  0  0
  144.2564  133.3524  150.2472 C   0  0  0  0  0  0  0  0  0  0  0  0
  145.2998  134.1485  151.0500 C   0  0  2  0  0  0  0  0  0  0  0  0
  146.4922  133.6152  150.5002 O   0  0  0  0  0  0  0  0  0  0  0  0
  142.2448  134.5971  154.0870 N   0  3  0  0  0  0  0  0  0  0  0  0
  141.3356  135.5806  154.2641 C   0  0  0  0  0  0  0  0  0  0  0  0
  139.4095  137.3378  152.2882 H   0  0  0  0  0  0  0  0  0  0  0  0
  142.8795  137.9991  152.4212 H   0  0  0  0  0  0  0  0  0  0  0  0
  144.5098  136.1607  152.1424 H   0  0  0  0  0  0  0  0  0  0  0  0
  143.8801  132.7300  153.5824 H   0  0  0  0  0  0  0  0  0  0  0  0
  146.1760  134.3150  153.0265 H   0  0  0  0  0  0  0  0  0  0  0  0
  147.0583  132.2540  152.8308 H   0  0  0  0  0  0  0  0  0  0  0  0
  145.4825  131.4730  152.6837 H   0  0  0  0  0  0  0  0  0  0  0  0
  147.0876  131.5844  150.4717 H   0  0  0  0  0  0  0  0  0  0  0  0
  145.1152  131.7908  149.0171 H   0  0  0  0  0  0  0  0  0  0  0  0
  144.3867  131.1761  150.5060 H   0  0  0  0  0  0  0  0  0  0  0  0
  144.0878  133.8163  149.2749 H   0  0  0  0  0  0  0  0  0  0  0  0
  143.2933  133.2746  150.7520 H   0  0  0  0  0  0  0  0  0  0  0  0
  145.2077  135.2289  150.9384 H   0  0  0  0  0  0  0  0  0  0  0  0
  140.4785  135.3130  154.8648 H   0  0  0  0  0  0  0  0  0  0  0  0
  142.0671  133.6939  154.5270 H   0  0  0  0  0  0  0  0  0  0  0  0
  1  2  1  0  0  0  0
  2  3  1  0  0  0  0
  2  4  1  0  0  0  0
  2 19  1  0  0  0  0
  4  5  1  0  0  0  0
  5 18  1  0  0  0  0
  5  6  2  0  0  0  0
  6  7  1  0  0  0  0
  6 20  1  0  0  0  0
  7  8  2  0  0  0  0
  7 21  1  0  0  0  0
  8  9  1  0  0  0  0
  8 17  1  0  0  0  0
  9 10  1  0  0  0  0
  9 22  1  0  0  0  0
 10 15  1  0  0  0  0
 10 11  1  0  0  0  0
 10 23  1  0  0  0  0
 11 12  1  0  0  0  0
 11 24  1  0  0  0  0
 11 25  1  0  0  0  0
 12 16  1  0  0  0  0
 12 13  1  0  0  0  0
 12 26  1  0  0  0  0
 13 14  1  0  0  0  0
 13 27  1  0  0  0  0
 13 28  1  0  0  0  0
 14 15  1  0  0  0  0
 14 29  1  0  0  0  0
 14 30  1  0  0  0  0
 15 16  1  0  0  0  0
 15 31  1  0  0  0  0
 17 18  2  0  0  0  0
 17 33  1  0  0  0  0
 18 32  1  0  0  0  0
M  CHG  1  17   1
M  END
> <s_m_source_file>
AV-unprocessed.smi

> <i_m_source_file_index>
2837

> <i_lp_mmshare_version>
43012

> <i_f3d_flags>
0

> <s_epik_input>
RltDSF0oRilPYzFbY0hdW2NIXWMobltjSF0xKVtOSF1bQ0BIXShbQ0gyXVtDQEBIXTIzKVtDQEBIXShPMylbQ0gyXVtDSDJdMg==

> <s_epik_cmdline>
J2VwaWtfcHl0aG9uJywgJy1waCcsICc3LjAnLCAnLXRuJywgJzgnLCAnLW1hJywgJzIwMCcsICctbWV0YWxfYmluZGluZycsICctaW1hZScsICc8aW5maWxlLm1hZT4nLCAnLW9tYWUnLCAnPG91dGZpbGUubWFlPic=

> <r_lp_tautomer_probability>
0.999429

> <r_epik_Ionization_Penalty>
2.29716

> <r_epik_Ionization_Penalty_Charging>
2.29716

> <r_epik_Ionization_Penalty_Neutral>
1.42285e-06

> <r_epik_State_Penalty>
2.44762

> <r_epik_Charging_Adjusted_Penalty>
4.74478

> <i_epik_Tot_Q>
1

> <i_epik_Tot_abs_Q>
1

> <r_epik_Metal_State_Penalty>
6.53078

> <b_epik_Metal_Only>
0

> <s_lp_Force_Field>
OPLS_2005

> <r_lp_Energy>
46.8356

> <b_lp_Chiralities_Consistent>
1

> <s_lp_Variant>
AV-unprocessed.smi:2837-6

> <Gold.Version>
5.8.1

> <Gold.Id.Protein>
6NUR|6NUR_protein|mol2

> <Gold.PLP.Fitness>
43.5310

> <Gold.PLP.PLP>
-32.3078

> <Gold.PLP.part.hbond>
-2.3968

> <Gold.PLP.part.metal>
0.0000

> <Gold.PLP.part.buried>
-3.0056

> <Gold.PLP.part.nonpolar>
-28.1365

> <Gold.PLP.part.repulsive>
0.4923

> <Gold.PLP.ligand.clash>
0.0000

> <Gold.PLP.ligand.torsion>
0.1767

> <Gold.PLP.Chemscore.Hbond>
3.8549

> <Gold.PLP.Chemscore.CHOScore>
0.0000

> <Gold.PLP.Chemscore.Metal>
0.0000

> <Gold.Chemscore.Hbonds>
donor molecule, donor type, donor heavy atom, donor atom, acceptor molecule, acceptor atom, score
      L1  H     9    22       P1 10957  1.89
      L1  H    17    33       P1 10957  1.95

> <Gold.PLP.Chemscore.Internal.Correction>
0.0119

> <Gold.Rescore>
     Score         DG    S(hbond)    S(metal)    S(lipo)     H(rot)  DE(clash)    DE(int)     intcor
     13.45     -15.19       1.51        0.00      69.09       1.34       0.49       1.25       ----

> <Gold.Chemscore.Fitness>
13.4542

> <Gold.Chemscore.DG>
-15.1893

> <Gold.Chemscore.ZeroCoef>
-5.4800

> <Gold.Chemscore.Hbond>
1.5114

> <Gold.Chemscore.Metal>
0.0000

> <Gold.Chemscore.Lipo>
69.0917

> <Gold.Chemscore.Internal_Hbond>
0.0000

> <Gold.Chemscore.DEClash>
0.4853

> <Gold.Chemscore.DEInternal>
1.2498

> <Gold.Chemscore.Rot>
1.3368

> <Gold.Chemscore.Internal.Correction>
   9.000000E+99

> <Gold.Chemscore.Hbonds>
donor molecule, donor type, donor heavy atom, donor atom, acceptor molecule, acceptor atom, score
      L1  H     9    22       P1 10957  0.59
      L1  H    17    33       P1 10957  0.88

> <Gold.Chemscore.Hbond.Weighted>
-5.0479

> <Gold.Chemscore.Metal.Weighted>
-0.0000

> <Gold.Chemscore.Lipo.Weighted>
-8.0837

> <Gold.Chemscore.Internal_Hbond.Weighted>
0.0000

> <Gold.Chemscore.DEClash.Weighted>
0.4853

> <Gold.Chemscore.DEInternal.Weighted>
1.2498

> <Gold.Chemscore.Rot.Weighted>
3.4223

> <Gold.Chemscore.Internal.Correction.Weighted>
   9.000000E+99

> <Gold.Protein.RotatedTorsions>
[ 6907 6896 6895 6894 ] final  148.48 input  -60.11 | X-H torsion
[ 7974 7965 7964 7962 ] final -120.30 input  175.53 | X-H torsion
[ 8008 7997 7996 7995 ] final -145.35 input   59.86 | X-H torsion
[ 10167 10162 10161 10158 ] final  136.72 input  -65.29 | X-H torsion
[ 10718 10713 10712 10709 ] final  100.52 input   66.30 | X-H torsion
[ 10763 10752 10751 10750 ] final  102.76 input  -60.55 | X-H torsion
[ 11005 11000 10999 10996 ] final  107.17 input  -57.11 | X-H torsion

> <Gold.Protein.ActiveResidues>
 VAL166  LYS551  ARG553  GLY616  TRP617  ASP618  TYR619  PRO620  LYS621  CYS622 
 ASP623  PHE694  ASN695  SER759  ASP760  ASP761  ALA762  ILE779  LEU786  VAL792 
 PHE793  MET794  SER795  GLU796  ALA797  LYS798  CYS799  TRP800  GLU811  SER814 

> <Gold.Protein.RotatedAtoms>
  152.1409  133.4463  159.4765 H   0  0  0  0  0  0  0  0  0  0  0  0  # atno 6907 bound_to 6896
  150.6886  134.2307  159.4442 H   0  0  0  0  0  0  0  0  0  0  0  0  # atno 6908 bound_to 6896
  152.0197  134.9829  160.0621 H   0  0  0  0  0  0  0  0  0  0  0  0  # atno 6909 bound_to 6896
  145.0529  140.8232  143.4198 H   0  0  0  0  0  0  0  0  0  0  0  0  # atno 7974 bound_to 7965
  155.5418  140.0608  157.2868 H   0  0  0  0  0  0  0  0  0  0  0  0  # atno 8008 bound_to 7997
  154.4449  140.1918  156.0642 H   0  0  0  0  0  0  0  0  0  0  0  0  # atno 8009 bound_to 7997
  156.0579  140.3276  155.7431 H   0  0  0  0  0  0  0  0  0  0  0  0  # atno 8010 bound_to 7997
  139.5170  144.6449  151.5467 H   0  0  0  0  0  0  0  0  0  0  0  0  # atno 10167 bound_to 10162
  157.6852  131.0700  150.5113 H   0  0  0  0  0  0  0  0  0  0  0  0  # atno 10718 bound_to 10713
  153.3437  135.4000  155.1592 H   0  0  0  0  0  0  0  0  0  0  0  0  # atno 10763 bound_to 10752
  154.8649  135.3640  154.5312 H   0  0  0  0  0  0  0  0  0  0  0  0  # atno 10764 bound_to 10752
  153.5758  135.7078  153.5544 H   0  0  0  0  0  0  0  0  0  0  0  0  # atno 10765 bound_to 10752
  139.8824  134.9392  156.5778 H   0  0  0  0  0  0  0  0  0  0  0  0  # atno 11005 bound_to 11000
  145.1505  139.2517  143.5443 LP  0  0  0  0  0  0  0  0  0  0  0  0  # atno 17320 bound_to 7965
  146.3519  140.1206  142.8600 LP  0  0  0  0  0  0  0  0  0  0  0  0  # atno 17321 bound_to 7965
  140.6230  143.9222  150.6542 LP  0  0  0  0  0  0  0  0  0  0  0  0  # atno 17342 bound_to 10162
  140.2501  143.3599  152.1413 LP  0  0  0  0  0  0  0  0  0  0  0  0  # atno 17343 bound_to 10162
  156.5430  130.4213  149.6144 LP  0  0  0  0  0  0  0  0  0  0  0  0  # atno 17370 bound_to 10713
  156.2969  130.7155  151.2017 LP  0  0  0  0  0  0  0  0  0  0  0  0  # atno 17371 bound_to 10713
  140.8050  133.8475  155.8759 LP  0  0  0  0  0  0  0  0  0  0  0  0  # atno 17394 bound_to 11000
  140.9558  134.1719  157.4692 LP  0  0  0  0  0  0  0  0  0  0  0  0  # atno 17395 bound_to 11000

$$$$
