#       Name:                AV-unprocessed.smi:2774
#       Creating user name   scv26
#       Creation time:       Fri Mar 27 15:13:07 2020


#       File generated by GOLD software.
#

@<TRIPOS>MOLECULE
AV-unprocessed.smi:2774
    38    39     1
SMALL
NO_CHARGES


@<TRIPOS>ATOM
      1 ****        -2.3291  -1.4299   2.5931 O.3            1 S1                 0.0000
      2 ****        -1.9530  -1.0114   1.2976 C.3            1 S1                 0.0000
      3 ****        -0.4155  -1.0115   1.2234 C.3            1 S1                 0.0000
      4 ****         0.0568  -0.7304  -0.1338 N.3            1 S1                 0.0000
      5 ****         1.5063  -0.8162  -0.3331 C.3            1 S1                 0.0000
      6 ****         1.8084  -0.7292  -1.8420 C.3            1 S1                 0.0000
      7 ****         3.2972  -0.9252  -2.1673 C.3            1 S1                 0.0000
      8 ****         4.1782   0.1540  -1.5253 C.3            1 S1                 0.0000
      9 ****         4.0633   0.0967   0.2822 S.3            1 S1                 0.0000
     10 ****         2.2655   0.2756   0.4535 C.3            1 S1                 0.0000
     11 ****        -2.5519   0.3421   0.9419 C.ar           1 S1                 0.0000
     12 ****        -3.2188   0.5327  -0.2867 C.ar           1 S1                 0.0000
     13 ****        -3.7490   1.8060  -0.5752 C.ar           1 S1                 0.0000
     14 ****        -3.6543   2.8575   0.2665 N.ar           1 S1                 0.0000
     15 ****        -3.0152   2.6696   1.4409 C.ar           1 S1                 0.0000
     16 ****        -2.4486   1.4383   1.8255 C.ar           1 S1                 0.0000
     17 ****        -3.2701  -1.5142   2.6175 H              1 S1                 0.0000
     18 ****        -2.3411  -1.7584   0.6036 H              1 S1                 0.0000
     19 ****        -0.0233  -0.2799   1.9291 H              1 S1                 0.0000
     20 ****        -0.0425  -1.9857   1.5424 H              1 S1                 0.0000
     21 ****        -0.4106  -1.3495  -0.7885 H              1 S1                 0.0000
     22 ****         1.8466  -1.7915   0.0181 H              1 S1                 0.0000
     23 ****         1.2337  -1.4900  -2.3720 H              1 S1                 0.0000
     24 ****         1.4727   0.2323  -2.2336 H              1 S1                 0.0000
     25 ****         3.6219  -1.9128  -1.8374 H              1 S1                 0.0000
     26 ****         3.4341  -0.9041  -3.2490 H              1 S1                 0.0000
     27 ****         5.2199   0.0133  -1.8141 H              1 S1                 0.0000
     28 ****         3.8806   1.1447  -1.8703 H              1 S1                 0.0000
     29 ****         1.9733   1.2688   0.1105 H              1 S1                 0.0000
     30 ****         2.0445   0.2284   1.5189 H              1 S1                 0.0000
     31 ****        -3.3192  -0.2745  -0.9972 H              1 S1                 0.0000
     32 ****        -4.2628   1.9845  -1.5082 H              1 S1                 0.0000
     33 ****        -2.9522   3.5273   2.0940 H              1 S1                 0.0000
     34 ****        -1.9443   1.3411   2.7758 H              1 S1                 0.0000
     35 ****        -2.0331  -0.7522   3.2662 LP             1 S1                 0.0000
     36 ****        -1.9055  -2.3118   2.7995 LP             1 S1                 0.0000
     37 ****        -0.1729   0.2292  -0.2966 LP             1 S1                 0.0000
     38 ****        -4.0449   3.7466   0.0278 LP             1 S1                 0.0000
@<TRIPOS>BOND
    1    1    2 1     
    2    1   17 1     
    3    2    3 1     
    4    2   11 1     
    5    2   18 1     
    6    3    4 1     
    7    3   19 1     
    8    3   20 1     
    9    4    5 1     
   10    4   21 1     
   11    5   10 1     
   12    5    6 1     
   13    5   22 1     
   14    6    7 1     
   15    6   23 1     
   16    6   24 1     
   17    7    8 1     
   18    7   25 1     
   19    7   26 1     
   20    8    9 1     
   21    8   27 1     
   22    8   28 1     
   23    9   10 1     
   24   10   29 1     
   25   10   30 1     
   26   11   16 ar    
   27   11   12 ar    
   28   12   13 ar    
   29   12   31 1     
   30   13   14 ar    
   31   13   32 1     
   32   14   15 ar    
   33   15   16 ar    
   34   15   33 1     
   35   16   34 1     
   36    1   35 1     
   37    1   36 1     
   38    4   37 1     
   39   14   38 1     
@<TRIPOS>SUBSTRUCTURE
      1 S1             1
@<TRIPOS>SET
LONE_PAIRS      STATIC     ATOMS    <user>   **** ""
4 35 36 37 38
DONOR_HYDROGENS      STATIC     ATOMS    <user>   **** ""
2 17 21
ATOM$BLUE        STATIC     ATOMS    COLORGROUP SYSTEM
4 35 36 37 38
ATOM$RED        STATIC     ATOMS    COLORGROUP SYSTEM
2 17 21
