AV-unprocessed.smi:2331|AV-procd|sdf|9314|dock6
  -GOLD-   2272012533D 1   1.00000     0.00000
 Structure written by MMmdl.
 49 50  0  0  0  0  0  0  0  0  1 V2000
  147.5715  136.6374  156.0975 C   0  0  0  0  0  0  0  0  0  0  0  0
  149.0932  136.3553  156.1381 C   0  0  0  0  0  0  0  0  0  0  0  0
  149.4492  136.0378  157.6060 C   0  0  0  0  0  0  0  0  0  0  0  0
  149.3972  135.1044  155.2681 C   0  0  0  0  0  0  0  0  0  0  0  0
  148.5301  135.0096  154.0957 N   0  0  0  0  0  0  0  0  0  0  0  0
  147.4103  134.2747  153.9954 C   0  0  0  0  0  0  0  0  0  0  0  0
  147.0511  133.4858  154.8691 O   0  0  0  0  0  0  0  0  0  0  0  0
  146.7714  134.4315  152.8127 N   0  0  0  0  0  0  0  0  0  0  0  0
  146.6869  135.7295  152.1313 C   0  0  0  0  0  0  0  0  0  0  0  0
  145.3064  135.7665  151.4913 C   0  0  0  0  0  0  0  0  0  0  0  0
  145.0322  134.3078  151.1803 C   0  0  0  0  0  0  0  0  0  0  0  0
  145.7258  133.5174  152.3076 C   0  0  1  0  0  0  0  0  0  0  0  0
  146.2533  132.1201  151.8372 C   0  0  0  0  0  0  0  0  0  0  0  0
  146.8025  131.2872  153.0140 C   0  0  0  0  0  0  0  0  0  0  0  0
  145.2242  131.3042  151.0287 C   0  0  0  0  0  0  0  0  0  0  0  0
  147.3879  132.3166  151.0168 O   0  0  0  0  0  0  0  0  0  0  0  0
  149.9284  137.5568  155.6529 C   0  0  0  0  0  0  0  0  0  0  0  0
  151.0179  138.0832  156.3903 C   0  0  0  0  0  0  0  0  0  0  0  0
  151.7086  139.2029  155.8861 C   0  0  0  0  0  0  0  0  0  0  0  0
  151.3912  139.8124  154.7258 N   0  0  0  0  0  0  0  0  0  0  0  0
  150.3556  139.3137  154.0205 C   0  0  0  0  0  0  0  0  0  0  0  0
  149.5995  138.2007  154.4368 C   0  0  0  0  0  0  0  0  0  0  0  0
  147.0014  135.7733  156.4403 H   0  0  0  0  0  0  0  0  0  0  0  0
  147.2195  136.8683  155.0920 H   0  0  0  0  0  0  0  0  0  0  0  0
  147.3017  137.4746  156.7422 H   0  0  0  0  0  0  0  0  0  0  0  0
  148.8595  135.2022  157.9845 H   0  0  0  0  0  0  0  0  0  0  0  0
  149.2564  136.8941  158.2532 H   0  0  0  0  0  0  0  0  0  0  0  0
  150.4982  135.7672  157.7260 H   0  0  0  0  0  0  0  0  0  0  0  0
  150.4190  135.1544  154.8911 H   0  0  0  0  0  0  0  0  0  0  0  0
  149.3534  134.1933  155.8675 H   0  0  0  0  0  0  0  0  0  0  0  0
  148.7709  135.5979  153.3111 H   0  0  0  0  0  0  0  0  0  0  0  0
  146.8164  136.5823  152.8004 H   0  0  0  0  0  0  0  0  0  0  0  0
  147.4667  135.7764  151.3701 H   0  0  0  0  0  0  0  0  0  0  0  0
  144.5747  136.1343  152.2117 H   0  0  0  0  0  0  0  0  0  0  0  0
  145.2636  136.4061  150.6094 H   0  0  0  0  0  0  0  0  0  0  0  0
  143.9662  134.0905  151.1089 H   0  0  0  0  0  0  0  0  0  0  0  0
  145.4809  134.0777  150.2138 H   0  0  0  0  0  0  0  0  0  0  0  0
  144.9890  133.3788  153.1018 H   0  0  0  0  0  0  0  0  0  0  0  0
  146.0139  130.9772  153.6993 H   0  0  0  0  0  0  0  0  0  0  0  0
  147.5373  131.8511  153.5902 H   0  0  0  0  0  0  0  0  0  0  0  0
  147.2901  130.3760  152.6644 H   0  0  0  0  0  0  0  0  0  0  0  0
  144.3162  131.1268  151.6047 H   0  0  0  0  0  0  0  0  0  0  0  0
  145.6259  130.3305  150.7463 H   0  0  0  0  0  0  0  0  0  0  0  0
  144.9362  131.8100  150.1070 H   0  0  0  0  0  0  0  0  0  0  0  0
  148.0057  131.6217  151.1846 H   0  0  0  0  0  0  0  0  0  0  0  0
  151.3362  137.6622  157.3311 H   0  0  0  0  0  0  0  0  0  0  0  0
  152.5393  139.6224  156.4340 H   0  0  0  0  0  0  0  0  0  0  0  0
  150.1185  139.8194  153.0962 H   0  0  0  0  0  0  0  0  0  0  0  0
  148.7758  137.8583  153.8284 H   0  0  0  0  0  0  0  0  0  0  0  0
  1  2  1  0  0  0  0
  1 23  1  0  0  0  0
  1 24  1  0  0  0  0
  1 25  1  0  0  0  0
  2  3  1  0  0  0  0
  2  4  1  0  0  0  0
  2 17  1  0  0  0  0
  3 26  1  0  0  0  0
  3 27  1  0  0  0  0
  3 28  1  0  0  0  0
  4  5  1  0  0  0  0
  4 29  1  0  0  0  0
  4 30  1  0  0  0  0
  5  6  1  0  0  0  0
  5 31  1  0  0  0  0
  6  7  2  0  0  0  0
  6  8  1  0  0  0  0
  8 12  1  0  0  0  0
  8  9  1  0  0  0  0
  9 10  1  0  0  0  0
  9 32  1  0  0  0  0
  9 33  1  0  0  0  0
 10 11  1  0  0  0  0
 10 34  1  0  0  0  0
 10 35  1  0  0  0  0
 11 12  1  0  0  0  0
 11 36  1  0  0  0  0
 11 37  1  0  0  0  0
 12 13  1  0  0  0  0
 12 38  1  0  0  0  0
 13 14  1  0  0  0  0
 13 15  1  0  0  0  0
 13 16  1  0  0  0  0
 14 39  1  0  0  0  0
 14 40  1  0  0  0  0
 14 41  1  0  0  0  0
 15 42  1  0  0  0  0
 15 43  1  0  0  0  0
 15 44  1  0  0  0  0
 16 45  1  0  0  0  0
 17 22  1  0  0  0  0
 17 18  2  0  0  0  0
 18 19  1  0  0  0  0
 18 46  1  0  0  0  0
 19 20  2  0  0  0  0
 19 47  1  0  0  0  0
 20 21  1  0  0  0  0
 21 22  2  0  0  0  0
 21 48  1  0  0  0  0
 22 49  1  0  0  0  0
M  END
> <s_m_source_file>
AV-unprocessed.smi

> <i_m_source_file_index>
2331

> <i_lp_mmshare_version>
43012

> <i_f3d_flags>
0

> <s_epik_input>
W2NIXTFbY0hdbltjSF1bY0hdYzFDKFtDSDNdKShbQ0gzXSlbQ0gyXVtOSF1DKD1PKU4yW0NIMl1bQ0gyXVtDSDJdW0NASF0yQyhbQ0gzXSkoW0NIM10pW09IXQ==

> <s_epik_cmdline>
J2VwaWtfcHl0aG9uJywgJy1waCcsICc3LjAnLCAnLXRuJywgJzgnLCAnLW1hJywgJzIwMCcsICctbWV0YWxfYmluZGluZycsICctaW1hZScsICc8aW5maWxlLm1hZT4nLCAnLW9tYWUnLCAnPG91dGZpbGUubWFlPic=

> <r_epik_Ionization_Penalty>
0.0581496

> <r_epik_Ionization_Penalty_Charging>
0

> <r_epik_Ionization_Penalty_Neutral>
0.0581496

> <r_epik_State_Penalty>
0.0501956

> <r_epik_Charging_Adjusted_Penalty>
0.0501956

> <i_epik_Tot_Q>
0

> <i_epik_Tot_abs_Q>
0

> <r_epik_Metal_State_Penalty>
0.0456895

> <b_epik_Metal_Only>
0

> <s_lp_Force_Field>
OPLS_2005

> <r_lp_Energy>
47.1334

> <b_lp_Chiralities_Consistent>
1

> <s_lp_Variant>
AV-unprocessed.smi:2331-1

> <Gold.Version>
5.8.1

> <Gold.Id.Protein>
6NUR|6NUR_protein|mol2

> <Gold.PLP.Fitness>
37.5776

> <Gold.PLP.PLP>
-28.1288

> <Gold.PLP.part.hbond>
-2.9326

> <Gold.PLP.part.metal>
0.0000

> <Gold.PLP.part.buried>
-1.0878

> <Gold.PLP.part.nonpolar>
-24.1517

> <Gold.PLP.part.repulsive>
0.1185

> <Gold.PLP.ligand.clash>
0.0000

> <Gold.PLP.ligand.torsion>
1.4951

> <Gold.PLP.Chemscore.Hbond>
3.0000

> <Gold.PLP.Chemscore.CHOScore>
1.0000

> <Gold.PLP.Chemscore.Metal>
0.0000

> <Gold.Chemscore.Hbonds>
donor molecule, donor type, donor heavy atom, donor atom, acceptor molecule, acceptor atom, score
      L1  H     5    31       P1  7948  1.00
      L1  H    16    45       P1 10747  0.66
      P1  H  7989  7998       L1    20  0.40
      L1  C    21    48       P1  7957  0.94

> <Gold.PLP.Chemscore.Internal.Correction>
0.4390

> <Gold.Rescore>
     Score         DG    S(hbond)    S(metal)    S(lipo)     H(rot)  DE(clash)    DE(int)     intcor
     15.63     -18.51       2.79        0.00      74.13       1.94       0.39       2.48       ----

> <Gold.Chemscore.Fitness>
15.6319

> <Gold.Chemscore.DG>
-18.5084

> <Gold.Chemscore.ZeroCoef>
-5.4800

> <Gold.Chemscore.Hbond>
2.7871

> <Gold.Chemscore.Metal>
0.0000

> <Gold.Chemscore.Lipo>
74.1297

> <Gold.Chemscore.Internal_Hbond>
0.0000

> <Gold.Chemscore.DEClash>
0.3925

> <Gold.Chemscore.DEInternal>
2.4841

> <Gold.Chemscore.Rot>
1.9350

> <Gold.Chemscore.Internal.Correction>
   9.000000E+99

> <Gold.Chemscore.Hbonds>
donor molecule, donor type, donor heavy atom, donor atom, acceptor molecule, acceptor atom, score
      L1  H     5    31       P1  7948  0.90
      L1  H    16    45       P1 10747  0.62
      P1  H  7989  7998       L1    20  0.01

> <Gold.Chemscore.Hbond.Weighted>
-9.3089

> <Gold.Chemscore.Metal.Weighted>
-0.0000

> <Gold.Chemscore.Lipo.Weighted>
-8.6732

> <Gold.Chemscore.Internal_Hbond.Weighted>
0.0000

> <Gold.Chemscore.DEClash.Weighted>
0.3925

> <Gold.Chemscore.DEInternal.Weighted>
2.4841

> <Gold.Chemscore.Rot.Weighted>
4.9536

> <Gold.Chemscore.Internal.Correction.Weighted>
   9.000000E+99

> <Gold.Protein.RotatedTorsions>
[ 6907 6896 6895 6894 ] final   43.11 input  -60.11 | X-H torsion
[ 7974 7965 7964 7962 ] final   33.69 input  175.53 | X-H torsion
[ 8008 7997 7996 7995 ] final  131.98 input   59.86 | X-H torsion
[ 10167 10162 10161 10158 ] final   60.02 input  -65.29 | X-H torsion
[ 10718 10713 10712 10709 ] final   20.45 input   66.30 | X-H torsion
[ 10763 10752 10751 10750 ] final  -52.05 input  -60.55 | X-H torsion
[ 11005 11000 10999 10996 ] final -111.46 input  -57.11 | X-H torsion

> <Gold.Protein.ActiveResidues>
 VAL166  LYS551  ARG553  GLY616  TRP617  ASP618  TYR619  PRO620  LYS621  CYS622 
 ASP623  PHE694  ASN695  SER759  ASP760  ASP761  ALA762  ILE779  LEU786  VAL792 
 PHE793  MET794  SER795  GLU796  ALA797  LYS798  CYS799  TRP800  GLU811  SER814 

> <Gold.Protein.RotatedAtoms>
  152.2162  134.8455  160.0491 H   0  0  0  0  0  0  0  0  0  0  0  0  # atno 6907 bound_to 6896
  151.9256  133.3592  159.3920 H   0  0  0  0  0  0  0  0  0  0  0  0  # atno 6908 bound_to 6896
  150.6988  134.4516  159.5383 H   0  0  0  0  0  0  0  0  0  0  0  0  # atno 6909 bound_to 6896
  146.1403  139.6364  142.9167 H   0  0  0  0  0  0  0  0  0  0  0  0  # atno 7974 bound_to 7965
  156.2977  140.2558  156.3015 H   0  0  0  0  0  0  0  0  0  0  0  0  # atno 8008 bound_to 7997
  154.9413  140.0396  157.2117 H   0  0  0  0  0  0  0  0  0  0  0  0  # atno 8009 bound_to 7997
  154.8124  140.2846  155.5848 H   0  0  0  0  0  0  0  0  0  0  0  0  # atno 8010 bound_to 7997
  140.1701  144.4285  150.6665 H   0  0  0  0  0  0  0  0  0  0  0  0  # atno 10167 bound_to 10162
  157.1246  130.6564  149.5934 H   0  0  0  0  0  0  0  0  0  0  0  0  # atno 10718 bound_to 10713
  154.1365  135.6512  153.4933 H   0  0  0  0  0  0  0  0  0  0  0  0  # atno 10763 bound_to 10752
  153.0179  135.5305  154.6949 H   0  0  0  0  0  0  0  0  0  0  0  0  # atno 10764 bound_to 10752
  154.6198  135.2963  155.0310 H   0  0  0  0  0  0  0  0  0  0  0  0  # atno 10765 bound_to 10752
  141.0733  133.9344  157.2442 H   0  0  0  0  0  0  0  0  0  0  0  0  # atno 11005 bound_to 11000
  145.5061  141.0436  143.2513 LP  0  0  0  0  0  0  0  0  0  0  0  0  # atno 17320 bound_to 7965
  144.7785  139.6576  143.7164 LP  0  0  0  0  0  0  0  0  0  0  0  0  # atno 17321 bound_to 7965
  140.6587  143.2245  151.5907 LP  0  0  0  0  0  0  0  0  0  0  0  0  # atno 17342 bound_to 10162
  139.5342  144.2830  152.1214 LP  0  0  0  0  0  0  0  0  0  0  0  0  # atno 17343 bound_to 10162
  155.9821  130.4832  150.6863 LP  0  0  0  0  0  0  0  0  0  0  0  0  # atno 17370 bound_to 10713
  157.4446  131.0865  151.0908 LP  0  0  0  0  0  0  0  0  0  0  0  0  # atno 17371 bound_to 10713
  139.9545  135.0168  156.9089 LP  0  0  0  0  0  0  0  0  0  0  0  0  # atno 17394 bound_to 11000
  140.5628  134.0518  155.7404 LP  0  0  0  0  0  0  0  0  0  0  0  0  # atno 17395 bound_to 11000

$$$$
