AV-unprocessed.smi:2831|AV-procd|sdf|10909|dock7
  -GOLD-   2272015353D 1   1.00000     0.00000
 Structure written by MMmdl.
 30 31  0  0  0  0  0  0  0  0  1 V2000
  147.1380  139.0035  152.8910 C   0  0  0  0  0  0  0  0  0  0  0  0
  148.0957  139.7814  153.7274 C   0  0  0  0  0  0  0  0  0  0  0  0
  149.3749  139.4201  153.8837 N   0  0  0  0  0  0  0  0  0  0  0  0
  150.0736  140.2981  154.7005 N   0  0  0  0  0  0  0  0  0  0  0  0
  149.2979  141.3002  155.1364 C   0  0  0  0  0  0  0  0  0  0  0  0
  149.7567  142.3416  155.9858 N   0  0  0  0  0  0  0  0  0  0  0  0
  150.8025  142.3277  156.8308 C   0  0  0  0  0  0  0  0  0  0  0  0
  151.5515  141.3687  157.0175 O   0  0  0  0  0  0  0  0  0  0  0  0
  150.9328  143.5089  157.4571 N   0  0  0  0  0  0  0  0  0  0  0  0
  151.9656  143.8935  158.4258 C   0  0  2  0  0  0  0  0  0  0  0  0
  153.1094  144.6607  157.7269 C   0  0  0  0  0  0  0  0  0  0  0  0
  152.4920  142.6956  159.2375 C   0  0  0  0  0  0  0  0  0  0  0  0
  152.1321  143.0127  160.6880 C   0  0  0  0  0  0  0  0  0  0  0  0
  152.0088  144.4228  160.7034 O   0  0  0  0  0  0  0  0  0  0  0  0
  151.3248  144.7733  159.5132 C   0  0  0  0  0  0  0  0  0  0  0  0
  147.6335  141.2494  154.5808 S   0  0  0  0  0  0  0  0  0  0  0  0
  147.2806  137.9341  153.0490 H   0  0  0  0  0  0  0  0  0  0  0  0
  147.2977  139.2273  151.8361 H   0  0  0  0  0  0  0  0  0  0  0  0
  146.1111  139.2601  153.1520 H   0  0  0  0  0  0  0  0  0  0  0  0
  149.2329  143.2030  155.9353 H   0  0  0  0  0  0  0  0  0  0  0  0
  150.2572  144.2245  157.2322 H   0  0  0  0  0  0  0  0  0  0  0  0
  153.8326  145.0341  158.4528 H   0  0  0  0  0  0  0  0  0  0  0  0
  152.7293  145.5198  157.1728 H   0  0  0  0  0  0  0  0  0  0  0  0
  153.6539  144.0298  157.0243 H   0  0  0  0  0  0  0  0  0  0  0  0
  152.0668  141.7368  158.9391 H   0  0  0  0  0  0  0  0  0  0  0  0
  153.5746  142.6085  159.1359 H   0  0  0  0  0  0  0  0  0  0  0  0
  151.1754  142.5619  160.9577 H   0  0  0  0  0  0  0  0  0  0  0  0
  152.8860  142.6660  161.3952 H   0  0  0  0  0  0  0  0  0  0  0  0
  151.4069  145.8412  159.3076 H   0  0  0  0  0  0  0  0  0  0  0  0
  150.2655  144.5428  159.6445 H   0  0  0  0  0  0  0  0  0  0  0  0
  1  2  1  0  0  0  0
  1 17  1  0  0  0  0
  1 18  1  0  0  0  0
  1 19  1  0  0  0  0
  2 16  1  0  0  0  0
  2  3  2  0  0  0  0
  3  4  1  0  0  0  0
  4  5  2  0  0  0  0
  5  6  1  0  0  0  0
  5 16  1  0  0  0  0
  6  7  1  0  0  0  0
  6 20  1  0  0  0  0
  7  8  2  0  0  0  0
  7  9  1  0  0  0  0
  9 10  1  0  0  0  0
  9 21  1  0  0  0  0
 10 15  1  0  0  0  0
 10 11  1  0  0  0  0
 10 12  1  0  0  0  0
 11 22  1  0  0  0  0
 11 23  1  0  0  0  0
 11 24  1  0  0  0  0
 12 13  1  0  0  0  0
 12 25  1  0  0  0  0
 12 26  1  0  0  0  0
 13 14  1  0  0  0  0
 13 27  1  0  0  0  0
 13 28  1  0  0  0  0
 14 15  1  0  0  0  0
 15 29  1  0  0  0  0
 15 30  1  0  0  0  0
M  END
> <s_m_source_file>
AV-unprocessed.smi

> <i_m_source_file_index>
2831

> <i_lp_mmshare_version>
43012

> <i_f3d_flags>
0

> <s_epik_input>
W0NIM11jMW5uYyhzMSlbTkhdQyg9TylbTkhdW0NAQF0yKFtDSDNdKVtDSDJdW0NIMl1PW0NIMl0y

> <s_epik_cmdline>
J2VwaWtfcHl0aG9uJywgJy1waCcsICc3LjAnLCAnLXRuJywgJzgnLCAnLW1hJywgJzIwMCcsICctbWV0YWxfYmluZGluZycsICctaW1hZScsICc8aW5maWxlLm1hZT4nLCAnLW9tYWUnLCAnPG91dGZpbGUubWFlPic=

> <r_lp_tautomer_probability>
1

> <r_epik_Ionization_Penalty>
0.00277018

> <r_epik_Ionization_Penalty_Charging>
0

> <r_epik_Ionization_Penalty_Neutral>
0.00277018

> <r_epik_State_Penalty>
-0

> <r_epik_Charging_Adjusted_Penalty>
0

> <i_epik_Tot_Q>
0

> <i_epik_Tot_abs_Q>
0

> <r_epik_Metal_State_Penalty>
0.356997

> <b_epik_Metal_Only>
0

> <s_lp_Force_Field>
OPLS_2005

> <r_lp_Energy>
14.9894

> <b_lp_Chiralities_Consistent>
1

> <s_lp_Variant>
AV-unprocessed.smi:2831-2

> <Gold.Version>
5.8.1

> <Gold.Id.Protein>
6NUR|6NUR_protein|mol2

> <Gold.PLP.Fitness>
39.4367

> <Gold.PLP.PLP>
-32.6834

> <Gold.PLP.part.hbond>
-3.0000

> <Gold.PLP.part.metal>
0.0000

> <Gold.PLP.part.buried>
-3.8386

> <Gold.PLP.part.nonpolar>
-28.0262

> <Gold.PLP.part.repulsive>
2.6677

> <Gold.PLP.ligand.clash>
0.0000

> <Gold.PLP.ligand.torsion>
0.6329

> <Gold.PLP.Chemscore.Hbond>
2.6630

> <Gold.PLP.Chemscore.CHOScore>
0.0000

> <Gold.PLP.Chemscore.Metal>
0.0000

> <Gold.Chemscore.Hbonds>
donor molecule, donor type, donor heavy atom, donor atom, acceptor molecule, acceptor atom, score
      L1  H     6    20       P1  8028  1.00
      L1  H     9    21       P1  8028  0.62
      P1  H  7989  7998       L1     4  0.96

> <Gold.PLP.Chemscore.Internal.Correction>
0.0300

> <Gold.Rescore>
     Score         DG    S(hbond)    S(metal)    S(lipo)     H(rot)  DE(clash)    DE(int)     intcor
     14.57     -18.74       1.92        0.00      80.55       1.00       0.96       3.22       ----

> <Gold.Chemscore.Fitness>
14.5670

> <Gold.Chemscore.DG>
-18.7450

> <Gold.Chemscore.ZeroCoef>
-5.4800

> <Gold.Chemscore.Hbond>
1.9162

> <Gold.Chemscore.Metal>
0.0000

> <Gold.Chemscore.Lipo>
80.5546

> <Gold.Chemscore.Internal_Hbond>
0.0000

> <Gold.Chemscore.DEClash>
0.9551

> <Gold.Chemscore.DEInternal>
3.2229

> <Gold.Chemscore.Rot>
1.0000

> <Gold.Chemscore.Internal.Correction>
   9.000000E+99

> <Gold.Chemscore.Hbonds>
donor molecule, donor type, donor heavy atom, donor atom, acceptor molecule, acceptor atom, score
      L1  H     6    20       P1  8028  0.97
      L1  H     9    21       P1  8028  0.48
      P1  H  7989  7998       L1     4  0.27

> <Gold.Chemscore.Hbond.Weighted>
-6.4001

> <Gold.Chemscore.Metal.Weighted>
-0.0000

> <Gold.Chemscore.Lipo.Weighted>
-9.4249

> <Gold.Chemscore.Internal_Hbond.Weighted>
0.0000

> <Gold.Chemscore.DEClash.Weighted>
0.9551

> <Gold.Chemscore.DEInternal.Weighted>
3.2229

> <Gold.Chemscore.Rot.Weighted>
2.5600

> <Gold.Chemscore.Internal.Correction.Weighted>
   9.000000E+99

> <Gold.Protein.RotatedTorsions>
[ 6907 6896 6895 6894 ] final  162.91 input  -60.11 | X-H torsion
[ 7974 7965 7964 7962 ] final   67.52 input  175.53 | X-H torsion
[ 8008 7997 7996 7995 ] final   64.56 input   59.86 | X-H torsion
[ 10167 10162 10161 10158 ] final -141.65 input  -65.29 | X-H torsion
[ 10718 10713 10712 10709 ] final  107.31 input   66.30 | X-H torsion
[ 10763 10752 10751 10750 ] final -112.76 input  -60.55 | X-H torsion
[ 11005 11000 10999 10996 ] final   13.38 input  -57.11 | X-H torsion

> <Gold.Protein.ActiveResidues>
 VAL166  LYS551  ARG553  GLY616  TRP617  ASP618  TYR619  PRO620  LYS621  CYS622 
 ASP623  PHE694  ASN695  SER759  ASP760  ASP761  ALA762  ILE779  LEU786  VAL792 
 PHE793  MET794  SER795  GLU796  ALA797  LYS798  CYS799  TRP800  GLU811  SER814 

> <Gold.Protein.RotatedAtoms>
  151.9333  133.3617  159.3938 H   0  0  0  0  0  0  0  0  0  0  0  0  # atno 6907 bound_to 6896
  150.7013  134.4515  159.5348 H   0  0  0  0  0  0  0  0  0  0  0  0  # atno 6908 bound_to 6896
  152.2159  134.8458  160.0542 H   0  0  0  0  0  0  0  0  0  0  0  0  # atno 6909 bound_to 6896
  145.8137  139.3046  143.1084 H   0  0  0  0  0  0  0  0  0  0  0  0  # atno 7974 bound_to 7965
  155.6479  140.3497  155.4738 H   0  0  0  0  0  0  0  0  0  0  0  0  # atno 8008 bound_to 7997
  155.9872  140.1186  157.0695 H   0  0  0  0  0  0  0  0  0  0  0  0  # atno 8009 bound_to 7997
  154.4208  140.1126  156.5502 H   0  0  0  0  0  0  0  0  0  0  0  0  # atno 8010 bound_to 7997
  139.8164  143.7633  152.2665 H   0  0  0  0  0  0  0  0  0  0  0  0  # atno 10167 bound_to 10162
  157.6633  131.0870  150.6137 H   0  0  0  0  0  0  0  0  0  0  0  0  # atno 10718 bound_to 10713
  154.8364  135.4479  154.1243 H   0  0  0  0  0  0  0  0  0  0  0  0  # atno 10763 bound_to 10752
  153.2471  135.6922  153.7726 H   0  0  0  0  0  0  0  0  0  0  0  0  # atno 10764 bound_to 10752
  153.7052  135.3365  155.3210 H   0  0  0  0  0  0  0  0  0  0  0  0  # atno 10765 bound_to 10752
  140.4814  134.0931  155.7752 H   0  0  0  0  0  0  0  0  0  0  0  0  # atno 11005 bound_to 11000
  145.9750  140.8729  143.0143 LP  0  0  0  0  0  0  0  0  0  0  0  0  # atno 17320 bound_to 7965
  144.6755  140.1999  143.7388 LP  0  0  0  0  0  0  0  0  0  0  0  0  # atno 17321 bound_to 7965
  139.7798  144.7448  151.0105 LP  0  0  0  0  0  0  0  0  0  0  0  0  # atno 17342 bound_to 10162
  140.7815  143.4555  151.0352 LP  0  0  0  0  0  0  0  0  0  0  0  0  # atno 17343 bound_to 10162
  156.6439  130.4466  149.5743 LP  0  0  0  0  0  0  0  0  0  0  0  0  # atno 17370 bound_to 10713
  156.2188  130.6724  151.1347 LP  0  0  0  0  0  0  0  0  0  0  0  0  # atno 17371 bound_to 10713
  141.1529  133.8935  157.2051 LP  0  0  0  0  0  0  0  0  0  0  0  0  # atno 17394 bound_to 11000
  139.9824  135.0093  156.9782 LP  0  0  0  0  0  0  0  0  0  0  0  0  # atno 17395 bound_to 11000

$$$$
