AV-unprocessed.smi:1354|AV-procd|sdf|5535|dock6
  -GOLD-   22720 5123D 1   1.00000     0.00000
 Structure written by MMmdl.
 40 42  0  0  0  0  0  0  0  0  2 V2000
  148.6580  140.3039  153.8083 O   0  0  0  0  0  0  0  0  0  0  0  0
  149.4672  141.1123  154.6345 C   0  0  0  0  0  0  0  0  0  0  0  0
  149.3250  140.6660  156.0962 C   0  0  0  0  0  0  0  0  0  0  0  0
  150.1127  141.5412  157.0165 C   0  0  0  0  0  0  0  0  0  0  0  0
  150.2090  142.8987  156.9387 N   0  3  0  0  0  0  0  0  0  0  0  0
  151.0203  143.3750  157.9693 C   0  0  0  0  0  0  0  0  0  0  0  0
  151.4139  144.6696  158.2941 C   0  0  0  0  0  0  0  0  0  0  0  0
  152.2574  144.8121  159.4153 C   0  0  0  0  0  0  0  0  0  0  0  0
  152.6744  143.6945  160.1667 C   0  0  0  0  0  0  0  0  0  0  0  0
  152.2660  142.3875  159.8295 C   0  0  0  0  0  0  0  0  0  0  0  0
  151.4344  142.2542  158.7176 C   0  0  0  0  0  0  0  0  0  0  0  0
  150.8498  141.1450  158.0942 N   0  0  0  0  0  0  0  0  0  0  0  0
  151.0947  139.7978  158.6316 C   0  0  0  0  0  0  0  0  0  0  0  0
  152.2502  139.0849  157.9140 C   0  0  0  0  0  0  0  0  0  0  0  0
  153.4833  139.4476  158.5209 O   0  0  0  0  0  0  0  0  0  0  0  0
  153.8235  138.8645  159.7233 C   0  0  0  0  0  0  0  0  0  0  0  0
  153.1406  137.7553  160.2848 C   0  0  0  0  0  0  0  0  0  0  0  0
  153.5479  137.2162  161.5204 C   0  0  0  0  0  0  0  0  0  0  0  0
  154.6387  137.7755  162.2103 C   0  0  0  0  0  0  0  0  0  0  0  0
  155.3231  138.8753  161.6623 C   0  0  0  0  0  0  0  0  0  0  0  0
  154.9185  139.4162  160.4261 C   0  0  0  0  0  0  0  0  0  0  0  0
  155.7803  140.7640  159.7744 Cl  0  0  0  0  0  0  0  0  0  0  0  0
  148.9574  140.3898  152.9157 H   0  0  0  0  0  0  0  0  0  0  0  0
  150.5036  141.0320  154.3052 H   0  0  0  0  0  0  0  0  0  0  0  0
  149.1659  142.1533  154.5151 H   0  0  0  0  0  0  0  0  0  0  0  0
  148.2773  140.6824  156.3981 H   0  0  0  0  0  0  0  0  0  0  0  0
  149.6660  139.6362  156.2096 H   0  0  0  0  0  0  0  0  0  0  0  0
  151.0962  145.5273  157.7194 H   0  0  0  0  0  0  0  0  0  0  0  0
  152.5920  145.7978  159.7043 H   0  0  0  0  0  0  0  0  0  0  0  0
  153.3247  143.8415  161.0170 H   0  0  0  0  0  0  0  0  0  0  0  0
  152.5999  141.5386  160.4073 H   0  0  0  0  0  0  0  0  0  0  0  0
  151.2811  139.8668  159.7033 H   0  0  0  0  0  0  0  0  0  0  0  0
  150.1761  139.2217  158.5187 H   0  0  0  0  0  0  0  0  0  0  0  0
  152.1032  138.0059  157.9754 H   0  0  0  0  0  0  0  0  0  0  0  0
  152.2529  139.3664  156.8597 H   0  0  0  0  0  0  0  0  0  0  0  0
  152.2983  137.2989  159.7878 H   0  0  0  0  0  0  0  0  0  0  0  0
  153.0217  136.3714  161.9399 H   0  0  0  0  0  0  0  0  0  0  0  0
  154.9498  137.3618  163.1582 H   0  0  0  0  0  0  0  0  0  0  0  0
  156.1610  139.3040  162.1925 H   0  0  0  0  0  0  0  0  0  0  0  0
  149.7543  143.4567  156.2274 H   0  0  0  0  0  0  0  0  0  0  0  0
  1  2  1  0  0  0  0
  1 23  1  0  0  0  0
  2  3  1  0  0  0  0
  2 24  1  0  0  0  0
  2 25  1  0  0  0  0
  3  4  1  0  0  0  0
  3 26  1  0  0  0  0
  3 27  1  0  0  0  0
  4 12  1  0  0  0  0
  4  5  2  0  0  0  0
  5  6  1  0  0  0  0
  5 40  1  0  0  0  0
  6 11  2  0  0  0  0
  6  7  1  0  0  0  0
  7  8  2  0  0  0  0
  7 28  1  0  0  0  0
  8  9  1  0  0  0  0
  8 29  1  0  0  0  0
  9 10  2  0  0  0  0
  9 30  1  0  0  0  0
 10 11  1  0  0  0  0
 10 31  1  0  0  0  0
 11 12  1  0  0  0  0
 12 13  1  0  0  0  0
 13 14  1  0  0  0  0
 13 32  1  0  0  0  0
 13 33  1  0  0  0  0
 14 15  1  0  0  0  0
 14 34  1  0  0  0  0
 14 35  1  0  0  0  0
 15 16  1  0  0  0  0
 16 21  1  0  0  0  0
 16 17  2  0  0  0  0
 17 18  1  0  0  0  0
 17 36  1  0  0  0  0
 18 19  2  0  0  0  0
 18 37  1  0  0  0  0
 19 20  1  0  0  0  0
 19 38  1  0  0  0  0
 20 21  2  0  0  0  0
 20 39  1  0  0  0  0
 21 22  1  0  0  0  0
M  CHG  1   5   1
M  END
> <s_m_source_file>
AV-unprocessed.smi

> <i_m_source_file_index>
1354

> <i_lp_mmshare_version>
43012

> <i_f3d_flags>
0

> <s_epik_input>
W2NIXTFbY0hdW2NIXVtjSF1jKGMxMiluKGMobjIpW0NIMl1bQ0gyXVtPSF0pW0NIMl1bQ0gyXU9jM1tjSF1bY0hdW2NIXVtjSF1jM0Ns

> <s_epik_cmdline>
J2VwaWtfcHl0aG9uJywgJy1waCcsICc3LjAnLCAnLXRuJywgJzgnLCAnLW1hJywgJzIwMCcsICctbWV0YWxfYmluZGluZycsICctaW1hZScsICc8aW5maWxlLm1hZT4nLCAnLW9tYWUnLCAnPG91dGZpbGUubWFlPic=

> <r_lp_tautomer_probability>
1

> <r_epik_Ionization_Penalty>
0.752951

> <r_epik_Ionization_Penalty_Charging>
0.752951

> <r_epik_Ionization_Penalty_Neutral>
5.89567e-08

> <r_epik_State_Penalty>
0.780107

> <r_epik_Charging_Adjusted_Penalty>
1.53306

> <i_epik_Tot_Q>
1

> <i_epik_Tot_abs_Q>
1

> <r_epik_Metal_State_Penalty>
4.68821

> <b_epik_Metal_Only>
0

> <s_lp_Force_Field>
OPLS_2005

> <r_lp_Energy>
19.8379

> <b_lp_Chiralities_Consistent>
1

> <s_lp_Variant>
AV-unprocessed.smi:1354-2

> <Gold.Version>
5.8.1

> <Gold.Id.Protein>
6NUR|6NUR_protein|mol2

> <Gold.PLP.Fitness>
55.9309

> <Gold.PLP.PLP>
-45.7459

> <Gold.PLP.part.hbond>
-3.0000

> <Gold.PLP.part.metal>
0.0000

> <Gold.PLP.part.buried>
-5.6319

> <Gold.PLP.part.nonpolar>
-37.6506

> <Gold.PLP.part.repulsive>
0.0200

> <Gold.PLP.ligand.clash>
0.0000

> <Gold.PLP.ligand.torsion>
0.9453

> <Gold.PLP.Chemscore.Hbond>
4.0000

> <Gold.PLP.Chemscore.CHOScore>
0.0000

> <Gold.PLP.Chemscore.Metal>
0.0000

> <Gold.Chemscore.Hbonds>
donor molecule, donor type, donor heavy atom, donor atom, acceptor molecule, acceptor atom, score
      L1  H     1    23       P1  7957  1.00
      L1  H     5    40       P1  8028  2.00
      P1  H  7997  8009       L1    15  1.00

> <Gold.PLP.Chemscore.Internal.Correction>
0.0756

> <Gold.Rescore>
     Score         DG    S(hbond)    S(metal)    S(lipo)     H(rot)  DE(clash)    DE(int)     intcor
     22.98     -23.91       2.78        0.00     130.57       2.39       0.06       0.86       ----

> <Gold.Chemscore.Fitness>
22.9788

> <Gold.Chemscore.DG>
-23.9065

> <Gold.Chemscore.ZeroCoef>
-5.4800

> <Gold.Chemscore.Hbond>
2.7785

> <Gold.Chemscore.Metal>
0.0000

> <Gold.Chemscore.Lipo>
130.5739

> <Gold.Chemscore.Internal_Hbond>
0.0000

> <Gold.Chemscore.DEClash>
0.0628

> <Gold.Chemscore.DEInternal>
0.8649

> <Gold.Chemscore.Rot>
2.3948

> <Gold.Chemscore.Internal.Correction>
   9.000000E+99

> <Gold.Chemscore.Hbonds>
donor molecule, donor type, donor heavy atom, donor atom, acceptor molecule, acceptor atom, score
      L1  H     1    23       P1  7957  1.00
      L1  H     5    40       P1  8028  0.98
      P1  H  7997  8009       L1    15  0.44

> <Gold.Chemscore.Hbond.Weighted>
-9.2802

> <Gold.Chemscore.Metal.Weighted>
-0.0000

> <Gold.Chemscore.Lipo.Weighted>
-15.2771

> <Gold.Chemscore.Internal_Hbond.Weighted>
0.0000

> <Gold.Chemscore.DEClash.Weighted>
0.0628

> <Gold.Chemscore.DEInternal.Weighted>
0.8649

> <Gold.Chemscore.Rot.Weighted>
6.1308

> <Gold.Chemscore.Internal.Correction.Weighted>
   9.000000E+99

> <Gold.Protein.RotatedTorsions>
[ 6907 6896 6895 6894 ] final    4.21 input  -60.11 | X-H torsion
[ 7974 7965 7964 7962 ] final  171.68 input  175.53 | X-H torsion
[ 8008 7997 7996 7995 ] final  155.31 input   59.86 | X-H torsion
[ 10167 10162 10161 10158 ] final -173.70 input  -65.29 | X-H torsion
[ 10718 10713 10712 10709 ] final  -54.12 input   66.30 | X-H torsion
[ 10763 10752 10751 10750 ] final   11.09 input  -60.55 | X-H torsion
[ 11005 11000 10999 10996 ] final  102.48 input  -57.11 | X-H torsion

> <Gold.Protein.ActiveResidues>
 VAL166  LYS551  ARG553  GLY616  TRP617  ASP618  TYR619  PRO620  LYS621  CYS622 
 ASP623  PHE694  ASN695  SER759  ASP760  ASP761  ALA762  ILE779  LEU786  VAL792 
 PHE793  MET794  SER795  GLU796  ALA797  LYS798  CYS799  TRP800  GLU811  SER814 

> <Gold.Protein.RotatedAtoms>
  151.6376  135.1016  160.0134 H   0  0  0  0  0  0  0  0  0  0  0  0  # atno 6907 bound_to 6896
  152.4072  133.6902  159.6375 H   0  0  0  0  0  0  0  0  0  0  0  0  # atno 6908 bound_to 6896
  150.7965  133.8606  159.3271 H   0  0  0  0  0  0  0  0  0  0  0  0  # atno 6909 bound_to 6896
  144.7288  139.9386  143.6427 H   0  0  0  0  0  0  0  0  0  0  0  0  # atno 7974 bound_to 7965
  156.2485  140.1943  156.6781 H   0  0  0  0  0  0  0  0  0  0  0  0  # atno 8008 bound_to 7997
  154.6343  140.0592  156.9795 H   0  0  0  0  0  0  0  0  0  0  0  0  # atno 8009 bound_to 7997
  155.1662  140.3264  155.4404 H   0  0  0  0  0  0  0  0  0  0  0  0  # atno 8010 bound_to 7997
  139.5674  144.1724  152.1332 H   0  0  0  0  0  0  0  0  0  0  0  0  # atno 10167 bound_to 10162
  156.1477  130.4152  149.9996 H   0  0  0  0  0  0  0  0  0  0  0  0  # atno 10718 bound_to 10713
  153.1963  135.6849  153.8288 H   0  0  0  0  0  0  0  0  0  0  0  0  # atno 10763 bound_to 10752
  153.7570  135.3215  155.3332 H   0  0  0  0  0  0  0  0  0  0  0  0  # atno 10764 bound_to 10752
  154.8146  135.4694  154.0709 H   0  0  0  0  0  0  0  0  0  0  0  0  # atno 10765 bound_to 10752
  139.8778  134.9226  156.5065 H   0  0  0  0  0  0  0  0  0  0  0  0  # atno 11005 bound_to 11000
  146.0802  139.3790  143.0469 LP  0  0  0  0  0  0  0  0  0  0  0  0  # atno 17320 bound_to 7965
  145.7851  140.9839  143.1079 LP  0  0  0  0  0  0  0  0  0  0  0  0  # atno 17321 bound_to 7965
  140.1249  144.5340  150.6839 LP  0  0  0  0  0  0  0  0  0  0  0  0  # atno 17342 bound_to 10162
  140.6957  143.2403  151.5006 LP  0  0  0  0  0  0  0  0  0  0  0  0  # atno 17343 bound_to 10162
  156.7863  130.9240  151.3646 LP  0  0  0  0  0  0  0  0  0  0  0  0  # atno 17370 bound_to 10713
  157.6631  130.8983  149.9872 LP  0  0  0  0  0  0  0  0  0  0  0  0  # atno 17371 bound_to 10713
  140.8551  133.8102  155.9208 LP  0  0  0  0  0  0  0  0  0  0  0  0  # atno 17394 bound_to 11000
  140.9105  134.2266  157.4988 LP  0  0  0  0  0  0  0  0  0  0  0  0  # atno 17395 bound_to 11000

$$$$
