#       Name:                AV-unprocessed.smi:2246
#       Creating user name   scv26
#       Creation time:       Fri Mar 27 12:28:49 2020


#       File generated by GOLD software.
#

@<TRIPOS>MOLECULE
AV-unprocessed.smi:2246
    35    36     1
SMALL
NO_CHARGES


@<TRIPOS>ATOM
      1 ****         1.2643  -1.3338   1.1648 O.2            1 S1                 0.0000
      2 ****         0.8115  -0.1978   1.0277 C.2            1 S1                 0.0000
      3 ****        -0.6851   0.0987   0.9631 C.3            1 S1                 0.0000
      4 ****        -1.4525  -0.7345   0.0057 N.am           1 S1                 0.0000
      5 ****        -2.5144  -1.5171   0.4330 C.2            1 S1                 0.0000
      6 ****        -3.2455  -2.3028  -0.3937 C.2            1 S1                 0.0000
      7 ****        -4.5513  -3.2498   0.2243 Cl             1 S1                 0.0000
      8 ****        -2.9317  -2.3554  -1.8202 C.2            1 S1                 0.0000
      9 ****        -3.5268  -3.0325  -2.6562 O.2            1 S1                 0.0000
     10 ****        -1.8588  -1.5505  -2.2121 N.am           1 S1                 0.0000
     11 ****        -1.0999  -0.7386  -1.3692 C.2            1 S1                 0.0000
     12 ****        -0.1777  -0.0730  -1.8402 O.2            1 S1                 0.0000
     13 ****        -0.7501   1.6126   0.6768 C.3            1 S1                 0.0000
     14 ****         0.6947   2.1207   0.8083 C.3            1 S1                 0.0000
     15 ****         1.5230   0.9306   0.9319 N.am           1 S1                 0.0000
     16 ****         2.9802   1.0397   0.9555 C.3            1 S1                 0.0000
     17 ****         3.6157   0.7127  -0.4084 C.3            1 S1                 0.0000
     18 ****         4.9336   0.8894  -0.3244 F              1 S1                 0.0000
     19 ****         3.3812  -0.5508  -0.7617 F              1 S1                 0.0000
     20 ****         3.1376   1.5265  -1.3498 F              1 S1                 0.0000
     21 ****        -1.6107  -1.5580  -3.1908 H              1 S1                 0.0000
     22 ****        -1.0563  -0.0699   1.9753 H              1 S1                 0.0000
     23 ****        -2.7771  -1.5063   1.4813 H              1 S1                 0.0000
     24 ****        -1.1332   1.8367  -0.3187 H              1 S1                 0.0000
     25 ****        -1.4103   2.1192   1.3816 H              1 S1                 0.0000
     26 ****         0.9903   2.7120  -0.0592 H              1 S1                 0.0000
     27 ****         0.8116   2.7400   1.6986 H              1 S1                 0.0000
     28 ****         3.2551   2.0523   1.2536 H              1 S1                 0.0000
     29 ****         3.3833   0.3786   1.7244 H              1 S1                 0.0000
     30 ****         2.2530  -1.4753   1.2143 LP             1 S1                 0.0000
     31 ****         0.6435  -2.1153   1.2267 LP             1 S1                 0.0000
     32 ****        -4.2951  -3.6088  -2.3778 LP             1 S1                 0.0000
     33 ****        -3.2425  -3.0069  -3.6146 LP             1 S1                 0.0000
     34 ****         0.3713   0.5130  -1.2442 LP             1 S1                 0.0000
     35 ****         0.0225  -0.1182  -2.8190 LP             1 S1                 0.0000
@<TRIPOS>BOND
    1    1    2 2     
    2    2   15 am    
    3    2    3 1     
    4    3    4 1     
    5    3   13 1     
    6    3   22 1     
    7    4   11 1     
    8    4    5 1     
    9    5    6 2     
   10    5   23 1     
   11    6    7 1     
   12    6    8 1     
   13    8    9 2     
   14    8   10 1     
   15   10   21 1     
   16   10   11 1     
   17   11   12 2     
   18   13   14 1     
   19   13   24 1     
   20   13   25 1     
   21   14   15 1     
   22   14   26 1     
   23   14   27 1     
   24   15   16 1     
   25   16   17 1     
   26   16   28 1     
   27   16   29 1     
   28   17   18 1     
   29   17   19 1     
   30   17   20 1     
   31    1   30 1     
   32    1   31 1     
   33    9   32 1     
   34    9   33 1     
   35   12   34 1     
   36   12   35 1     
@<TRIPOS>SUBSTRUCTURE
      1 S1             1
@<TRIPOS>SET
LONE_PAIRS      STATIC     ATOMS    <user>   **** ""
6 30 31 32 33 34 35
DONOR_HYDROGENS      STATIC     ATOMS    <user>   **** ""
1 21
ATOM$BLUE        STATIC     ATOMS    COLORGROUP SYSTEM
6 30 31 32 33 34 35
ATOM$RED        STATIC     ATOMS    COLORGROUP SYSTEM
1 21
