#       Name:                AV-unprocessed.smi:2937
#       Creating user name   scv26
#       Creation time:       Fri Mar 27 16:15:12 2020


#       File generated by GOLD software.
#

@<TRIPOS>MOLECULE
AV-unprocessed.smi:2937
    42    43     1
SMALL
NO_CHARGES


@<TRIPOS>ATOM
      1 ****        -4.0111   2.4351   0.2844 C.3            1 S1                 0.0000
      2 ****        -3.2653   1.2238   0.2442 O.3            1 S1                 0.0000
      3 ****        -1.9046   1.2982   0.0205 C.ar           1 S1                 0.0000
      4 ****        -1.3392   2.5157  -0.1716 N.ar           1 S1                 0.0000
      5 ****        -0.0259   2.5444  -0.3892 C.ar           1 S1                 0.0000
      6 ****         0.5378   3.7809  -0.5877 N.pl3          1 S1                 0.0000
      7 ****         0.7985   1.4992  -0.4338 N.ar           1 S1                 0.0000
      8 ****         0.2618   0.2696  -0.2400 C.ar           1 S1                 0.0000
      9 ****         1.1316  -0.8369  -0.2556 N.3            1 S1                 0.0000
     10 ****         1.4880  -1.3087   1.0768 C.3            1 S1                 0.0000
     11 ****         2.2332  -2.6510   0.9770 C.3            1 S1                 0.0000
     12 ****         3.3670  -2.5098   0.1251 O.3            1 S1                 0.0000
     13 ****         3.0002  -2.1205  -1.1956 C.3            1 S1                 0.0000
     14 ****         2.2824  -0.7610  -1.1503 C.3            1 S1                 0.0000
     15 ****        -1.1316   0.1130  -0.0069 C.ar           1 S1                 0.0000
     16 ****        -1.7967  -1.2444   0.1833 C.3            1 S1                 0.0000
     17 ****        -2.0820  -1.5246   1.5371 O.3            1 S1                 0.0000
     18 ****        -5.0603   2.2062   0.4705 H              1 S1                 0.0000
     19 ****        -3.9527   2.9726  -0.6630 H              1 S1                 0.0000
     20 ****        -3.6674   3.0876   1.0883 H              1 S1                 0.0000
     21 ****        -0.0341   4.6126  -0.5654 H              1 S1                 0.0000
     22 ****         1.5269   3.8682  -0.7705 H              1 S1                 0.0000
     23 ****         2.1213  -0.5645   1.5617 H              1 S1                 0.0000
     24 ****         0.6008  -1.4232   1.6987 H              1 S1                 0.0000
     25 ****         2.5678  -2.9694   1.9643 H              1 S1                 0.0000
     26 ****         1.5742  -3.4327   0.5958 H              1 S1                 0.0000
     27 ****         3.8991  -2.0511  -1.8082 H              1 S1                 0.0000
     28 ****         2.3635  -2.8827  -1.6475 H              1 S1                 0.0000
     29 ****         1.9571  -0.4747  -2.1513 H              1 S1                 0.0000
     30 ****         2.9739   0.0066  -0.7996 H              1 S1                 0.0000
     31 ****        -2.7301  -1.2680  -0.3800 H              1 S1                 0.0000
     32 ****        -1.1815  -2.0468  -0.2229 H              1 S1                 0.0000
     33 ****        -2.5071  -2.3673   1.5863 H              1 S1                 0.0000
     34 ****        -3.6546   0.6609  -0.4849 LP             1 S1                 0.0000
     35 ****        -3.3958   0.7668   1.1240 LP             1 S1                 0.0000
     36 ****        -1.8839   3.3541  -0.1508 LP             1 S1                 0.0000
     37 ****         1.7768   1.6172  -0.6039 LP             1 S1                 0.0000
     38 ****         0.5639  -1.5407  -0.6827 LP             1 S1                 0.0000
     39 ****         3.8483  -3.3852   0.0812 LP             1 S1                 0.0000
     40 ****         3.9743  -1.8144   0.5092 LP             1 S1                 0.0000
     41 ****        -2.6870  -0.8196   1.9071 LP             1 S1                 0.0000
     42 ****        -1.2321  -1.5443   2.0637 LP             1 S1                 0.0000
@<TRIPOS>BOND
    1    1    2 1     
    2    1   18 1     
    3    1   19 1     
    4    1   20 1     
    5    2    3 1     
    6    3   15 ar    
    7    3    4 ar    
    8    4    5 ar    
    9    5    6 1     
   10    5    7 ar    
   11    6   21 1     
   12    6   22 1     
   13    7    8 ar    
   14    8    9 1     
   15    8   15 ar    
   16    9   14 1     
   17    9   10 1     
   18   10   11 1     
   19   10   23 1     
   20   10   24 1     
   21   11   12 1     
   22   11   25 1     
   23   11   26 1     
   24   12   13 1     
   25   13   14 1     
   26   13   27 1     
   27   13   28 1     
   28   14   29 1     
   29   14   30 1     
   30   15   16 1     
   31   16   17 1     
   32   16   31 1     
   33   16   32 1     
   34   17   33 1     
   35    2   34 1     
   36    2   35 1     
   37    4   36 1     
   38    7   37 1     
   39    9   38 1     
   40   12   39 1     
   41   12   40 1     
   42   17   41 1     
   43   17   42 1     
@<TRIPOS>SUBSTRUCTURE
      1 S1             1
@<TRIPOS>SET
LONE_PAIRS      STATIC     ATOMS    <user>   **** ""
9 34 35 36 37 38 39 40 41 42
DONOR_HYDROGENS      STATIC     ATOMS    <user>   **** ""
3 21 22 33
ATOM$BLUE        STATIC     ATOMS    COLORGROUP SYSTEM
9 34 35 36 37 38 39 40 41 42
ATOM$RED        STATIC     ATOMS    COLORGROUP SYSTEM
3 21 22 33
