#       Name:                AV-unprocessed.smi:406
#       Creating user name   scv26
#       Creation time:       Thu Mar 26 22:44:43 2020


#       File generated by GOLD software.
#

@<TRIPOS>MOLECULE
AV-unprocessed.smi:406
    40    41     1
SMALL
NO_CHARGES


@<TRIPOS>ATOM
      1 ****        -3.6396  -2.8886  -0.7733 C.3            1 S1                 0.0000
      2 ****        -2.2455  -2.4998  -1.2765 C.3            1 S1                 0.0000
      3 ****        -1.7738  -1.1503  -0.7125 C.3            1 S1                 0.0000
      4 ****        -0.4328  -0.8144  -1.1733 N.am           1 S1                 0.0000
      5 ****        -0.1320  -0.2626  -2.3604 C.2            1 S1                 0.0000
      6 ****        -0.9752  -0.0017  -3.2185 O.2            1 S1                 0.0000
      7 ****         1.3469   0.0348  -2.6259 C.3            1 S1                 0.0000
      8 ****         1.8738   1.0051  -1.6085 C.2            1 S1                 0.0000
      9 ****         1.8490   2.3740  -1.6797 C.2            1 S1                 0.0000
     10 ****         2.5118   3.1038  -0.2456 S.3            1 S1                 0.0000
     11 ****         2.7990   1.4983   0.4269 C.2            1 S1                 0.0000
     12 ****         3.3207   1.2599   1.6437 N.pl3          1 S1                -1.0000
     13 ****         2.5710   0.9178   2.7288 C.2            1 S1                 0.0000
     14 ****         3.0144   0.7010   3.8553 O.2            1 S1                 0.0000
     15 ****         1.0980   0.7635   2.4700 C.3            1 S1                 0.0000
     16 ****         0.2550   2.0186   2.3553 C.3            1 S1                 0.0000
     17 ****         0.1439   1.1535   3.5828 C.3            1 S1                 0.0000
     18 ****         2.4503   0.5297  -0.4276 N.2            1 S1                 0.0000
     19 ****        -3.9482  -3.8489  -1.1867 H              1 S1                 0.0000
     20 ****        -4.3833  -2.1462  -1.0641 H              1 S1                 0.0000
     21 ****        -3.6562  -2.9728   0.3136 H              1 S1                 0.0000
     22 ****        -1.5342  -3.2803  -1.0033 H              1 S1                 0.0000
     23 ****        -2.2583  -2.4619  -2.3665 H              1 S1                 0.0000
     24 ****        -2.4721  -0.3557  -0.9812 H              1 S1                 0.0000
     25 ****        -1.7528  -1.1898   0.3771 H              1 S1                 0.0000
     26 ****         0.3272  -0.9883  -0.5303 H              1 S1                 0.0000
     27 ****         1.9073  -0.9005  -2.6004 H              1 S1                 0.0000
     28 ****         1.4622   0.4370  -3.6331 H              1 S1                 0.0000
     29 ****         1.4684   2.9945  -2.4769 H              1 S1                 0.0000
     30 ****         0.8057  -0.1075   1.8860 H              1 S1                 0.0000
     31 ****         0.7516   2.9809   2.4653 H              1 S1                 0.0000
     32 ****        -0.5562   1.9978   1.6305 H              1 S1                 0.0000
     33 ****        -0.7511   0.5463   3.7002 H              1 S1                 0.0000
     34 ****         0.5537   1.5531   4.5088 H              1 S1                 0.0000
     35 ****        -1.9402  -0.2009  -3.0481 LP             1 S1                 0.0000
     36 ****        -0.6951   0.4094  -4.0860 LP             1 S1                 0.0000
     37 ****         4.3111   1.3379   1.7579 LP             1 S1                 0.0000
     38 ****         3.9969   0.7713   4.0280 LP             1 S1                 0.0000
     39 ****         2.3925   0.4544   4.5985 LP             1 S1                 0.0000
     40 ****         2.5891  -0.4425  -0.2391 LP             1 S1                 0.0000
@<TRIPOS>BOND
    1    1    2 1     
    2    1   19 1     
    3    1   20 1     
    4    1   21 1     
    5    2    3 1     
    6    2   22 1     
    7    2   23 1     
    8    3    4 1     
    9    3   24 1     
   10    3   25 1     
   11    4    5 am    
   12    4   26 1     
   13    5    6 2     
   14    5    7 1     
   15    7    8 1     
   16    7   27 1     
   17    7   28 1     
   18    8   18 1     
   19    8    9 2     
   20    9   10 1     
   21    9   29 1     
   22   10   11 1     
   23   11   12 1     
   24   11   18 2     
   25   12   13 1     
   26   13   14 2     
   27   13   15 1     
   28   15   17 1     
   29   15   16 1     
   30   15   30 1     
   31   16   17 1     
   32   16   31 1     
   33   16   32 1     
   34   17   33 1     
   35   17   34 1     
   36    6   35 1     
   37    6   36 1     
   38   12   37 1     
   39   14   38 1     
   40   14   39 1     
   41   18   40 1     
@<TRIPOS>SUBSTRUCTURE
      1 S1             1
@<TRIPOS>SET
LONE_PAIRS      STATIC     ATOMS    <user>   **** ""
6 35 36 37 38 39 40
DONOR_HYDROGENS      STATIC     ATOMS    <user>   **** ""
1 26
ATOM$BLUE        STATIC     ATOMS    COLORGROUP SYSTEM
6 35 36 37 38 39 40
ATOM$RED        STATIC     ATOMS    COLORGROUP SYSTEM
1 26
