#       Name:                AV-unprocessed.smi:100
#       Creating user name   scv26
#       Creation time:       Thu Mar 26 17:40:33 2020


#       File generated by GOLD software.
#

@<TRIPOS>MOLECULE
AV-unprocessed.smi:100
    40    42     1
SMALL
NO_CHARGES


@<TRIPOS>ATOM
      1 ****        -5.0028   0.1930   0.0601 N.pl3          1 S1                 0.0000
      2 ****        -3.6891   0.4584   0.0755 C.ar           1 S1                 0.0000
      3 ****        -3.2941   1.7527   0.0450 N.ar           1 S1                 0.0000
      4 ****        -1.9891   2.0425   0.0618 C.ar           1 S1                 0.0000
      5 ****        -0.9484   1.2069   0.1068 N.ar           1 S1                 0.0000
      6 ****        -1.3476  -0.0986   0.1339 C.ar           1 S1                 0.0000
      7 ****        -2.6960  -0.5526   0.1228 C.ar           1 S1                 0.0000
      8 ****        -2.7297  -1.9398   0.1629 N.2            1 S1                 0.0000
      9 ****        -1.4700  -2.2825   0.1952 C.2            1 S1                 0.0000
     10 ****        -0.5697  -1.2391   0.1756 N.pl3          1 S1                 0.0000
     11 ****         0.9260  -1.3282   0.1951 C.3            1 S1                 0.0000
     12 ****         1.4267  -0.2984   0.9914 O.3            1 S1                 0.0000
     13 ****         2.6369   0.1786   0.4134 C.3            1 S1                 0.0000
     14 ****         2.9878   1.5771   0.9453 C.3            1 S1                 0.0000
     15 ****         3.6743   1.4689   2.1744 O.3            1 S1                 0.0000
     16 ****         2.3294   0.1293  -1.0856 C.3            1 S1                 0.0000
     17 ****         1.5610   1.1697  -1.4169 F              1 S1                 0.0000
     18 ****         1.5639  -1.1814  -1.2031 C.3            1 S1                 0.0000
     19 ****         0.6683  -1.1930  -2.3011 O.3            1 S1                 0.0000
     20 ****        -5.3218  -0.7648   0.0827 H              1 S1                 0.0000
     21 ****        -5.6696   0.9503   0.0289 H              1 S1                 0.0000
     22 ****        -1.7421   3.0935   0.0353 H              1 S1                 0.0000
     23 ****        -1.1598  -3.3167   0.2299 H              1 S1                 0.0000
     24 ****         1.1385  -2.2950   0.6541 H              1 S1                 0.0000
     25 ****         3.4414  -0.5275   0.6292 H              1 S1                 0.0000
     26 ****         3.6492   2.0895   0.2462 H              1 S1                 0.0000
     27 ****         2.0957   2.1939   1.0604 H              1 S1                 0.0000
     28 ****         3.8758   2.3388   2.4840 H              1 S1                 0.0000
     29 ****         3.2210   0.1657  -1.7120 H              1 S1                 0.0000
     30 ****         2.2725  -2.0017  -1.3241 H              1 S1                 0.0000
     31 ****         0.1608  -1.9892  -2.2672 H              1 S1                 0.0000
     32 ****        -3.9729   2.4862   0.0102 LP             1 S1                 0.0000
     33 ****         0.0072   1.5015   0.1192 LP             1 S1                 0.0000
     34 ****        -3.5315  -2.5373   0.1663 LP             1 S1                 0.0000
     35 ****         1.6068  -0.6428   1.9128 LP             1 S1                 0.0000
     36 ****         0.7600   0.4455   1.0379 LP             1 S1                 0.0000
     37 ****         4.5210   0.9532   2.0433 LP             1 S1                 0.0000
     38 ****         3.0976   0.9985   2.8424 LP             1 S1                 0.0000
     39 ****         1.1841  -1.1583  -3.1571 LP             1 S1                 0.0000
     40 ****         0.0586  -0.4022  -2.2471 LP             1 S1                 0.0000
@<TRIPOS>BOND
    1    1    2 1     
    2    1   20 1     
    3    1   21 1     
    4    2    7 ar    
    5    2    3 ar    
    6    3    4 ar    
    7    4    5 ar    
    8    4   22 1     
    9    5    6 ar    
   10    6   10 1     
   11    6    7 ar    
   12    7    8 1     
   13    8    9 2     
   14    9   10 1     
   15    9   23 1     
   16   10   11 1     
   17   11   18 1     
   18   11   12 1     
   19   11   24 1     
   20   12   13 1     
   21   13   14 1     
   22   13   16 1     
   23   13   25 1     
   24   14   15 1     
   25   14   26 1     
   26   14   27 1     
   27   15   28 1     
   28   16   17 1     
   29   16   18 1     
   30   16   29 1     
   31   18   19 1     
   32   18   30 1     
   33   19   31 1     
   34    3   32 1     
   35    5   33 1     
   36    8   34 1     
   37   12   35 1     
   38   12   36 1     
   39   15   37 1     
   40   15   38 1     
   41   19   39 1     
   42   19   40 1     
@<TRIPOS>SUBSTRUCTURE
      1 S1             1
@<TRIPOS>SET
LONE_PAIRS      STATIC     ATOMS    <user>   **** ""
9 32 33 34 35 36 37 38 39 40
DONOR_HYDROGENS      STATIC     ATOMS    <user>   **** ""
4 20 21 28 31
ATOM$BLUE        STATIC     ATOMS    COLORGROUP SYSTEM
9 32 33 34 35 36 37 38 39 40
ATOM$RED        STATIC     ATOMS    COLORGROUP SYSTEM
4 20 21 28 31
