AV-unprocessed.smi:814|AV-procd|sdf|3821|dock6
  -GOLD-   22720 1263D 1   1.00000     0.00000
 Structure written by MMmdl.
 37 38  0  0  0  0  0  0  0  0  2 V2000
  148.2306  141.7246  154.8419 C   0  0  0  0  0  0  0  0  0  0  0  0
  147.9544  140.6073  153.9365 N   0  0  0  0  0  0  0  0  0  0  0  0
  147.0764  140.6073  152.8828 C   0  0  0  0  0  0  0  0  0  0  0  0
  147.1385  139.3595  152.3194 C   0  0  0  0  0  0  0  0  0  0  0  0
  148.0498  138.6495  153.0527 N   0  3  0  0  0  0  0  0  0  0  0  0
  148.5516  139.4080  154.0343 C   0  0  0  0  0  0  0  0  0  0  0  0
  149.5637  138.9609  155.0418 C   0  0  0  0  0  0  0  0  0  0  0  0
  150.8500  139.8012  155.0030 C   0  0  0  0  0  0  0  0  0  0  0  0
  150.9094  140.7393  156.1168 N   0  0  0  0  0  0  0  0  0  0  0  0
  151.8398  140.7249  157.0840 C   0  0  0  0  0  0  0  0  0  0  0  0
  152.7615  139.9087  157.1182 O   0  0  0  0  0  0  0  0  0  0  0  0
  151.7067  141.7903  158.1803 C   0  0  2  0  0  0  0  0  0  0  0  0
  151.6438  143.2141  157.5801 C   0  0  0  0  0  0  0  0  0  0  0  0
  151.7689  144.2900  158.6449 C   0  0  0  0  0  0  0  0  0  0  0  0
  152.2169  144.0499  159.8892 C   0  0  0  0  0  0  0  0  0  0  0  0
  152.6545  142.6775  160.3694 C   0  0  0  0  0  0  0  0  0  0  0  0
  152.8549  141.6896  159.2042 C   0  0  0  0  0  0  0  0  0  0  0  0
  147.6000  142.5739  154.5770 H   0  0  0  0  0  0  0  0  0  0  0  0
  149.2783  142.0127  154.7520 H   0  0  0  0  0  0  0  0  0  0  0  0
  148.0153  141.4238  155.8672 H   0  0  0  0  0  0  0  0  0  0  0  0
  146.4860  141.4729  152.6181 H   0  0  0  0  0  0  0  0  0  0  0  0
  146.6157  138.9340  151.4751 H   0  0  0  0  0  0  0  0  0  0  0  0
  149.0832  139.0265  156.0189 H   0  0  0  0  0  0  0  0  0  0  0  0
  149.7732  137.9071  154.8565 H   0  0  0  0  0  0  0  0  0  0  0  0
  151.7249  139.1536  155.0592 H   0  0  0  0  0  0  0  0  0  0  0  0
  150.9259  140.3412  154.0576 H   0  0  0  0  0  0  0  0  0  0  0  0
  150.1855  141.4422  156.1645 H   0  0  0  0  0  0  0  0  0  0  0  0
  150.7723  141.6103  158.7160 H   0  0  0  0  0  0  0  0  0  0  0  0
  152.4375  143.3743  156.8491 H   0  0  0  0  0  0  0  0  0  0  0  0
  150.6973  143.3523  157.0559 H   0  0  0  0  0  0  0  0  0  0  0  0
  151.4892  145.2936  158.3594 H   0  0  0  0  0  0  0  0  0  0  0  0
  152.2698  144.8564  160.6059 H   0  0  0  0  0  0  0  0  0  0  0  0
  153.5790  142.7723  160.9395 H   0  0  0  0  0  0  0  0  0  0  0  0
  151.8950  142.3020  161.0558 H   0  0  0  0  0  0  0  0  0  0  0  0
  152.9392  140.6746  159.5950 H   0  0  0  0  0  0  0  0  0  0  0  0
  153.8035  141.9088  158.7108 H   0  0  0  0  0  0  0  0  0  0  0  0
  148.3099  137.6864  152.8803 H   0  0  0  0  0  0  0  0  0  0  0  0
  1  2  1  0  0  0  0
  1 18  1  0  0  0  0
  1 19  1  0  0  0  0
  1 20  1  0  0  0  0
  2  6  1  0  0  0  0
  2  3  1  0  0  0  0
  3  4  2  0  0  0  0
  3 21  1  0  0  0  0
  4  5  1  0  0  0  0
  4 22  1  0  0  0  0
  5  6  2  0  0  0  0
  5 37  1  0  0  0  0
  6  7  1  0  0  0  0
  7  8  1  0  0  0  0
  7 23  1  0  0  0  0
  7 24  1  0  0  0  0
  8  9  1  0  0  0  0
  8 25  1  0  0  0  0
  8 26  1  0  0  0  0
  9 10  1  0  0  0  0
  9 27  1  0  0  0  0
 10 11  2  0  0  0  0
 10 12  1  0  0  0  0
 12 17  1  0  0  0  0
 12 13  1  0  0  0  0
 12 28  1  0  0  0  0
 13 14  1  0  0  0  0
 13 29  1  0  0  0  0
 13 30  1  0  0  0  0
 14 15  2  0  0  0  0
 14 31  1  0  0  0  0
 15 16  1  0  0  0  0
 15 32  1  0  0  0  0
 16 17  1  0  0  0  0
 16 33  1  0  0  0  0
 16 34  1  0  0  0  0
 17 35  1  0  0  0  0
 17 36  1  0  0  0  0
M  CHG  1   5   1
M  END
> <s_m_source_file>
AV-unprocessed.smi

> <i_m_source_file_index>
814

> <i_lp_mmshare_version>
43012

> <i_f3d_flags>
0

> <s_epik_input>
W0NIM11uMVtjSF1bY0hdbmMxW0NIMl1bQ0gyXVtOSF1DKD1PKVtDQEBIXTJbQ0gyXVtDSF09W0NIXVtDSDJdW0NIMl0y

> <s_epik_cmdline>
J2VwaWtfcHl0aG9uJywgJy1waCcsICc3LjAnLCAnLXRuJywgJzgnLCAnLW1hJywgJzIwMCcsICctbWV0YWxfYmluZGluZycsICctaW1hZScsICc8aW5maWxlLm1hZT4nLCAnLW9tYWUnLCAnPG91dGZpbGUubWFlPic=

> <r_lp_tautomer_probability>
1

> <r_epik_Ionization_Penalty>
0.0819619

> <r_epik_Ionization_Penalty_Charging>
0

> <r_epik_Ionization_Penalty_Neutral>
0.0819619

> <r_epik_State_Penalty>
0.0726933

> <r_epik_Charging_Adjusted_Penalty>
0.0726933

> <i_epik_Tot_Q>
1

> <i_epik_Tot_abs_Q>
1

> <r_epik_Metal_State_Penalty>
0.411758

> <b_epik_Metal_Only>
0

> <s_lp_Force_Field>
OPLS_2005

> <r_lp_Energy>
9.54254

> <b_lp_Chiralities_Consistent>
1

> <s_lp_Variant>
AV-unprocessed.smi:814-1

> <Gold.Version>
5.8.1

> <Gold.Id.Protein>
6NUR|6NUR_protein|mol2

> <Gold.PLP.Fitness>
47.2136

> <Gold.PLP.PLP>
-38.6500

> <Gold.PLP.part.hbond>
-3.0000

> <Gold.PLP.part.metal>
0.0000

> <Gold.PLP.part.buried>
0.5080

> <Gold.PLP.part.nonpolar>
-35.2467

> <Gold.PLP.part.repulsive>
0.1502

> <Gold.PLP.ligand.clash>
0.0000

> <Gold.PLP.ligand.torsion>
0.3506

> <Gold.PLP.Chemscore.Hbond>
3.0000

> <Gold.PLP.Chemscore.CHOScore>
0.0794

> <Gold.PLP.Chemscore.Metal>
0.0000

> <Gold.Chemscore.Hbonds>
donor molecule, donor type, donor heavy atom, donor atom, acceptor molecule, acceptor atom, score
      L1  H     5    37       P1  7948  2.00
      P1  H  7997  8010       L1    11  1.00

> <Gold.PLP.Chemscore.Internal.Correction>
0.0264

> <Gold.Rescore>
     Score         DG    S(hbond)    S(metal)    S(lipo)     H(rot)  DE(clash)    DE(int)     intcor
     18.89     -19.36       1.94        0.00      99.35       1.65       0.12       0.34       ----

> <Gold.Chemscore.Fitness>
18.8918

> <Gold.Chemscore.DG>
-19.3555

> <Gold.Chemscore.ZeroCoef>
-5.4800

> <Gold.Chemscore.Hbond>
1.9403

> <Gold.Chemscore.Metal>
0.0000

> <Gold.Chemscore.Lipo>
99.3468

> <Gold.Chemscore.Internal_Hbond>
0.0000

> <Gold.Chemscore.DEClash>
0.1202

> <Gold.Chemscore.DEInternal>
0.3435

> <Gold.Chemscore.Rot>
1.6518

> <Gold.Chemscore.Internal.Correction>
   9.000000E+99

> <Gold.Chemscore.Hbonds>
donor molecule, donor type, donor heavy atom, donor atom, acceptor molecule, acceptor atom, score
      L1  H     5    37       P1  7948  0.98
      P1  H  7997  8010       L1    11  0.99

> <Gold.Chemscore.Hbond.Weighted>
-6.4806

> <Gold.Chemscore.Metal.Weighted>
-0.0000

> <Gold.Chemscore.Lipo.Weighted>
-11.6236

> <Gold.Chemscore.Internal_Hbond.Weighted>
0.0000

> <Gold.Chemscore.DEClash.Weighted>
0.1202

> <Gold.Chemscore.DEInternal.Weighted>
0.3435

> <Gold.Chemscore.Rot.Weighted>
4.2287

> <Gold.Chemscore.Internal.Correction.Weighted>
   9.000000E+99

> <Gold.Protein.RotatedTorsions>
[ 6907 6896 6895 6894 ] final  101.39 input  -60.11 | X-H torsion
[ 7974 7965 7964 7962 ] final -144.83 input  175.53 | X-H torsion
[ 8008 7997 7996 7995 ] final   52.55 input   59.86 | X-H torsion
[ 10167 10162 10161 10158 ] final -111.98 input  -65.29 | X-H torsion
[ 10718 10713 10712 10709 ] final  133.26 input   66.30 | X-H torsion
[ 10763 10752 10751 10750 ] final   53.86 input  -60.55 | X-H torsion
[ 11005 11000 10999 10996 ] final  -53.31 input  -57.11 | X-H torsion

> <Gold.Protein.ActiveResidues>
 VAL166  LYS551  ARG553  GLY616  TRP617  ASP618  TYR619  PRO620  LYS621  CYS622 
 ASP623  PHE694  ASN695  SER759  ASP760  ASP761  ALA762  ILE779  LEU786  VAL792 
 PHE793  MET794  SER795  GLU796  ALA797  LYS798  CYS799  TRP800  GLU811  SER814 

> <Gold.Protein.RotatedAtoms>
  152.5350  134.0132  159.7947 H   0  0  0  0  0  0  0  0  0  0  0  0  # atno 6907 bound_to 6896
  151.0331  133.5764  159.2666 H   0  0  0  0  0  0  0  0  0  0  0  0  # atno 6908 bound_to 6896
  151.2762  135.0707  159.9206 H   0  0  0  0  0  0  0  0  0  0  0  0  # atno 6909 bound_to 6896
  144.8269  140.5660  143.5541 H   0  0  0  0  0  0  0  0  0  0  0  0  # atno 7974 bound_to 7965
  155.4536  140.3459  155.4304 H   0  0  0  0  0  0  0  0  0  0  0  0  # atno 8008 bound_to 7997
  156.1205  140.1486  156.9241 H   0  0  0  0  0  0  0  0  0  0  0  0  # atno 8009 bound_to 7997
  154.4820  140.0867  156.7378 H   0  0  0  0  0  0  0  0  0  0  0  0  # atno 8010 bound_to 7997
  140.1277  143.4388  152.1649 H   0  0  0  0  0  0  0  0  0  0  0  0  # atno 10167 bound_to 10162
  157.4790  131.1085  150.9706 H   0  0  0  0  0  0  0  0  0  0  0  0  # atno 10718 bound_to 10713
  152.9799  135.5764  154.4811 H   0  0  0  0  0  0  0  0  0  0  0  0  # atno 10763 bound_to 10752
  154.4359  135.2774  155.1882 H   0  0  0  0  0  0  0  0  0  0  0  0  # atno 10764 bound_to 10752
  154.3571  135.6196  153.5725 H   0  0  0  0  0  0  0  0  0  0  0  0  # atno 10765 bound_to 10752
  141.0969  133.6623  156.4153 H   0  0  0  0  0  0  0  0  0  0  0  0  # atno 11005 bound_to 11000
  145.4980  139.1485  143.3673 LP  0  0  0  0  0  0  0  0  0  0  0  0  # atno 17320 bound_to 7965
  146.2574  140.5119  142.8868 LP  0  0  0  0  0  0  0  0  0  0  0  0  # atno 17321 bound_to 7965
  139.5536  144.7356  151.4362 LP  0  0  0  0  0  0  0  0  0  0  0  0  # atno 17342 bound_to 10162
  140.6835  143.8027  150.7154 LP  0  0  0  0  0  0  0  0  0  0  0  0  # atno 17343 bound_to 10162
  157.0445  130.5762  149.5361 LP  0  0  0  0  0  0  0  0  0  0  0  0  # atno 17370 bound_to 10713
  156.0112  130.5203  150.7993 LP  0  0  0  0  0  0  0  0  0  0  0  0  # atno 17371 bound_to 10713
  140.5117  134.6388  157.5287 LP  0  0  0  0  0  0  0  0  0  0  0  0  # atno 17394 bound_to 11000
  139.9809  134.7139  155.9862 LP  0  0  0  0  0  0  0  0  0  0  0  0  # atno 17395 bound_to 11000

$$$$
