AV-unprocessed.smi:35|AV-procd|sdf|272|dock3
  -GOLD-   2262016 43D 1   1.00000     0.00000
 Structure written by MMmdl.
 28 29  0  0  0  0  0  0  0  0  2 V2000
  151.3016  135.5373  155.1869 O   0  0  0  0  0  0  0  0  0  0  0  0
  150.9810  136.7186  155.0700 C   0  0  0  0  0  0  0  0  0  0  0  0
  151.8915  137.7224  154.9167 N   0  5  0  0  0  0  0  0  0  0  0  0
  151.5315  139.0351  154.8082 C   0  0  0  0  0  0  0  0  0  0  0  0
  152.3476  139.9357  154.6136 O   0  0  0  0  0  0  0  0  0  0  0  0
  150.1551  139.3873  154.9122 N   0  0  0  0  0  0  0  0  0  0  0  0
  149.7456  140.8462  154.7730 C   0  0  1  0  0  0  0  0  0  0  0  0
  149.1564  141.0472  153.5165 O   0  0  0  0  0  0  0  0  0  0  0  0
  147.7399  141.1955  153.6136 C   0  0  1  0  0  0  0  0  0  0  0  0
  147.0305  139.8239  153.5241 C   0  0  0  0  0  0  0  0  0  0  0  0
  147.3313  139.2033  152.2924 O   0  0  0  0  0  0  0  0  0  0  0  0
  147.6041  141.9093  154.9628 C   0  0  1  0  0  0  0  0  0  0  0  0
  146.3229  141.7682  155.5449 O   0  0  0  0  0  0  0  0  0  0  0  0
  148.6872  141.2678  155.8196 C   0  0  2  0  0  0  0  0  0  0  0  0
  149.1944  142.2266  156.7257 O   0  0  0  0  0  0  0  0  0  0  0  0
  149.2069  138.3782  154.9963 C   0  0  0  0  0  0  0  0  0  0  0  0
  149.5680  137.0826  155.0854 C   0  0  0  0  0  0  0  0  0  0  0  0
  148.1007  135.7583  155.2239 Br  0  0  0  0  0  0  0  0  0  0  0  0
  150.6835  141.4012  154.8326 H   0  0  0  0  0  0  0  0  0  0  0  0
  147.3771  141.8419  152.8134 H   0  0  0  0  0  0  0  0  0  0  0  0
  147.2789  139.1678  154.3567 H   0  0  0  0  0  0  0  0  0  0  0  0
  145.9485  139.9518  153.5432 H   0  0  0  0  0  0  0  0  0  0  0  0
  148.1788  139.5058  152.0041 H   0  0  0  0  0  0  0  0  0  0  0  0
  147.8165  142.9702  154.8168 H   0  0  0  0  0  0  0  0  0  0  0  0
  145.7002  141.6064  154.8524 H   0  0  0  0  0  0  0  0  0  0  0  0
  148.3026  140.3910  156.3437 H   0  0  0  0  0  0  0  0  0  0  0  0
  149.3022  143.0415  156.2571 H   0  0  0  0  0  0  0  0  0  0  0  0
  148.1536  138.6120  154.9932 H   0  0  0  0  0  0  0  0  0  0  0  0
  1  2  2  0  0  0  0
  2 17  1  0  0  0  0
  2  3  1  0  0  0  0
  3  4  1  0  0  0  0
  4  5  2  0  0  0  0
  4  6  1  0  0  0  0
  6  7  1  0  0  0  0
  6 16  1  0  0  0  0
  7 14  1  0  0  0  0
  7  8  1  0  0  0  0
  7 19  1  0  0  0  0
  8  9  1  0  0  0  0
  9 10  1  0  0  0  0
  9 12  1  0  0  0  0
  9 20  1  0  0  0  0
 10 11  1  0  0  0  0
 10 21  1  0  0  0  0
 10 22  1  0  0  0  0
 11 23  1  0  0  0  0
 12 13  1  0  0  0  0
 12 14  1  0  0  0  0
 12 24  1  0  0  0  0
 13 25  1  0  0  0  0
 14 15  1  0  0  0  0
 14 26  1  0  0  0  0
 15 27  1  0  0  0  0
 16 17  2  0  0  0  0
 16 28  1  0  0  0  0
 17 18  1  0  0  0  0
M  CHG  1   3  -1
M  END
> <s_m_source_file>
AV-unprocessed.smi

> <i_m_source_file_index>
35

> <i_lp_mmshare_version>
43012

> <i_f3d_flags>
0

> <s_epik_input>
Tz1jMVtuSF1jKD1PKW4oW2NIXWMxQnIpW0NAQEhdMk9bQ0BASF0oW0NIMl1bT0hdKVtDQEBIXShbT0hdKVtDQEhdMltPSF0=

> <s_epik_cmdline>
J2VwaWtfcHl0aG9uJywgJy1waCcsICc3LjAnLCAnLXRuJywgJzgnLCAnLW1hJywgJzIwMCcsICctbWV0YWxfYmluZGluZycsICctaW1hZScsICc8aW5maWxlLm1hZT4nLCAnLW9tYWUnLCAnPG91dGZpbGUubWFlPic=

> <r_epik_Ionization_Penalty>
1.06112

> <r_epik_Ionization_Penalty_Charging>
2.1796e-09

> <r_epik_Ionization_Penalty_Neutral>
1.06112

> <r_epik_State_Penalty>
1.11484

> <r_epik_Charging_Adjusted_Penalty>
1.11484

> <i_epik_Tot_Q>
-1

> <i_epik_Tot_abs_Q>
1

> <r_epik_Metal_State_Penalty>
0.0032876

> <b_epik_Metal_Only>
0

> <s_epik_Chemistry_Notes>
This compound contains an acetal/aminal-like group ( X-CH(R)-Y where X, Y are N, S, or O) that may be acid/base labile, releasing an aldehyde.

> <s_lp_Force_Field>
OPLS_2005

> <r_lp_Energy>
39.1744

> <b_lp_Chiralities_Consistent>
1

> <s_lp_Variant>
AV-unprocessed.smi:35-26

> <Gold.Version>
5.8.1

> <Gold.Id.Protein>
6NUR|6NUR_protein|mol2

> <Gold.PLP.Fitness>
41.1083

> <Gold.PLP.PLP>
-26.2873

> <Gold.PLP.part.hbond>
-6.8268

> <Gold.PLP.part.metal>
0.0000

> <Gold.PLP.part.buried>
-4.5935

> <Gold.PLP.part.nonpolar>
-18.7818

> <Gold.PLP.part.repulsive>
3.2538

> <Gold.PLP.ligand.clash>
0.0321

> <Gold.PLP.ligand.torsion>
0.2950

> <Gold.PLP.Chemscore.Hbond>
5.1273

> <Gold.PLP.Chemscore.CHOScore>
0.0000

> <Gold.PLP.Chemscore.Metal>
0.0000

> <Gold.Chemscore.Hbonds>
donor molecule, donor type, donor heavy atom, donor atom, acceptor molecule, acceptor atom, score
      L1  H    11    23       P1  7957  1.00
      L1  H    15    27       P1  8028  1.00
      P1  H  7989  7998       L1     5  0.62
      P1  H  8011  8017       L1     8  1.00
      P1  H 10752 10763       L1     1  1.00

> <Gold.PLP.Chemscore.Internal.Correction>
0.0615

> <Gold.Rescore>
     Score         DG    S(hbond)    S(metal)    S(lipo)     H(rot)  DE(clash)    DE(int)     intcor
     10.44     -13.34       3.90        0.00      35.10       3.63       1.59       1.31       ----

> <Gold.Chemscore.Fitness>
10.4418

> <Gold.Chemscore.DG>
-13.3441

> <Gold.Chemscore.ZeroCoef>
-5.4800

> <Gold.Chemscore.Hbond>
3.9043

> <Gold.Chemscore.Metal>
0.0000

> <Gold.Chemscore.Lipo>
35.0975

> <Gold.Chemscore.Internal_Hbond>
0.0000

> <Gold.Chemscore.DEClash>
1.5876

> <Gold.Chemscore.DEInternal>
1.3148

> <Gold.Chemscore.Rot>
3.6261

> <Gold.Chemscore.Internal.Correction>
   9.000000E+99

> <Gold.Chemscore.Hbonds>
donor molecule, donor type, donor heavy atom, donor atom, acceptor molecule, acceptor atom, score
      L1  H    11    23       P1  7957  1.00
      L1  H    15    27       P1  8028  0.99
      P1  H  7989  7998       L1     5  0.30
      P1  H  7997  8008       L1     5  0.03
      P1  H  8011  8017       L1     8  0.57
      P1  H 10752 10763       L1     1  0.49

> <Gold.Chemscore.Hbond.Weighted>
-13.0405

> <Gold.Chemscore.Metal.Weighted>
-0.0000

> <Gold.Chemscore.Lipo.Weighted>
-4.1064

> <Gold.Chemscore.Internal_Hbond.Weighted>
0.0000

> <Gold.Chemscore.DEClash.Weighted>
1.5876

> <Gold.Chemscore.DEInternal.Weighted>
1.3148

> <Gold.Chemscore.Rot.Weighted>
9.2828

> <Gold.Chemscore.Internal.Correction.Weighted>
   9.000000E+99

> <Gold.Protein.RotatedTorsions>
[ 6907 6896 6895 6894 ] final    0.76 input  -60.11 | X-H torsion
[ 7974 7965 7964 7962 ] final  176.70 input  175.53 | X-H torsion
[ 8008 7997 7996 7995 ] final  -20.64 input   59.86 | X-H torsion
[ 10167 10162 10161 10158 ] final -135.93 input  -65.29 | X-H torsion
[ 10718 10713 10712 10709 ] final   87.05 input   66.30 | X-H torsion
[ 10763 10752 10751 10750 ] final   76.24 input  -60.55 | X-H torsion
[ 11005 11000 10999 10996 ] final  166.46 input  -57.11 | X-H torsion

> <Gold.Protein.ActiveResidues>
 VAL166  LYS551  ARG553  GLY616  TRP617  ASP618  TYR619  PRO620  LYS621  CYS622 
 ASP623  PHE694  ASN695  SER759  ASP760  ASP761  ALA762  ILE779  LEU786  VAL792 
 PHE793  MET794  SER795  GLU796  ALA797  LYS798  CYS799  TRP800  GLU811  SER814 

> <Gold.Protein.RotatedAtoms>
  151.5817  135.1058  160.0018 H   0  0  0  0  0  0  0  0  0  0  0  0  # atno 6907 bound_to 6896
  152.4351  133.7342  159.6615 H   0  0  0  0  0  0  0  0  0  0  0  0  # atno 6908 bound_to 6896
  150.8248  133.8121  159.3146 H   0  0  0  0  0  0  0  0  0  0  0  0  # atno 6909 bound_to 6896
  144.7180  140.0135  143.6440 H   0  0  0  0  0  0  0  0  0  0  0  0  # atno 7974 bound_to 7965
  154.4757  140.2056  155.9885 H   0  0  0  0  0  0  0  0  0  0  0  0  # atno 8008 bound_to 7997
  156.1084  140.3233  155.8009 H   0  0  0  0  0  0  0  0  0  0  0  0  # atno 8009 bound_to 7997
  155.4677  140.0529  157.2974 H   0  0  0  0  0  0  0  0  0  0  0  0  # atno 8010 bound_to 7997
  139.8729  143.6935  152.2637 H   0  0  0  0  0  0  0  0  0  0  0  0  # atno 10167 bound_to 10162
  157.6936  131.0240  150.3064 H   0  0  0  0  0  0  0  0  0  0  0  0  # atno 10718 bound_to 10713
  153.0711  135.4959  154.8307 H   0  0  0  0  0  0  0  0  0  0  0  0  # atno 10763 bound_to 10752
  154.7024  135.3004  154.9324 H   0  0  0  0  0  0  0  0  0  0  0  0  # atno 10764 bound_to 10752
  154.0043  135.6762  153.4814 H   0  0  0  0  0  0  0  0  0  0  0  0  # atno 10765 bound_to 10752
  140.2666  134.7860  157.3638 H   0  0  0  0  0  0  0  0  0  0  0  0  # atno 11005 bound_to 11000
  146.0239  139.3275  143.0796 LP  0  0  0  0  0  0  0  0  0  0  0  0  # atno 17320 bound_to 7965
  145.8535  140.9515  143.0737 LP  0  0  0  0  0  0  0  0  0  0  0  0  # atno 17321 bound_to 7965
  139.7267  144.7591  151.0867 LP  0  0  0  0  0  0  0  0  0  0  0  0  # atno 17342 bound_to 10162
  140.7758  143.5139  150.9619 LP  0  0  0  0  0  0  0  0  0  0  0  0  # atno 17343 bound_to 10162
  156.3572  130.3841  149.7280 LP  0  0  0  0  0  0  0  0  0  0  0  0  # atno 17370 bound_to 10713
  156.4739  130.8009  151.3026 LP  0  0  0  0  0  0  0  0  0  0  0  0  # atno 17371 bound_to 10713
  140.1413  134.4968  155.8029 LP  0  0  0  0  0  0  0  0  0  0  0  0  # atno 17394 bound_to 11000
  141.2183  133.6826  156.7215 LP  0  0  0  0  0  0  0  0  0  0  0  0  # atno 17395 bound_to 11000

$$$$
