AV-unprocessed.smi:195|AV-procd|sdf|1527|dock3
  -GOLD-   2262019373D 1   1.00000     0.00000
 Structure written by MMmdl.
 45 48  0  0  0  0  0  0  0  0  1 V2000
  153.4734  139.3719  155.0558 N   0  0  0  0  0  0  0  0  0  0  0  0
  152.4300  138.9044  154.8781 C   0  0  0  0  0  0  0  0  0  0  0  0
  151.1027  138.3108  154.6517 C   0  0  0  0  0  0  0  0  0  0  0  0
  149.9543  139.3127  154.8019 C   0  0  0  0  0  0  0  0  0  0  0  0
  150.1230  140.2183  153.7315 O   0  0  0  0  0  0  0  0  0  0  0  0
  148.5400  138.7457  154.9558 C   0  0  0  0  0  0  0  0  0  0  0  0
  148.6446  139.0161  156.3872 N   0  0  0  0  0  0  0  0  0  0  0  0
  148.9159  137.8527  157.1740 C   0  0  0  0  0  0  0  0  0  0  0  0
  148.8468  137.8953  158.5323 N   0  0  0  0  0  0  0  0  0  0  0  0
  149.0894  136.8100  159.2732 C   0  0  0  0  0  0  0  0  0  0  0  0
  149.4057  135.5797  158.8693 N   0  0  0  0  0  0  0  0  0  0  0  0
  149.4598  135.5136  157.5096 C   0  0  0  0  0  0  0  0  0  0  0  0
  149.2292  136.5861  156.6015 C   0  0  0  0  0  0  0  0  0  0  0  0
  149.3656  136.1323  155.2944 N   0  0  0  0  0  0  0  0  0  0  0  0
  149.6631  134.8680  155.4225 C   0  0  0  0  0  0  0  0  0  0  0  0
  149.7393  134.4140  156.7192 N   0  0  0  0  0  0  0  0  0  0  0  0
  150.0448  133.0630  157.1538 C   0  0  0  0  0  0  0  0  0  0  0  0
  151.5582  132.7734  157.1447 C   0  0  1  0  0  0  0  0  0  0  0  0
  152.2016  133.4502  158.2078 O   0  0  0  0  0  0  0  0  0  0  0  0
  151.8772  131.2658  157.1915 C   0  0  1  0  0  0  0  0  0  0  0  0
  151.1899  130.3895  156.1410 C   0  0  0  0  0  0  0  0  0  0  0  0
  152.1189  129.1970  156.1014 C   0  0  0  0  0  0  0  0  0  0  0  0
  153.4857  129.8600  156.2551 C   0  0  0  0  0  0  0  0  0  0  0  0
  153.2745  131.0125  157.0665 O   0  0  0  0  0  0  0  0  0  0  0  0
  149.7391  139.9631  156.1725 C   0  0  0  0  0  0  0  0  0  0  0  0
  151.1016  137.8558  153.6606 H   0  0  0  0  0  0  0  0  0  0  0  0
  151.0001  137.4918  155.3634 H   0  0  0  0  0  0  0  0  0  0  0  0
  149.7179  139.8273  152.9725 H   0  0  0  0  0  0  0  0  0  0  0  0
  147.7714  139.3585  154.4829 H   0  0  0  0  0  0  0  0  0  0  0  0
  148.4497  137.6952  154.6771 H   0  0  0  0  0  0  0  0  0  0  0  0
  149.0176  136.9481  160.3421 H   0  0  0  0  0  0  0  0  0  0  0  0
  149.8312  134.2266  154.5695 H   0  0  0  0  0  0  0  0  0  0  0  0
  149.6306  132.9169  158.1521 H   0  0  0  0  0  0  0  0  0  0  0  0
  149.5234  132.3678  156.4948 H   0  0  0  0  0  0  0  0  0  0  0  0
  151.9810  133.1739  156.2226 H   0  0  0  0  0  0  0  0  0  0  0  0
  152.9337  133.9314  157.8536 H   0  0  0  0  0  0  0  0  0  0  0  0
  151.5933  130.8870  158.1748 H   0  0  0  0  0  0  0  0  0  0  0  0
  150.1665  130.1270  156.4104 H   0  0  0  0  0  0  0  0  0  0  0  0
  151.1721  130.8706  155.1626 H   0  0  0  0  0  0  0  0  0  0  0  0
  151.9217  128.5398  156.9494 H   0  0  0  0  0  0  0  0  0  0  0  0
  152.0288  128.6116  155.1861 H   0  0  0  0  0  0  0  0  0  0  0  0
  154.2257  129.1918  156.6956 H   0  0  0  0  0  0  0  0  0  0  0  0
  153.8600  130.1861  155.2840 H   0  0  0  0  0  0  0  0  0  0  0  0
  150.5909  139.9020  156.8494 H   0  0  0  0  0  0  0  0  0  0  0  0
  149.3678  140.9866  156.1038 H   0  0  0  0  0  0  0  0  0  0  0  0
  1  2  3  0  0  0  0
  2  3  1  0  0  0  0
  3  4  1  0  0  0  0
  3 26  1  0  0  0  0
  3 27  1  0  0  0  0
  4 25  1  0  0  0  0
  4  5  1  0  0  0  0
  4  6  1  0  0  0  0
  5 28  1  0  0  0  0
  6  7  1  0  0  0  0
  6 29  1  0  0  0  0
  6 30  1  0  0  0  0
  7  8  1  0  0  0  0
  7 25  1  0  0  0  0
  8 13  1  0  0  0  0
  8  9  2  0  0  0  0
  9 10  1  0  0  0  0
 10 11  2  0  0  0  0
 10 31  1  0  0  0  0
 11 12  1  0  0  0  0
 12 16  1  0  0  0  0
 12 13  2  0  0  0  0
 13 14  1  0  0  0  0
 14 15  2  0  0  0  0
 15 16  1  0  0  0  0
 15 32  1  0  0  0  0
 16 17  1  0  0  0  0
 17 18  1  0  0  0  0
 17 33  1  0  0  0  0
 17 34  1  0  0  0  0
 18 19  1  0  0  0  0
 18 20  1  0  0  0  0
 18 35  1  0  0  0  0
 19 36  1  0  0  0  0
 20 24  1  0  0  0  0
 20 21  1  0  0  0  0
 20 37  1  0  0  0  0
 21 22  1  0  0  0  0
 21 38  1  0  0  0  0
 21 39  1  0  0  0  0
 22 23  1  0  0  0  0
 22 40  1  0  0  0  0
 22 41  1  0  0  0  0
 23 24  1  0  0  0  0
 23 42  1  0  0  0  0
 23 43  1  0  0  0  0
 25 44  1  0  0  0  0
 25 45  1  0  0  0  0
M  END
> <s_m_source_file>
AV-unprocessed.smi

> <i_m_source_file_index>
195

> <i_lp_mmshare_version>
43012

> <i_f3d_flags>
0

> <s_epik_input>
TiNDW0NIMl1DMShbT0hdKVtDSDJdTihbQ0gyXTEpYyhuW2NIXW4yKWMoYzIzKW5bY0hdbjNbQ0gyXVtDQEhdKFtPSF0pW0NAQEhdNFtDSDJdW0NIMl1bQ0gyXU80

> <s_epik_cmdline>
J2VwaWtfcHl0aG9uJywgJy1waCcsICc3LjAnLCAnLXRuJywgJzgnLCAnLW1hJywgJzIwMCcsICctbWV0YWxfYmluZGluZycsICctaW1hZScsICc8aW5maWxlLm1hZT4nLCAnLW9tYWUnLCAnPG91dGZpbGUubWFlPic=

> <r_lp_tautomer_probability>
1

> <r_epik_Ionization_Penalty>
0.00307146

> <r_epik_Ionization_Penalty_Charging>
0

> <r_epik_Ionization_Penalty_Neutral>
0.00307146

> <r_epik_State_Penalty>
0.0020279

> <r_epik_Charging_Adjusted_Penalty>
0.0020279

> <i_epik_Tot_Q>
0

> <i_epik_Tot_abs_Q>
0

> <r_epik_Metal_State_Penalty>
-0

> <b_epik_Metal_Only>
0

> <s_lp_Force_Field>
OPLS_2005

> <r_lp_Energy>
44.2023

> <b_lp_Chiralities_Consistent>
1

> <s_lp_Variant>
AV-unprocessed.smi:195-4

> <Gold.Version>
5.8.1

> <Gold.Id.Protein>
6NUR|6NUR_protein|mol2

> <Gold.PLP.Fitness>
46.8759

> <Gold.PLP.PLP>
-34.9328

> <Gold.PLP.part.hbond>
-4.8054

> <Gold.PLP.part.metal>
0.0000

> <Gold.PLP.part.buried>
-5.8435

> <Gold.PLP.part.nonpolar>
-24.6332

> <Gold.PLP.part.repulsive>
0.8099

> <Gold.PLP.ligand.clash>
0.0000

> <Gold.PLP.ligand.torsion>
0.9078

> <Gold.PLP.Chemscore.Hbond>
4.4640

> <Gold.PLP.Chemscore.CHOScore>
0.0020

> <Gold.PLP.Chemscore.Metal>
0.0000

> <Gold.Chemscore.Hbonds>
donor molecule, donor type, donor heavy atom, donor atom, acceptor molecule, acceptor atom, score
      L1  H     5    28       P1  7957  0.82
      P1  H  6896  6907       L1    19  0.02
      P1  H  6896  6908       L1    11  1.00
      P1  H  7989  7998       L1     5  0.75
      P1  H  7997  8008       L1     1  0.99

> <Gold.PLP.Chemscore.Internal.Correction>
0.3608

> <Gold.Rescore>
     Score         DG    S(hbond)    S(metal)    S(lipo)     H(rot)  DE(clash)    DE(int)     intcor
     11.62     -15.30       3.83        0.00      55.92       3.72       0.05       3.64       ----

> <Gold.Chemscore.Fitness>
11.6209

> <Gold.Chemscore.DG>
-15.3035

> <Gold.Chemscore.ZeroCoef>
-5.4800

> <Gold.Chemscore.Hbond>
3.8342

> <Gold.Chemscore.Metal>
0.0000

> <Gold.Chemscore.Lipo>
55.9241

> <Gold.Chemscore.Internal_Hbond>
0.0000

> <Gold.Chemscore.DEClash>
0.0451

> <Gold.Chemscore.DEInternal>
3.6374

> <Gold.Chemscore.Rot>
3.7210

> <Gold.Chemscore.Internal.Correction>
   9.000000E+99

> <Gold.Chemscore.Hbonds>
donor molecule, donor type, donor heavy atom, donor atom, acceptor molecule, acceptor atom, score
      L1  H     5    28       P1  7957  0.81
      P1  H  6896  6907       L1    19  0.04
      P1  H  6896  6908       L1    11  0.65
      P1  H  7989  7998       L1     5  0.65
      P1  H  7997  8008       L1     1  0.92

> <Gold.Chemscore.Hbond.Weighted>
-12.8061

> <Gold.Chemscore.Metal.Weighted>
-0.0000

> <Gold.Chemscore.Lipo.Weighted>
-6.5431

> <Gold.Chemscore.Internal_Hbond.Weighted>
0.0000

> <Gold.Chemscore.DEClash.Weighted>
0.0451

> <Gold.Chemscore.DEInternal.Weighted>
3.6374

> <Gold.Chemscore.Rot.Weighted>
9.5256

> <Gold.Chemscore.Internal.Correction.Weighted>
   9.000000E+99

> <Gold.Protein.RotatedTorsions>
[ 6907 6896 6895 6894 ] final  165.34 input  -60.11 | X-H torsion
[ 7974 7965 7964 7962 ] final  -56.49 input  175.53 | X-H torsion
[ 8008 7997 7996 7995 ] final   -6.61 input   59.86 | X-H torsion
[ 10167 10162 10161 10158 ] final   35.24 input  -65.29 | X-H torsion
[ 10718 10713 10712 10709 ] final   47.82 input   66.30 | X-H torsion
[ 10763 10752 10751 10750 ] final   80.21 input  -60.55 | X-H torsion
[ 11005 11000 10999 10996 ] final  140.26 input  -57.11 | X-H torsion

> <Gold.Protein.ActiveResidues>
 VAL166  LYS551  ARG553  GLY616  TRP617  ASP618  TYR619  PRO620  LYS621  CYS622 
 ASP623  PHE694  ASN695  SER759  ASP760  ASP761  ALA762  ILE779  LEU786  VAL792 
 PHE793  MET794  SER795  GLU796  ALA797  LYS798  CYS799  TRP800  GLU811  SER814 

> <Gold.Protein.RotatedAtoms>
  151.8959  133.3527  159.3813 H   0  0  0  0  0  0  0  0  0  0  0  0  # atno 6907 bound_to 6896
  150.7092  134.4877  159.5510 H   0  0  0  0  0  0  0  0  0  0  0  0  # atno 6908 bound_to 6896
  152.2456  134.8185  160.0505 H   0  0  0  0  0  0  0  0  0  0  0  0  # atno 6909 bound_to 6896
  145.8621  140.8278  142.9932 H   0  0  0  0  0  0  0  0  0  0  0  0  # atno 7974 bound_to 7965
  154.5920  140.2428  155.7907 H   0  0  0  0  0  0  0  0  0  0  0  0  # atno 8008 bound_to 7997
  156.2254  140.2984  156.0007 H   0  0  0  0  0  0  0  0  0  0  0  0  # atno 8009 bound_to 7997
  155.2357  140.0405  157.2959 H   0  0  0  0  0  0  0  0  0  0  0  0  # atno 8010 bound_to 7997
  140.4240  144.1419  150.6151 H   0  0  0  0  0  0  0  0  0  0  0  0  # atno 10167 bound_to 10162
  157.4624  130.8204  149.7900 H   0  0  0  0  0  0  0  0  0  0  0  0  # atno 10718 bound_to 10713
  153.1015  135.4811  154.8875 H   0  0  0  0  0  0  0  0  0  0  0  0  # atno 10763 bound_to 10752
  154.7383  135.3076  154.8774 H   0  0  0  0  0  0  0  0  0  0  0  0  # atno 10764 bound_to 10752
  153.9390  135.6836  153.4798 H   0  0  0  0  0  0  0  0  0  0  0  0  # atno 10765 bound_to 10752
  140.0314  134.9350  157.0670 H   0  0  0  0  0  0  0  0  0  0  0  0  # atno 11005 bound_to 11000
  144.6726  140.1111  143.7455 LP  0  0  0  0  0  0  0  0  0  0  0  0  # atno 17320 bound_to 7965
  145.9236  139.2561  143.1367 LP  0  0  0  0  0  0  0  0  0  0  0  0  # atno 17321 bound_to 7965
  140.4501  143.2490  151.9358 LP  0  0  0  0  0  0  0  0  0  0  0  0  # atno 17342 bound_to 10162
  139.4783  144.5570  151.8298 LP  0  0  0  0  0  0  0  0  0  0  0  0  # atno 17343 bound_to 10162
  156.0035  130.3868  150.2518 LP  0  0  0  0  0  0  0  0  0  0  0  0  # atno 17370 bound_to 10713
  157.0696  131.0113  151.3194 LP  0  0  0  0  0  0  0  0  0  0  0  0  # atno 17371 bound_to 10713
  140.4219  134.1872  155.7165 LP  0  0  0  0  0  0  0  0  0  0  0  0  # atno 17394 bound_to 11000
  141.1833  133.8367  157.1179 LP  0  0  0  0  0  0  0  0  0  0  0  0  # atno 17395 bound_to 11000

$$$$
