AV-unprocessed.smi:1762|AV-procd|sdf|7124|dock6
  -GOLD-   22720 8363D 1   1.00000     0.00000
 Structure written by MMmdl.
 52 53  0  0  0  0  0  0  0  0  3 V2000
  147.3573  139.0672  152.9344 C   0  0  0  0  0  0  0  0  0  0  0  0
  147.6242  138.9649  154.4469 C   0  0  1  0  0  0  0  0  0  0  0  0
  147.3757  137.5543  155.0168 C   0  0  0  0  0  0  0  0  0  0  0  0
  148.4494  136.6036  154.6148 N   0  3  2  0  0  0  0  0  0  0  0  0
  148.2508  135.1870  155.0722 C   0  0  2  0  0  0  0  0  0  0  0  0
  147.9791  135.1361  156.5960 C   0  0  0  0  0  0  0  0  0  0  0  0
  148.9225  135.3238  157.3718 O   0  0  0  0  0  0  0  0  0  0  0  0
  146.6622  134.9115  156.8529 N   0  5  0  0  0  0  0  0  0  0  0  0
  146.1019  134.7359  158.1913 C   0  0  0  0  0  0  0  0  0  0  0  0
  146.2364  136.0438  159.0052 C   0  0  0  0  0  0  0  0  0  0  0  0
  146.6807  135.8695  160.4563 C   0  0  0  0  0  0  0  0  0  0  0  0
  146.9354  134.5810  160.9799 C   0  0  0  0  0  0  0  0  0  0  0  0
  147.3295  134.4644  162.3264 C   0  0  0  0  0  0  0  0  0  0  0  0
  147.4480  135.6332  163.1020 C   0  0  0  0  0  0  0  0  0  0  0  0
  147.1647  136.8720  162.4935 C   0  0  0  0  0  0  0  0  0  0  0  0
  146.7850  136.9959  161.2037 N   0  0  0  0  0  0  0  0  0  0  0  0
  149.4010  134.2016  154.6712 C   0  0  0  0  0  0  0  0  0  0  0  0
  148.9516  132.7271  154.6636 C   0  0  0  0  0  0  0  0  0  0  0  0
  150.6963  134.3570  155.4961 C   0  0  0  0  0  0  0  0  0  0  0  0
  149.7667  137.1710  155.0208 C   0  0  0  0  0  0  0  0  0  0  0  0
  149.9844  138.5600  154.3998 C   0  0  2  0  0  0  0  0  0  0  0  0
  151.3062  139.1890  154.8544 C   0  0  0  0  0  0  0  0  0  0  0  0
  148.9271  139.4246  154.7989 O   0  0  0  0  0  0  0  0  0  0  0  0
  146.3125  138.8493  152.7117 H   0  0  0  0  0  0  0  0  0  0  0  0
  147.9615  138.3667  152.3582 H   0  0  0  0  0  0  0  0  0  0  0  0
  147.5683  140.0722  152.5686 H   0  0  0  0  0  0  0  0  0  0  0  0
  146.9259  139.6458  154.9345 H   0  0  0  0  0  0  0  0  0  0  0  0
  147.3306  137.5974  156.1062 H   0  0  0  0  0  0  0  0  0  0  0  0
  146.3952  137.2314  154.6731 H   0  0  0  0  0  0  0  0  0  0  0  0
  147.3622  134.8383  154.5394 H   0  0  0  0  0  0  0  0  0  0  0  0
  145.0536  134.4391  158.1515 H   0  0  0  0  0  0  0  0  0  0  0  0
  146.6102  133.9434  158.7427 H   0  0  0  0  0  0  0  0  0  0  0  0
  146.9552  136.6958  158.5073 H   0  0  0  0  0  0  0  0  0  0  0  0
  145.2901  136.5864  158.9876 H   0  0  0  0  0  0  0  0  0  0  0  0
  146.8393  133.7028  160.3584 H   0  0  0  0  0  0  0  0  0  0  0  0
  147.5367  133.4955  162.7561 H   0  0  0  0  0  0  0  0  0  0  0  0
  147.7486  135.5813  164.1378 H   0  0  0  0  0  0  0  0  0  0  0  0
  147.2432  137.7884  163.0594 H   0  0  0  0  0  0  0  0  0  0  0  0
  149.6562  134.4025  153.6316 H   0  0  0  0  0  0  0  0  0  0  0  0
  148.7514  132.3549  155.6690 H   0  0  0  0  0  0  0  0  0  0  0  0
  149.7197  132.0872  154.2287 H   0  0  0  0  0  0  0  0  0  0  0  0
  148.0435  132.5960  154.0743 H   0  0  0  0  0  0  0  0  0  0  0  0
  150.5621  134.0281  156.5264 H   0  0  0  0  0  0  0  0  0  0  0  0
  151.0466  135.3882  155.5218 H   0  0  0  0  0  0  0  0  0  0  0  0
  151.4983  133.7536  155.0702 H   0  0  0  0  0  0  0  0  0  0  0  0
  149.8146  137.2306  156.1095 H   0  0  0  0  0  0  0  0  0  0  0  0
  150.5916  136.5320  154.7073 H   0  0  0  0  0  0  0  0  0  0  0  0
  150.0075  138.4764  153.3129 H   0  0  0  0  0  0  0  0  0  0  0  0
  152.1555  138.5692  154.5655 H   0  0  0  0  0  0  0  0  0  0  0  0
  151.3342  139.3103  155.9378 H   0  0  0  0  0  0  0  0  0  0  0  0
  151.4455  140.1724  154.4048 H   0  0  0  0  0  0  0  0  0  0  0  0
  148.4449  136.5690  153.6054 H   0  0  0  0  0  0  0  0  0  0  0  0
  1  2  1  0  0  0  0
  1 24  1  0  0  0  0
  1 25  1  0  0  0  0
  1 26  1  0  0  0  0
  2 23  1  0  0  0  0
  2  3  1  0  0  0  0
  2 27  1  0  0  0  0
  3  4  1  0  0  0  0
  3 28  1  0  0  0  0
  3 29  1  0  0  0  0
  4  5  1  0  0  0  0
  4 20  1  0  0  0  0
  4 52  1  0  0  0  0
  5  6  1  0  0  0  0
  5 17  1  0  0  0  0
  5 30  1  0  0  0  0
  6  7  2  0  0  0  0
  6  8  1  0  0  0  0
  8  9  1  0  0  0  0
  9 10  1  0  0  0  0
  9 31  1  0  0  0  0
  9 32  1  0  0  0  0
 10 11  1  0  0  0  0
 10 33  1  0  0  0  0
 10 34  1  0  0  0  0
 11 16  1  0  0  0  0
 11 12  2  0  0  0  0
 12 13  1  0  0  0  0
 12 35  1  0  0  0  0
 13 14  2  0  0  0  0
 13 36  1  0  0  0  0
 14 15  1  0  0  0  0
 14 37  1  0  0  0  0
 15 16  2  0  0  0  0
 15 38  1  0  0  0  0
 17 18  1  0  0  0  0
 17 19  1  0  0  0  0
 17 39  1  0  0  0  0
 18 40  1  0  0  0  0
 18 41  1  0  0  0  0
 18 42  1  0  0  0  0
 19 43  1  0  0  0  0
 19 44  1  0  0  0  0
 19 45  1  0  0  0  0
 20 21  1  0  0  0  0
 20 46  1  0  0  0  0
 20 47  1  0  0  0  0
 21 22  1  0  0  0  0
 21 23  1  0  0  0  0
 21 48  1  0  0  0  0
 22 49  1  0  0  0  0
 22 50  1  0  0  0  0
 22 51  1  0  0  0  0
M  CHG  1   4   1
M  CHG  1   8  -1
M  END
> <s_m_source_file>
AV-unprocessed.smi

> <i_m_source_file_index>
1762

> <i_lp_mmshare_version>
43012

> <i_f3d_flags>
0

> <s_epik_input>
W0NIM11bQ0BASF0xW0NIMl1OKFtDSDJdW0NASF0oTzEpW0NIM10pW0NAQEhdKFtDSF0oW0NIM10pW0NIM10pQyg9TylbTkhdW0NIMl1bQ0gyXWMyW2NIXVtjSF1bY0hdW2NIXW4y

> <s_epik_cmdline>
J2VwaWtfcHl0aG9uJywgJy1waCcsICc3LjAnLCAnLXRuJywgJzgnLCAnLW1hJywgJzIwMCcsICctbWV0YWxfYmluZGluZycsICctaW1hZScsICc8aW5maWxlLm1hZT4nLCAnLW9tYWUnLCAnPG91dGZpbGUubWFlPic=

> <r_epik_Ionization_Penalty>
7.82966

> <r_epik_Ionization_Penalty_Charging>
7.7461

> <r_epik_Ionization_Penalty_Neutral>
0.0835571

> <r_epik_State_Penalty>
8.52273

> <r_epik_Charging_Adjusted_Penalty>
16.2688

> <i_epik_Tot_Q>
0

> <i_epik_Tot_abs_Q>
2

> <r_epik_Metal_State_Penalty>
4.47451

> <b_epik_Metal_Only>
1

> <s_lp_Force_Field>
OPLS_2005

> <r_lp_Energy>
24.9826

> <b_lp_Chiralities_Consistent>
1

> <s_lp_Variant>
AV-unprocessed.smi:1762-26

> <Gold.Version>
5.8.1

> <Gold.Id.Protein>
6NUR|6NUR_protein|mol2

> <Gold.PLP.Fitness>
40.7303

> <Gold.PLP.PLP>
-33.1176

> <Gold.PLP.part.hbond>
-2.0000

> <Gold.PLP.part.metal>
0.0000

> <Gold.PLP.part.buried>
-1.5886

> <Gold.PLP.part.nonpolar>
-29.7064

> <Gold.PLP.part.repulsive>
0.1009

> <Gold.PLP.ligand.clash>
0.0000

> <Gold.PLP.ligand.torsion>
0.8697

> <Gold.PLP.Chemscore.Hbond>
3.0000

> <Gold.PLP.Chemscore.CHOScore>
0.0000

> <Gold.PLP.Chemscore.Metal>
0.0000

> <Gold.Chemscore.Hbonds>
donor molecule, donor type, donor heavy atom, donor atom, acceptor molecule, acceptor atom, score
      L1  H     4    52       P1  7948  2.00
      P1  H  6934  6947       L1    16  0.83

> <Gold.PLP.Chemscore.Internal.Correction>
0.3521

> <Gold.Rescore>
     Score         DG    S(hbond)    S(metal)    S(lipo)     H(rot)  DE(clash)    DE(int)     intcor
     14.31     -17.54       1.60        0.00      92.54       1.60       0.03       3.20       ----

> <Gold.Chemscore.Fitness>
14.3066

> <Gold.Chemscore.DG>
-17.5416

> <Gold.Chemscore.ZeroCoef>
-5.4800

> <Gold.Chemscore.Hbond>
1.5969

> <Gold.Chemscore.Metal>
0.0000

> <Gold.Chemscore.Lipo>
92.5382

> <Gold.Chemscore.Internal_Hbond>
0.0000

> <Gold.Chemscore.DEClash>
0.0350

> <Gold.Chemscore.DEInternal>
3.2000

> <Gold.Chemscore.Rot>
1.6012

> <Gold.Chemscore.Internal.Correction>
   9.000000E+99

> <Gold.Chemscore.Hbonds>
donor molecule, donor type, donor heavy atom, donor atom, acceptor molecule, acceptor atom, score
      L1  H     4    52       P1  7948  1.00
      P1  H  6934  6947       L1    16  0.18

> <Gold.Chemscore.Hbond.Weighted>
-5.3336

> <Gold.Chemscore.Metal.Weighted>
-0.0000

> <Gold.Chemscore.Lipo.Weighted>
-10.8270

> <Gold.Chemscore.Internal_Hbond.Weighted>
0.0000

> <Gold.Chemscore.DEClash.Weighted>
0.0350

> <Gold.Chemscore.DEInternal.Weighted>
3.2000

> <Gold.Chemscore.Rot.Weighted>
4.0990

> <Gold.Chemscore.Internal.Correction.Weighted>
   9.000000E+99

> <Gold.Protein.RotatedTorsions>
[ 6907 6896 6895 6894 ] final -124.49 input  -60.11 | X-H torsion
[ 7974 7965 7964 7962 ] final   60.66 input  175.53 | X-H torsion
[ 8008 7997 7996 7995 ] final  -48.58 input   59.86 | X-H torsion
[ 10167 10162 10161 10158 ] final  159.56 input  -65.29 | X-H torsion
[ 10718 10713 10712 10709 ] final  118.61 input   66.30 | X-H torsion
[ 10763 10752 10751 10750 ] final -130.21 input  -60.55 | X-H torsion
[ 11005 11000 10999 10996 ] final  -50.76 input  -57.11 | X-H torsion

> <Gold.Protein.ActiveResidues>
 VAL166  LYS551  ARG553  GLY616  TRP617  ASP618  TYR619  PRO620  LYS621  CYS622 
 ASP623  PHE694  ASN695  SER759  ASP760  ASP761  ALA762  ILE779  LEU786  VAL792 
 PHE793  MET794  SER795  GLU796  ALA797  LYS798  CYS799  TRP800  GLU811  SER814 

> <Gold.Protein.RotatedAtoms>
  150.8773  133.7421  159.2942 H   0  0  0  0  0  0  0  0  0  0  0  0  # atno 6907 bound_to 6896
  151.5013  135.1060  159.9839 H   0  0  0  0  0  0  0  0  0  0  0  0  # atno 6908 bound_to 6896
  152.4736  133.8041  159.7024 H   0  0  0  0  0  0  0  0  0  0  0  0  # atno 6909 bound_to 6896
  145.8935  139.3529  143.0635 H   0  0  0  0  0  0  0  0  0  0  0  0  # atno 7974 bound_to 7965
  154.4031  140.1318  156.4362 H   0  0  0  0  0  0  0  0  0  0  0  0  # atno 8008 bound_to 7997
  155.7503  140.3488  155.5127 H   0  0  0  0  0  0  0  0  0  0  0  0  # atno 8009 bound_to 7997
  155.8956  140.1010  157.1377 H   0  0  0  0  0  0  0  0  0  0  0  0  # atno 8010 bound_to 7997
  139.4833  144.4718  151.8566 H   0  0  0  0  0  0  0  0  0  0  0  0  # atno 10167 bound_to 10162
  157.6019  131.1049  150.7780 H   0  0  0  0  0  0  0  0  0  0  0  0  # atno 10718 bound_to 10713
  154.8756  135.3870  154.4046 H   0  0  0  0  0  0  0  0  0  0  0  0  # atno 10763 bound_to 10752
  153.4767  135.7030  153.5967 H   0  0  0  0  0  0  0  0  0  0  0  0  # atno 10764 bound_to 10752
  153.4400  135.3858  155.2190 H   0  0  0  0  0  0  0  0  0  0  0  0  # atno 10765 bound_to 10752
  141.0834  133.6648  156.3778 H   0  0  0  0  0  0  0  0  0  0  0  0  # atno 11005 bound_to 11000
  145.8879  140.9322  143.0567 LP  0  0  0  0  0  0  0  0  0  0  0  0  # atno 17320 bound_to 7965
  144.6731  140.0866  143.7467 LP  0  0  0  0  0  0  0  0  0  0  0  0  # atno 17321 bound_to 7965
  140.4187  144.2272  150.5887 LP  0  0  0  0  0  0  0  0  0  0  0  0  # atno 17342 bound_to 10162
  140.4895  143.2352  151.8839 LP  0  0  0  0  0  0  0  0  0  0  0  0  # atno 17343 bound_to 10162
  156.8177  130.4973  149.5347 LP  0  0  0  0  0  0  0  0  0  0  0  0  # atno 17370 bound_to 10713
  156.1094  130.6029  151.0023 LP  0  0  0  0  0  0  0  0  0  0  0  0  # atno 17371 bound_to 10713
  140.5418  134.6113  157.5382 LP  0  0  0  0  0  0  0  0  0  0  0  0  # atno 17394 bound_to 11000
  139.9650  134.7389  156.0158 LP  0  0  0  0  0  0  0  0  0  0  0  0  # atno 17395 bound_to 11000

$$$$
