#       Name:                AV-unprocessed.smi:2866
#       Creating user name   scv26
#       Creation time:       Fri Mar 27 15:48:06 2020


#       File generated by GOLD software.
#

@<TRIPOS>MOLECULE
AV-unprocessed.smi:2866
    45    47     1
SMALL
NO_CHARGES


@<TRIPOS>ATOM
      1 ****        -3.2671   4.5290   1.5805 C.3            1 S1                 0.0000
      2 ****        -2.6995   3.3934   0.7472 C.ar           1 S1                 0.0000
      3 ****        -2.3253   3.6446  -0.5922 C.ar           1 S1                 0.0000
      4 ****        -1.7934   2.6161  -1.4005 C.ar           1 S1                 0.0000
      5 ****        -1.3674   2.6367  -2.7177 N.2            1 S1                 0.0000
      6 ****        -0.9808   1.3764  -2.8943 C.2            1 S1                 0.0000
      7 ****        -1.1025   0.5417  -1.8440 N.pl3          1 S1                 0.0000
      8 ****        -0.7482  -0.8656  -1.7944 C.3            1 S1                 0.0000
      9 ****         0.5515  -1.1177  -1.0071 C.3            1 S1                 0.0000
     10 ****         1.6167  -0.4052  -1.6086 O.3            1 S1                 0.0000
     11 ****         0.8968  -2.6171  -0.9312 C.3            1 S1                 0.0000
     12 ****         2.0789  -2.8758  -0.1274 N.pl3          1 S1                 0.0000
     13 ****         2.1949  -2.8762   1.2456 C.2            1 S1                 0.0000
     14 ****         3.4952  -3.1676   1.5423 C.2            1 S1                 0.0000
     15 ****         4.1127  -3.3355   0.2686 C.2            1 S1                 0.0000
     16 ****         5.5494  -3.6692  -0.0366 C.3            1 S1                 0.0000
     17 ****         6.2475  -3.7817   1.0934 F              1 S1                 0.0000
     18 ****         5.6183  -4.8236  -0.6995 F              1 S1                 0.0000
     19 ****         6.0923  -2.7067  -0.7818 F              1 S1                 0.0000
     20 ****         3.2537  -3.1631  -0.7272 N.2            1 S1                 0.0000
     21 ****        -1.6442   1.3196  -0.8270 C.ar           1 S1                 0.0000
     22 ****        -2.0144   1.0567   0.5035 C.ar           1 S1                 0.0000
     23 ****        -2.5451   2.0953   1.2968 C.ar           1 S1                 0.0000
     24 ****        -2.9430   1.8013   2.7324 C.3            1 S1                 0.0000
     25 ****        -3.2906   5.4628   1.0180 H              1 S1                 0.0000
     26 ****        -2.6598   4.6915   2.4711 H              1 S1                 0.0000
     27 ****        -4.2864   4.3000   1.8923 H              1 S1                 0.0000
     28 ****        -2.4439   4.6329  -1.0115 H              1 S1                 0.0000
     29 ****        -0.5816   1.0411  -3.8405 H              1 S1                 0.0000
     30 ****        -1.5770  -1.4071  -1.3369 H              1 S1                 0.0000
     31 ****        -0.6548  -1.2403  -2.8149 H              1 S1                 0.0000
     32 ****         0.4312  -0.7338   0.0067 H              1 S1                 0.0000
     33 ****         1.4040   0.5156  -1.5996 H              1 S1                 0.0000
     34 ****         0.0660  -3.1697  -0.4910 H              1 S1                 0.0000
     35 ****         1.0471  -3.0264  -1.9317 H              1 S1                 0.0000
     36 ****         1.3530  -2.6682   1.8894 H              1 S1                 0.0000
     37 ****         3.9405  -3.2478   2.5229 H              1 S1                 0.0000
     38 ****        -1.8902   0.0637   0.9093 H              1 S1                 0.0000
     39 ****        -2.7674   0.7559   2.9878 H              1 S1                 0.0000
     40 ****        -4.0020   2.0095   2.8857 H              1 S1                 0.0000
     41 ****        -2.3648   2.4159   3.4227 H              1 S1                 0.0000
     42 ****        -1.3539   3.3983  -3.3655 LP             1 S1                 0.0000
     43 ****         1.7391  -0.7141  -2.5518 LP             1 S1                 0.0000
     44 ****         2.4601  -0.5617  -1.0946 LP             1 S1                 0.0000
     45 ****         3.4364  -3.2311  -1.7080 LP             1 S1                 0.0000
@<TRIPOS>BOND
    1    1    2 1     
    2    1   25 1     
    3    1   26 1     
    4    1   27 1     
    5    2   23 ar    
    6    2    3 ar    
    7    3    4 ar    
    8    3   28 1     
    9    4   21 ar    
   10    4    5 1     
   11    5    6 2     
   12    6    7 1     
   13    6   29 1     
   14    7    8 1     
   15    7   21 1     
   16    8    9 1     
   17    8   30 1     
   18    8   31 1     
   19    9   10 1     
   20    9   11 1     
   21    9   32 1     
   22   10   33 1     
   23   11   12 1     
   24   11   34 1     
   25   11   35 1     
   26   12   20 1     
   27   12   13 1     
   28   13   14 2     
   29   13   36 1     
   30   14   15 1     
   31   14   37 1     
   32   15   16 1     
   33   15   20 2     
   34   16   17 1     
   35   16   18 1     
   36   16   19 1     
   37   21   22 ar    
   38   22   23 ar    
   39   22   38 1     
   40   23   24 1     
   41   24   39 1     
   42   24   40 1     
   43   24   41 1     
   44    5   42 1     
   45   10   43 1     
   46   10   44 1     
   47   20   45 1     
@<TRIPOS>SUBSTRUCTURE
      1 S1             1
@<TRIPOS>SET
LONE_PAIRS      STATIC     ATOMS    <user>   **** ""
4 42 43 44 45
DONOR_HYDROGENS      STATIC     ATOMS    <user>   **** ""
1 33
ATOM$BLUE        STATIC     ATOMS    COLORGROUP SYSTEM
4 42 43 44 45
ATOM$RED        STATIC     ATOMS    COLORGROUP SYSTEM
1 33
