#       Name:                AV-unprocessed.smi:2151
#       Creating user name   scv26
#       Creation time:       Fri Mar 27 11:53:52 2020


#       File generated by GOLD software.
#

@<TRIPOS>MOLECULE
AV-unprocessed.smi:2151
    45    46     1
SMALL
NO_CHARGES


@<TRIPOS>ATOM
      1 ****        -2.6264  -1.9681  -2.3451 C.3            1 S1                 0.0000
      2 ****        -2.1106  -1.2010  -1.1187 C.3            1 S1                 0.0000
      3 ****        -0.6498  -1.1671  -1.1623 N.am           1 S1                 0.0000
      4 ****         0.1204  -0.0872  -0.9573 C.2            1 S1                 0.0000
      5 ****        -0.3315   1.0370  -0.7361 O.2            1 S1                 0.0000
      6 ****         1.6359  -0.3234  -1.0219 C.3            1 S1                 0.0000
      7 ****         2.4079   0.6585  -0.2420 N.am           1 S1                 0.0000
      8 ****         2.9775   1.7355  -0.9490 C.2            1 S1                 0.0000
      9 ****         3.7118   2.6959  -0.3552 C.2            1 S1                 0.0000
     10 ****         4.2574   3.8827  -1.1343 C.3            1 S1                 0.0000
     11 ****         4.3584   4.9613  -0.3572 F              1 S1                 0.0000
     12 ****         5.4700   3.5961  -1.6057 F              1 S1                 0.0000
     13 ****         3.4707   4.1836  -2.1684 F              1 S1                 0.0000
     14 ****         3.8721   2.5893   1.0817 C.2            1 S1                 0.0000
     15 ****         3.3219   1.5733   1.7752 C.2            1 S1                 0.0000
     16 ****         2.5374   0.5290   1.1127 C.2            1 S1                 0.0000
     17 ****         2.0270  -0.4025   1.7360 O.2            1 S1                 0.0000
     18 ****        -2.5928  -1.8387   0.2010 C.3            1 S1                 0.0000
     19 ****        -2.0988  -1.1486   1.4752 C.3            1 S1                 0.0000
     20 ****        -3.1478  -1.5720   2.4769 C.3            1 S1                 0.0000
     21 ****        -4.4188  -1.5164   1.6353 C.3            1 S1                 0.0000
     22 ****        -4.0151  -1.7844   0.2945 O.3            1 S1                 0.0000
     23 ****        -3.7162  -1.9886  -2.3668 H              1 S1                 0.0000
     24 ****        -2.2750  -3.0006  -2.3458 H              1 S1                 0.0000
     25 ****        -2.2903  -1.5000  -3.2708 H              1 S1                 0.0000
     26 ****        -2.5079  -0.1860  -1.1753 H              1 S1                 0.0000
     27 ****        -0.1856  -2.0458  -1.3411 H              1 S1                 0.0000
     28 ****         1.8629  -1.3337  -0.6757 H              1 S1                 0.0000
     29 ****         1.9373  -0.3065  -2.0701 H              1 S1                 0.0000
     30 ****         2.7670   1.7387  -2.0087 H              1 S1                 0.0000
     31 ****         4.4457   3.3353   1.6116 H              1 S1                 0.0000
     32 ****         3.4628   1.5254   2.8453 H              1 S1                 0.0000
     33 ****        -2.3002  -2.8896   0.2365 H              1 S1                 0.0000
     34 ****        -1.0899  -1.4484   1.7605 H              1 S1                 0.0000
     35 ****        -2.1136  -0.0641   1.3573 H              1 S1                 0.0000
     36 ****        -2.9586  -2.5945   2.8067 H              1 S1                 0.0000
     37 ****        -3.1888  -0.9293   3.3567 H              1 S1                 0.0000
     38 ****        -5.1719  -2.2280   1.9746 H              1 S1                 0.0000
     39 ****        -4.8561  -0.5179   1.6705 H              1 S1                 0.0000
     40 ****        -1.3205   1.1805  -0.7021 LP             1 S1                 0.0000
     41 ****         0.2907   1.8063  -0.5905 LP             1 S1                 0.0000
     42 ****         1.4961  -1.0973   1.2508 LP             1 S1                 0.0000
     43 ****         2.1435  -0.4640   2.7273 LP             1 S1                 0.0000
     44 ****        -4.3974  -2.6619   0.0051 LP             1 S1                 0.0000
     45 ****        -4.3564  -1.0588  -0.3030 LP             1 S1                 0.0000
@<TRIPOS>BOND
    1    1    2 1     
    2    1   23 1     
    3    1   24 1     
    4    1   25 1     
    5    2    3 1     
    6    2   18 1     
    7    2   26 1     
    8    3    4 am    
    9    3   27 1     
   10    4    5 2     
   11    4    6 1     
   12    6    7 1     
   13    6   28 1     
   14    6   29 1     
   15    7   16 am    
   16    7    8 1     
   17    8    9 2     
   18    8   30 1     
   19    9   10 1     
   20    9   14 1     
   21   10   11 1     
   22   10   12 1     
   23   10   13 1     
   24   14   15 2     
   25   14   31 1     
   26   15   16 1     
   27   15   32 1     
   28   16   17 2     
   29   18   22 1     
   30   18   19 1     
   31   18   33 1     
   32   19   20 1     
   33   19   34 1     
   34   19   35 1     
   35   20   21 1     
   36   20   36 1     
   37   20   37 1     
   38   21   22 1     
   39   21   38 1     
   40   21   39 1     
   41    5   40 1     
   42    5   41 1     
   43   17   42 1     
   44   17   43 1     
   45   22   44 1     
   46   22   45 1     
@<TRIPOS>SUBSTRUCTURE
      1 S1             1
@<TRIPOS>SET
LONE_PAIRS      STATIC     ATOMS    <user>   **** ""
6 40 41 42 43 44 45
DONOR_HYDROGENS      STATIC     ATOMS    <user>   **** ""
1 27
ATOM$BLUE        STATIC     ATOMS    COLORGROUP SYSTEM
6 40 41 42 43 44 45
ATOM$RED        STATIC     ATOMS    COLORGROUP SYSTEM
1 27
