AV-unprocessed.smi:1395|AV-procd|sdf|5672|dock2
  -GOLD-   22720 5293D 1   1.00000     0.00000
 Structure written by MMmdl.
 42 43  0  0  0  0  0  0  0  0  3 V2000
  150.7022  145.1755  158.6479 C   0  0  0  0  0  0  0  0  0  0  0  0
  151.4992  143.9523  159.0715 C   0  0  0  0  0  0  0  0  0  0  0  0
  152.3653  144.0432  160.1819 C   0  0  0  0  0  0  0  0  0  0  0  0
  153.0998  142.9109  160.5736 C   0  0  0  0  0  0  0  0  0  0  0  0
  152.9359  141.7276  159.8335 C   0  0  0  0  0  0  0  0  0  0  0  0
  152.1109  141.6319  158.7709 N   0  0  0  0  0  0  0  0  0  0  0  0
  151.3950  142.7159  158.3794 C   0  0  0  0  0  0  0  0  0  0  0  0
  150.5014  142.6856  157.2715 N   0  0  0  0  0  0  0  0  0  0  0  0
  149.8029  141.6424  156.7893 C   0  0  0  0  0  0  0  0  0  0  0  0
  149.8469  140.4909  157.2235 O   0  0  0  0  0  0  0  0  0  0  0  0
  149.0323  142.0109  155.7552 N   0  0  0  0  0  0  0  0  0  0  0  0
  148.1379  141.1236  155.0175 C   0  0  2  0  0  0  0  0  0  0  0  0
  148.8742  139.8232  154.6564 C   0  0  0  0  0  0  0  0  0  0  0  0
  147.9932  138.9034  153.7944 C   0  0  0  0  0  0  0  0  0  0  0  0
  147.5339  139.6012  152.5674 N   0  3  1  0  0  0  0  0  0  0  0  0
  146.8140  138.6973  151.6341 C   0  0  0  0  0  0  0  0  0  0  0  0
  145.8445  137.7851  152.3946 C   0  0  0  0  0  0  0  0  0  0  0  0
  144.5550  138.1289  152.2007 N   0  5  0  0  0  0  0  0  0  0  0  0
  146.2859  136.8665  153.0809 O   0  0  0  0  0  0  0  0  0  0  0  0
  146.7766  140.8391  152.8922 C   0  0  0  0  0  0  0  0  0  0  0  0
  147.6300  141.8028  153.7319 C   0  0  0  0  0  0  0  0  0  0  0  0
  150.9320  146.0366  159.2764 H   0  0  0  0  0  0  0  0  0  0  0  0
  149.6324  144.9786  158.7269 H   0  0  0  0  0  0  0  0  0  0  0  0
  150.9310  145.4438  157.6160 H   0  0  0  0  0  0  0  0  0  0  0  0
  152.4674  144.9681  160.7302 H   0  0  0  0  0  0  0  0  0  0  0  0
  153.7707  142.9482  161.4192 H   0  0  0  0  0  0  0  0  0  0  0  0
  153.4807  140.8342  160.1001 H   0  0  0  0  0  0  0  0  0  0  0  0
  150.3716  143.5676  156.7991 H   0  0  0  0  0  0  0  0  0  0  0  0
  149.0587  142.9769  155.4626 H   0  0  0  0  0  0  0  0  0  0  0  0
  147.2846  140.8707  155.6501 H   0  0  0  0  0  0  0  0  0  0  0  0
  149.7917  140.0545  154.1127 H   0  0  0  0  0  0  0  0  0  0  0  0
  149.1767  139.2984  155.5635 H   0  0  0  0  0  0  0  0  0  0  0  0
  148.5649  138.0159  153.5208 H   0  0  0  0  0  0  0  0  0  0  0  0
  147.1282  138.5624  154.3655 H   0  0  0  0  0  0  0  0  0  0  0  0
  146.2306  139.2775  150.9172 H   0  0  0  0  0  0  0  0  0  0  0  0
  147.5244  138.1070  151.0527 H   0  0  0  0  0  0  0  0  0  0  0  0
  144.2493  138.3769  151.2518 H   0  0  0  0  0  0  0  0  0  0  0  0
  146.4679  141.3450  151.9770 H   0  0  0  0  0  0  0  0  0  0  0  0
  145.8642  140.5784  153.4308 H   0  0  0  0  0  0  0  0  0  0  0  0
  147.0424  142.6882  153.9773 H   0  0  0  0  0  0  0  0  0  0  0  0
  148.4757  142.1492  153.1356 H   0  0  0  0  0  0  0  0  0  0  0  0
  148.3663  139.8860  152.0695 H   0  0  0  0  0  0  0  0  0  0  0  0
  1  2  1  0  0  0  0
  1 22  1  0  0  0  0
  1 23  1  0  0  0  0
  1 24  1  0  0  0  0
  2  7  1  0  0  0  0
  2  3  2  0  0  0  0
  3  4  1  0  0  0  0
  3 25  1  0  0  0  0
  4  5  2  0  0  0  0
  4 26  1  0  0  0  0
  5  6  1  0  0  0  0
  5 27  1  0  0  0  0
  6  7  2  0  0  0  0
  7  8  1  0  0  0  0
  8  9  1  0  0  0  0
  8 28  1  0  0  0  0
  9 10  2  0  0  0  0
  9 11  1  0  0  0  0
 11 12  1  0  0  0  0
 11 29  1  0  0  0  0
 12 21  1  0  0  0  0
 12 13  1  0  0  0  0
 12 30  1  0  0  0  0
 13 14  1  0  0  0  0
 13 31  1  0  0  0  0
 13 32  1  0  0  0  0
 14 15  1  0  0  0  0
 14 33  1  0  0  0  0
 14 34  1  0  0  0  0
 15 16  1  0  0  0  0
 15 20  1  0  0  0  0
 15 42  1  0  0  0  0
 16 17  1  0  0  0  0
 16 35  1  0  0  0  0
 16 36  1  0  0  0  0
 17 18  1  0  0  0  0
 17 19  2  0  0  0  0
 18 37  1  0  0  0  0
 20 21  1  0  0  0  0
 20 38  1  0  0  0  0
 20 39  1  0  0  0  0
 21 40  1  0  0  0  0
 21 41  1  0  0  0  0
M  CHG  1  15   1
M  CHG  1  18  -1
M  END
> <s_m_source_file>
AV-unprocessed.smi

> <i_m_source_file_index>
1395

> <i_lp_mmshare_version>
43012

> <i_f3d_flags>
0

> <s_epik_input>
W0NIM11jMVtjSF1bY0hdW2NIXW5jMVtOSF1DKD1PKVtOSF1bQ0hdMltDSDJdW0NIMl1OKFtDSDJdW0NIMl0yKVtDSDJdQyg9TylbTkgyXQ==

> <s_epik_cmdline>
J2VwaWtfcHl0aG9uJywgJy1waCcsICc3LjAnLCAnLXRuJywgJzgnLCAnLW1hJywgJzIwMCcsICctbWV0YWxfYmluZGluZycsICctaW1hZScsICc8aW5maWxlLm1hZT4nLCAnLW9tYWUnLCAnPG91dGZpbGUubWFlPic=

> <r_epik_Ionization_Penalty>
5.72885

> <r_epik_Ionization_Penalty_Charging>
5.7288

> <r_epik_Ionization_Penalty_Neutral>
4.54304e-05

> <r_epik_State_Penalty>
6.54882

> <r_epik_Charging_Adjusted_Penalty>
12.2776

> <i_epik_Tot_Q>
0

> <i_epik_Tot_abs_Q>
2

> <r_epik_Metal_State_Penalty>
2.51297

> <b_epik_Metal_Only>
1

> <s_lp_Force_Field>
OPLS_2005

> <r_lp_Energy>
9.01588

> <b_lp_Chiralities_Consistent>
1

> <s_lp_Variant>
AV-unprocessed.smi:1395-4

> <Gold.Version>
5.8.1

> <Gold.Id.Protein>
6NUR|6NUR_protein|mol2

> <Gold.PLP.Fitness>
50.8758

> <Gold.PLP.PLP>
-41.7403

> <Gold.PLP.part.hbond>
-4.7358

> <Gold.PLP.part.metal>
0.0000

> <Gold.PLP.part.buried>
-4.7675

> <Gold.PLP.part.nonpolar>
-33.6391

> <Gold.PLP.part.repulsive>
1.0433

> <Gold.PLP.ligand.clash>
0.0000

> <Gold.PLP.ligand.torsion>
0.6541

> <Gold.PLP.Chemscore.Hbond>
3.4732

> <Gold.PLP.Chemscore.CHOScore>
0.0000

> <Gold.PLP.Chemscore.Metal>
0.0000

> <Gold.Chemscore.Hbonds>
donor molecule, donor type, donor heavy atom, donor atom, acceptor molecule, acceptor atom, score
      L1  H     8    28       P1  8028  0.52
      L1  H    11    29       P1  8028  1.00
      L1  H    15    42       P1  7957  0.99
      L1  H    18    37       P1 10171  0.91

> <Gold.PLP.Chemscore.Internal.Correction>
0.0242

> <Gold.Rescore>
     Score         DG    S(hbond)    S(metal)    S(lipo)     H(rot)  DE(clash)    DE(int)     intcor
     19.60     -24.19       3.60        0.00      99.51       1.93       0.14       4.45       ----

> <Gold.Chemscore.Fitness>
19.6039

> <Gold.Chemscore.DG>
-24.1897

> <Gold.Chemscore.ZeroCoef>
-5.4800

> <Gold.Chemscore.Hbond>
3.5982

> <Gold.Chemscore.Metal>
0.0000

> <Gold.Chemscore.Lipo>
99.5120

> <Gold.Chemscore.Internal_Hbond>
0.0000

> <Gold.Chemscore.DEClash>
0.1400

> <Gold.Chemscore.DEInternal>
4.4458

> <Gold.Chemscore.Rot>
1.9341

> <Gold.Chemscore.Internal.Correction>
   9.000000E+99

> <Gold.Chemscore.Hbonds>
donor molecule, donor type, donor heavy atom, donor atom, acceptor molecule, acceptor atom, score
      L1  H     8    28       P1  8028  0.51
      L1  H    11    29       P1  8028  0.99
      L1  H    15    42       P1  7957  0.93
      L1  H    18    37       P1 10171  0.89

> <Gold.Chemscore.Hbond.Weighted>
-12.0180

> <Gold.Chemscore.Metal.Weighted>
-0.0000

> <Gold.Chemscore.Lipo.Weighted>
-11.6429

> <Gold.Chemscore.Internal_Hbond.Weighted>
0.0000

> <Gold.Chemscore.DEClash.Weighted>
0.1400

> <Gold.Chemscore.DEInternal.Weighted>
4.4458

> <Gold.Chemscore.Rot.Weighted>
4.9512

> <Gold.Chemscore.Internal.Correction.Weighted>
   9.000000E+99

> <Gold.Protein.RotatedTorsions>
[ 6907 6896 6895 6894 ] final  -47.08 input  -60.11 | X-H torsion
[ 7974 7965 7964 7962 ] final -149.62 input  175.53 | X-H torsion
[ 8008 7997 7996 7995 ] final -177.18 input   59.86 | X-H torsion
[ 10167 10162 10161 10158 ] final  -29.88 input  -65.29 | X-H torsion
[ 10718 10713 10712 10709 ] final -106.60 input   66.30 | X-H torsion
[ 10763 10752 10751 10750 ] final  -38.80 input  -60.55 | X-H torsion
[ 11005 11000 10999 10996 ] final  -60.60 input  -57.11 | X-H torsion

> <Gold.Protein.ActiveResidues>
 VAL166  LYS551  ARG553  GLY616  TRP617  ASP618  TYR619  PRO620  LYS621  CYS622 
 ASP623  PHE694  ASN695  SER759  ASP760  ASP761  ALA762  ILE779  LEU786  VAL792 
 PHE793  MET794  SER795  GLU796  ALA797  LYS798  CYS799  TRP800  GLU811  SER814 

> <Gold.Protein.RotatedAtoms>
  150.9045  134.8459  159.7382 H   0  0  0  0  0  0  0  0  0  0  0  0  # atno 6907 bound_to 6896
  152.4911  134.4453  159.9566 H   0  0  0  0  0  0  0  0  0  0  0  0  # atno 6908 bound_to 6896
  151.4501  133.3580  159.2829 H   0  0  0  0  0  0  0  0  0  0  0  0  # atno 6909 bound_to 6896
  144.7956  140.5040  143.5742 H   0  0  0  0  0  0  0  0  0  0  0  0  # atno 7974 bound_to 7965
  156.0038  140.1226  157.0521 H   0  0  0  0  0  0  0  0  0  0  0  0  # atno 8008 bound_to 7997
  154.4251  140.1101  156.5803 H   0  0  0  0  0  0  0  0  0  0  0  0  # atno 8009 bound_to 7997
  155.6175  140.3472  155.4644 H   0  0  0  0  0  0  0  0  0  0  0  0  # atno 8010 bound_to 7997
  140.7256  143.3893  151.1459 H   0  0  0  0  0  0  0  0  0  0  0  0  # atno 10167 bound_to 10162
  156.0397  130.5621  150.7704 H   0  0  0  0  0  0  0  0  0  0  0  0  # atno 10718 bound_to 10713
  153.9189  135.6784  153.4748 H   0  0  0  0  0  0  0  0  0  0  0  0  # atno 10763 bound_to 10752
  153.1039  135.4815  154.8914 H   0  0  0  0  0  0  0  0  0  0  0  0  # atno 10764 bound_to 10752
  154.7488  135.3179  154.8551 H   0  0  0  0  0  0  0  0  0  0  0  0  # atno 10765 bound_to 10752
  141.1293  133.6623  156.5248 H   0  0  0  0  0  0  0  0  0  0  0  0  # atno 11005 bound_to 11000
  145.5682  139.1482  143.3303 LP  0  0  0  0  0  0  0  0  0  0  0  0  # atno 17320 bound_to 7965
  146.2223  140.5816  142.9012 LP  0  0  0  0  0  0  0  0  0  0  0  0  # atno 17321 bound_to 7965
  139.7495  143.8800  152.3073 LP  0  0  0  0  0  0  0  0  0  0  0  0  # atno 17342 bound_to 10162
  139.8649  144.7098  150.9056 LP  0  0  0  0  0  0  0  0  0  0  0  0  # atno 17343 bound_to 10162
  157.5199  131.0931  151.0092 LP  0  0  0  0  0  0  0  0  0  0  0  0  # atno 17370 bound_to 10713
  157.0425  130.5755  149.5358 LP  0  0  0  0  0  0  0  0  0  0  0  0  # atno 17371 bound_to 10713
  140.4263  134.7142  157.4918 LP  0  0  0  0  0  0  0  0  0  0  0  0  # atno 17394 bound_to 11000
  140.0324  134.6386  155.9088 LP  0  0  0  0  0  0  0  0  0  0  0  0  # atno 17395 bound_to 11000

$$$$
