AV-unprocessed.smi:994|AV-procd|sdf|4341|dock7
  -GOLD-   22720 2243D 1   1.00000     0.00000
 Structure written by MMmdl.
 37 38  0  0  0  0  0  0  0  0  2 V2000
  151.2165  139.4252  157.5773 O   0  0  0  0  0  0  0  0  0  0  0  0
  151.3511  140.5167  157.0228 C   0  0  0  0  0  0  0  0  0  0  0  0
  151.1173  140.7179  155.7171 N   0  0  0  0  0  0  0  0  0  0  0  0
  150.6510  139.7108  154.7649 C   0  0  2  0  0  0  0  0  0  0  0  0
  149.3005  139.1479  155.2581 C   0  0  0  0  0  0  0  0  0  0  0  0
  148.1097  140.0159  154.9282 C   0  0  0  0  0  0  0  0  0  0  0  0
  147.8575  141.3508  155.1586 C   0  0  0  0  0  0  0  0  0  0  0  0
  146.6061  141.6940  154.6405 N   0  0  0  0  0  0  0  0  0  0  0  0
  146.1508  140.5609  154.1183 C   0  0  0  0  0  0  0  0  0  0  0  0
  146.9953  139.5361  154.2616 N   0  0  0  0  0  0  0  0  0  0  0  0
  151.6760  138.5695  154.6847 C   0  0  0  0  0  0  0  0  0  0  0  0
  151.2320  137.4028  154.7581 O   0  0  0  0  0  0  0  0  0  0  0  0
  152.8830  138.8767  154.5558 O   0  5  0  0  0  0  0  0  0  0  0  0
  151.8206  141.7383  157.8233 C   0  0  0  0  0  0  0  0  0  0  0  0
  152.0211  141.3762  159.3104 C   0  0  0  0  0  0  0  0  0  0  0  0
  152.4812  142.5960  160.1257 C   0  0  0  0  0  0  0  0  0  0  0  0
  151.4981  143.7682  159.9774 C   0  0  0  0  0  0  0  0  0  0  0  0
  151.2850  144.1316  158.4994 C   0  0  0  0  0  0  0  0  0  0  0  0
  150.8256  142.9104  157.6861 C   0  0  0  0  0  0  0  0  0  0  0  0
  146.8553  138.5910  153.9335 H   0  0  0  0  0  0  0  0  0  0  0  0
  151.2381  141.6518  155.3540 H   0  0  0  0  0  0  0  0  0  0  0  0
  150.5180  140.1458  153.7723 H   0  0  0  0  0  0  0  0  0  0  0  0
  149.1285  138.1640  154.8193 H   0  0  0  0  0  0  0  0  0  0  0  0
  149.3183  139.0024  156.3396 H   0  0  0  0  0  0  0  0  0  0  0  0
  148.4786  142.0865  155.6481 H   0  0  0  0  0  0  0  0  0  0  0  0
  145.1936  140.4765  153.6252 H   0  0  0  0  0  0  0  0  0  0  0  0
  152.7819  142.0626  157.4202 H   0  0  0  0  0  0  0  0  0  0  0  0
  151.0912  140.9923  159.7331 H   0  0  0  0  0  0  0  0  0  0  0  0
  152.7564  140.5757  159.4058 H   0  0  0  0  0  0  0  0  0  0  0  0
  152.5798  142.3246  161.1773 H   0  0  0  0  0  0  0  0  0  0  0  0
  153.4724  142.9051  159.7919 H   0  0  0  0  0  0  0  0  0  0  0  0
  150.5415  143.5019  160.4291 H   0  0  0  0  0  0  0  0  0  0  0  0
  151.8678  144.6359  160.5241 H   0  0  0  0  0  0  0  0  0  0  0  0
  150.5490  144.9316  158.4157 H   0  0  0  0  0  0  0  0  0  0  0  0
  152.2138  144.5207  158.0806 H   0  0  0  0  0  0  0  0  0  0  0  0
  150.7179  143.1905  156.6371 H   0  0  0  0  0  0  0  0  0  0  0  0
  149.8346  142.6061  158.0268 H   0  0  0  0  0  0  0  0  0  0  0  0
  1  2  2  0  0  0  0
  2  3  1  0  0  0  0
  2 14  1  0  0  0  0
  3  4  1  0  0  0  0
  3 21  1  0  0  0  0
  4  5  1  0  0  0  0
  4 11  1  0  0  0  0
  4 22  1  0  0  0  0
  5 23  1  0  0  0  0
  5 24  1  0  0  0  0
  5  6  1  0  0  0  0
  6  7  2  0  0  0  0
  6 10  1  0  0  0  0
  7 25  1  0  0  0  0
  7  8  1  0  0  0  0
  8  9  2  0  0  0  0
  9 10  1  0  0  0  0
  9 26  1  0  0  0  0
 10 20  1  0  0  0  0
 11 12  2  0  0  0  0
 11 13  1  0  0  0  0
 14 19  1  0  0  0  0
 14 15  1  0  0  0  0
 14 27  1  0  0  0  0
 15 16  1  0  0  0  0
 15 28  1  0  0  0  0
 15 29  1  0  0  0  0
 16 17  1  0  0  0  0
 16 30  1  0  0  0  0
 16 31  1  0  0  0  0
 17 18  1  0  0  0  0
 17 32  1  0  0  0  0
 17 33  1  0  0  0  0
 18 19  1  0  0  0  0
 18 34  1  0  0  0  0
 18 35  1  0  0  0  0
 19 36  1  0  0  0  0
 19 37  1  0  0  0  0
M  CHG  1  13  -1
M  END
> <s_m_source_file>
AV-unprocessed.smi

> <i_m_source_file_index>
994

> <i_lp_mmshare_version>
43012

> <i_f3d_flags>
0

> <s_epik_input>
W0NIMl0xW0NIMl1bQ0gyXVtDSDJdW0NIMl1bQ0hdMUMoPU8pW05IXVtDQEBIXShDKD1PKVtPSF0pW0NIMl1jMltjSF1bbkhdW2NIXW4y

> <s_epik_cmdline>
J2VwaWtfcHl0aG9uJywgJy1waCcsICc3LjAnLCAnLXRuJywgJzgnLCAnLW1hJywgJzIwMCcsICctbWV0YWxfYmluZGluZycsICctaW1hZScsICc8aW5maWxlLm1hZT4nLCAnLW9tYWUnLCAnPG91dGZpbGUubWFlPic=

> <r_lp_tautomer_probability>
0.5

> <r_epik_Ionization_Penalty>
0.540742

> <r_epik_Ionization_Penalty_Charging>
0.540742

> <r_epik_Ionization_Penalty_Neutral>
4.77468e-08

> <r_epik_State_Penalty>
0.78427

> <r_epik_Charging_Adjusted_Penalty>
1.32501

> <i_epik_Tot_Q>
-1

> <i_epik_Tot_abs_Q>
1

> <r_epik_Metal_State_Penalty>
0.663709

> <b_epik_Metal_Only>
0

> <s_lp_Force_Field>
OPLS_2005

> <r_lp_Energy>
10.7007

> <b_lp_Chiralities_Consistent>
1

> <s_lp_Variant>
AV-unprocessed.smi:994-3

> <Gold.Version>
5.8.1

> <Gold.Id.Protein>
6NUR|6NUR_protein|mol2

> <Gold.PLP.Fitness>
52.0348

> <Gold.PLP.PLP>
-36.7384

> <Gold.PLP.part.hbond>
-3.0000

> <Gold.PLP.part.metal>
0.0000

> <Gold.PLP.part.buried>
-3.3169

> <Gold.PLP.part.nonpolar>
-31.6388

> <Gold.PLP.part.repulsive>
1.0908

> <Gold.PLP.ligand.clash>
0.0000

> <Gold.PLP.ligand.torsion>
0.5649

> <Gold.PLP.Chemscore.Hbond>
3.8705

> <Gold.PLP.Chemscore.CHOScore>
1.5908

> <Gold.PLP.Chemscore.Metal>
0.0000

> <Gold.Chemscore.Hbonds>
donor molecule, donor type, donor heavy atom, donor atom, acceptor molecule, acceptor atom, score
      L1  C     7    25       P1  8028  0.69
      L1  C     9    26       P1 10175  0.66

> <Gold.PLP.Chemscore.Internal.Correction>
0.0423

> <Gold.Rescore>
     Score         DG    S(hbond)    S(metal)    S(lipo)     H(rot)  DE(clash)    DE(int)     intcor
     12.11     -14.27       1.68        0.00      85.30       2.66       0.26       1.91       ----

> <Gold.Chemscore.Fitness>
12.1097

> <Gold.Chemscore.DG>
-14.2704

> <Gold.Chemscore.ZeroCoef>
-5.4800

> <Gold.Chemscore.Hbond>
1.6810

> <Gold.Chemscore.Metal>
0.0000

> <Gold.Chemscore.Lipo>
85.3041

> <Gold.Chemscore.Internal_Hbond>
0.0000

> <Gold.Chemscore.DEClash>
0.2556

> <Gold.Chemscore.DEInternal>
1.9051

> <Gold.Chemscore.Rot>
2.6581

> <Gold.Chemscore.Internal.Correction>
   9.000000E+99

> <Gold.Chemscore.Hbonds>
donor molecule, donor type, donor heavy atom, donor atom, acceptor molecule, acceptor atom, score
      P1  H  7997  8010       L1    13  0.06
      P1  H 10752 10764       L1    12  0.03

> <Gold.Chemscore.Hbond.Weighted>
-5.6147

> <Gold.Chemscore.Metal.Weighted>
-0.0000

> <Gold.Chemscore.Lipo.Weighted>
-9.9806

> <Gold.Chemscore.Internal_Hbond.Weighted>
0.0000

> <Gold.Chemscore.DEClash.Weighted>
0.2556

> <Gold.Chemscore.DEInternal.Weighted>
1.9051

> <Gold.Chemscore.Rot.Weighted>
6.8048

> <Gold.Chemscore.Internal.Correction.Weighted>
   9.000000E+99

> <Gold.Protein.RotatedTorsions>
[ 6907 6896 6895 6894 ] final  -71.47 input  -60.11 | X-H torsion
[ 7974 7965 7964 7962 ] final  169.25 input  175.53 | X-H torsion
[ 8008 7997 7996 7995 ] final  105.24 input   59.86 | X-H torsion
[ 10167 10162 10161 10158 ] final  153.95 input  -65.29 | X-H torsion
[ 10718 10713 10712 10709 ] final -159.45 input   66.30 | X-H torsion
[ 10763 10752 10751 10750 ] final  -65.79 input  -60.55 | X-H torsion
[ 11005 11000 10999 10996 ] final   47.98 input  -57.11 | X-H torsion

> <Gold.Protein.ActiveResidues>
 VAL166  LYS551  ARG553  GLY616  TRP617  ASP618  TYR619  PRO620  LYS621  CYS622 
 ASP623  PHE694  ASN695  SER759  ASP760  ASP761  ALA762  ILE779  LEU786  VAL792 
 PHE793  MET794  SER795  GLU796  ALA797  LYS798  CYS799  TRP800  GLU811  SER814 

> <Gold.Protein.RotatedAtoms>
  150.7211  134.5303  159.5696 H   0  0  0  0  0  0  0  0  0  0  0  0  # atno 6907 bound_to 6896
  152.2838  134.7796  160.0400 H   0  0  0  0  0  0  0  0  0  0  0  0  # atno 6908 bound_to 6896
  151.8433  133.3392  159.3687 H   0  0  0  0  0  0  0  0  0  0  0  0  # atno 6909 bound_to 6896
  144.7361  139.9027  143.6410 H   0  0  0  0  0  0  0  0  0  0  0  0  # atno 7974 bound_to 7965
  156.1642  140.3134  155.8860 H   0  0  0  0  0  0  0  0  0  0  0  0  # atno 8008 bound_to 7997
  155.3720  140.0482  157.3062 H   0  0  0  0  0  0  0  0  0  0  0  0  # atno 8009 bound_to 7997
  154.5176  140.2187  155.9047 H   0  0  0  0  0  0  0  0  0  0  0  0  # atno 8010 bound_to 7997
  139.4825  144.5229  151.7847 H   0  0  0  0  0  0  0  0  0  0  0  0  # atno 10167 bound_to 10162
  156.5683  130.8677  151.2830 H   0  0  0  0  0  0  0  0  0  0  0  0  # atno 10718 bound_to 10713
  154.3503  135.6138  153.5639 H   0  0  0  0  0  0  0  0  0  0  0  0  # atno 10763 bound_to 10752
  152.9798  135.5790  154.4751 H   0  0  0  0  0  0  0  0  0  0  0  0  # atno 10764 bound_to 10752
  154.4471  135.2852  155.1784 H   0  0  0  0  0  0  0  0  0  0  0  0  # atno 10765 bound_to 10752
  140.1231  134.4804  155.8581 H   0  0  0  0  0  0  0  0  0  0  0  0  # atno 11005 bound_to 11000
  146.1059  139.4059  143.0317 LP  0  0  0  0  0  0  0  0  0  0  0  0  # atno 17320 bound_to 7965
  145.7512  140.9972  143.1249 LP  0  0  0  0  0  0  0  0  0  0  0  0  # atno 17321 bound_to 7965
  140.4745  144.1539  150.5923 LP  0  0  0  0  0  0  0  0  0  0  0  0  # atno 17342 bound_to 10162
  140.4346  143.2553  151.9552 LP  0  0  0  0  0  0  0  0  0  0  0  0  # atno 17343 bound_to 10162
  157.7354  130.9761  150.2078 LP  0  0  0  0  0  0  0  0  0  0  0  0  # atno 17370 bound_to 10713
  156.2737  130.3725  149.8005 LP  0  0  0  0  0  0  0  0  0  0  0  0  # atno 17371 bound_to 10713
  141.2155  133.6768  156.6926 LP  0  0  0  0  0  0  0  0  0  0  0  0  # atno 17394 bound_to 11000
  140.2939  134.8218  157.4040 LP  0  0  0  0  0  0  0  0  0  0  0  0  # atno 17395 bound_to 11000

$$$$
