#       Name:                AV-unprocessed.smi:2618
#       Creating user name   scv26
#       Creation time:       Fri Mar 27 14:22:36 2020


#       File generated by GOLD software.
#

@<TRIPOS>MOLECULE
AV-unprocessed.smi:2618
    46    47     1
SMALL
NO_CHARGES


@<TRIPOS>ATOM
      1 ****        -4.2439   1.7685  -1.2462 C.3            1 S1                 0.0000
      2 ****        -3.5657   0.5509  -1.4992 O.3            1 S1                 0.0000
      3 ****        -3.8806  -0.4567  -0.5504 C.3            1 S1                 0.0000
      4 ****        -3.0666  -1.7293  -0.8525 C.3            1 S1                 0.0000
      5 ****        -1.5799  -1.5762  -0.6383 C.2            1 S1                 0.0000
      6 ****        -1.0261  -0.5673  -0.0732 N.2            1 S1                 0.0000
      7 ****         0.2975  -0.7135  -0.0219 N.pl3          1 S1                 0.0000
      8 ****         1.1422   0.2071   0.6095 C.ar           1 S1                 0.0000
      9 ****         2.4029  -0.1656   0.8643 N.ar           1 S1                 0.0000
     10 ****         3.2112   0.7250   1.4778 C.ar           1 S1                 0.0000
     11 ****         4.6317   0.2779   1.7490 C.3            1 S1                 0.0000
     12 ****         2.7563   2.0053   1.8515 C.ar           1 S1                 0.0000
     13 ****         1.4122   2.2964   1.5436 C.ar           1 S1                 0.0000
     14 ****         0.7897   3.6319   1.8901 C.3            1 S1                 0.0000
     15 ****         0.6142   1.3993   0.9256 N.ar           1 S1                 0.0000
     16 ****         0.7350  -1.9318  -0.7198 C.3            1 S1                 0.0000
     17 ****         1.4880  -2.8496   0.0566 O.3            1 S1                 0.0000
     18 ****         1.5221  -1.6241  -2.0254 C.3            1 S1                 0.0000
     19 ****         0.8189  -0.7999  -2.8041 F              1 S1                 0.0000
     20 ****         2.7009  -1.0529  -1.7829 F              1 S1                 0.0000
     21 ****         1.7358  -2.7508  -2.7072 F              1 S1                 0.0000
     22 ****        -0.5999  -2.6201  -1.0352 C.3            1 S1                 0.0000
     23 ****        -3.9753   2.5016  -2.0066 H              1 S1                 0.0000
     24 ****        -3.9683   2.1772  -0.2730 H              1 S1                 0.0000
     25 ****        -5.3256   1.6318  -1.2762 H              1 S1                 0.0000
     26 ****        -3.6918  -0.1077   0.4665 H              1 S1                 0.0000
     27 ****        -4.9456  -0.6852  -0.6143 H              1 S1                 0.0000
     28 ****        -3.4280  -2.5434  -0.2240 H              1 S1                 0.0000
     29 ****        -3.2529  -2.0346  -1.8825 H              1 S1                 0.0000
     30 ****         5.2612   1.1214   2.0338 H              1 S1                 0.0000
     31 ****         5.0641  -0.1837   0.8606 H              1 S1                 0.0000
     32 ****         4.6489  -0.4517   2.5589 H              1 S1                 0.0000
     33 ****         3.3989   2.7195   2.3454 H              1 S1                 0.0000
     34 ****         1.5000   4.2754   2.4099 H              1 S1                 0.0000
     35 ****        -0.0773   3.4904   2.5358 H              1 S1                 0.0000
     36 ****         0.4644   4.1442   0.9842 H              1 S1                 0.0000
     37 ****         1.5049  -3.6793  -0.3950 H              1 S1                 0.0000
     38 ****        -0.7649  -3.5239  -0.4463 H              1 S1                 0.0000
     39 ****        -0.7073  -2.8779  -2.0892 H              1 S1                 0.0000
     40 ****        -2.5807   0.7211  -1.4707 LP             1 S1                 0.0000
     41 ****        -3.8215   0.2250  -2.4093 LP             1 S1                 0.0000
     42 ****        -1.5221   0.2250   0.2822 LP             1 S1                 0.0000
     43 ****         2.7347  -1.0736   0.6086 LP             1 S1                 0.0000
     44 ****        -0.3381   1.6163   0.7108 LP             1 S1                 0.0000
     45 ****         1.0614  -2.9622   0.9540 LP             1 S1                 0.0000
     46 ****         2.4210  -2.5087   0.1715 LP             1 S1                 0.0000
@<TRIPOS>BOND
    1    1    2 1     
    2    1   23 1     
    3    1   24 1     
    4    1   25 1     
    5    2    3 1     
    6    3    4 1     
    7    3   26 1     
    8    3   27 1     
    9    4    5 1     
   10    4   28 1     
   11    4   29 1     
   12    5   22 1     
   13    5    6 2     
   14    6    7 1     
   15    7    8 1     
   16    7   16 1     
   17    8   15 ar    
   18    8    9 ar    
   19    9   10 ar    
   20   10   11 1     
   21   10   12 ar    
   22   11   30 1     
   23   11   31 1     
   24   11   32 1     
   25   12   13 ar    
   26   12   33 1     
   27   13   14 1     
   28   13   15 ar    
   29   14   34 1     
   30   14   35 1     
   31   14   36 1     
   32   16   17 1     
   33   16   18 1     
   34   16   22 1     
   35   17   37 1     
   36   18   19 1     
   37   18   20 1     
   38   18   21 1     
   39   22   38 1     
   40   22   39 1     
   41    2   40 1     
   42    2   41 1     
   43    6   42 1     
   44    9   43 1     
   45   15   44 1     
   46   17   45 1     
   47   17   46 1     
@<TRIPOS>SUBSTRUCTURE
      1 S1             1
@<TRIPOS>SET
LONE_PAIRS      STATIC     ATOMS    <user>   **** ""
7 40 41 42 43 44 45 46
DONOR_HYDROGENS      STATIC     ATOMS    <user>   **** ""
1 37
ATOM$BLUE        STATIC     ATOMS    COLORGROUP SYSTEM
7 40 41 42 43 44 45 46
ATOM$RED        STATIC     ATOMS    COLORGROUP SYSTEM
1 37
