AV-unprocessed.smi:48|AV-procd|sdf|450|dock2
  -GOLD-   2262016313D 1   1.00000     0.00000
 Structure written by MMmdl.
 30 32  0  0  0  0  0  0  0  0  1 V2000
  147.2212  140.3632  152.7908 O   0  0  0  0  0  0  0  0  0  0  0  0
  147.0009  140.1331  154.1662 C   0  0  0  0  0  0  0  0  0  0  0  0
  148.2174  139.4271  154.7911 C   0  0  2  0  0  0  0  0  0  0  0  0
  148.5172  139.9679  156.0707 O   0  0  0  0  0  0  0  0  0  0  0  0
  149.8144  139.6030  156.4256 C   0  0  2  0  0  0  0  0  0  0  0  0
  150.4368  140.7397  157.1757 N   0  0  0  0  0  0  0  0  0  0  0  0
  150.0913  142.0419  157.1152 C   0  0  0  0  0  0  0  0  0  0  0  0
  150.7779  142.8961  157.8730 N   0  0  0  0  0  0  0  0  0  0  0  0
  151.6754  142.0481  158.5002 C   0  0  0  0  0  0  0  0  0  0  0  0
  152.7069  142.2724  159.4442 C   0  0  0  0  0  0  0  0  0  0  0  0
  153.0433  143.8592  160.0332 Cl  0  0  0  0  0  0  0  0  0  0  0  0
  153.4277  141.2107  159.8771 N   0  0  0  0  0  0  0  0  0  0  0  0
  153.1468  139.9908  159.4027 C   0  0  0  0  0  0  0  0  0  0  0  0
  152.2128  139.6288  158.5162 N   0  0  0  0  0  0  0  0  0  0  0  0
  151.4851  140.7000  158.0817 C   0  0  0  0  0  0  0  0  0  0  0  0
  150.5732  139.2405  155.1298 C   0  0  2  0  0  0  0  0  0  0  0  0
  151.8097  139.9052  154.9331 O   0  0  0  0  0  0  0  0  0  0  0  0
  149.5493  139.5213  154.0310 C   0  0  2  0  0  0  0  0  0  0  0  0
  149.7177  140.7986  153.4398 O   0  0  0  0  0  0  0  0  0  0  0  0
  147.9773  138.3730  154.9427 H   0  0  0  0  0  0  0  0  0  0  0  0
  149.7908  138.7799  157.1412 H   0  0  0  0  0  0  0  0  0  0  0  0
  150.7679  138.1679  155.1683 H   0  0  0  0  0  0  0  0  0  0  0  0
  149.6063  138.7777  153.2352 H   0  0  0  0  0  0  0  0  0  0  0  0
  148.0960  140.0775  152.5748 H   0  0  0  0  0  0  0  0  0  0  0  0
  146.7796  141.0754  154.6683 H   0  0  0  0  0  0  0  0  0  0  0  0
  146.1158  139.5052  154.2707 H   0  0  0  0  0  0  0  0  0  0  0  0
  149.2866  142.3825  156.4801 H   0  0  0  0  0  0  0  0  0  0  0  0
  153.7585  139.1886  159.7881 H   0  0  0  0  0  0  0  0  0  0  0  0
  152.0211  140.3713  155.7281 H   0  0  0  0  0  0  0  0  0  0  0  0
  149.8485  140.6819  152.5111 H   0  0  0  0  0  0  0  0  0  0  0  0
  1  2  1  0  0  0  0
  1 24  1  0  0  0  0
  2  3  1  0  0  0  0
  2 25  1  0  0  0  0
  2 26  1  0  0  0  0
  3 20  1  0  0  0  0
  3 18  1  0  0  0  0
  3  4  1  0  0  0  0
  4  5  1  0  0  0  0
  5 21  1  0  0  0  0
  5  6  1  0  0  0  0
  5 16  1  0  0  0  0
  6 15  1  0  0  0  0
  6  7  1  0  0  0  0
  7  8  2  0  0  0  0
  7 27  1  0  0  0  0
  8  9  1  0  0  0  0
  9 15  2  0  0  0  0
  9 10  1  0  0  0  0
 10 11  1  0  0  0  0
 10 12  2  0  0  0  0
 12 13  1  0  0  0  0
 13 14  2  0  0  0  0
 13 28  1  0  0  0  0
 14 15  1  0  0  0  0
 16 22  1  0  0  0  0
 16 17  1  0  0  0  0
 16 18  1  0  0  0  0
 17 29  1  0  0  0  0
 18 23  1  0  0  0  0
 18 19  1  0  0  0  0
 19 30  1  0  0  0  0
M  END
> <s_m_source_file>
AV-unprocessed.smi

> <i_m_source_file_index>
48

> <i_lp_mmshare_version>
43012

> <i_f3d_flags>
0

> <s_epik_input>
W09IXVtDSDJdW0NASF0xT1tDQEhdKFtDQEhdKFtPSF0pW0NAQEhdMVtPSF0pbihbY0hdbjIpYyhjMjMpbltjSF1uYzNDbA==

> <s_epik_cmdline>
J2VwaWtfcHl0aG9uJywgJy1waCcsICc3LjAnLCAnLXRuJywgJzgnLCAnLW1hJywgJzIwMCcsICctbWV0YWxfYmluZGluZycsICctaW1hZScsICc8aW5maWxlLm1hZT4nLCAnLW9tYWUnLCAnPG91dGZpbGUubWFlPic=

> <r_lp_tautomer_probability>
1

> <r_epik_Ionization_Penalty>
3.45505e-06

> <r_epik_Ionization_Penalty_Charging>
0

> <r_epik_Ionization_Penalty_Neutral>
3.45505e-06

> <r_epik_State_Penalty>
-0

> <r_epik_Charging_Adjusted_Penalty>
0

> <i_epik_Tot_Q>
0

> <i_epik_Tot_abs_Q>
0

> <r_epik_Metal_State_Penalty>
-0

> <b_epik_Metal_Only>
0

> <s_epik_Chemistry_Notes>
This compound contains an acetal/aminal-like group ( X-CH(R)-Y where X, Y are N, S, or O) that may be acid/base labile, releasing an aldehyde.

> <s_lp_Force_Field>
OPLS_2005

> <r_lp_Energy>
43.6519

> <b_lp_Chiralities_Consistent>
1

> <s_lp_Variant>
AV-unprocessed.smi:48-4

> <Gold.Version>
5.8.1

> <Gold.Id.Protein>
6NUR|6NUR_protein|mol2

> <Gold.PLP.Fitness>
37.7841

> <Gold.PLP.PLP>
-28.8811

> <Gold.PLP.part.hbond>
-4.5080

> <Gold.PLP.part.metal>
0.0000

> <Gold.PLP.part.buried>
-4.0780

> <Gold.PLP.part.nonpolar>
-19.2264

> <Gold.PLP.part.repulsive>
0.1330

> <Gold.PLP.ligand.clash>
0.0000

> <Gold.PLP.ligand.torsion>
1.2495

> <Gold.PLP.Chemscore.Hbond>
2.8720

> <Gold.PLP.Chemscore.CHOScore>
0.9285

> <Gold.PLP.Chemscore.Metal>
0.0000

> <Gold.Chemscore.Hbonds>
donor molecule, donor type, donor heavy atom, donor atom, acceptor molecule, acceptor atom, score
      L1  H     1    24       P1  7957  0.84
      L1  H    19    30       P1  7957  0.93
      P1  H  7989  7998       L1    17  0.98
      L1  C     7    27       P1  8028  0.95

> <Gold.PLP.Chemscore.Internal.Correction>
0.0006

> <Gold.Rescore>
     Score         DG    S(hbond)    S(metal)    S(lipo)     H(rot)  DE(clash)    DE(int)     intcor
      8.42      -9.51       2.25        0.00      53.26       3.80       0.18       0.90       ----

> <Gold.Chemscore.Fitness>
8.4225

> <Gold.Chemscore.DG>
-9.5054

> <Gold.Chemscore.ZeroCoef>
-5.4800

> <Gold.Chemscore.Hbond>
2.2534

> <Gold.Chemscore.Metal>
0.0000

> <Gold.Chemscore.Lipo>
53.2600

> <Gold.Chemscore.Internal_Hbond>
0.0000

> <Gold.Chemscore.DEClash>
0.1815

> <Gold.Chemscore.DEInternal>
0.9014

> <Gold.Chemscore.Rot>
3.8017

> <Gold.Chemscore.Internal.Correction>
   9.000000E+99

> <Gold.Chemscore.Hbonds>
donor molecule, donor type, donor heavy atom, donor atom, acceptor molecule, acceptor atom, score
      L1  H     1    24       P1  7957  0.79
      L1  H    19    30       P1  7957  0.87
      P1  H  7989  7998       L1    17  0.57

> <Gold.Chemscore.Hbond.Weighted>
-7.5264

> <Gold.Chemscore.Metal.Weighted>
-0.0000

> <Gold.Chemscore.Lipo.Weighted>
-6.2314

> <Gold.Chemscore.Internal_Hbond.Weighted>
0.0000

> <Gold.Chemscore.DEClash.Weighted>
0.1815

> <Gold.Chemscore.DEInternal.Weighted>
0.9014

> <Gold.Chemscore.Rot.Weighted>
9.7324

> <Gold.Chemscore.Internal.Correction.Weighted>
   9.000000E+99

> <Gold.Protein.RotatedTorsions>
[ 6907 6896 6895 6894 ] final -106.81 input  -60.11 | X-H torsion
[ 7974 7965 7964 7962 ] final -170.98 input  175.53 | X-H torsion
[ 8008 7997 7996 7995 ] final  102.00 input   59.86 | X-H torsion
[ 10167 10162 10161 10158 ] final  174.26 input  -65.29 | X-H torsion
[ 10718 10713 10712 10709 ] final  -49.23 input   66.30 | X-H torsion
[ 10763 10752 10751 10750 ] final   66.68 input  -60.55 | X-H torsion
[ 11005 11000 10999 10996 ] final -119.77 input  -57.11 | X-H torsion

> <Gold.Protein.ActiveResidues>
 VAL166  LYS551  ARG553  GLY616  TRP617  ASP618  TYR619  PRO620  LYS621  CYS622 
 ASP623  PHE694  ASN695  SER759  ASP760  ASP761  ALA762  ILE779  LEU786  VAL792 
 PHE793  MET794  SER795  GLU796  ALA797  LYS798  CYS799  TRP800  GLU811  SER814 

> <Gold.Protein.RotatedAtoms>
  150.7409  133.9920  159.3610 H   0  0  0  0  0  0  0  0  0  0  0  0  # atno 6907 bound_to 6896
  151.7869  135.0744  160.0391 H   0  0  0  0  0  0  0  0  0  0  0  0  # atno 6908 bound_to 6896
  152.3235  133.5843  159.5797 H   0  0  0  0  0  0  0  0  0  0  0  0  # atno 6909 bound_to 6896
  144.7163  140.1991  143.6340 H   0  0  0  0  0  0  0  0  0  0  0  0  # atno 7974 bound_to 7965
  156.1352  140.3188  155.8409 H   0  0  0  0  0  0  0  0  0  0  0  0  # atno 8008 bound_to 7997
  155.4258  140.0515  157.3039 H   0  0  0  0  0  0  0  0  0  0  0  0  # atno 8009 bound_to 7997
  154.4931  140.2100  155.9518 H   0  0  0  0  0  0  0  0  0  0  0  0  # atno 8010 bound_to 7997
  139.5136  144.3167  152.0241 H   0  0  0  0  0  0  0  0  0  0  0  0  # atno 10167 bound_to 10162
  156.1913  130.4153  149.9367 H   0  0  0  0  0  0  0  0  0  0  0  0  # atno 10718 bound_to 10713
  153.0151  135.5312  154.6861 H   0  0  0  0  0  0  0  0  0  0  0  0  # atno 10763 bound_to 10752
  154.6008  135.2868  155.0539 H   0  0  0  0  0  0  0  0  0  0  0  0  # atno 10764 bound_to 10752
  154.1597  135.6549  153.5035 H   0  0  0  0  0  0  0  0  0  0  0  0  # atno 10765 bound_to 10752
  141.0191  134.0151  157.3307 H   0  0  0  0  0  0  0  0  0  0  0  0  # atno 11005 bound_to 11000
  145.8697  139.2265  143.1668 LP  0  0  0  0  0  0  0  0  0  0  0  0  # atno 17320 bound_to 7965
  146.0096  140.8447  142.9977 LP  0  0  0  0  0  0  0  0  0  0  0  0  # atno 17321 bound_to 7965
  140.2610  144.4067  150.6185 LP  0  0  0  0  0  0  0  0  0  0  0  0  # atno 17342 bound_to 10162
  140.6157  143.2172  151.6796 LP  0  0  0  0  0  0  0  0  0  0  0  0  # atno 17343 bound_to 10162
  156.7107  130.8969  151.3609 LP  0  0  0  0  0  0  0  0  0  0  0  0  # atno 17370 bound_to 10713
  157.6931  130.9253  150.0568 LP  0  0  0  0  0  0  0  0  0  0  0  0  # atno 17371 bound_to 10713
  139.9135  135.0194  156.7788 LP  0  0  0  0  0  0  0  0  0  0  0  0  # atno 17394 bound_to 11000
  140.6603  133.9651  155.7801 LP  0  0  0  0  0  0  0  0  0  0  0  0  # atno 17395 bound_to 11000

$$$$
