AV-unprocessed.smi:600|AV-procd|sdf|3030|dock1
  -GOLD-   2262023543D 1   1.00000     0.00000
 Structure written by MMmdl.
 33 34  0  0  0  0  0  0  0  0  1 V2000
  151.6829  138.4562  154.4211 C   0  0  0  0  0  0  0  0  0  0  0  0
  151.1707  139.7421  154.7204 O   0  0  0  0  0  0  0  0  0  0  0  0
  150.7851  139.8697  156.0790 C   0  0  0  0  0  0  0  0  0  0  0  0
  150.3374  141.3127  156.3630 C   0  0  0  0  0  0  0  0  0  0  0  0
  148.9365  141.5314  155.9852 N   0  0  0  0  0  0  0  0  0  0  0  0
  148.1013  141.7915  157.0587 N   0  0  0  0  0  0  0  0  0  0  0  0
  146.8355  141.9825  156.8745 C   0  0  0  0  0  0  0  0  0  0  0  0
  145.9504  142.2509  158.0499 C   0  0  0  0  0  0  0  0  0  0  0  0
  146.4346  142.1439  159.1822 O   0  0  0  0  0  0  0  0  0  0  0  0
  144.6394  142.5983  157.7222 N   0  0  0  0  0  0  0  0  0  0  0  0
  144.3022  143.8186  157.4289 C   0  0  0  0  0  0  0  0  0  0  0  0
  145.1019  144.9559  157.3746 N   0  0  0  0  0  0  0  0  0  0  0  0
  144.4339  146.2444  157.3644 C   0  0  0  0  0  0  0  0  0  0  0  0
  143.0914  146.0556  156.6637 C   0  0  0  0  0  0  0  0  0  0  0  0
  142.6227  144.3487  156.9992 S   0  0  0  0  0  0  0  0  0  0  0  0
  146.2697  141.9361  155.5305 C   0  0  0  0  0  0  0  0  0  0  0  0
  147.0975  141.6797  154.4943 C   0  0  0  0  0  0  0  0  0  0  0  0
  148.5300  141.4504  154.6827 C   0  0  0  0  0  0  0  0  0  0  0  0
  149.2981  141.2041  153.7533 O   0  0  0  0  0  0  0  0  0  0  0  0
  151.9688  138.4110  153.3704 H   0  0  0  0  0  0  0  0  0  0  0  0
  150.9346  137.6829  154.5996 H   0  0  0  0  0  0  0  0  0  0  0  0
  152.5663  138.2340  155.0209 H   0  0  0  0  0  0  0  0  0  0  0  0
  149.9832  139.1685  156.3160 H   0  0  0  0  0  0  0  0  0  0  0  0
  151.6324  139.6203  156.7192 H   0  0  0  0  0  0  0  0  0  0  0  0
  150.4494  141.5149  157.4295 H   0  0  0  0  0  0  0  0  0  0  0  0
  151.0056  142.0192  155.8681 H   0  0  0  0  0  0  0  0  0  0  0  0
  144.2858  146.5665  158.3956 H   0  0  0  0  0  0  0  0  0  0  0  0
  145.0443  146.9964  156.8639 H   0  0  0  0  0  0  0  0  0  0  0  0
  142.3346  146.7600  157.0092 H   0  0  0  0  0  0  0  0  0  0  0  0
  143.2045  146.1751  155.5859 H   0  0  0  0  0  0  0  0  0  0  0  0
  145.2194  142.1004  155.3409 H   0  0  0  0  0  0  0  0  0  0  0  0
  146.6912  141.6424  153.4944 H   0  0  0  0  0  0  0  0  0  0  0  0
  146.0885  144.9515  157.5918 H   0  0  0  0  0  0  0  0  0  0  0  0
  1  2  1  0  0  0  0
  1 20  1  0  0  0  0
  1 21  1  0  0  0  0
  1 22  1  0  0  0  0
  2  3  1  0  0  0  0
  3  4  1  0  0  0  0
  3 23  1  0  0  0  0
  3 24  1  0  0  0  0
  4  5  1  0  0  0  0
  4 25  1  0  0  0  0
  4 26  1  0  0  0  0
  5 18  1  0  0  0  0
  5  6  1  0  0  0  0
  6  7  2  0  0  0  0
  7  8  1  0  0  0  0
  7 16  1  0  0  0  0
  8  9  2  0  0  0  0
  8 10  1  0  0  0  0
 10 11  2  0  0  0  0
 11 15  1  0  0  0  0
 11 12  1  0  0  0  0
 12 13  1  0  0  0  0
 12 33  1  0  0  0  0
 13 14  1  0  0  0  0
 13 27  1  0  0  0  0
 13 28  1  0  0  0  0
 14 15  1  0  0  0  0
 14 29  1  0  0  0  0
 14 30  1  0  0  0  0
 16 17  2  0  0  0  0
 16 31  1  0  0  0  0
 17 18  1  0  0  0  0
 17 32  1  0  0  0  0
 18 19  2  0  0  0  0
M  END
> <s_m_source_file>
AV-unprocessed.smi

> <i_m_source_file_index>
600

> <i_lp_mmshare_version>
43012

> <i_f3d_flags>
0

> <s_epik_input>
W0NIM11PW0NIMl1bQ0gyXW4xbmMoW2NIXVtjSF1jMT1PKUMoPU8pW05IXUMyPU5bQ0gyXVtDSDJdUzI=

> <s_epik_cmdline>
J2VwaWtfcHl0aG9uJywgJy1waCcsICc3LjAnLCAnLXRuJywgJzgnLCAnLW1hJywgJzIwMCcsICctbWV0YWxfYmluZGluZycsICctaW1hZScsICc8aW5maWxlLm1hZT4nLCAnLW9tYWUnLCAnPG91dGZpbGUubWFlPic=

> <r_epik_Ionization_Penalty>
0.0115713

> <r_epik_Ionization_Penalty_Charging>
8.15052e-11

> <r_epik_Ionization_Penalty_Neutral>
0.0115713

> <r_epik_State_Penalty>
0.0066973

> <r_epik_Charging_Adjusted_Penalty>
0.0066973

> <i_epik_Tot_Q>
0

> <i_epik_Tot_abs_Q>
0

> <r_epik_Metal_State_Penalty>
-0

> <b_epik_Metal_Only>
0

> <s_epik_Chemistry_Notes>
This compound has an imine and may undergo hydrolysis.

> <s_lp_Force_Field>
OPLS_2005

> <r_lp_Energy>
40.8102

> <b_lp_Chiralities_Consistent>
1

> <s_lp_Variant>
AV-unprocessed.smi:600-1

> <Gold.Version>
5.8.1

> <Gold.Id.Protein>
6NUR|6NUR_protein|mol2

> <Gold.PLP.Fitness>
35.4913

> <Gold.PLP.PLP>
-26.0161

> <Gold.PLP.part.hbond>
-5.0000

> <Gold.PLP.part.metal>
0.0000

> <Gold.PLP.part.buried>
-5.5842

> <Gold.PLP.part.nonpolar>
-19.1995

> <Gold.PLP.part.repulsive>
2.1473

> <Gold.PLP.ligand.clash>
0.0000

> <Gold.PLP.ligand.torsion>
0.9255

> <Gold.PLP.Chemscore.Hbond>
3.7115

> <Gold.PLP.Chemscore.CHOScore>
0.0000

> <Gold.PLP.Chemscore.Metal>
0.0000

> <Gold.Chemscore.Hbonds>
donor molecule, donor type, donor heavy atom, donor atom, acceptor molecule, acceptor atom, score
      L1  H    12    33       P1  8029  0.81
      P1  H  6934  6946       L1     9  0.94
      P1  H  7989  7998       L1     2  1.00
      P1  H  8011  8017       L1    19  0.90

> <Gold.PLP.Chemscore.Internal.Correction>
0.1918

> <Gold.Rescore>
     Score         DG    S(hbond)    S(metal)    S(lipo)     H(rot)  DE(clash)    DE(int)     intcor
     14.18     -17.31       3.24        0.00      42.37       1.54       0.61       2.52       ----

> <Gold.Chemscore.Fitness>
14.1824

> <Gold.Chemscore.DG>
-17.3071

> <Gold.Chemscore.ZeroCoef>
-5.4800

> <Gold.Chemscore.Hbond>
3.2392

> <Gold.Chemscore.Metal>
0.0000

> <Gold.Chemscore.Lipo>
42.3670

> <Gold.Chemscore.Internal_Hbond>
0.0000

> <Gold.Chemscore.DEClash>
0.6086

> <Gold.Chemscore.DEInternal>
2.5161

> <Gold.Chemscore.Rot>
1.5425

> <Gold.Chemscore.Internal.Correction>
   9.000000E+99

> <Gold.Chemscore.Hbonds>
donor molecule, donor type, donor heavy atom, donor atom, acceptor molecule, acceptor atom, score
      L1  H    12    33       P1  8029  0.17
      P1  H  6934  6946       L1     9  0.84
      P1  H  7989  7998       L1     2  0.74
      P1  H  8011  8017       L1    19  0.87

> <Gold.Chemscore.Hbond.Weighted>
-10.8191

> <Gold.Chemscore.Metal.Weighted>
-0.0000

> <Gold.Chemscore.Lipo.Weighted>
-4.9569

> <Gold.Chemscore.Internal_Hbond.Weighted>
0.0000

> <Gold.Chemscore.DEClash.Weighted>
0.6086

> <Gold.Chemscore.DEInternal.Weighted>
2.5161

> <Gold.Chemscore.Rot.Weighted>
3.9489

> <Gold.Chemscore.Internal.Correction.Weighted>
   9.000000E+99

> <Gold.Protein.RotatedTorsions>
[ 6907 6896 6895 6894 ] final -122.26 input  -60.11 | X-H torsion
[ 7974 7965 7964 7962 ] final  140.39 input  175.53 | X-H torsion
[ 8008 7997 7996 7995 ] final   -4.76 input   59.86 | X-H torsion
[ 10167 10162 10161 10158 ] final    6.30 input  -65.29 | X-H torsion
[ 10718 10713 10712 10709 ] final   75.95 input   66.30 | X-H torsion
[ 10763 10752 10751 10750 ] final  -73.59 input  -60.55 | X-H torsion
[ 11005 11000 10999 10996 ] final  132.72 input  -57.11 | X-H torsion

> <Gold.Protein.ActiveResidues>
 VAL166  LYS551  ARG553  GLY616  TRP617  ASP618  TYR619  PRO620  LYS621  CYS622 
 ASP623  PHE694  ASN695  SER759  ASP760  ASP761  ALA762  ILE779  LEU786  VAL792 
 PHE793  MET794  SER795  GLU796  ALA797  LYS798  CYS799  TRP800  GLU811  SER814 

> <Gold.Protein.RotatedAtoms>
  150.8560  133.7715  159.3008 H   0  0  0  0  0  0  0  0  0  0  0  0  # atno 6907 bound_to 6896
  151.5373  135.1067  159.9927 H   0  0  0  0  0  0  0  0  0  0  0  0  # atno 6908 bound_to 6896
  152.4589  133.7738  159.6869 H   0  0  0  0  0  0  0  0  0  0  0  0  # atno 6909 bound_to 6896
  144.9191  139.5192  143.5672 H   0  0  0  0  0  0  0  0  0  0  0  0  # atno 7974 bound_to 7965
  154.6110  140.2476  155.7669 H   0  0  0  0  0  0  0  0  0  0  0  0  # atno 8008 bound_to 7997
  156.2370  140.2946  156.0290 H   0  0  0  0  0  0  0  0  0  0  0  0  # atno 8009 bound_to 7997
  155.2053  140.0395  157.2914 H   0  0  0  0  0  0  0  0  0  0  0  0  # atno 8010 bound_to 7997
  140.6435  143.7718  150.7463 H   0  0  0  0  0  0  0  0  0  0  0  0  # atno 10167 bound_to 10162
  157.6654  130.9751  150.1427 H   0  0  0  0  0  0  0  0  0  0  0  0  # atno 10718 bound_to 10713
  154.4616  135.5892  153.6259 H   0  0  0  0  0  0  0  0  0  0  0  0  # atno 10763 bound_to 10752
  152.9824  135.6045  154.3479 H   0  0  0  0  0  0  0  0  0  0  0  0  # atno 10764 bound_to 10752
  154.3352  135.2842  155.2430 H   0  0  0  0  0  0  0  0  0  0  0  0  # atno 10765 bound_to 10752
  139.9807  134.9549  156.9623 H   0  0  0  0  0  0  0  0  0  0  0  0  # atno 11005 bound_to 11000
  146.3196  139.8056  142.8956 LP  0  0  0  0  0  0  0  0  0  0  0  0  # atno 17320 bound_to 7965
  145.3327  141.0270  143.3437 LP  0  0  0  0  0  0  0  0  0  0  0  0  # atno 17321 bound_to 7965
  140.1354  143.4488  152.2228 LP  0  0  0  0  0  0  0  0  0  0  0  0  # atno 17342 bound_to 10162
  139.5645  144.7426  151.4062 LP  0  0  0  0  0  0  0  0  0  0  0  0  # atno 17343 bound_to 10162
  156.2245  130.3677  149.8516 LP  0  0  0  0  0  0  0  0  0  0  0  0  # atno 17370 bound_to 10713
  156.6360  130.8685  151.3504 LP  0  0  0  0  0  0  0  0  0  0  0  0  # atno 17371 bound_to 10713
  140.5101  134.1010  155.7268 LP  0  0  0  0  0  0  0  0  0  0  0  0  # atno 17394 bound_to 11000
  141.1480  133.9021  157.2169 LP  0  0  0  0  0  0  0  0  0  0  0  0  # atno 17395 bound_to 11000

$$$$
