#       Name:                AV-unprocessed.smi:2884
#       Creating user name   scv26
#       Creation time:       Fri Mar 27 15:55:27 2020


#       File generated by GOLD software.
#

@<TRIPOS>MOLECULE
AV-unprocessed.smi:2884
    47    48     1
SMALL
NO_CHARGES


@<TRIPOS>ATOM
      1 ****         0.5352  -1.1611   4.7828 C.3            1 S1                 0.0000
      2 ****        -0.9448  -0.8783   5.0723 C.3            1 S1                 0.0000
      3 ****        -1.8888  -1.6299   4.1262 C.3            1 S1                 0.0000
      4 ****        -1.6921  -1.1301   2.8085 O.3            1 S1                 0.0000
      5 ****        -2.5250  -1.6031   1.7427 C.3            1 S1                 0.0000
      6 ****        -1.7752  -1.1013   0.4836 C.3            1 S1                 0.0000
      7 ****        -0.4103  -1.6095   0.4172 N.pl3          1 S1                 0.0000
      8 ****         0.1489  -2.5634  -0.4242 C.2            1 S1                 0.0000
      9 ****         1.5499  -2.9664  -0.3591 C.2            1 S1                 0.0000
     10 ****         2.0612  -3.8477  -1.1489 N.2            1 S1                 0.0000
     11 ****         1.2492  -4.4342  -2.0883 N.am           1 S1                 0.0000
     12 ****        -0.0677  -4.1882  -2.2822 C.2            1 S1                 0.0000
     13 ****        -0.7089  -4.7744  -3.1521 O.2            1 S1                 0.0000
     14 ****        -0.6173  -3.1771  -1.3686 C.2            1 S1                 0.0000
     15 ****        -2.2933  -2.7723  -1.5388 Cl             1 S1                 0.0000
     16 ****        -2.7058  -3.1487   1.7360 C.3            1 S1                 0.0000
     17 ****        -3.6779  -3.6233   0.6412 C.3            1 S1                 0.0000
     18 ****        -5.0420  -2.9287   0.7733 C.3            1 S1                 0.0000
     19 ****        -4.8965  -1.3990   0.7646 C.3            1 S1                 0.0000
     20 ****        -3.9130  -0.9207   1.8492 C.3            1 S1                 0.0000
     21 ****         1.7151  -5.1133  -2.6726 H              1 S1                 0.0000
     22 ****         1.1769  -0.6250   5.4822 H              1 S1                 0.0000
     23 ****         0.8094  -0.8477   3.7748 H              1 S1                 0.0000
     24 ****         0.7584  -2.2246   4.8747 H              1 S1                 0.0000
     25 ****        -1.1659  -1.1657   6.1006 H              1 S1                 0.0000
     26 ****        -1.1350   0.1936   5.0056 H              1 S1                 0.0000
     27 ****        -1.6693  -2.6965   4.1779 H              1 S1                 0.0000
     28 ****        -2.9182  -1.4851   4.4514 H              1 S1                 0.0000
     29 ****        -2.3259  -1.3383  -0.4228 H              1 S1                 0.0000
     30 ****        -1.7111  -0.0130   0.5112 H              1 S1                 0.0000
     31 ****         0.1614  -1.3303   1.2024 H              1 S1                 0.0000
     32 ****         2.1590  -2.4829   0.4022 H              1 S1                 0.0000
     33 ****        -1.7452  -3.6529   1.6292 H              1 S1                 0.0000
     34 ****        -3.1178  -3.4849   2.6872 H              1 S1                 0.0000
     35 ****        -3.2607  -3.4322  -0.3465 H              1 S1                 0.0000
     36 ****        -3.8083  -4.7036   0.7097 H              1 S1                 0.0000
     37 ****        -5.7008  -3.2449  -0.0358 H              1 S1                 0.0000
     38 ****        -5.5213  -3.2425   1.7014 H              1 S1                 0.0000
     39 ****        -4.5641  -1.0667  -0.2189 H              1 S1                 0.0000
     40 ****        -5.8714  -0.9372   0.9242 H              1 S1                 0.0000
     41 ****        -4.3619  -1.1302   2.8193 H              1 S1                 0.0000
     42 ****        -3.8042   0.1631   1.7973 H              1 S1                 0.0000
     43 ****        -0.7480  -1.3411   2.5553 LP             1 S1                 0.0000
     44 ****        -1.8116  -0.1383   2.8527 LP             1 S1                 0.0000
     45 ****         3.0267  -4.0985  -1.0791 LP             1 S1                 0.0000
     46 ****        -0.2584  -5.4501  -3.7355 LP             1 S1                 0.0000
     47 ****        -1.6811  -4.5755  -3.2762 LP             1 S1                 0.0000
@<TRIPOS>BOND
    1    1    2 1     
    2    1   22 1     
    3    1   23 1     
    4    1   24 1     
    5    2    3 1     
    6    2   25 1     
    7    2   26 1     
    8    3    4 1     
    9    3   27 1     
   10    3   28 1     
   11    4    5 1     
   12    5   20 1     
   13    5    6 1     
   14    5   16 1     
   15    6    7 1     
   16    6   29 1     
   17    6   30 1     
   18    7    8 1     
   19    7   31 1     
   20    8   14 2     
   21    8    9 1     
   22    9   10 2     
   23    9   32 1     
   24   10   11 1     
   25   11   21 1     
   26   11   12 am    
   27   12   13 2     
   28   12   14 1     
   29   14   15 1     
   30   16   17 1     
   31   16   33 1     
   32   16   34 1     
   33   17   18 1     
   34   17   35 1     
   35   17   36 1     
   36   18   19 1     
   37   18   37 1     
   38   18   38 1     
   39   19   20 1     
   40   19   39 1     
   41   19   40 1     
   42   20   41 1     
   43   20   42 1     
   44    4   43 1     
   45    4   44 1     
   46   10   45 1     
   47   13   46 1     
   48   13   47 1     
@<TRIPOS>SUBSTRUCTURE
      1 S1             1
@<TRIPOS>SET
LONE_PAIRS      STATIC     ATOMS    <user>   **** ""
5 43 44 45 46 47
DONOR_HYDROGENS      STATIC     ATOMS    <user>   **** ""
2 31 21
ATOM$BLUE        STATIC     ATOMS    COLORGROUP SYSTEM
5 43 44 45 46 47
ATOM$RED        STATIC     ATOMS    COLORGROUP SYSTEM
2 31 21
