AV-unprocessed.smi:326|AV-procd|sdf|2344|dock7
  -GOLD-   2262022253D 1   1.00000     0.00000
 Structure written by MMmdl.
 44 45  0  0  0  0  0  0  0  0  1 V2000
  154.3599  134.4503  159.0373 C   0  0  0  0  0  0  0  0  0  0  0  0
  153.3925  135.4230  159.3895 O   0  0  0  0  0  0  0  0  0  0  0  0
  153.9184  136.4343  160.2325 C   0  0  0  0  0  0  0  0  0  0  0  0
  154.1757  135.8622  161.6361 C   0  0  0  0  0  0  0  0  0  0  0  0
  154.8587  136.8313  162.5007 N   0  0  0  0  0  0  0  0  0  0  0  0
  154.6149  138.1525  162.1629 N   0  0  0  0  0  0  0  0  0  0  0  0
  155.1432  139.1095  162.8552 C   0  0  0  0  0  0  0  0  0  0  0  0
  154.9040  140.5418  162.5254 C   0  0  0  0  0  0  0  0  0  0  0  0
  155.4156  141.4536  163.1775 O   0  0  0  0  0  0  0  0  0  0  0  0
  154.0946  140.7626  161.4737 N   0  0  0  0  0  0  0  0  0  0  0  0
  153.7174  142.0741  160.9561 C   0  0  2  0  0  0  0  0  0  0  0  0
  152.8321  142.8288  161.9684 C   0  0  0  0  0  0  0  0  0  0  0  0
  152.3677  144.1826  161.4072 C   0  0  0  0  0  0  0  0  0  0  0  0
  151.6353  144.0205  160.0614 C   0  0  1  0  0  0  0  0  0  0  0  0
  151.1825  145.3764  159.5014 C   0  0  0  0  0  0  0  0  0  0  0  0
  152.5233  143.2638  159.0548 C   0  0  0  0  0  0  0  0  0  0  0  0
  152.9826  141.9077  159.6139 C   0  0  0  0  0  0  0  0  0  0  0  0
  155.9990  138.8199  163.9932 C   0  0  0  0  0  0  0  0  0  0  0  0
  156.2269  137.5269  164.3114 C   0  0  0  0  0  0  0  0  0  0  0  0
  155.6400  136.4251  163.5471 C   0  0  0  0  0  0  0  0  0  0  0  0
  155.8305  135.2410  163.8226 O   0  0  0  0  0  0  0  0  0  0  0  0
  153.9030  133.6953  158.3977 H   0  0  0  0  0  0  0  0  0  0  0  0
  154.7555  133.9483  159.9212 H   0  0  0  0  0  0  0  0  0  0  0  0
  155.1883  134.9000  158.4886 H   0  0  0  0  0  0  0  0  0  0  0  0
  154.8558  136.8013  159.8125 H   0  0  0  0  0  0  0  0  0  0  0  0
  153.2341  137.2826  160.2865 H   0  0  0  0  0  0  0  0  0  0  0  0
  153.2412  135.5139  162.0792 H   0  0  0  0  0  0  0  0  0  0  0  0
  154.7979  134.9702  161.5465 H   0  0  0  0  0  0  0  0  0  0  0  0
  153.7161  139.9582  160.9943 H   0  0  0  0  0  0  0  0  0  0  0  0
  154.6239  142.6555  160.7758 H   0  0  0  0  0  0  0  0  0  0  0  0
  151.9607  142.2232  162.2216 H   0  0  0  0  0  0  0  0  0  0  0  0
  153.3759  142.9900  162.8999 H   0  0  0  0  0  0  0  0  0  0  0  0
  151.7148  144.6716  162.1312 H   0  0  0  0  0  0  0  0  0  0  0  0
  153.2314  144.8369  161.2809 H   0  0  0  0  0  0  0  0  0  0  0  0
  150.7398  143.4221  160.2363 H   0  0  0  0  0  0  0  0  0  0  0  0
  152.0346  146.0242  159.2926 H   0  0  0  0  0  0  0  0  0  0  0  0
  150.5341  145.8964  160.2072 H   0  0  0  0  0  0  0  0  0  0  0  0
  150.6242  145.2512  158.5731 H   0  0  0  0  0  0  0  0  0  0  0  0
  151.9813  143.1082  158.1212 H   0  0  0  0  0  0  0  0  0  0  0  0
  153.3976  143.8676  158.8065 H   0  0  0  0  0  0  0  0  0  0  0  0
  153.6324  141.4144  158.8900 H   0  0  0  0  0  0  0  0  0  0  0  0
  152.1150  141.2586  159.7432 H   0  0  0  0  0  0  0  0  0  0  0  0
  156.4450  139.6128  164.5760 H   0  0  0  0  0  0  0  0  0  0  0  0
  156.8604  137.2971  165.1554 H   0  0  0  0  0  0  0  0  0  0  0  0
  1  2  1  0  0  0  0
  1 22  1  0  0  0  0
  1 23  1  0  0  0  0
  1 24  1  0  0  0  0
  2  3  1  0  0  0  0
  3  4  1  0  0  0  0
  3 25  1  0  0  0  0
  3 26  1  0  0  0  0
  4  5  1  0  0  0  0
  4 27  1  0  0  0  0
  4 28  1  0  0  0  0
  5 20  1  0  0  0  0
  5  6  1  0  0  0  0
  6  7  2  0  0  0  0
  7  8  1  0  0  0  0
  7 18  1  0  0  0  0
  8  9  2  0  0  0  0
  8 10  1  0  0  0  0
 10 11  1  0  0  0  0
 10 29  1  0  0  0  0
 11 17  1  0  0  0  0
 11 12  1  0  0  0  0
 11 30  1  0  0  0  0
 12 13  1  0  0  0  0
 12 31  1  0  0  0  0
 12 32  1  0  0  0  0
 13 14  1  0  0  0  0
 13 33  1  0  0  0  0
 13 34  1  0  0  0  0
 14 15  1  0  0  0  0
 14 16  1  0  0  0  0
 14 35  1  0  0  0  0
 15 36  1  0  0  0  0
 15 37  1  0  0  0  0
 15 38  1  0  0  0  0
 16 17  1  0  0  0  0
 16 39  1  0  0  0  0
 16 40  1  0  0  0  0
 17 41  1  0  0  0  0
 17 42  1  0  0  0  0
 18 19  2  0  0  0  0
 18 43  1  0  0  0  0
 19 20  1  0  0  0  0
 19 44  1  0  0  0  0
 20 21  2  0  0  0  0
M  END
> <s_m_source_file>
AV-unprocessed.smi

> <i_m_source_file_index>
326

> <i_lp_mmshare_version>
43012

> <i_f3d_flags>
0

> <s_epik_input>
W0NIM11PW0NIMl1bQ0gyXW4xbmMoW2NIXVtjSF1jMT1PKUMoPU8pW05IXVtDQEBIXTJbQ0gyXVtDSDJdW0NAQEhdKFtDSDNdKVtDSDJdW0NIMl0y

> <s_epik_cmdline>
J2VwaWtfcHl0aG9uJywgJy1waCcsICc3LjAnLCAnLXRuJywgJzgnLCAnLW1hJywgJzIwMCcsICctbWV0YWxfYmluZGluZycsICctaW1hZScsICc8aW5maWxlLm1hZT4nLCAnLW9tYWUnLCAnPG91dGZpbGUubWFlPic=

> <r_lp_tautomer_probability>
1

> <r_epik_Ionization_Penalty>
6.47102e-07

> <r_epik_Ionization_Penalty_Charging>
6.8576e-09

> <r_epik_Ionization_Penalty_Neutral>
6.40245e-07

> <r_epik_State_Penalty>
-0

> <r_epik_Charging_Adjusted_Penalty>
6.8576e-09

> <i_epik_Tot_Q>
0

> <i_epik_Tot_abs_Q>
0

> <r_epik_Metal_State_Penalty>
-0

> <b_epik_Metal_Only>
0

> <s_lp_Force_Field>
OPLS_2005

> <r_lp_Energy>
29.5472

> <b_lp_Chiralities_Consistent>
1

> <s_lp_Variant>
AV-unprocessed.smi:326-1

> <Gold.Version>
5.8.1

> <Gold.Id.Protein>
6NUR|6NUR_protein|mol2

> <Gold.PLP.Fitness>
44.4297

> <Gold.PLP.PLP>
-42.3672

> <Gold.PLP.part.hbond>
-2.0000

> <Gold.PLP.part.metal>
0.0000

> <Gold.PLP.part.buried>
-5.6078

> <Gold.PLP.part.nonpolar>
-35.0362

> <Gold.PLP.part.repulsive>
0.0492

> <Gold.PLP.ligand.clash>
0.0000

> <Gold.PLP.ligand.torsion>
0.4777

> <Gold.PLP.Chemscore.Hbond>
1.0000

> <Gold.PLP.Chemscore.CHOScore>
0.0000

> <Gold.PLP.Chemscore.Metal>
0.0000

> <Gold.Chemscore.Hbonds>
donor molecule, donor type, donor heavy atom, donor atom, acceptor molecule, acceptor atom, score
      P1  H  6896  6909       L1     2  0.39

> <Gold.PLP.Chemscore.Internal.Correction>
0.0178

> <Gold.Rescore>
     Score         DG    S(hbond)    S(metal)    S(lipo)     H(rot)  DE(clash)    DE(int)     intcor
     16.87     -17.71       0.98        0.00     110.47       1.55       0.50       0.34       ----

> <Gold.Chemscore.Fitness>
16.8732

> <Gold.Chemscore.DG>
-17.7149

> <Gold.Chemscore.ZeroCoef>
-5.4800

> <Gold.Chemscore.Hbond>
0.9796

> <Gold.Chemscore.Metal>
0.0000

> <Gold.Chemscore.Lipo>
110.4728

> <Gold.Chemscore.Internal_Hbond>
0.0000

> <Gold.Chemscore.DEClash>
0.4998

> <Gold.Chemscore.DEInternal>
0.3419

> <Gold.Chemscore.Rot>
1.5478

> <Gold.Chemscore.Internal.Correction>
   9.000000E+99

> <Gold.Chemscore.Hbonds>
donor molecule, donor type, donor heavy atom, donor atom, acceptor molecule, acceptor atom, score
      P1  H  6896  6909       L1     2  0.04

> <Gold.Chemscore.Hbond.Weighted>
-3.2719

> <Gold.Chemscore.Metal.Weighted>
-0.0000

> <Gold.Chemscore.Lipo.Weighted>
-12.9253

> <Gold.Chemscore.Internal_Hbond.Weighted>
0.0000

> <Gold.Chemscore.DEClash.Weighted>
0.4998

> <Gold.Chemscore.DEInternal.Weighted>
0.3419

> <Gold.Chemscore.Rot.Weighted>
3.9623

> <Gold.Chemscore.Internal.Correction.Weighted>
   9.000000E+99

> <Gold.Protein.RotatedTorsions>
[ 6907 6896 6895 6894 ] final -167.43 input  -60.11 | X-H torsion
[ 7974 7965 7964 7962 ] final   91.58 input  175.53 | X-H torsion
[ 8008 7997 7996 7995 ] final  166.69 input   59.86 | X-H torsion
[ 10167 10162 10161 10158 ] final  -61.66 input  -65.29 | X-H torsion
[ 10718 10713 10712 10709 ] final   -1.26 input   66.30 | X-H torsion
[ 10763 10752 10751 10750 ] final   84.26 input  -60.55 | X-H torsion
[ 11005 11000 10999 10996 ] final   62.47 input  -57.11 | X-H torsion

> <Gold.Protein.ActiveResidues>
 VAL166  LYS551  ARG553  GLY616  TRP617  ASP618  TYR619  PRO620  LYS621  CYS622 
 ASP623  PHE694  ASN695  SER759  ASP760  ASP761  ALA762  ILE779  LEU786  VAL792 
 PHE793  MET794  SER795  GLU796  ALA797  LYS798  CYS799  TRP800  GLU811  SER814 

> <Gold.Protein.RotatedAtoms>
  151.4594  133.3597  159.2806 H   0  0  0  0  0  0  0  0  0  0  0  0  # atno 6907 bound_to 6896
  150.9036  134.8451  159.7388 H   0  0  0  0  0  0  0  0  0  0  0  0  # atno 6908 bound_to 6896
  152.4893  134.4516  159.9628 H   0  0  0  0  0  0  0  0  0  0  0  0  # atno 6909 bound_to 6896
  145.5037  139.2276  143.2763 H   0  0  0  0  0  0  0  0  0  0  0  0  # atno 7974 bound_to 7965
  156.1697  140.1636  156.8469 H   0  0  0  0  0  0  0  0  0  0  0  0  # atno 8008 bound_to 7997
  154.5244  140.0771  156.8266 H   0  0  0  0  0  0  0  0  0  0  0  0  # atno 8009 bound_to 7997
  155.3538  140.3391  155.4242 H   0  0  0  0  0  0  0  0  0  0  0  0  # atno 8010 bound_to 7997
  140.5991  143.2357  151.5969 H   0  0  0  0  0  0  0  0  0  0  0  0  # atno 10167 bound_to 10162
  156.8083  130.5416  149.5712 H   0  0  0  0  0  0  0  0  0  0  0  0  # atno 10718 bound_to 10713
  153.1365  135.4661  154.9431 H   0  0  0  0  0  0  0  0  0  0  0  0  # atno 10763 bound_to 10752
  154.7711  135.3159  154.8191 H   0  0  0  0  0  0  0  0  0  0  0  0  # atno 10764 bound_to 10752
  153.8722  135.6902  153.4827 H   0  0  0  0  0  0  0  0  0  0  0  0  # atno 10765 bound_to 10752
  140.0090  134.6325  155.9810 H   0  0  0  0  0  0  0  0  0  0  0  0  # atno 11005 bound_to 11000
  146.2210  140.5840  142.9017 LP  0  0  0  0  0  0  0  0  0  0  0  0  # atno 17320 bound_to 7965
  144.7766  140.5751  143.6634 LP  0  0  0  0  0  0  0  0  0  0  0  0  # atno 17321 bound_to 7965
  139.5279  144.3005  152.1077 LP  0  0  0  0  0  0  0  0  0  0  0  0  # atno 17342 bound_to 10162
  140.2182  144.4493  150.6354 LP  0  0  0  0  0  0  0  0  0  0  0  0  # atno 17343 bound_to 10162
  156.1060  130.6004  150.9971 LP  0  0  0  0  0  0  0  0  0  0  0  0  # atno 17370 bound_to 10713
  157.6519  131.0895  150.8032 LP  0  0  0  0  0  0  0  0  0  0  0  0  # atno 17371 bound_to 10713
  141.1697  133.6537  156.4608 LP  0  0  0  0  0  0  0  0  0  0  0  0  # atno 17394 bound_to 11000
  140.4588  134.6860  157.5075 LP  0  0  0  0  0  0  0  0  0  0  0  0  # atno 17395 bound_to 11000

$$$$
