AV-unprocessed.smi:146|AV-procd|sdf|1199|dock8
  -GOLD-   2262018363D 1   1.00000     0.00000
 Structure written by MMmdl.
 55 59  0  0  0  0  0  0  0  0  1 V2000
  148.4543  135.2171  160.3804 C   0  0  0  0  0  0  0  0  0  0  0  0
  148.7353  135.9431  159.0557 C   0  0  0  0  0  0  0  0  0  0  0  0
  147.4572  136.6862  158.6154 C   0  0  0  0  0  0  0  0  0  0  0  0
  149.9129  136.9190  159.2439 C   0  0  0  0  0  0  0  0  0  0  0  0
  150.3904  137.4000  157.9546 N   0  0  0  0  0  0  0  0  0  0  0  0
  151.1366  138.5331  158.0008 C   0  0  0  0  0  0  0  0  0  0  0  0
  152.4136  138.4878  158.4672 N   0  0  0  0  0  0  0  0  0  0  0  0
  153.1489  139.6015  158.5335 C   0  0  0  0  0  0  0  0  0  0  0  0
  152.8114  140.8457  158.1902 N   0  0  0  0  0  0  0  0  0  0  0  0
  151.5368  140.8977  157.7079 C   0  0  0  0  0  0  0  0  0  0  0  0
  150.6394  139.7997  157.5800 C   0  0  0  0  0  0  0  0  0  0  0  0
  149.4333  140.2374  157.0459 N   0  0  0  0  0  0  0  0  0  0  0  0
  149.6017  141.5211  156.8853 C   0  0  0  0  0  0  0  0  0  0  0  0
  150.8408  142.0022  157.2458 N   0  0  0  0  0  0  0  0  0  0  0  0
  151.3004  143.3830  157.1830 C   0  0  0  0  0  0  0  0  0  0  0  0
  151.6449  144.0201  158.5511 C   0  0  0  0  0  0  0  0  0  0  0  0
  150.5564  145.0495  158.8851 C   0  0  0  0  0  0  0  0  0  0  0  0
  149.3051  144.4265  159.0932 O   0  0  0  0  0  0  0  0  0  0  0  0
  152.0684  143.0819  159.6953 C   0  0  0  0  0  0  0  0  0  0  0  0
  153.4667  143.3719  159.4860 O   0  0  0  0  0  0  0  0  0  0  0  0
  153.0885  144.5265  158.7077 C   0  0  0  0  0  0  0  0  0  0  0  0
  150.8299  136.3111  157.0912 C   0  0  0  0  0  0  0  0  0  0  0  0
  149.6978  135.2778  156.8838 C   0  0  2  0  0  0  0  0  0  0  0  0
  150.2488  134.0010  156.2602 C   0  0  0  0  0  0  0  0  0  0  0  0
  150.1511  134.2753  154.7679 C   0  0  0  0  0  0  0  0  0  0  0  0
  148.8991  134.9260  154.6495 O   0  0  0  0  0  0  0  0  0  0  0  0
  148.6681  135.7104  155.8166 C   0  0  0  0  0  0  0  0  0  0  0  0
  149.1027  134.9043  158.1349 O   0  0  0  0  0  0  0  0  0  0  0  0
  148.1833  135.9194  161.1695 H   0  0  0  0  0  0  0  0  0  0  0  0
  149.3291  134.6613  160.7198 H   0  0  0  0  0  0  0  0  0  0  0  0
  147.6350  134.5053  160.2745 H   0  0  0  0  0  0  0  0  0  0  0  0
  147.1134  137.3647  159.3966 H   0  0  0  0  0  0  0  0  0  0  0  0
  146.6462  135.9881  158.4067 H   0  0  0  0  0  0  0  0  0  0  0  0
  147.6158  137.2935  157.7255 H   0  0  0  0  0  0  0  0  0  0  0  0
  149.6144  137.7343  159.9019 H   0  0  0  0  0  0  0  0  0  0  0  0
  150.7405  136.4121  159.7422 H   0  0  0  0  0  0  0  0  0  0  0  0
  154.1505  139.4778  158.9182 H   0  0  0  0  0  0  0  0  0  0  0  0
  148.8179  142.1543  156.4972 H   0  0  0  0  0  0  0  0  0  0  0  0
  152.1709  143.4116  156.5266 H   0  0  0  0  0  0  0  0  0  0  0  0
  150.5290  143.9577  156.6699 H   0  0  0  0  0  0  0  0  0  0  0  0
  150.8067  145.6021  159.7912 H   0  0  0  0  0  0  0  0  0  0  0  0
  150.4562  145.7885  158.0894 H   0  0  0  0  0  0  0  0  0  0  0  0
  148.7065  144.7229  158.4245 H   0  0  0  0  0  0  0  0  0  0  0  0
  151.7337  143.4120  160.6803 H   0  0  0  0  0  0  0  0  0  0  0  0
  151.8244  142.0313  159.5447 H   0  0  0  0  0  0  0  0  0  0  0  0
  153.6441  144.6137  157.7752 H   0  0  0  0  0  0  0  0  0  0  0  0
  153.1759  145.4462  159.2886 H   0  0  0  0  0  0  0  0  0  0  0  0
  151.1657  136.6978  156.1280 H   0  0  0  0  0  0  0  0  0  0  0  0
  151.6908  135.8319  157.5601 H   0  0  0  0  0  0  0  0  0  0  0  0
  151.2601  133.7538  156.5843 H   0  0  0  0  0  0  0  0  0  0  0  0
  149.6074  133.1535  156.5077 H   0  0  0  0  0  0  0  0  0  0  0  0
  150.9470  134.9444  154.4379 H   0  0  0  0  0  0  0  0  0  0  0  0
  150.1913  133.3670  154.1666 H   0  0  0  0  0  0  0  0  0  0  0  0
  147.6457  135.5152  156.1386 H   0  0  0  0  0  0  0  0  0  0  0  0
  148.7465  136.7718  155.5790 H   0  0  0  0  0  0  0  0  0  0  0  0
  1  2  1  0  0  0  0
  1 29  1  0  0  0  0
  1 30  1  0  0  0  0
  1 31  1  0  0  0  0
  2 28  1  0  0  0  0
  2  3  1  0  0  0  0
  2  4  1  0  0  0  0
  3 32  1  0  0  0  0
  3 33  1  0  0  0  0
  3 34  1  0  0  0  0
  4  5  1  0  0  0  0
  4 35  1  0  0  0  0
  4 36  1  0  0  0  0
  5  6  1  0  0  0  0
  5 22  1  0  0  0  0
  6 11  1  0  0  0  0
  6  7  2  0  0  0  0
  7  8  1  0  0  0  0
  8  9  2  0  0  0  0
  8 37  1  0  0  0  0
  9 10  1  0  0  0  0
 10 14  1  0  0  0  0
 10 11  2  0  0  0  0
 11 12  1  0  0  0  0
 12 13  2  0  0  0  0
 13 14  1  0  0  0  0
 13 38  1  0  0  0  0
 14 15  1  0  0  0  0
 15 16  1  0  0  0  0
 15 39  1  0  0  0  0
 15 40  1  0  0  0  0
 16 21  1  0  0  0  0
 16 17  1  0  0  0  0
 16 19  1  0  0  0  0
 17 18  1  0  0  0  0
 17 41  1  0  0  0  0
 17 42  1  0  0  0  0
 18 43  1  0  0  0  0
 19 20  1  0  0  0  0
 19 44  1  0  0  0  0
 19 45  1  0  0  0  0
 20 21  1  0  0  0  0
 21 46  1  0  0  0  0
 21 47  1  0  0  0  0
 22 23  1  0  0  0  0
 22 48  1  0  0  0  0
 22 49  1  0  0  0  0
 23 27  1  0  0  0  0
 23 24  1  0  0  0  0
 23 28  1  0  0  0  0
 24 25  1  0  0  0  0
 24 50  1  0  0  0  0
 24 51  1  0  0  0  0
 25 26  1  0  0  0  0
 25 52  1  0  0  0  0
 25 53  1  0  0  0  0
 26 27  1  0  0  0  0
 27 54  1  0  0  0  0
 27 55  1  0  0  0  0
M  END
> <s_m_source_file>
AV-unprocessed.smi

> <i_m_source_file_index>
146

> <i_lp_mmshare_version>
43012

> <i_f3d_flags>
0

> <s_epik_input>
W0NIMl0xT1tDSDJdW0NIMl1bQ0BAXTEyW0NIMl1OKFtDSDJdQyhPMikoW0NIM10pW0NIM10pYyhuW2NIXW4zKWMoYzM0KW5bY0hdbjRbQ0gyXUM1KFtDSDJdW09IXSlbQ0gyXU9bQ0gyXTU=

> <s_epik_cmdline>
J2VwaWtfcHl0aG9uJywgJy1waCcsICc3LjAnLCAnLXRuJywgJzgnLCAnLW1hJywgJzIwMCcsICctbWV0YWxfYmluZGluZycsICctaW1hZScsICc8aW5maWxlLm1hZT4nLCAnLW9tYWUnLCAnPG91dGZpbGUubWFlPic=

> <r_lp_tautomer_probability>
1

> <r_epik_Ionization_Penalty>
0.00353822

> <r_epik_Ionization_Penalty_Charging>
0

> <r_epik_Ionization_Penalty_Neutral>
0.00353822

> <r_epik_State_Penalty>
0.0023805

> <r_epik_Charging_Adjusted_Penalty>
0.0023805

> <i_epik_Tot_Q>
0

> <i_epik_Tot_abs_Q>
0

> <r_epik_Metal_State_Penalty>
-0

> <b_epik_Metal_Only>
0

> <s_lp_Force_Field>
OPLS_2005

> <r_lp_Energy>
56.8345

> <b_lp_Chiralities_Consistent>
1

> <s_lp_Variant>
AV-unprocessed.smi:146-1

> <Gold.Version>
5.8.1

> <Gold.Id.Protein>
6NUR|6NUR_protein|mol2

> <Gold.PLP.Fitness>
39.8035

> <Gold.PLP.PLP>
-35.6607

> <Gold.PLP.part.hbond>
-1.4297

> <Gold.PLP.part.metal>
0.0000

> <Gold.PLP.part.buried>
-5.6643

> <Gold.PLP.part.nonpolar>
-28.8141

> <Gold.PLP.part.repulsive>
0.3074

> <Gold.PLP.ligand.clash>
0.0000

> <Gold.PLP.ligand.torsion>
1.2262

> <Gold.PLP.Chemscore.Hbond>
1.0000

> <Gold.PLP.Chemscore.CHOScore>
0.9974

> <Gold.PLP.Chemscore.Metal>
0.0000

> <Gold.Chemscore.Hbonds>
donor molecule, donor type, donor heavy atom, donor atom, acceptor molecule, acceptor atom, score
      L1  H    18    43       P1  8029  1.00
      L1  C    13    38       P1  8028  0.59

> <Gold.PLP.Chemscore.Internal.Correction>
0.6031

> <Gold.Rescore>
     Score         DG    S(hbond)    S(metal)    S(lipo)     H(rot)  DE(clash)    DE(int)     intcor
      9.32     -12.90       0.81        0.00      93.58       2.44       0.53       3.05       ----

> <Gold.Chemscore.Fitness>
9.3217

> <Gold.Chemscore.DG>
-12.8951

> <Gold.Chemscore.ZeroCoef>
-5.4800

> <Gold.Chemscore.Hbond>
0.8104

> <Gold.Chemscore.Metal>
0.0000

> <Gold.Chemscore.Lipo>
93.5781

> <Gold.Chemscore.Internal_Hbond>
0.0000

> <Gold.Chemscore.DEClash>
0.5282

> <Gold.Chemscore.DEInternal>
3.0453

> <Gold.Chemscore.Rot>
2.4376

> <Gold.Chemscore.Internal.Correction>
   9.000000E+99

> <Gold.Chemscore.Hbonds>
donor molecule, donor type, donor heavy atom, donor atom, acceptor molecule, acceptor atom, score
      L1  H    18    43       P1  8029  0.78

> <Gold.Chemscore.Hbond.Weighted>
-2.7067

> <Gold.Chemscore.Metal.Weighted>
-0.0000

> <Gold.Chemscore.Lipo.Weighted>
-10.9486

> <Gold.Chemscore.Internal_Hbond.Weighted>
0.0000

> <Gold.Chemscore.DEClash.Weighted>
0.5282

> <Gold.Chemscore.DEInternal.Weighted>
3.0453

> <Gold.Chemscore.Rot.Weighted>
6.2402

> <Gold.Chemscore.Internal.Correction.Weighted>
   9.000000E+99

> <Gold.Protein.RotatedTorsions>
[ 6907 6896 6895 6894 ] final  -58.49 input  -60.11 | X-H torsion
[ 7974 7965 7964 7962 ] final   97.11 input  175.53 | X-H torsion
[ 8008 7997 7996 7995 ] final -155.84 input   59.86 | X-H torsion
[ 10167 10162 10161 10158 ] final  -10.61 input  -65.29 | X-H torsion
[ 10718 10713 10712 10709 ] final  -66.97 input   66.30 | X-H torsion
[ 10763 10752 10751 10750 ] final  100.90 input  -60.55 | X-H torsion
[ 11005 11000 10999 10996 ] final  160.54 input  -57.11 | X-H torsion

> <Gold.Protein.ActiveResidues>
 VAL166  LYS551  ARG553  GLY616  TRP617  ASP618  TYR619  PRO620  LYS621  CYS622 
 ASP623  PHE694  ASN695  SER759  ASP760  ASP761  ALA762  ILE779  LEU786  VAL792 
 PHE793  MET794  SER795  GLU796  ALA797  LYS798  CYS799  TRP800  GLU811  SER814 

> <Gold.Protein.RotatedAtoms>
  150.8003  134.7092  159.6593 H   0  0  0  0  0  0  0  0  0  0  0  0  # atno 6907 bound_to 6896
  152.4119  134.6106  160.0034 H   0  0  0  0  0  0  0  0  0  0  0  0  # atno 6908 bound_to 6896
  151.6346  133.3293  159.3152 H   0  0  0  0  0  0  0  0  0  0  0  0  # atno 6909 bound_to 6896
  145.4299  139.2312  143.3150 H   0  0  0  0  0  0  0  0  0  0  0  0  # atno 7974 bound_to 7965
  155.7080  140.0775  157.2383 H   0  0  0  0  0  0  0  0  0  0  0  0  # atno 8008 bound_to 7997
  154.4063  140.1635  156.2318 H   0  0  0  0  0  0  0  0  0  0  0  0  # atno 8009 bound_to 7997
  155.9308  140.3391  155.6251 H   0  0  0  0  0  0  0  0  0  0  0  0  # atno 8010 bound_to 7997
  140.7118  143.5729  150.9073 H   0  0  0  0  0  0  0  0  0  0  0  0  # atno 10167 bound_to 10162
  156.0583  130.4270  150.1787 H   0  0  0  0  0  0  0  0  0  0  0  0  # atno 10718 bound_to 10713
  153.3198  135.4063  155.1407 H   0  0  0  0  0  0  0  0  0  0  0  0  # atno 10763 bound_to 10752
  154.8597  135.3585  154.5611 H   0  0  0  0  0  0  0  0  0  0  0  0  # atno 10764 bound_to 10752
  153.6044  135.7070  153.5430 H   0  0  0  0  0  0  0  0  0  0  0  0  # atno 10765 bound_to 10752
  140.2070  134.8296  157.3080 H   0  0  0  0  0  0  0  0  0  0  0  0  # atno 11005 bound_to 11000
  146.2612  140.5034  142.8852 LP  0  0  0  0  0  0  0  0  0  0  0  0  # atno 17320 bound_to 7965
  144.8190  140.6517  143.6365 LP  0  0  0  0  0  0  0  0  0  0  0  0  # atno 17321 bound_to 7965
  139.9455  143.6332  152.3043 LP  0  0  0  0  0  0  0  0  0  0  0  0  # atno 17342 bound_to 10162
  139.6832  144.7654  151.1571 LP  0  0  0  0  0  0  0  0  0  0  0  0  # atno 17343 bound_to 10162
  156.9859  130.9878  151.3426 LP  0  0  0  0  0  0  0  0  0  0  0  0  # atno 17370 bound_to 10713
  157.5571  130.8220  149.8218 LP  0  0  0  0  0  0  0  0  0  0  0  0  # atno 17371 bound_to 10713
  140.1992  134.4275  155.7672 LP  0  0  0  0  0  0  0  0  0  0  0  0  # atno 17394 bound_to 11000
  141.2227  133.7064  156.8156 LP  0  0  0  0  0  0  0  0  0  0  0  0  # atno 17395 bound_to 11000

$$$$
