AV-unprocessed.smi:2164|AV-procd|sdf|8808|dock5
  -GOLD-   2272011593D 1   1.00000     0.00000
 Structure written by MMmdl.
 39 41  0  0  0  0  0  0  0  0  1 V2000
  145.1218  138.3049  154.2921 O   0  0  0  0  0  0  0  0  0  0  0  0
  146.1648  138.0172  153.7024 C   0  0  0  0  0  0  0  0  0  0  0  0
  146.1816  137.1625  152.6637 N   0  0  0  0  0  0  0  0  0  0  0  0
  145.0152  136.5085  152.0741 C   0  0  0  0  0  0  0  0  0  0  0  0
  145.3486  135.8124  150.7402 C   0  0  0  0  0  0  0  0  0  0  0  0
  145.0760  134.3183  150.7495 C   0  0  0  0  0  0  0  0  0  0  0  0
  146.1350  133.3908  150.6671 C   0  0  0  0  0  0  0  0  0  0  0  0
  145.8366  132.0154  150.7133 C   0  0  0  0  0  0  0  0  0  0  0  0
  144.4883  131.6256  150.8399 C   0  0  0  0  0  0  0  0  0  0  0  0
  143.4658  132.5043  150.9160 N   0  0  0  0  0  0  0  0  0  0  0  0
  143.7603  133.8210  150.8685 C   0  0  0  0  0  0  0  0  0  0  0  0
  147.4805  138.5683  154.0334 C   0  0  0  0  0  0  0  0  0  0  0  0
  148.4977  137.7359  154.3258 C   0  0  0  0  0  0  0  0  0  0  0  0
  149.7830  138.1723  154.6535 N   0  0  0  0  0  0  0  0  0  0  0  0
  150.7658  137.1723  155.0533 C   0  0  0  0  0  0  0  0  0  0  0  0
  152.1174  137.4861  154.4327 C   0  0  0  0  0  0  0  0  0  0  0  0
  152.6394  139.1024  155.1233 S   0  0  0  0  0  0  0  0  0  0  0  0
  152.7501  138.9587  156.5833 O   0  0  0  0  0  0  0  0  0  0  0  0
  153.8017  139.5728  154.3549 O   0  0  0  0  0  0  0  0  0  0  0  0
  151.2997  140.0445  154.7638 N   0  0  0  0  0  0  0  0  0  0  0  0
  150.1079  139.5519  154.6116 C   0  0  0  0  0  0  0  0  0  0  0  0
  149.0010  140.4559  154.3428 C   0  0  0  0  0  0  0  0  0  0  0  0
  147.7623  139.9973  154.0686 C   0  0  0  0  0  0  0  0  0  0  0  0
  147.0726  136.9721  152.2290 H   0  0  0  0  0  0  0  0  0  0  0  0
  144.6446  135.7708  152.7862 H   0  0  0  0  0  0  0  0  0  0  0  0
  144.2029  137.2231  151.9313 H   0  0  0  0  0  0  0  0  0  0  0  0
  144.7763  136.2729  149.9339 H   0  0  0  0  0  0  0  0  0  0  0  0
  146.3988  135.9741  150.4953 H   0  0  0  0  0  0  0  0  0  0  0  0
  147.1582  133.7263  150.5811 H   0  0  0  0  0  0  0  0  0  0  0  0
  146.6224  131.2767  150.6575 H   0  0  0  0  0  0  0  0  0  0  0  0
  144.2240  130.5792  150.8820 H   0  0  0  0  0  0  0  0  0  0  0  0
  142.9215  134.4974  150.9435 H   0  0  0  0  0  0  0  0  0  0  0  0
  148.3809  136.6610  154.3274 H   0  0  0  0  0  0  0  0  0  0  0  0
  150.8342  137.1490  156.1414 H   0  0  0  0  0  0  0  0  0  0  0  0
  150.4520  136.1766  154.7379 H   0  0  0  0  0  0  0  0  0  0  0  0
  152.8647  136.7366  154.6927 H   0  0  0  0  0  0  0  0  0  0  0  0
  152.0616  137.5568  153.3459 H   0  0  0  0  0  0  0  0  0  0  0  0
  149.1442  141.5268  154.3448 H   0  0  0  0  0  0  0  0  0  0  0  0
  146.9877  140.7244  153.8749 H   0  0  0  0  0  0  0  0  0  0  0  0
  1  2  2  0  0  0  0
  2  3  1  0  0  0  0
  2 12  1  0  0  0  0
  3  4  1  0  0  0  0
  3 24  1  0  0  0  0
  4  5  1  0  0  0  0
  4 25  1  0  0  0  0
  4 26  1  0  0  0  0
  5  6  1  0  0  0  0
  5 27  1  0  0  0  0
  5 28  1  0  0  0  0
  6 11  1  0  0  0  0
  6  7  2  0  0  0  0
  7  8  1  0  0  0  0
  7 29  1  0  0  0  0
  8  9  2  0  0  0  0
  8 30  1  0  0  0  0
  9 10  1  0  0  0  0
  9 31  1  0  0  0  0
 10 11  2  0  0  0  0
 11 32  1  0  0  0  0
 12 23  1  0  0  0  0
 12 13  2  0  0  0  0
 13 14  1  0  0  0  0
 13 33  1  0  0  0  0
 14 21  1  0  0  0  0
 14 15  1  0  0  0  0
 15 16  1  0  0  0  0
 15 34  1  0  0  0  0
 15 35  1  0  0  0  0
 16 17  1  0  0  0  0
 16 36  1  0  0  0  0
 16 37  1  0  0  0  0
 17 18  2  0  0  0  0
 17 19  2  0  0  0  0
 17 20  1  0  0  0  0
 20 21  2  0  0  0  0
 21 22  1  0  0  0  0
 22 23  2  0  0  0  0
 22 38  1  0  0  0  0
 23 39  1  0  0  0  0
M  END
> <s_m_source_file>
AV-unprocessed.smi

> <i_m_source_file_index>
2164

> <i_lp_mmshare_version>
43012

> <i_f3d_flags>
0

> <s_epik_input>
W0NIMl0xW0NIMl1TKD1PKSg9TylOPUMoTjEyKVtDSF09W0NIXUMoPVtDSF0yKUMoPU8pW05IXVtDSDJdW0NIMl1jM1tjSF1bY0hdW2NIXW5bY0hdMw==

> <s_epik_cmdline>
J2VwaWtfcHl0aG9uJywgJy1waCcsICc3LjAnLCAnLXRuJywgJzgnLCAnLW1hJywgJzIwMCcsICctbWV0YWxfYmluZGluZycsICctaW1hZScsICc8aW5maWxlLm1hZT4nLCAnLW9tYWUnLCAnPG91dGZpbGUubWFlPic=

> <r_epik_Ionization_Penalty>
0.0095026

> <r_epik_Ionization_Penalty_Charging>
4.80604e-09

> <r_epik_Ionization_Penalty_Neutral>
0.00950259

> <r_epik_State_Penalty>
0.0071398

> <r_epik_Charging_Adjusted_Penalty>
0.0071398

> <i_epik_Tot_Q>
0

> <i_epik_Tot_abs_Q>
0

> <r_epik_Metal_State_Penalty>
0.0838865

> <b_epik_Metal_Only>
0

> <s_lp_Force_Field>
OPLS_2005

> <r_lp_Energy>
19.9083

> <b_lp_Chiralities_Consistent>
1

> <s_lp_Variant>
AV-unprocessed.smi:2164-1

> <Gold.Version>
5.8.1

> <Gold.Id.Protein>
6NUR|6NUR_protein|mol2

> <Gold.PLP.Fitness>
47.3873

> <Gold.PLP.PLP>
-36.3988

> <Gold.PLP.part.hbond>
-4.9609

> <Gold.PLP.part.metal>
0.0000

> <Gold.PLP.part.buried>
1.4197

> <Gold.PLP.part.nonpolar>
-33.7760

> <Gold.PLP.part.repulsive>
0.4610

> <Gold.PLP.ligand.clash>
0.0000

> <Gold.PLP.ligand.torsion>
1.5164

> <Gold.PLP.Chemscore.Hbond>
3.4367

> <Gold.PLP.Chemscore.CHOScore>
1.2358

> <Gold.PLP.Chemscore.Metal>
0.0000

> <Gold.Chemscore.Hbonds>
donor molecule, donor type, donor heavy atom, donor atom, acceptor molecule, acceptor atom, score
      L1  H     3    24       P1  7948  0.98
      P1  H  7989  7998       L1    20  1.00
      P1  H  7997  8008       L1    19  0.62
      P1  H  7997  8010       L1    18  0.71
      L1  C    11    32       P1 10186  0.88
      L1  C    13    33       P1  7948  0.34

> <Gold.PLP.Chemscore.Internal.Correction>
0.0038

> <Gold.Rescore>
     Score         DG    S(hbond)    S(metal)    S(lipo)     H(rot)  DE(clash)    DE(int)     intcor
     15.65     -18.49       2.04        0.00      85.19       1.47       1.28       1.56       ----

> <Gold.Chemscore.Fitness>
15.6487

> <Gold.Chemscore.DG>
-18.4898

> <Gold.Chemscore.ZeroCoef>
-5.4800

> <Gold.Chemscore.Hbond>
2.0359

> <Gold.Chemscore.Metal>
0.0000

> <Gold.Chemscore.Lipo>
85.1930

> <Gold.Chemscore.Internal_Hbond>
0.0000

> <Gold.Chemscore.DEClash>
1.2840

> <Gold.Chemscore.DEInternal>
1.5571

> <Gold.Chemscore.Rot>
1.4679

> <Gold.Chemscore.Internal.Correction>
   9.000000E+99

> <Gold.Chemscore.Hbonds>
donor molecule, donor type, donor heavy atom, donor atom, acceptor molecule, acceptor atom, score
      L1  H     3    24       P1  7948  0.92
      P1  H  7989  7998       L1    20  0.37
      P1  H  7997  8008       L1    19  0.56
      P1  H  7997  8010       L1    18  0.15

> <Gold.Chemscore.Hbond.Weighted>
-6.8000

> <Gold.Chemscore.Metal.Weighted>
-0.0000

> <Gold.Chemscore.Lipo.Weighted>
-9.9676

> <Gold.Chemscore.Internal_Hbond.Weighted>
0.0000

> <Gold.Chemscore.DEClash.Weighted>
1.2840

> <Gold.Chemscore.DEInternal.Weighted>
1.5571

> <Gold.Chemscore.Rot.Weighted>
3.7578

> <Gold.Chemscore.Internal.Correction.Weighted>
   9.000000E+99

> <Gold.Protein.RotatedTorsions>
[ 6907 6896 6895 6894 ] final   28.95 input  -60.11 | X-H torsion
[ 7974 7965 7964 7962 ] final  159.12 input  175.53 | X-H torsion
[ 8008 7997 7996 7995 ] final   41.29 input   59.86 | X-H torsion
[ 10167 10162 10161 10158 ] final  132.54 input  -65.29 | X-H torsion
[ 10718 10713 10712 10709 ] final   84.03 input   66.30 | X-H torsion
[ 10763 10752 10751 10750 ] final -104.12 input  -60.55 | X-H torsion
[ 11005 11000 10999 10996 ] final   54.26 input  -57.11 | X-H torsion

> <Gold.Protein.ActiveResidues>
 VAL166  LYS551  ARG553  GLY616  TRP617  ASP618  TYR619  PRO620  LYS621  CYS622 
 ASP623  PHE694  ASN695  SER759  ASP760  ASP761  ALA762  ILE779  LEU786  VAL792 
 PHE793  MET794  SER795  GLU796  ALA797  LYS798  CYS799  TRP800  GLU811  SER814 

> <Gold.Protein.RotatedAtoms>
  152.0244  134.9804  160.0571 H   0  0  0  0  0  0  0  0  0  0  0  0  # atno 6907 bound_to 6896
  152.1306  133.4400  159.4727 H   0  0  0  0  0  0  0  0  0  0  0  0  # atno 6908 bound_to 6896
  150.6856  134.2344  159.4490 H   0  0  0  0  0  0  0  0  0  0  0  0  # atno 6909 bound_to 6896
  144.7808  139.7572  143.6260 H   0  0  0  0  0  0  0  0  0  0  0  0  # atno 7974 bound_to 7965
  155.2671  140.3363  155.4268 H   0  0  0  0  0  0  0  0  0  0  0  0  # atno 8008 bound_to 7997
  156.2149  140.1785  156.7654 H   0  0  0  0  0  0  0  0  0  0  0  0  # atno 8009 bound_to 7997
  154.5739  140.0665  156.8990 H   0  0  0  0  0  0  0  0  0  0  0  0  # atno 8010 bound_to 7997
  139.5335  144.6657  151.4866 H   0  0  0  0  0  0  0  0  0  0  0  0  # atno 10167 bound_to 10162
  157.6890  131.0116  150.2612 H   0  0  0  0  0  0  0  0  0  0  0  0  # atno 10718 bound_to 10713
  154.7856  135.4798  153.9938 H   0  0  0  0  0  0  0  0  0  0  0  0  # atno 10763 bound_to 10752
  153.1555  135.6799  153.8826 H   0  0  0  0  0  0  0  0  0  0  0  0  # atno 10764 bound_to 10752
  153.8457  135.3173  155.3407 H   0  0  0  0  0  0  0  0  0  0  0  0  # atno 10765 bound_to 10752
  140.0700  134.5482  155.9056 H   0  0  0  0  0  0  0  0  0  0  0  0  # atno 11005 bound_to 11000
  146.2015  139.5312  142.9740 LP  0  0  0  0  0  0  0  0  0  0  0  0  # atno 17320 bound_to 7965
  145.6056  141.0348  143.1994 LP  0  0  0  0  0  0  0  0  0  0  0  0  # atno 17321 bound_to 7965
  140.6528  143.8661  150.6803 LP  0  0  0  0  0  0  0  0  0  0  0  0  # atno 17342 bound_to 10162
  140.2031  143.3943  152.1776 LP  0  0  0  0  0  0  0  0  0  0  0  0  # atno 17343 bound_to 10162
  156.3191  130.3783  149.7591 LP  0  0  0  0  0  0  0  0  0  0  0  0  # atno 17370 bound_to 10713
  156.5167  130.8196  151.3189 LP  0  0  0  0  0  0  0  0  0  0  0  0  # atno 17371 bound_to 10713
  141.2008  133.6615  156.5917 LP  0  0  0  0  0  0  0  0  0  0  0  0  # atno 17394 bound_to 11000
  140.3641  134.7662  157.4554 LP  0  0  0  0  0  0  0  0  0  0  0  0  # atno 17395 bound_to 11000

$$$$
