#       Name:                AV-unprocessed.smi:1983
#       Creating user name   scv26
#       Creation time:       Fri Mar 27 10:23:19 2020


#       File generated by GOLD software.
#

@<TRIPOS>MOLECULE
AV-unprocessed.smi:1983
    57    58     1
SMALL
NO_CHARGES


@<TRIPOS>ATOM
      1 ****        -5.2888   0.9951   4.8071 C.3            1 S1                 0.0000
      2 ****        -4.1827   1.4470   3.8414 C.3            1 S1                 0.0000
      3 ****        -4.7110   1.6668   2.4099 C.3            1 S1                 0.0000
      4 ****        -5.5403   2.8082   2.3610 O.3            1 S1                 0.0000
      5 ****        -3.1131   0.4522   3.8448 N.am           1 S1                 0.0000
      6 ****        -1.8335   0.6867   3.5216 C.2            1 S1                 0.0000
      7 ****        -1.4009   1.7786   3.1525 O.2            1 S1                 0.0000
      8 ****        -1.0797  -0.4149   3.6432 N.am           1 S1                 0.0000
      9 ****         0.3571  -0.4737   3.3900 C.3            1 S1                 0.0000
     10 ****         0.7551  -0.5152   1.9193 C.ar           1 S1                 0.0000
     11 ****        -0.1255  -0.9652   0.9095 C.ar           1 S1                 0.0000
     12 ****         0.3066  -0.9927  -0.4327 C.ar           1 S1                 0.0000
     13 ****         1.6226  -0.5788  -0.7603 C.ar           1 S1                 0.0000
     14 ****         2.1441  -0.5719  -2.0727 N.3            1 S1                 0.0000
     15 ****         1.2456  -0.9050  -3.1727 C.3            1 S1                 0.0000
     16 ****         1.8687  -0.5028  -4.5212 C.3            1 S1                 0.0000
     17 ****         1.0171  -0.9700  -5.7063 C.3            1 S1                 0.0000
     18 ****         3.1609  -1.0936  -4.6461 O.3            1 S1                 0.0000
     19 ****         4.0811  -0.7415  -3.6115 C.3            1 S1                 0.0000
     20 ****         4.5456   0.7224  -3.7148 C.3            1 S1                 0.0000
     21 ****         3.4966  -1.1038  -2.2326 C.3            1 S1                 0.0000
     22 ****         2.4277  -0.1594   0.2461 N.pl3          1 S1                 1.0000
     23 ****         2.0525  -0.1141   1.5425 C.ar           1 S1                 0.0000
     24 ****        -6.0855   1.7368   4.8702 H              1 S1                 0.0000
     25 ****        -4.8964   0.8520   5.8145 H              1 S1                 0.0000
     26 ****        -5.7366   0.0536   4.4871 H              1 S1                 0.0000
     27 ****        -3.7723   2.3874   4.2154 H              1 S1                 0.0000
     28 ****        -3.8878   1.8295   1.7137 H              1 S1                 0.0000
     29 ****        -5.2638   0.7959   2.0562 H              1 S1                 0.0000
     30 ****        -5.8238   2.9366   1.4687 H              1 S1                 0.0000
     31 ****        -3.3669  -0.4812   4.1340 H              1 S1                 0.0000
     32 ****        -1.5243  -1.2656   3.9566 H              1 S1                 0.0000
     33 ****         0.8466   0.3728   3.8752 H              1 S1                 0.0000
     34 ****         0.7473  -1.3700   3.8724 H              1 S1                 0.0000
     35 ****        -1.1259  -1.2929   1.1505 H              1 S1                 0.0000
     36 ****        -0.3815  -1.3457  -1.1858 H              1 S1                 0.0000
     37 ****         1.0396  -1.9762  -3.1538 H              1 S1                 0.0000
     38 ****         0.2952  -0.3832  -3.0571 H              1 S1                 0.0000
     39 ****         1.9535   0.5827  -4.5760 H              1 S1                 0.0000
     40 ****         0.0175  -0.5361  -5.6676 H              1 S1                 0.0000
     41 ****         0.9114  -2.0554  -5.7139 H              1 S1                 0.0000
     42 ****         1.4710  -0.6735  -6.6522 H              1 S1                 0.0000
     43 ****         4.9641  -1.3616  -3.7687 H              1 S1                 0.0000
     44 ****         5.3496   0.9222  -3.0060 H              1 S1                 0.0000
     45 ****         3.7443   1.4290  -3.4999 H              1 S1                 0.0000
     46 ****         4.9261   0.9396  -4.7131 H              1 S1                 0.0000
     47 ****         4.1708  -0.7455  -1.4547 H              1 S1                 0.0000
     48 ****         3.4479  -2.1887  -2.1304 H              1 S1                 0.0000
     49 ****         2.8005   0.2414   2.2363 H              1 S1                 0.0000
     50 ****         3.3733   0.1429   0.0109 H              1 S1                 0.0000
     51 ****        -5.0289   3.6098   2.6707 LP             1 S1                 0.0000
     52 ****        -6.3361   2.6720   2.9511 LP             1 S1                 0.0000
     53 ****        -2.0182   2.5618   3.0784 LP             1 S1                 0.0000
     54 ****        -0.4322   1.8822   2.9268 LP             1 S1                 0.0000
     55 ****         2.2437   0.4171  -2.1819 LP             1 S1                 0.0000
     56 ****         3.5512  -0.8068  -5.5210 LP             1 S1                 0.0000
     57 ****         3.0508  -2.0875  -4.6400 LP             1 S1                 0.0000
@<TRIPOS>BOND
    1    1    2 1     
    2    1   24 1     
    3    1   25 1     
    4    1   26 1     
    5    2    3 1     
    6    2    5 1     
    7    2   27 1     
    8    3    4 1     
    9    3   28 1     
   10    3   29 1     
   11    4   30 1     
   12    5    6 am    
   13    5   31 1     
   14    6    7 2     
   15    6    8 am    
   16    8    9 1     
   17    8   32 1     
   18    9   10 1     
   19    9   33 1     
   20    9   34 1     
   21   10   23 ar    
   22   10   11 ar    
   23   11   12 ar    
   24   11   35 1     
   25   12   13 ar    
   26   12   36 1     
   27   13   14 1     
   28   13   22 ar    
   29   14   21 1     
   30   14   15 1     
   31   15   16 1     
   32   15   37 1     
   33   15   38 1     
   34   16   17 1     
   35   16   18 1     
   36   16   39 1     
   37   17   40 1     
   38   17   41 1     
   39   17   42 1     
   40   18   19 1     
   41   19   20 1     
   42   19   21 1     
   43   19   43 1     
   44   20   44 1     
   45   20   45 1     
   46   20   46 1     
   47   21   47 1     
   48   21   48 1     
   49   22   23 ar    
   50   22   50 1     
   51   23   49 1     
   52    4   51 1     
   53    4   52 1     
   54    7   53 1     
   55    7   54 1     
   56   14   55 1     
   57   18   56 1     
   58   18   57 1     
@<TRIPOS>SUBSTRUCTURE
      1 S1             1
@<TRIPOS>SET
LONE_PAIRS      STATIC     ATOMS    <user>   **** ""
7 51 52 53 54 55 56 57
DONOR_HYDROGENS      STATIC     ATOMS    <user>   **** ""
4 30 31 32 50
ATOM$BLUE        STATIC     ATOMS    COLORGROUP SYSTEM
7 51 52 53 54 55 56 57
ATOM$RED        STATIC     ATOMS    COLORGROUP SYSTEM
4 30 31 32 50
