AV-unprocessed.smi:2966|AV-procd|sdf|11325|dock6
  -GOLD-   2272016233D 1   1.00000     0.00000
 Structure written by MMmdl.
 41 43  0  0  0  0  0  0  0  0  2 V2000
  153.5439  137.7563  156.7688 C   0  0  0  0  0  0  0  0  0  0  0  0
  153.3650  138.7992  155.8273 O   0  0  0  0  0  0  0  0  0  0  0  0
  152.0132  139.2169  155.7282 C   0  0  0  0  0  0  0  0  0  0  0  0
  151.5253  139.7370  157.0871 C   0  0  0  0  0  0  0  0  0  0  0  0
  151.3001  141.1897  157.0802 N   0  0  0  0  0  0  0  0  0  0  0  0
  150.5616  141.9602  156.2351 C   0  0  0  0  0  0  0  0  0  0  0  0
  149.6403  141.3964  154.8426 S   0  0  0  0  0  0  0  0  0  0  0  0
  147.9098  141.5080  155.3771 C   0  0  0  0  0  0  0  0  0  0  0  0
  146.9831  141.9772  154.2567 C   0  0  0  0  0  0  0  0  0  0  0  0
  146.7875  141.2549  153.2796 O   0  0  0  0  0  0  0  0  0  0  0  0
  146.4033  143.1746  154.4261 N   0  0  0  0  0  0  0  0  0  0  0  0
  145.4697  143.7774  153.5317 C   0  0  0  0  0  0  0  0  0  0  0  0
  145.0601  145.2084  153.8039 C   0  0  0  0  0  0  0  0  0  0  0  0
  144.0889  144.0906  154.0661 C   0  0  0  0  0  0  0  0  0  0  0  0
  150.6835  143.2547  156.6360 N   0  3  0  0  0  0  0  0  0  0  0  0
  151.5036  143.3150  157.7639 C   0  0  0  0  0  0  0  0  0  0  0  0
  151.9165  144.3996  158.5316 C   0  0  0  0  0  0  0  0  0  0  0  0
  152.7584  144.1157  159.6269 C   0  0  0  0  0  0  0  0  0  0  0  0
  153.1576  142.7965  159.9239 C   0  0  0  0  0  0  0  0  0  0  0  0
  152.7341  141.7046  159.1379 C   0  0  0  0  0  0  0  0  0  0  0  0
  151.9025  141.9928  158.0559 C   0  0  0  0  0  0  0  0  0  0  0  0
  154.5964  137.4760  156.8093 H   0  0  0  0  0  0  0  0  0  0  0  0
  152.9696  136.8716  156.4911 H   0  0  0  0  0  0  0  0  0  0  0  0
  153.2412  138.0712  157.7683 H   0  0  0  0  0  0  0  0  0  0  0  0
  151.9189  140.0032  154.9778 H   0  0  0  0  0  0  0  0  0  0  0  0
  151.3883  138.3821  155.4062 H   0  0  0  0  0  0  0  0  0  0  0  0
  150.6107  139.2314  157.3969 H   0  0  0  0  0  0  0  0  0  0  0  0
  152.2673  139.5207  157.8554 H   0  0  0  0  0  0  0  0  0  0  0  0
  147.5830  140.5325  155.7384 H   0  0  0  0  0  0  0  0  0  0  0  0
  147.8454  142.1987  156.2187 H   0  0  0  0  0  0  0  0  0  0  0  0
  146.6272  143.6922  155.2638 H   0  0  0  0  0  0  0  0  0  0  0  0
  145.5230  143.4887  152.4827 H   0  0  0  0  0  0  0  0  0  0  0  0
  145.4950  145.7077  154.6677 H   0  0  0  0  0  0  0  0  0  0  0  0
  144.8693  145.8479  152.9444 H   0  0  0  0  0  0  0  0  0  0  0  0
  143.2503  143.9814  153.3813 H   0  0  0  0  0  0  0  0  0  0  0  0
  143.8755  143.8463  155.1052 H   0  0  0  0  0  0  0  0  0  0  0  0
  151.6112  145.4112  158.3072 H   0  0  0  0  0  0  0  0  0  0  0  0
  153.1039  144.9259  160.2527 H   0  0  0  0  0  0  0  0  0  0  0  0
  153.8014  142.6171  160.7728 H   0  0  0  0  0  0  0  0  0  0  0  0
  153.0420  140.6979  159.3781 H   0  0  0  0  0  0  0  0  0  0  0  0
  150.2379  144.0355  156.1721 H   0  0  0  0  0  0  0  0  0  0  0  0
  1  2  1  0  0  0  0
  1 22  1  0  0  0  0
  1 23  1  0  0  0  0
  1 24  1  0  0  0  0
  2  3  1  0  0  0  0
  3  4  1  0  0  0  0
  3 25  1  0  0  0  0
  3 26  1  0  0  0  0
  4  5  1  0  0  0  0
  4 27  1  0  0  0  0
  4 28  1  0  0  0  0
  5 21  1  0  0  0  0
  5  6  1  0  0  0  0
  6  7  1  0  0  0  0
  6 15  2  0  0  0  0
  7  8  1  0  0  0  0
  8  9  1  0  0  0  0
  8 29  1  0  0  0  0
  8 30  1  0  0  0  0
  9 10  2  0  0  0  0
  9 11  1  0  0  0  0
 11 12  1  0  0  0  0
 11 31  1  0  0  0  0
 12 14  1  0  0  0  0
 12 13  1  0  0  0  0
 12 32  1  0  0  0  0
 13 14  1  0  0  0  0
 13 33  1  0  0  0  0
 13 34  1  0  0  0  0
 14 35  1  0  0  0  0
 14 36  1  0  0  0  0
 15 16  1  0  0  0  0
 15 41  1  0  0  0  0
 16 21  2  0  0  0  0
 16 17  1  0  0  0  0
 17 18  2  0  0  0  0
 17 37  1  0  0  0  0
 18 19  1  0  0  0  0
 18 38  1  0  0  0  0
 19 20  2  0  0  0  0
 19 39  1  0  0  0  0
 20 21  1  0  0  0  0
 20 40  1  0  0  0  0
M  CHG  1  15   1
M  END
> <s_m_source_file>
AV-unprocessed.smi

> <i_m_source_file_index>
2966

> <i_lp_mmshare_version>
43012

> <i_f3d_flags>
0

> <s_epik_input>
W2NIXTFbY0hdW2NIXVtjSF1jKGMxMiluKFtDSDJdW0NIMl1PW0NIM10pYyhuMilTW0NIMl1DKD1PKVtOSF1bQ0hdM1tDSDJdW0NIMl0z

> <s_epik_cmdline>
J2VwaWtfcHl0aG9uJywgJy1waCcsICc3LjAnLCAnLXRuJywgJzgnLCAnLW1hJywgJzIwMCcsICctbWV0YWxfYmluZGluZycsICctaW1hZScsICc8aW5maWxlLm1hZT4nLCAnLW9tYWUnLCAnPG91dGZpbGUubWFlPic=

> <r_epik_Ionization_Penalty>
1.66257

> <r_epik_Ionization_Penalty_Charging>
1.66257

> <r_epik_Ionization_Penalty_Neutral>
8.69326e-08

> <r_epik_State_Penalty>
1.76557

> <r_epik_Charging_Adjusted_Penalty>
3.42813

> <i_epik_Tot_Q>
1

> <i_epik_Tot_abs_Q>
1

> <r_epik_Metal_State_Penalty>
1.80073

> <b_epik_Metal_Only>
0

> <s_lp_Force_Field>
OPLS_2005

> <r_lp_Energy>
20.3811

> <b_lp_Chiralities_Consistent>
1

> <s_lp_Variant>
AV-unprocessed.smi:2966-2

> <Gold.Version>
5.8.1

> <Gold.Id.Protein>
6NUR|6NUR_protein|mol2

> <Gold.PLP.Fitness>
50.3928

> <Gold.PLP.PLP>
-43.2107

> <Gold.PLP.part.hbond>
-2.6666

> <Gold.PLP.part.metal>
0.0000

> <Gold.PLP.part.buried>
-2.6309

> <Gold.PLP.part.nonpolar>
-37.1146

> <Gold.PLP.part.repulsive>
0.3850

> <Gold.PLP.ligand.clash>
0.0000

> <Gold.PLP.ligand.torsion>
0.9186

> <Gold.PLP.Chemscore.Hbond>
2.9760

> <Gold.PLP.Chemscore.CHOScore>
0.0000

> <Gold.PLP.Chemscore.Metal>
0.0000

> <Gold.Chemscore.Hbonds>
donor molecule, donor type, donor heavy atom, donor atom, acceptor molecule, acceptor atom, score
      L1  H    15    41       P1  8028  1.98
      P1  H  7997  8008       L1     2  0.99

> <Gold.PLP.Chemscore.Internal.Correction>
0.0914

> <Gold.Rescore>
     Score         DG    S(hbond)    S(metal)    S(lipo)     H(rot)  DE(clash)    DE(int)     intcor
     16.13     -18.69       1.54        0.00     117.39       2.21       1.60       0.95       ----

> <Gold.Chemscore.Fitness>
16.1321

> <Gold.Chemscore.DG>
-18.6851

> <Gold.Chemscore.ZeroCoef>
-5.4800

> <Gold.Chemscore.Hbond>
1.5389

> <Gold.Chemscore.Metal>
0.0000

> <Gold.Chemscore.Lipo>
117.3949

> <Gold.Chemscore.Internal_Hbond>
0.0000

> <Gold.Chemscore.DEClash>
1.6047

> <Gold.Chemscore.DEInternal>
0.9483

> <Gold.Chemscore.Rot>
2.2149

> <Gold.Chemscore.Internal.Correction>
   9.000000E+99

> <Gold.Chemscore.Hbonds>
donor molecule, donor type, donor heavy atom, donor atom, acceptor molecule, acceptor atom, score
      L1  H    15    41       P1  8028  0.92
      P1  H  7997  8008       L1     2  0.54

> <Gold.Chemscore.Hbond.Weighted>
-5.1399

> <Gold.Chemscore.Metal.Weighted>
-0.0000

> <Gold.Chemscore.Lipo.Weighted>
-13.7352

> <Gold.Chemscore.Internal_Hbond.Weighted>
0.0000

> <Gold.Chemscore.DEClash.Weighted>
1.6047

> <Gold.Chemscore.DEInternal.Weighted>
0.9483

> <Gold.Chemscore.Rot.Weighted>
5.6700

> <Gold.Chemscore.Internal.Correction.Weighted>
   9.000000E+99

> <Gold.Protein.RotatedTorsions>
[ 6907 6896 6895 6894 ] final -161.76 input  -60.11 | X-H torsion
[ 7974 7965 7964 7962 ] final -132.47 input  175.53 | X-H torsion
[ 8008 7997 7996 7995 ] final  -36.18 input   59.86 | X-H torsion
[ 10167 10162 10161 10158 ] final   -1.61 input  -65.29 | X-H torsion
[ 10718 10713 10712 10709 ] final   40.56 input   66.30 | X-H torsion
[ 10763 10752 10751 10750 ] final  142.88 input  -60.55 | X-H torsion
[ 11005 11000 10999 10996 ] final  102.29 input  -57.11 | X-H torsion

> <Gold.Protein.ActiveResidues>
 VAL166  LYS551  ARG553  GLY616  TRP617  ASP618  TYR619  PRO620  LYS621  CYS622 
 ASP623  PHE694  ASN695  SER759  ASP760  ASP761  ALA762  ILE779  LEU786  VAL792 
 PHE793  MET794  SER795  GLU796  ALA797  LYS798  CYS799  TRP800  GLU811  SER814 

> <Gold.Protein.RotatedAtoms>
  151.3697  133.3859  159.2698 H   0  0  0  0  0  0  0  0  0  0  0  0  # atno 6907 bound_to 6896
  150.9661  134.9042  159.7770 H   0  0  0  0  0  0  0  0  0  0  0  0  # atno 6908 bound_to 6896
  152.5167  134.3657  159.9353 H   0  0  0  0  0  0  0  0  0  0  0  0  # atno 6909 bound_to 6896
  144.9283  140.7097  143.4922 H   0  0  0  0  0  0  0  0  0  0  0  0  # atno 7974 bound_to 7965
  154.4078  140.1637  156.2332 H   0  0  0  0  0  0  0  0  0  0  0  0  # atno 8008 bound_to 7997
  155.9264  140.3417  155.6191 H   0  0  0  0  0  0  0  0  0  0  0  0  # atno 8009 bound_to 7997
  155.7159  140.0762  157.2342 H   0  0  0  0  0  0  0  0  0  0  0  0  # atno 8010 bound_to 7997
  140.6817  143.6755  150.8149 H   0  0  0  0  0  0  0  0  0  0  0  0  # atno 10167 bound_to 10162
  157.3836  130.7767  149.7212 H   0  0  0  0  0  0  0  0  0  0  0  0  # atno 10718 bound_to 10713
  153.9631  135.2958  155.3432 H   0  0  0  0  0  0  0  0  0  0  0  0  # atno 10763 bound_to 10752
  154.7364  135.5045  153.9051 H   0  0  0  0  0  0  0  0  0  0  0  0  # atno 10764 bound_to 10752
  153.0936  135.6715  153.9916 H   0  0  0  0  0  0  0  0  0  0  0  0  # atno 10765 bound_to 10752
  139.8777  134.9218  156.5036 H   0  0  0  0  0  0  0  0  0  0  0  0  # atno 11005 bound_to 11000
  145.3184  139.1796  143.4601 LP  0  0  0  0  0  0  0  0  0  0  0  0  # atno 17320 bound_to 7965
  146.3236  140.3198  142.8632 LP  0  0  0  0  0  0  0  0  0  0  0  0  # atno 17321 bound_to 7965
  140.0456  143.5301  152.2697 LP  0  0  0  0  0  0  0  0  0  0  0  0  # atno 17342 bound_to 10162
  139.6145  144.7616  151.2878 LP  0  0  0  0  0  0  0  0  0  0  0  0  # atno 17343 bound_to 10162
  155.9781  130.4055  150.3668 LP  0  0  0  0  0  0  0  0  0  0  0  0  # atno 17370 bound_to 10713
  157.1775  131.0384  151.2765 LP  0  0  0  0  0  0  0  0  0  0  0  0  # atno 17371 bound_to 10713
  140.8571  133.8087  155.9227 LP  0  0  0  0  0  0  0  0  0  0  0  0  # atno 17394 bound_to 11000
  140.9086  134.2289  157.4999 LP  0  0  0  0  0  0  0  0  0  0  0  0  # atno 17395 bound_to 11000

$$$$
