AV-unprocessed.smi:1601|AV-procd|sdf|6434|dock9
  -GOLD-   22720 7 83D 1   1.00000     0.00000
 Structure written by MMmdl.
 41 42  0  0  0  0  0  0  0  0  1 V2000
  150.2001  140.5979  158.0838 C   0  0  0  0  0  0  0  0  0  0  0  0
  151.3635  141.4797  157.5618 C   0  0  1  0  0  0  0  0  0  0  0  0
  150.7667  142.6444  156.7247 C   0  0  0  0  0  0  0  0  0  0  0  0
  149.7362  142.1850  155.7989 N   0  0  0  0  0  0  0  0  0  0  0  0
  149.8499  141.1390  154.9665 C   0  0  0  0  0  0  0  0  0  0  0  0
  150.8578  140.4342  154.9007 O   0  0  0  0  0  0  0  0  0  0  0  0
  148.6305  140.8462  154.0792 C   0  0  1  0  0  0  0  0  0  0  0  0
  148.2462  139.3553  154.0744 C   0  0  0  0  0  0  0  0  0  0  0  0
  147.5034  141.6778  154.4801 N   0  0  0  0  0  0  0  0  0  0  0  0
  146.8108  142.6161  153.7390 C   0  0  0  0  0  0  0  0  0  0  0  0
  145.8347  143.1326  154.5419 C   0  0  0  0  0  0  0  0  0  0  0  0
  146.0091  142.4409  155.7727 C   0  0  0  0  0  0  0  0  0  0  0  0
  147.0066  141.5724  155.7328 N   0  0  0  0  0  0  0  0  0  0  0  0
  152.2645  141.9361  158.6456 N   0  0  0  0  0  0  0  0  0  0  0  0
  152.7336  140.8364  159.4971 C   0  0  0  0  0  0  0  0  0  0  0  0
  153.6444  141.3137  160.6419 C   0  0  0  0  0  0  0  0  0  0  0  0
  152.9637  142.2839  161.4254 O   0  0  0  0  0  0  0  0  0  0  0  0
  152.5610  143.4055  160.6522 C   0  0  0  0  0  0  0  0  0  0  0  0
  151.6388  142.9421  159.5117 C   0  0  0  0  0  0  0  0  0  0  0  0
  149.5014  140.3167  157.2968 H   0  0  0  0  0  0  0  0  0  0  0  0
  149.6300  141.1164  158.8554 H   0  0  0  0  0  0  0  0  0  0  0  0
  150.5514  139.6548  158.4998 H   0  0  0  0  0  0  0  0  0  0  0  0
  151.9486  140.8636  156.8771 H   0  0  0  0  0  0  0  0  0  0  0  0
  150.3767  143.4128  157.3946 H   0  0  0  0  0  0  0  0  0  0  0  0
  151.5189  143.1215  156.0992 H   0  0  0  0  0  0  0  0  0  0  0  0
  148.8698  142.7036  155.7898 H   0  0  0  0  0  0  0  0  0  0  0  0
  148.9008  141.1123  153.0550 H   0  0  0  0  0  0  0  0  0  0  0  0
  149.0854  138.7329  153.7612 H   0  0  0  0  0  0  0  0  0  0  0  0
  147.4252  139.1695  153.3814 H   0  0  0  0  0  0  0  0  0  0  0  0
  147.9280  139.0137  155.0600 H   0  0  0  0  0  0  0  0  0  0  0  0
  147.0676  142.8335  152.7124 H   0  0  0  0  0  0  0  0  0  0  0  0
  145.1071  143.8891  154.2883 H   0  0  0  0  0  0  0  0  0  0  0  0
  145.4436  142.5428  156.6872 H   0  0  0  0  0  0  0  0  0  0  0  0
  151.8794  140.3002  159.9138 H   0  0  0  0  0  0  0  0  0  0  0  0
  153.3084  140.1169  158.9178 H   0  0  0  0  0  0  0  0  0  0  0  0
  153.9227  140.4743  161.2792 H   0  0  0  0  0  0  0  0  0  0  0  0
  154.5698  141.7369  160.2480 H   0  0  0  0  0  0  0  0  0  0  0  0
  152.0398  144.1136  161.2968 H   0  0  0  0  0  0  0  0  0  0  0  0
  153.4381  143.9193  160.2555 H   0  0  0  0  0  0  0  0  0  0  0  0
  151.3710  143.8285  158.9397 H   0  0  0  0  0  0  0  0  0  0  0  0
  150.7140  142.5445  159.9329 H   0  0  0  0  0  0  0  0  0  0  0  0
  1  2  1  0  0  0  0
  1 20  1  0  0  0  0
  1 21  1  0  0  0  0
  1 22  1  0  0  0  0
  2  3  1  0  0  0  0
  2 14  1  0  0  0  0
  2 23  1  0  0  0  0
  3  4  1  0  0  0  0
  3 24  1  0  0  0  0
  3 25  1  0  0  0  0
  4  5  1  0  0  0  0
  4 26  1  0  0  0  0
  5  6  2  0  0  0  0
  5  7  1  0  0  0  0
  7  8  1  0  0  0  0
  7  9  1  0  0  0  0
  7 27  1  0  0  0  0
  8 28  1  0  0  0  0
  8 29  1  0  0  0  0
  8 30  1  0  0  0  0
  9 13  1  0  0  0  0
  9 10  1  0  0  0  0
 10 11  2  0  0  0  0
 10 31  1  0  0  0  0
 11 12  1  0  0  0  0
 11 32  1  0  0  0  0
 12 13  2  0  0  0  0
 12 33  1  0  0  0  0
 14 19  1  0  0  0  0
 14 15  1  0  0  0  0
 15 16  1  0  0  0  0
 15 34  1  0  0  0  0
 15 35  1  0  0  0  0
 16 17  1  0  0  0  0
 16 36  1  0  0  0  0
 16 37  1  0  0  0  0
 17 18  1  0  0  0  0
 18 19  1  0  0  0  0
 18 38  1  0  0  0  0
 18 39  1  0  0  0  0
 19 40  1  0  0  0  0
 19 41  1  0  0  0  0
M  END
> <s_m_source_file>
AV-unprocessed.smi

> <i_m_source_file_index>
1601

> <i_lp_mmshare_version>
43012

> <i_f3d_flags>
0

> <s_epik_input>
W0NIMl0xW0NIMl1PW0NIMl1bQ0gyXU4xW0NASF0oW0NIM10pW0NIMl1bTkhdQyg9TylbQ0BIXShbQ0gzXSluMltjSF1bY0hdW2NIXW4y

> <s_epik_cmdline>
J2VwaWtfcHl0aG9uJywgJy1waCcsICc3LjAnLCAnLXRuJywgJzgnLCAnLW1hJywgJzIwMCcsICctbWV0YWxfYmluZGluZycsICctaW1hZScsICc8aW5maWxlLm1hZT4nLCAnLW9tYWUnLCAnPG91dGZpbGUubWFlPic=

> <r_lp_tautomer_probability>
1

> <r_epik_Ionization_Penalty>
0.203323

> <r_epik_Ionization_Penalty_Charging>
0

> <r_epik_Ionization_Penalty_Neutral>
0.203323

> <r_epik_State_Penalty>
0.193192

> <r_epik_Charging_Adjusted_Penalty>
0.193192

> <i_epik_Tot_Q>
0

> <i_epik_Tot_abs_Q>
0

> <r_epik_Metal_State_Penalty>
0.193187

> <b_epik_Metal_Only>
0

> <s_lp_Force_Field>
OPLS_2005

> <r_lp_Energy>
33.1122

> <b_lp_Chiralities_Consistent>
1

> <s_lp_Variant>
AV-unprocessed.smi:1601-4

> <Gold.Version>
5.8.1

> <Gold.Id.Protein>
6NUR|6NUR_protein|mol2

> <Gold.PLP.Fitness>
42.4956

> <Gold.PLP.PLP>
-38.8154

> <Gold.PLP.part.hbond>
-2.0000

> <Gold.PLP.part.metal>
0.0000

> <Gold.PLP.part.buried>
-4.9391

> <Gold.PLP.part.nonpolar>
-31.2502

> <Gold.PLP.part.repulsive>
0.3282

> <Gold.PLP.ligand.clash>
0.0000

> <Gold.PLP.ligand.torsion>
0.4525

> <Gold.PLP.Chemscore.Hbond>
1.4960

> <Gold.PLP.Chemscore.CHOScore>
0.0000

> <Gold.PLP.Chemscore.Metal>
0.0000

> <Gold.Chemscore.Hbonds>
donor molecule, donor type, donor heavy atom, donor atom, acceptor molecule, acceptor atom, score
      L1  H     4    26       P1  8028  0.42
      P1  H  7989  7998       L1     6  1.00

> <Gold.PLP.Chemscore.Internal.Correction>
0.0971

> <Gold.Rescore>
     Score         DG    S(hbond)    S(metal)    S(lipo)     H(rot)  DE(clash)    DE(int)     intcor
     12.08     -15.32       1.29        0.00      86.49       1.79       0.34       2.90       ----

> <Gold.Chemscore.Fitness>
12.0840

> <Gold.Chemscore.DG>
-15.3233

> <Gold.Chemscore.ZeroCoef>
-5.4800

> <Gold.Chemscore.Hbond>
1.2873

> <Gold.Chemscore.Metal>
0.0000

> <Gold.Chemscore.Lipo>
86.4854

> <Gold.Chemscore.Internal_Hbond>
0.0000

> <Gold.Chemscore.DEClash>
0.3403

> <Gold.Chemscore.DEInternal>
2.8990

> <Gold.Chemscore.Rot>
1.7872

> <Gold.Chemscore.Internal.Correction>
   9.000000E+99

> <Gold.Chemscore.Hbonds>
donor molecule, donor type, donor heavy atom, donor atom, acceptor molecule, acceptor atom, score
      L1  H     4    26       P1  8028  0.40
      P1  H  7989  7998       L1     6  0.54

> <Gold.Chemscore.Hbond.Weighted>
-4.2997

> <Gold.Chemscore.Metal.Weighted>
-0.0000

> <Gold.Chemscore.Lipo.Weighted>
-10.1188

> <Gold.Chemscore.Internal_Hbond.Weighted>
0.0000

> <Gold.Chemscore.DEClash.Weighted>
0.3403

> <Gold.Chemscore.DEInternal.Weighted>
2.8990

> <Gold.Chemscore.Rot.Weighted>
4.5752

> <Gold.Chemscore.Internal.Correction.Weighted>
   9.000000E+99

> <Gold.Protein.RotatedTorsions>
[ 6907 6896 6895 6894 ] final  114.39 input  -60.11 | X-H torsion
[ 7974 7965 7964 7962 ] final   62.03 input  175.53 | X-H torsion
[ 8008 7997 7996 7995 ] final  -13.54 input   59.86 | X-H torsion
[ 10167 10162 10161 10158 ] final  168.91 input  -65.29 | X-H torsion
[ 10718 10713 10712 10709 ] final    1.51 input   66.30 | X-H torsion
[ 10763 10752 10751 10750 ] final   70.02 input  -60.55 | X-H torsion
[ 11005 11000 10999 10996 ] final   91.79 input  -57.11 | X-H torsion

> <Gold.Protein.ActiveResidues>
 VAL166  LYS551  ARG553  GLY616  TRP617  ASP618  TYR619  PRO620  LYS621  CYS622 
 ASP623  PHE694  ASN695  SER759  ASP760  ASP761  ALA762  ILE779  LEU786  VAL792 
 PHE793  MET794  SER795  GLU796  ALA797  LYS798  CYS799  TRP800  GLU811  SER814 

> <Gold.Protein.RotatedAtoms>
  152.4805  133.8242  159.7069 H   0  0  0  0  0  0  0  0  0  0  0  0  # atno 6907 bound_to 6896
  150.8851  133.7309  159.2927 H   0  0  0  0  0  0  0  0  0  0  0  0  # atno 6908 bound_to 6896
  151.4800  135.1055  159.9827 H   0  0  0  0  0  0  0  0  0  0  0  0  # atno 6909 bound_to 6896
  145.8780  139.3423  143.0723 H   0  0  0  0  0  0  0  0  0  0  0  0  # atno 7974 bound_to 7965
  154.5284  140.2247  155.8849 H   0  0  0  0  0  0  0  0  0  0  0  0  # atno 8008 bound_to 7997
  156.1737  140.3116  155.8985 H   0  0  0  0  0  0  0  0  0  0  0  0  # atno 8009 bound_to 7997
  155.3503  140.0455  157.3036 H   0  0  0  0  0  0  0  0  0  0  0  0  # atno 8010 bound_to 7997
  139.4979  144.3764  151.9670 H   0  0  0  0  0  0  0  0  0  0  0  0  # atno 10167 bound_to 10162
  156.8492  130.5548  149.5671 H   0  0  0  0  0  0  0  0  0  0  0  0  # atno 10718 bound_to 10713
  153.0319  135.5189  154.7378 H   0  0  0  0  0  0  0  0  0  0  0  0  # atno 10763 bound_to 10752
  154.6386  135.2909  155.0132 H   0  0  0  0  0  0  0  0  0  0  0  0  # atno 10764 bound_to 10752
  154.1058  135.6629  153.4929 H   0  0  0  0  0  0  0  0  0  0  0  0  # atno 10765 bound_to 10752
  139.8833  134.8695  156.3479 H   0  0  0  0  0  0  0  0  0  0  0  0  # atno 11005 bound_to 11000
  145.9057  140.9213  143.0480 LP  0  0  0  0  0  0  0  0  0  0  0  0  # atno 17320 bound_to 7965
  144.6726  140.1093  143.7456 LP  0  0  0  0  0  0  0  0  0  0  0  0  # atno 17321 bound_to 7965
  140.3200  144.3439  150.6012 LP  0  0  0  0  0  0  0  0  0  0  0  0  # atno 17342 bound_to 10162
  140.5730  143.2179  151.7565 LP  0  0  0  0  0  0  0  0  0  0  0  0  # atno 17343 bound_to 10162
  156.0837  130.5841  150.9610 LP  0  0  0  0  0  0  0  0  0  0  0  0  # atno 17370 bound_to 10713
  157.6313  131.0921  150.8436 LP  0  0  0  0  0  0  0  0  0  0  0  0  # atno 17371 bound_to 10713
  140.9614  133.7386  156.0406 LP  0  0  0  0  0  0  0  0  0  0  0  0  # atno 17394 bound_to 11000
  140.7985  134.3536  157.5446 LP  0  0  0  0  0  0  0  0  0  0  0  0  # atno 17395 bound_to 11000

$$$$
