#       Name:                AV-unprocessed.smi:2997
#       Creating user name   scv26
#       Creation time:       Fri Mar 27 16:33:37 2020


#       File generated by GOLD software.
#

@<TRIPOS>MOLECULE
AV-unprocessed.smi:2997
    42    44     1
SMALL
NO_CHARGES


@<TRIPOS>ATOM
      1 ****        -2.5915   4.0463  -2.5537 C.3            1 S1                 0.0000
      2 ****        -2.2219   2.9111  -1.6153 C.ar           1 S1                 0.0000
      3 ****        -2.4327   3.0712  -0.2271 C.ar           1 S1                 0.0000
      4 ****        -2.1032   2.0396   0.6790 C.ar           1 S1                 0.0000
      5 ****        -2.2253   1.9807   2.0568 N.2            1 S1                 0.0000
      6 ****        -1.7516   0.7651   2.3155 C.2            1 S1                 0.0000
      7 ****        -1.3365   0.0287   1.2667 N.pl3          1 S1                 0.0000
      8 ****        -0.7855  -1.3142   1.2990 C.3            1 S1                 0.0000
      9 ****         0.7526  -1.3220   1.2170 C.3            1 S1                 0.0000
     10 ****         1.2929  -0.6175   2.3202 O.3            1 S1                 0.0000
     11 ****         1.3188  -2.7548   1.1834 C.3            1 S1                 0.0000
     12 ****         2.7657  -2.7849   1.0619 N.pl3          1 S1                 0.0000
     13 ****         3.7015  -3.0901   2.0279 C.2            1 S1                 0.0000
     14 ****         4.9330  -2.9900   1.4467 C.2            1 S1                 0.0000
     15 ****         4.6437  -2.6151   0.1048 C.2            1 S1                 0.0000
     16 ****         3.3455  -2.4970  -0.1236 N.2            1 S1                 0.0000
     17 ****        -1.5516   0.8343   0.1543 C.ar           1 S1                 0.0000
     18 ****        -1.3361   0.6633  -1.2245 C.ar           1 S1                 0.0000
     19 ****        -1.6713   1.7040  -2.1161 C.ar           1 S1                 0.0000
     20 ****        -1.4347   1.5107  -3.6035 C.3            1 S1                 0.0000
     21 ****        -3.0296   4.8847  -2.0114 H              1 S1                 0.0000
     22 ****        -3.3190   3.7105  -3.2929 H              1 S1                 0.0000
     23 ****        -1.7078   4.4114  -3.0774 H              1 S1                 0.0000
     24 ****        -2.8508   3.9909   0.1550 H              1 S1                 0.0000
     25 ****        -1.7008   0.3880   3.3265 H              1 S1                 0.0000
     26 ****        -1.1238  -1.8104   2.2100 H              1 S1                 0.0000
     27 ****        -1.2094  -1.8740   0.4644 H              1 S1                 0.0000
     28 ****         1.0596  -0.7992   0.3100 H              1 S1                 0.0000
     29 ****         1.0338  -1.0576   3.1151 H              1 S1                 0.0000
     30 ****         1.0356  -3.2969   2.0867 H              1 S1                 0.0000
     31 ****         0.8950  -3.3072   0.3435 H              1 S1                 0.0000
     32 ****         3.4165  -3.3487   3.0370 H              1 S1                 0.0000
     33 ****         5.8939  -3.1587   1.9095 H              1 S1                 0.0000
     34 ****         5.3338  -2.4282  -0.7047 H              1 S1                 0.0000
     35 ****        -0.9153  -0.2613  -1.5913 H              1 S1                 0.0000
     36 ****        -0.9943   0.5354  -3.8128 H              1 S1                 0.0000
     37 ****        -0.7551   2.2729  -3.9850 H              1 S1                 0.0000
     38 ****        -2.3745   1.5781  -4.1516 H              1 S1                 0.0000
     39 ****        -2.5768   2.6701   2.6902 LP             1 S1                 0.0000
     40 ****         0.9441   0.3197   2.3250 LP             1 S1                 0.0000
     41 ****         2.2906  -0.6015   2.2538 LP             1 S1                 0.0000
     42 ****         2.8949  -2.2500  -0.9815 LP             1 S1                 0.0000
@<TRIPOS>BOND
    1    1    2 1     
    2    1   21 1     
    3    1   22 1     
    4    1   23 1     
    5    2   19 ar    
    6    2    3 ar    
    7    3    4 ar    
    8    3   24 1     
    9    4   17 ar    
   10    4    5 1     
   11    5    6 2     
   12    6    7 1     
   13    6   25 1     
   14    7    8 1     
   15    7   17 1     
   16    8    9 1     
   17    8   26 1     
   18    8   27 1     
   19    9   10 1     
   20    9   11 1     
   21    9   28 1     
   22   10   29 1     
   23   11   12 1     
   24   11   30 1     
   25   11   31 1     
   26   12   16 1     
   27   12   13 1     
   28   13   14 2     
   29   13   32 1     
   30   14   15 1     
   31   14   33 1     
   32   15   16 2     
   33   15   34 1     
   34   17   18 ar    
   35   18   19 ar    
   36   18   35 1     
   37   19   20 1     
   38   20   36 1     
   39   20   37 1     
   40   20   38 1     
   41    5   39 1     
   42   10   40 1     
   43   10   41 1     
   44   16   42 1     
@<TRIPOS>SUBSTRUCTURE
      1 S1             1
@<TRIPOS>SET
LONE_PAIRS      STATIC     ATOMS    <user>   **** ""
4 39 40 41 42
DONOR_HYDROGENS      STATIC     ATOMS    <user>   **** ""
1 29
ATOM$BLUE        STATIC     ATOMS    COLORGROUP SYSTEM
4 39 40 41 42
ATOM$RED        STATIC     ATOMS    COLORGROUP SYSTEM
1 29
