AV-unprocessed.smi:1142|AV-procd|sdf|4873|dock5
  -GOLD-   22720 3443D 1   1.00000     0.00000
 Structure written by MMmdl.
 33 34  0  0  0  0  0  0  0  0  1 V2000
  146.2096  142.7119  154.3762 C   0  0  0  0  0  0  0  0  0  0  0  0
  147.2785  142.1217  154.3895 C   0  0  0  0  0  0  0  0  0  0  0  0
  148.5615  141.3997  154.4142 C   0  0  0  0  0  0  0  0  0  0  0  0
  149.4342  141.8455  155.4940 N   0  0  0  0  0  0  0  0  0  0  0  0
  150.4282  141.1241  156.0389 C   0  0  0  0  0  0  0  0  0  0  0  0
  150.7255  139.9871  155.6708 O   0  0  0  0  0  0  0  0  0  0  0  0
  151.1999  141.8227  157.1280 C   0  0  0  0  0  0  0  0  0  0  0  0
  151.2506  143.2361  157.1416 C   0  0  0  0  0  0  0  0  0  0  0  0
  151.9282  143.8980  158.1804 C   0  0  0  0  0  0  0  0  0  0  0  0
  152.5294  143.1190  159.1831 C   0  0  0  0  0  0  0  0  0  0  0  0
  152.4908  141.7717  159.1911 N   0  0  0  0  0  0  0  0  0  0  0  0
  151.8437  141.1216  158.1916 C   0  0  0  0  0  0  0  0  0  0  0  0
  151.8774  139.7126  158.2339 N   0  0  0  0  0  0  0  0  0  0  0  0
  150.5996  139.0070  158.2410 C   0  0  0  0  0  0  0  0  0  0  0  0
  150.8344  137.5006  158.0362 C   0  0  0  0  0  0  0  0  0  0  0  0
  151.7311  137.0166  159.0325 O   0  0  0  0  0  0  0  0  0  0  0  0
  153.0010  137.6602  158.9691 C   0  0  0  0  0  0  0  0  0  0  0  0
  152.8279  139.1713  159.1980 C   0  0  0  0  0  0  0  0  0  0  0  0
  145.2745  143.2254  154.3631 H   0  0  0  0  0  0  0  0  0  0  0  0
  148.3591  140.3294  154.4795 H   0  0  0  0  0  0  0  0  0  0  0  0
  149.0628  141.5730  153.4619 H   0  0  0  0  0  0  0  0  0  0  0  0
  149.2728  142.7749  155.8537 H   0  0  0  0  0  0  0  0  0  0  0  0
  150.7663  143.8171  156.3699 H   0  0  0  0  0  0  0  0  0  0  0  0
  151.9786  144.9764  158.2115 H   0  0  0  0  0  0  0  0  0  0  0  0
  153.0559  143.5891  160.0005 H   0  0  0  0  0  0  0  0  0  0  0  0
  150.0911  139.1739  159.1916 H   0  0  0  0  0  0  0  0  0  0  0  0
  149.9552  139.3968  157.4522 H   0  0  0  0  0  0  0  0  0  0  0  0
  149.8915  136.9591  158.1127 H   0  0  0  0  0  0  0  0  0  0  0  0
  151.2374  137.3015  157.0419 H   0  0  0  0  0  0  0  0  0  0  0  0
  153.6531  137.2367  159.7328 H   0  0  0  0  0  0  0  0  0  0  0  0
  153.4716  137.4658  158.0036 H   0  0  0  0  0  0  0  0  0  0  0  0
  153.7932  139.6711  159.1167 H   0  0  0  0  0  0  0  0  0  0  0  0
  152.4576  139.3571  160.2072 H   0  0  0  0  0  0  0  0  0  0  0  0
  1  2  3  0  0  0  0
  1 19  1  0  0  0  0
  2  3  1  0  0  0  0
  3  4  1  0  0  0  0
  3 20  1  0  0  0  0
  3 21  1  0  0  0  0
  4  5  1  0  0  0  0
  4 22  1  0  0  0  0
  5  6  2  0  0  0  0
  5  7  1  0  0  0  0
  7 12  1  0  0  0  0
  7  8  2  0  0  0  0
  8  9  1  0  0  0  0
  8 23  1  0  0  0  0
  9 10  2  0  0  0  0
  9 24  1  0  0  0  0
 10 11  1  0  0  0  0
 10 25  1  0  0  0  0
 11 12  2  0  0  0  0
 12 13  1  0  0  0  0
 13 18  1  0  0  0  0
 13 14  1  0  0  0  0
 14 15  1  0  0  0  0
 14 26  1  0  0  0  0
 14 27  1  0  0  0  0
 15 16  1  0  0  0  0
 15 28  1  0  0  0  0
 15 29  1  0  0  0  0
 16 17  1  0  0  0  0
 17 18  1  0  0  0  0
 17 30  1  0  0  0  0
 17 31  1  0  0  0  0
 18 32  1  0  0  0  0
 18 33  1  0  0  0  0
M  END
> <s_m_source_file>
AV-unprocessed.smi

> <i_m_source_file_index>
1142

> <i_lp_mmshare_version>
43012

> <i_f3d_flags>
0

> <s_epik_input>
W0NIXSNDW0NIMl1bTkhdQyg9TyljMVtjSF1bY0hdW2NIXW5jMU4yW0NIMl1bQ0gyXU9bQ0gyXVtDSDJdMg==

> <s_epik_cmdline>
J2VwaWtfcHl0aG9uJywgJy1waCcsICc3LjAnLCAnLXRuJywgJzgnLCAnLW1hJywgJzIwMCcsICctbWV0YWxfYmluZGluZycsICctaW1hZScsICc8aW5maWxlLm1hZT4nLCAnLW9tYWUnLCAnPG91dGZpbGUubWFlPic=

> <r_lp_tautomer_probability>
1

> <r_epik_Ionization_Penalty>
1.59202e-05

> <r_epik_Ionization_Penalty_Charging>
0

> <r_epik_Ionization_Penalty_Neutral>
1.59202e-05

> <r_epik_State_Penalty>
-0

> <r_epik_Charging_Adjusted_Penalty>
0

> <i_epik_Tot_Q>
0

> <i_epik_Tot_abs_Q>
0

> <r_epik_Metal_State_Penalty>
0.00596736

> <b_epik_Metal_Only>
0

> <s_lp_Force_Field>
OPLS_2005

> <r_lp_Energy>
22.9222

> <b_lp_Chiralities_Consistent>
1

> <s_lp_Variant>
AV-unprocessed.smi:1142-1

> <Gold.Version>
5.8.1

> <Gold.Id.Protein>
6NUR|6NUR_protein|mol2

> <Gold.PLP.Fitness>
41.5159

> <Gold.PLP.PLP>
-36.5661

> <Gold.PLP.part.hbond>
-2.0000

> <Gold.PLP.part.metal>
0.0000

> <Gold.PLP.part.buried>
-4.9710

> <Gold.PLP.part.nonpolar>
-29.8493

> <Gold.PLP.part.repulsive>
0.1784

> <Gold.PLP.ligand.clash>
0.0000

> <Gold.PLP.ligand.torsion>
0.6417

> <Gold.PLP.Chemscore.Hbond>
2.0000

> <Gold.PLP.Chemscore.CHOScore>
0.0000

> <Gold.PLP.Chemscore.Metal>
0.0000

> <Gold.Chemscore.Hbonds>
donor molecule, donor type, donor heavy atom, donor atom, acceptor molecule, acceptor atom, score
      L1  H     4    22       P1  8028  1.00
      P1  H  6896  6907       L1    16  0.81

> <Gold.PLP.Chemscore.Internal.Correction>
0.2333

> <Gold.Rescore>
     Score         DG    S(hbond)    S(metal)    S(lipo)     H(rot)  DE(clash)    DE(int)     intcor
     15.54     -17.95       1.82        0.00      80.46       1.19       0.05       2.36       ----

> <Gold.Chemscore.Fitness>
15.5408

> <Gold.Chemscore.DG>
-17.9452

> <Gold.Chemscore.ZeroCoef>
-5.4800

> <Gold.Chemscore.Hbond>
1.8247

> <Gold.Chemscore.Metal>
0.0000

> <Gold.Chemscore.Lipo>
80.4617

> <Gold.Chemscore.Internal_Hbond>
0.0000

> <Gold.Chemscore.DEClash>
0.0456

> <Gold.Chemscore.DEInternal>
2.3588

> <Gold.Chemscore.Rot>
1.1887

> <Gold.Chemscore.Internal.Correction>
   9.000000E+99

> <Gold.Chemscore.Hbonds>
donor molecule, donor type, donor heavy atom, donor atom, acceptor molecule, acceptor atom, score
      L1  H     4    22       P1  8028  0.94
      P1  H  6896  6907       L1    16  0.73

> <Gold.Chemscore.Hbond.Weighted>
-6.0944

> <Gold.Chemscore.Metal.Weighted>
-0.0000

> <Gold.Chemscore.Lipo.Weighted>
-9.4140

> <Gold.Chemscore.Internal_Hbond.Weighted>
0.0000

> <Gold.Chemscore.DEClash.Weighted>
0.0456

> <Gold.Chemscore.DEInternal.Weighted>
2.3588

> <Gold.Chemscore.Rot.Weighted>
3.0432

> <Gold.Chemscore.Internal.Correction.Weighted>
   9.000000E+99

> <Gold.Protein.RotatedTorsions>
[ 6907 6896 6895 6894 ] final  -13.78 input  -60.11 | X-H torsion
[ 7974 7965 7964 7962 ] final -129.05 input  175.53 | X-H torsion
[ 8008 7997 7996 7995 ] final -119.07 input   59.86 | X-H torsion
[ 10167 10162 10161 10158 ] final   68.64 input  -65.29 | X-H torsion
[ 10718 10713 10712 10709 ] final  -37.30 input   66.30 | X-H torsion
[ 10763 10752 10751 10750 ] final   35.98 input  -60.55 | X-H torsion
[ 11005 11000 10999 10996 ] final  -71.00 input  -57.11 | X-H torsion

> <Gold.Protein.ActiveResidues>
 VAL166  LYS551  ARG553  GLY616  TRP617  ASP618  TYR619  PRO620  LYS621  CYS622 
 ASP623  PHE694  ASN695  SER759  ASP760  ASP761  ALA762  ILE779  LEU786  VAL792 
 PHE793  MET794  SER795  GLU796  ALA797  LYS798  CYS799  TRP800  GLU811  SER814 

> <Gold.Protein.RotatedAtoms>
  151.3496  135.0881  159.9398 H   0  0  0  0  0  0  0  0  0  0  0  0  # atno 6907 bound_to 6896
  152.5190  133.9365  159.7616 H   0  0  0  0  0  0  0  0  0  0  0  0  # atno 6908 bound_to 6896
  150.9738  133.6262  159.2763 H   0  0  0  0  0  0  0  0  0  0  0  0  # atno 6909 bound_to 6896
  144.9610  140.7447  143.4729 H   0  0  0  0  0  0  0  0  0  0  0  0  # atno 7974 bound_to 7965
  155.1098  140.0397  157.2721 H   0  0  0  0  0  0  0  0  0  0  0  0  # atno 8008 bound_to 7997
  154.6694  140.2609  155.6998 H   0  0  0  0  0  0  0  0  0  0  0  0  # atno 8009 bound_to 7997
  156.2652  140.2801  156.1197 H   0  0  0  0  0  0  0  0  0  0  0  0  # atno 8010 bound_to 7997
  140.0764  144.5108  150.7192 H   0  0  0  0  0  0  0  0  0  0  0  0  # atno 10167 bound_to 10162
  156.3168  130.4260  149.7998 H   0  0  0  0  0  0  0  0  0  0  0  0  # atno 10718 bound_to 10713
  153.0096  135.6318  154.1912 H   0  0  0  0  0  0  0  0  0  0  0  0  # atno 10763 bound_to 10752
  154.1654  135.2821  155.3098 H   0  0  0  0  0  0  0  0  0  0  0  0  # atno 10764 bound_to 10752
  154.5949  135.5606  153.7376 H   0  0  0  0  0  0  0  0  0  0  0  0  # atno 10765 bound_to 10752
  141.1584  133.6805  156.6839 H   0  0  0  0  0  0  0  0  0  0  0  0  # atno 11005 bound_to 11000
  145.2699  139.1958  143.4847 LP  0  0  0  0  0  0  0  0  0  0  0  0  # atno 17320 bound_to 7965
  146.3353  140.2644  142.8603 LP  0  0  0  0  0  0  0  0  0  0  0  0  # atno 17321 bound_to 7965
  140.7100  143.2497  151.4611 LP  0  0  0  0  0  0  0  0  0  0  0  0  # atno 17342 bound_to 10162
  139.5805  144.1720  152.1962 LP  0  0  0  0  0  0  0  0  0  0  0  0  # atno 17343 bound_to 10162
  156.5321  130.8262  151.3240 LP  0  0  0  0  0  0  0  0  0  0  0  0  # atno 17370 bound_to 10713
  157.7403  130.9848  150.2370 LP  0  0  0  0  0  0  0  0  0  0  0  0  # atno 17371 bound_to 10713
  140.3082  134.8108  157.4154 LP  0  0  0  0  0  0  0  0  0  0  0  0  # atno 17394 bound_to 11000
  140.1202  134.5230  155.8190 LP  0  0  0  0  0  0  0  0  0  0  0  0  # atno 17395 bound_to 11000

$$$$
