#       Name:                AV-unprocessed.smi:1596
#       Creating user name   scv26
#       Creation time:       Fri Mar 27 07:05:34 2020


#       File generated by GOLD software.
#

@<TRIPOS>MOLECULE
AV-unprocessed.smi:1596
    53    54     1
SMALL
NO_CHARGES


@<TRIPOS>ATOM
      1 ****        -5.9945  -1.6626   1.6832 C.3            1 S1                 0.0000
      2 ****        -5.7781  -0.1920   2.0718 C.3            1 S1                 0.0000
      3 ****        -5.0569   0.5718   1.0503 N.pl3          1 S1                 0.0000
      4 ****        -5.8175   1.3995   0.1138 C.3            1 S1                 0.0000
      5 ****        -6.3349   0.6163  -1.1010 C.3            1 S1                 0.0000
      6 ****        -3.6616   0.3864   0.8822 C.ar           1 S1                 0.0000
      7 ****        -2.9771   0.8516  -0.2690 C.ar           1 S1                 0.0000
      8 ****        -1.5880   0.6494  -0.3811 C.ar           1 S1                 0.0000
      9 ****        -0.9044  -0.0204   0.6598 C.ar           1 S1                 0.0000
     10 ****         0.4952  -0.2719   0.6857 N.am           1 S1                 0.0000
     11 ****         1.4019  -0.1443  -0.2986 C.2            1 S1                 0.0000
     12 ****         1.1567   0.1708  -1.4625 O.2            1 S1                 0.0000
     13 ****         2.6364  -0.4185   0.1468 N.am           1 S1                 0.0000
     14 ****         3.8560  -0.3646  -0.6544 C.3            1 S1                 0.0000
     15 ****         4.9230  -1.2854  -0.0317 C.3            1 S1                 0.0000
     16 ****         6.2519  -1.2107  -0.8006 C.3            1 S1                 0.0000
     17 ****         6.7616   0.2380  -0.8845 C.3            1 S1                 0.0000
     18 ****         7.9473   0.2787  -1.6502 O.3            1 S1                 0.0000
     19 ****         5.7059   1.1578  -1.5210 C.3            1 S1                 0.0000
     20 ****         4.3742   1.0858  -0.7566 C.3            1 S1                 0.0000
     21 ****        -1.6657  -0.4428   1.7665 C.ar           1 S1                 0.0000
     22 ****        -2.9961  -0.2507   1.8765 N.ar           1 S1                 0.0000
     23 ****        -6.5289  -2.1912   2.4723 H              1 S1                 0.0000
     24 ****        -5.0479  -2.1796   1.5256 H              1 S1                 0.0000
     25 ****        -6.5817  -1.7570   0.7709 H              1 S1                 0.0000
     26 ****        -6.7490   0.2741   2.2417 H              1 S1                 0.0000
     27 ****        -5.2561  -0.1280   3.0269 H              1 S1                 0.0000
     28 ****        -6.6679   1.8313   0.6423 H              1 S1                 0.0000
     29 ****        -5.2238   2.2554  -0.2063 H              1 S1                 0.0000
     30 ****        -6.8465   1.2831  -1.7953 H              1 S1                 0.0000
     31 ****        -7.0476  -0.1529  -0.8059 H              1 S1                 0.0000
     32 ****        -5.5230   0.1328  -1.6445 H              1 S1                 0.0000
     33 ****        -3.4849   1.3574  -1.0753 H              1 S1                 0.0000
     34 ****        -1.0847   1.0236  -1.2578 H              1 S1                 0.0000
     35 ****         0.8527  -0.6005   1.5707 H              1 S1                 0.0000
     36 ****         2.7434  -0.6753   1.1171 H              1 S1                 0.0000
     37 ****         3.6374  -0.7327  -1.6588 H              1 S1                 0.0000
     38 ****         5.0937  -1.0048   1.0087 H              1 S1                 0.0000
     39 ****         4.5661  -2.3159  -0.0194 H              1 S1                 0.0000
     40 ****         6.9954  -1.8429  -0.3139 H              1 S1                 0.0000
     41 ****         6.1115  -1.6139  -1.8047 H              1 S1                 0.0000
     42 ****         6.9979   0.5972   0.1181 H              1 S1                 0.0000
     43 ****         7.7519  -0.0248  -2.5235 H              1 S1                 0.0000
     44 ****         6.0658   2.1872  -1.5378 H              1 S1                 0.0000
     45 ****         5.5404   0.8698  -2.5601 H              1 S1                 0.0000
     46 ****         3.6362   1.7161  -1.2542 H              1 S1                 0.0000
     47 ****         4.5097   1.5010   0.2431 H              1 S1                 0.0000
     48 ****        -1.1942  -0.9521   2.5943 H              1 S1                 0.0000
     49 ****         0.2148   0.3566  -1.7424 LP             1 S1                 0.0000
     50 ****         1.8993   0.2411  -2.1285 LP             1 S1                 0.0000
     51 ****         8.6377  -0.3132  -1.2342 LP             1 S1                 0.0000
     52 ****         8.2918   1.2167  -1.6885 LP             1 S1                 0.0000
     53 ****        -3.4874  -0.5755   2.6847 LP             1 S1                 0.0000
@<TRIPOS>BOND
    1    1    2 1     
    2    1   23 1     
    3    1   24 1     
    4    1   25 1     
    5    2    3 1     
    6    2   26 1     
    7    2   27 1     
    8    3    4 1     
    9    3    6 1     
   10    4    5 1     
   11    4   28 1     
   12    4   29 1     
   13    5   30 1     
   14    5   31 1     
   15    5   32 1     
   16    6   22 ar    
   17    6    7 ar    
   18    7    8 ar    
   19    7   33 1     
   20    8    9 ar    
   21    8   34 1     
   22    9   10 1     
   23    9   21 ar    
   24   10   11 am    
   25   10   35 1     
   26   11   12 2     
   27   11   13 am    
   28   13   14 1     
   29   13   36 1     
   30   14   20 1     
   31   14   15 1     
   32   14   37 1     
   33   15   16 1     
   34   15   38 1     
   35   15   39 1     
   36   16   17 1     
   37   16   40 1     
   38   16   41 1     
   39   17   18 1     
   40   17   19 1     
   41   17   42 1     
   42   18   43 1     
   43   19   20 1     
   44   19   44 1     
   45   19   45 1     
   46   20   46 1     
   47   20   47 1     
   48   21   22 ar    
   49   21   48 1     
   50   12   49 1     
   51   12   50 1     
   52   18   51 1     
   53   18   52 1     
   54   22   53 1     
@<TRIPOS>SUBSTRUCTURE
      1 S1             1
@<TRIPOS>SET
LONE_PAIRS      STATIC     ATOMS    <user>   **** ""
5 49 50 51 52 53
DONOR_HYDROGENS      STATIC     ATOMS    <user>   **** ""
3 35 36 43
ATOM$BLUE        STATIC     ATOMS    COLORGROUP SYSTEM
5 49 50 51 52 53
ATOM$RED        STATIC     ATOMS    COLORGROUP SYSTEM
3 35 36 43
