AV-unprocessed.smi:1679|AV-procd|sdf|6735|dock7
  -GOLD-   22720 7483D 1   1.00000     0.00000
 Structure written by MMmdl.
 44 45  0  0  0  0  0  0  0  0  2 V2000
  152.2973  138.7474  155.2344 C   0  0  0  0  0  0  0  0  0  0  0  0
  151.2155  139.8365  155.1923 C   0  0  2  0  0  0  0  0  0  0  0  0
  151.0167  140.4946  156.5725 C   0  0  0  0  0  0  0  0  0  0  0  0
  149.9804  141.6269  156.5155 C   0  0  0  0  0  0  0  0  0  0  0  0
  148.6446  141.1334  155.9404 C   0  0  0  0  0  0  0  0  0  0  0  0
  148.8371  140.4724  154.5641 C   0  0  0  0  0  0  0  0  0  0  0  0
  149.8698  139.3312  154.6158 C   0  0  2  0  0  0  0  0  0  0  0  0
  149.3254  138.3119  155.4440 O   0  0  0  0  0  0  0  0  0  0  0  0
  149.7934  136.9984  155.1808 C   0  0  0  0  0  0  0  0  0  0  0  0
  150.2305  136.3491  156.5035 C   0  0  0  0  0  0  0  0  0  0  0  0
  149.0828  135.8940  157.2831 N   0  0  0  0  0  0  0  0  0  0  0  0
  149.0552  134.7851  158.0394 C   0  0  0  0  0  0  0  0  0  0  0  0
  150.0341  134.0551  158.1975 O   0  0  0  0  0  0  0  0  0  0  0  0
  147.7263  134.4667  158.7376 C   0  0  0  0  0  0  0  0  0  0  0  0
  147.6204  135.1149  160.0551 N   0  0  0  0  0  0  0  0  0  0  0  0
  147.5119  134.2742  161.1768 C   0  0  0  0  0  0  0  0  0  0  0  0
  147.4420  134.7622  162.4295 C   0  0  0  0  0  0  0  0  0  0  0  0
  147.4809  136.2078  162.6090 C   0  0  0  0  0  0  0  0  0  0  0  0
  147.4322  136.6712  163.7467 O   0  0  0  0  0  0  0  0  0  0  0  0
  147.5714  136.9835  161.4894 N   0  5  0  0  0  0  0  0  0  0  0  0
  147.6382  136.4724  160.2206 C   0  0  0  0  0  0  0  0  0  0  0  0
  147.7135  137.1929  159.2253 O   0  0  0  0  0  0  0  0  0  0  0  0
  152.0263  137.9443  155.9192 H   0  0  0  0  0  0  0  0  0  0  0  0
  153.2506  139.1565  155.5696 H   0  0  0  0  0  0  0  0  0  0  0  0
  152.4543  138.3099  154.2485 H   0  0  0  0  0  0  0  0  0  0  0  0
  151.5826  140.6103  154.5167 H   0  0  0  0  0  0  0  0  0  0  0  0
  150.6982  139.7469  157.2992 H   0  0  0  0  0  0  0  0  0  0  0  0
  151.9646  140.8905  156.9378 H   0  0  0  0  0  0  0  0  0  0  0  0
  149.8263  142.0374  157.5138 H   0  0  0  0  0  0  0  0  0  0  0  0
  150.3637  142.4423  155.9011 H   0  0  0  0  0  0  0  0  0  0  0  0
  148.1934  140.4197  156.6312 H   0  0  0  0  0  0  0  0  0  0  0  0
  147.9457  141.9659  155.8585 H   0  0  0  0  0  0  0  0  0  0  0  0
  147.8821  140.0940  154.1983 H   0  0  0  0  0  0  0  0  0  0  0  0
  149.1641  141.2250  153.8458 H   0  0  0  0  0  0  0  0  0  0  0  0
  150.0195  138.9625  153.5992 H   0  0  0  0  0  0  0  0  0  0  0  0
  148.9887  136.4179  154.7280 H   0  0  0  0  0  0  0  0  0  0  0  0
  150.6236  137.0060  154.4741 H   0  0  0  0  0  0  0  0  0  0  0  0
  150.9253  135.5280  156.3183 H   0  0  0  0  0  0  0  0  0  0  0  0
  150.7704  137.0805  157.1054 H   0  0  0  0  0  0  0  0  0  0  0  0
  148.2388  136.4436  157.2182 H   0  0  0  0  0  0  0  0  0  0  0  0
  146.9075  134.7738  158.0850 H   0  0  0  0  0  0  0  0  0  0  0  0
  147.6131  133.3864  158.8439 H   0  0  0  0  0  0  0  0  0  0  0  0
  147.4966  133.2168  160.9580 H   0  0  0  0  0  0  0  0  0  0  0  0
  147.3651  134.1006  163.2794 H   0  0  0  0  0  0  0  0  0  0  0  0
  1  2  1  0  0  0  0
  1 23  1  0  0  0  0
  1 24  1  0  0  0  0
  1 25  1  0  0  0  0
  2  7  1  0  0  0  0
  2  3  1  0  0  0  0
  2 26  1  0  0  0  0
  3  4  1  0  0  0  0
  3 27  1  0  0  0  0
  3 28  1  0  0  0  0
  4  5  1  0  0  0  0
  4 29  1  0  0  0  0
  4 30  1  0  0  0  0
  5  6  1  0  0  0  0
  5 31  1  0  0  0  0
  5 32  1  0  0  0  0
  6  7  1  0  0  0  0
  6 33  1  0  0  0  0
  6 34  1  0  0  0  0
  7  8  1  0  0  0  0
  7 35  1  0  0  0  0
  8  9  1  0  0  0  0
  9 10  1  0  0  0  0
  9 36  1  0  0  0  0
  9 37  1  0  0  0  0
 10 11  1  0  0  0  0
 10 38  1  0  0  0  0
 10 39  1  0  0  0  0
 11 12  1  0  0  0  0
 11 40  1  0  0  0  0
 12 13  2  0  0  0  0
 12 14  1  0  0  0  0
 14 15  1  0  0  0  0
 14 41  1  0  0  0  0
 14 42  1  0  0  0  0
 15 21  1  0  0  0  0
 15 16  1  0  0  0  0
 16 17  2  0  0  0  0
 16 43  1  0  0  0  0
 17 18  1  0  0  0  0
 17 44  1  0  0  0  0
 18 19  2  0  0  0  0
 18 20  1  0  0  0  0
 20 21  1  0  0  0  0
 21 22  2  0  0  0  0
M  CHG  1  20  -1
M  END
> <s_m_source_file>
AV-unprocessed.smi

> <i_m_source_file_index>
1679

> <i_lp_mmshare_version>
43012

> <i_f3d_flags>
0

> <s_epik_input>
W0NIM11bQ0BASF0xW0NIMl1bQ0gyXVtDSDJdW0NIMl1bQ0BIXTFPW0NIMl1bQ0gyXVtOSF1DKD1PKVtDSDJdbjJbY0hdW2NIXWMoPU8pW25IXWMyPU8=

> <s_epik_cmdline>
J2VwaWtfcHl0aG9uJywgJy1waCcsICc3LjAnLCAnLXRuJywgJzgnLCAnLW1hJywgJzIwMCcsICctbWV0YWxfYmluZGluZycsICctaW1hZScsICc8aW5maWxlLm1hZT4nLCAnLW9tYWUnLCAnPG91dGZpbGUubWFlPic=

> <r_lp_tautomer_probability>
0.999537

> <r_epik_Ionization_Penalty>
3.07454

> <r_epik_Ionization_Penalty_Charging>
2.80088e-08

> <r_epik_Ionization_Penalty_Neutral>
3.07454

> <r_epik_State_Penalty>
3.07357

> <r_epik_Charging_Adjusted_Penalty>
3.07357

> <i_epik_Tot_Q>
-1

> <i_epik_Tot_abs_Q>
1

> <r_epik_Metal_State_Penalty>
0.45948

> <b_epik_Metal_Only>
1

> <s_lp_Force_Field>
OPLS_2005

> <r_lp_Energy>
19.9019

> <b_lp_Chiralities_Consistent>
1

> <s_lp_Variant>
AV-unprocessed.smi:1679-7

> <Gold.Version>
5.8.1

> <Gold.Id.Protein>
6NUR|6NUR_protein|mol2

> <Gold.PLP.Fitness>
47.6914

> <Gold.PLP.PLP>
-36.3380

> <Gold.PLP.part.hbond>
-3.1386

> <Gold.PLP.part.metal>
0.0000

> <Gold.PLP.part.buried>
-0.9246

> <Gold.PLP.part.nonpolar>
-32.6338

> <Gold.PLP.part.repulsive>
0.1749

> <Gold.PLP.ligand.clash>
0.0000

> <Gold.PLP.ligand.torsion>
1.2613

> <Gold.PLP.Chemscore.Hbond>
4.6000

> <Gold.PLP.Chemscore.CHOScore>
0.0000

> <Gold.PLP.Chemscore.Metal>
0.0000

> <Gold.Chemscore.Hbonds>
donor molecule, donor type, donor heavy atom, donor atom, acceptor molecule, acceptor atom, score
      P1  H  6896  6907       L1    13  0.50
      P1  H  6931  6943       L1    20  2.00
      P1  H  6934  6947       L1    20  1.11

> <Gold.PLP.Chemscore.Internal.Correction>
0.0760

> <Gold.Rescore>
     Score         DG    S(hbond)    S(metal)    S(lipo)     H(rot)  DE(clash)    DE(int)     intcor
     10.78     -13.55       1.80        0.00      71.11       2.45       0.01       2.76       ----

> <Gold.Chemscore.Fitness>
10.7796

> <Gold.Chemscore.DG>
-13.5515

> <Gold.Chemscore.ZeroCoef>
-5.4800

> <Gold.Chemscore.Hbond>
1.8028

> <Gold.Chemscore.Metal>
0.0000

> <Gold.Chemscore.Lipo>
71.1079

> <Gold.Chemscore.Internal_Hbond>
0.0000

> <Gold.Chemscore.DEClash>
0.0148

> <Gold.Chemscore.DEInternal>
2.7571

> <Gold.Chemscore.Rot>
2.4490

> <Gold.Chemscore.Internal.Correction>
   9.000000E+99

> <Gold.Chemscore.Hbonds>
donor molecule, donor type, donor heavy atom, donor atom, acceptor molecule, acceptor atom, score
      P1  H  6896  6907       L1    13  0.50
      P1  H  6931  6943       L1    20  0.37
      P1  H  6934  6947       L1    20  0.11

> <Gold.Chemscore.Hbond.Weighted>
-6.0212

> <Gold.Chemscore.Metal.Weighted>
-0.0000

> <Gold.Chemscore.Lipo.Weighted>
-8.3196

> <Gold.Chemscore.Internal_Hbond.Weighted>
0.0000

> <Gold.Chemscore.DEClash.Weighted>
0.0148

> <Gold.Chemscore.DEInternal.Weighted>
2.7571

> <Gold.Chemscore.Rot.Weighted>
6.2694

> <Gold.Chemscore.Internal.Correction.Weighted>
   9.000000E+99

> <Gold.Protein.RotatedTorsions>
[ 6907 6896 6895 6894 ] final -124.91 input  -60.11 | X-H torsion
[ 7974 7965 7964 7962 ] final  -56.06 input  175.53 | X-H torsion
[ 8008 7997 7996 7995 ] final  162.17 input   59.86 | X-H torsion
[ 10167 10162 10161 10158 ] final  -39.98 input  -65.29 | X-H torsion
[ 10718 10713 10712 10709 ] final -116.21 input   66.30 | X-H torsion
[ 10763 10752 10751 10750 ] final  -72.34 input  -60.55 | X-H torsion
[ 11005 11000 10999 10996 ] final -153.26 input  -57.11 | X-H torsion

> <Gold.Protein.ActiveResidues>
 VAL166  LYS551  ARG553  GLY616  TRP617  ASP618  TYR619  PRO620  LYS621  CYS622 
 ASP623  PHE694  ASN695  SER759  ASP760  ASP761  ALA762  ILE779  LEU786  VAL792 
 PHE793  MET794  SER795  GLU796  ALA797  LYS798  CYS799  TRP800  GLU811  SER814 

> <Gold.Protein.RotatedAtoms>
  150.8815  133.7365  159.2930 H   0  0  0  0  0  0  0  0  0  0  0  0  # atno 6907 bound_to 6896
  151.4945  135.1057  159.9822 H   0  0  0  0  0  0  0  0  0  0  0  0  # atno 6908 bound_to 6896
  152.4763  133.8100  159.7054 H   0  0  0  0  0  0  0  0  0  0  0  0  # atno 6909 bound_to 6896
  145.8670  140.8244  142.9908 H   0  0  0  0  0  0  0  0  0  0  0  0  # atno 7974 bound_to 7965
  156.2051  140.1757  156.7818 H   0  0  0  0  0  0  0  0  0  0  0  0  # atno 8008 bound_to 7997
  154.5643  140.0694  156.8898 H   0  0  0  0  0  0  0  0  0  0  0  0  # atno 8009 bound_to 7997
  155.2789  140.3347  155.4262 H   0  0  0  0  0  0  0  0  0  0  0  0  # atno 8010 bound_to 7997
  140.7048  143.3181  151.2860 H   0  0  0  0  0  0  0  0  0  0  0  0  # atno 10167 bound_to 10162
  156.0948  130.6123  150.9006 H   0  0  0  0  0  0  0  0  0  0  0  0  # atno 10718 bound_to 10713
  154.4443  135.5933  153.6150 H   0  0  0  0  0  0  0  0  0  0  0  0  # atno 10763 bound_to 10752
  152.9808  135.6005  154.3683 H   0  0  0  0  0  0  0  0  0  0  0  0  # atno 10764 bound_to 10752
  154.3537  135.2841  155.2337 H   0  0  0  0  0  0  0  0  0  0  0  0  # atno 10765 bound_to 10752
  140.7101  134.3842  157.5199 H   0  0  0  0  0  0  0  0  0  0  0  0  # atno 11005 bound_to 11000
  144.6726  140.1181  143.7451 LP  0  0  0  0  0  0  0  0  0  0  0  0  # atno 17320 bound_to 7965
  145.9182  139.2529  143.1397 LP  0  0  0  0  0  0  0  0  0  0  0  0  # atno 17321 bound_to 7965
  139.6626  144.0162  152.2702 LP  0  0  0  0  0  0  0  0  0  0  0  0  # atno 17342 bound_to 10162
  139.9734  144.6478  150.7967 LP  0  0  0  0  0  0  0  0  0  0  0  0  # atno 17343 bound_to 10162
  157.6106  131.0936  150.8802 LP  0  0  0  0  0  0  0  0  0  0  0  0  # atno 17370 bound_to 10713
  156.8942  130.5223  149.5285 LP  0  0  0  0  0  0  0  0  0  0  0  0  # atno 17371 bound_to 10713
  139.8874  134.8884  156.2531 LP  0  0  0  0  0  0  0  0  0  0  0  0  # atno 17394 bound_to 11000
  141.0092  133.7106  156.1084 LP  0  0  0  0  0  0  0  0  0  0  0  0  # atno 17395 bound_to 11000

$$$$
