AV-unprocessed.smi:1737|AV-procd|sdf|6993|dock2
  -GOLD-   22720 8203D 1   1.00000     0.00000
 Structure written by MMmdl.
 42 43  0  0  0  0  0  0  0  0  1 V2000
  146.9206  131.5243  152.8492 C   0  0  0  0  0  0  0  0  0  0  0  0
  145.9223  132.2802  151.9869 C   0  0  0  0  0  0  0  0  0  0  0  0
  144.9236  131.5622  151.2953 C   0  0  0  0  0  0  0  0  0  0  0  0
  144.0019  132.2632  150.4990 C   0  0  0  0  0  0  0  0  0  0  0  0
  144.1185  133.6619  150.4282 C   0  0  0  0  0  0  0  0  0  0  0  0
  145.0697  134.3560  151.0854 N   0  0  0  0  0  0  0  0  0  0  0  0
  145.9678  133.6943  151.8575 C   0  0  0  0  0  0  0  0  0  0  0  0
  146.9999  134.3585  152.5775 N   0  0  0  0  0  0  0  0  0  0  0  0
  147.2375  134.3524  153.9008 C   0  0  0  0  0  0  0  0  0  0  0  0
  146.5846  133.7325  154.7408 O   0  0  0  0  0  0  0  0  0  0  0  0
  148.2930  135.1214  154.2002 N   0  0  0  0  0  0  0  0  0  0  0  0
  148.8129  135.3746  155.5414 C   0  0  0  0  0  0  0  0  0  0  0  0
  150.1914  136.0798  155.4882 C   0  0  2  0  0  0  0  0  0  0  0  0
  151.0895  135.4549  156.5801 C   0  0  0  0  0  0  0  0  0  0  0  0
  150.1139  137.5559  155.5598 N   0  0  0  0  0  0  0  0  0  0  0  0
  151.4358  138.1888  155.5607 C   0  0  0  0  0  0  0  0  0  0  0  0
  151.3557  139.7241  155.6185 C   0  0  0  0  0  0  0  0  0  0  0  0
  150.5813  140.2047  154.5277 O   0  0  0  0  0  0  0  0  0  0  0  0
  149.2654  139.6670  154.5247 C   0  0  0  0  0  0  0  0  0  0  0  0
  149.3336  138.1315  154.4602 C   0  0  0  0  0  0  0  0  0  0  0  0
  146.7380  130.4497  152.8208 H   0  0  0  0  0  0  0  0  0  0  0  0
  146.8491  131.8485  153.8879 H   0  0  0  0  0  0  0  0  0  0  0  0
  147.9383  131.7002  152.4998 H   0  0  0  0  0  0  0  0  0  0  0  0
  144.8621  130.4867  151.3715 H   0  0  0  0  0  0  0  0  0  0  0  0
  143.2266  131.7425  149.9565 H   0  0  0  0  0  0  0  0  0  0  0  0
  143.4304  134.2390  149.8283 H   0  0  0  0  0  0  0  0  0  0  0  0
  147.6269  134.9146  152.0155 H   0  0  0  0  0  0  0  0  0  0  0  0
  148.7659  135.5929  153.4432 H   0  0  0  0  0  0  0  0  0  0  0  0
  148.1177  135.9828  156.1226 H   0  0  0  0  0  0  0  0  0  0  0  0
  148.8713  134.4285  156.0785 H   0  0  0  0  0  0  0  0  0  0  0  0
  150.6386  135.8130  154.5293 H   0  0  0  0  0  0  0  0  0  0  0  0
  151.0366  134.3661  156.5592 H   0  0  0  0  0  0  0  0  0  0  0  0
  150.7912  135.7787  157.5778 H   0  0  0  0  0  0  0  0  0  0  0  0
  152.1403  135.7084  156.4430 H   0  0  0  0  0  0  0  0  0  0  0  0
  152.0168  137.8594  156.4206 H   0  0  0  0  0  0  0  0  0  0  0  0
  151.9903  137.8891  154.6702 H   0  0  0  0  0  0  0  0  0  0  0  0
  150.9155  140.0536  156.5612 H   0  0  0  0  0  0  0  0  0  0  0  0
  152.3546  140.1568  155.5633 H   0  0  0  0  0  0  0  0  0  0  0  0
  148.7282  139.9928  155.4168 H   0  0  0  0  0  0  0  0  0  0  0  0
  148.7234  140.0587  153.6637 H   0  0  0  0  0  0  0  0  0  0  0  0
  149.7625  137.8282  153.5039 H   0  0  0  0  0  0  0  0  0  0  0  0
  148.3108  137.7587  154.4793 H   0  0  0  0  0  0  0  0  0  0  0  0
  1  2  1  0  0  0  0
  1 21  1  0  0  0  0
  1 22  1  0  0  0  0
  1 23  1  0  0  0  0
  2  7  1  0  0  0  0
  2  3  2  0  0  0  0
  3  4  1  0  0  0  0
  3 24  1  0  0  0  0
  4  5  2  0  0  0  0
  4 25  1  0  0  0  0
  5  6  1  0  0  0  0
  5 26  1  0  0  0  0
  6  7  2  0  0  0  0
  7  8  1  0  0  0  0
  8  9  1  0  0  0  0
  8 27  1  0  0  0  0
  9 10  2  0  0  0  0
  9 11  1  0  0  0  0
 11 12  1  0  0  0  0
 11 28  1  0  0  0  0
 12 13  1  0  0  0  0
 12 29  1  0  0  0  0
 12 30  1  0  0  0  0
 13 14  1  0  0  0  0
 13 15  1  0  0  0  0
 13 31  1  0  0  0  0
 14 32  1  0  0  0  0
 14 33  1  0  0  0  0
 14 34  1  0  0  0  0
 15 20  1  0  0  0  0
 15 16  1  0  0  0  0
 16 17  1  0  0  0  0
 16 35  1  0  0  0  0
 16 36  1  0  0  0  0
 17 18  1  0  0  0  0
 17 37  1  0  0  0  0
 17 38  1  0  0  0  0
 18 19  1  0  0  0  0
 19 20  1  0  0  0  0
 19 39  1  0  0  0  0
 19 40  1  0  0  0  0
 20 41  1  0  0  0  0
 20 42  1  0  0  0  0
M  END
> <s_m_source_file>
AV-unprocessed.smi

> <i_m_source_file_index>
1737

> <i_lp_mmshare_version>
43012

> <i_f3d_flags>
0

> <s_epik_input>
W0NIM11jMVtjSF1bY0hdW2NIXW5jMVtOSF1DKD1PKVtOSF1bQ0gyXVtDQEhdKFtDSDNdKU4yW0NIMl1bQ0gyXU9bQ0gyXVtDSDJdMg==

> <s_epik_cmdline>
J2VwaWtfcHl0aG9uJywgJy1waCcsICc3LjAnLCAnLXRuJywgJzgnLCAnLW1hJywgJzIwMCcsICctbWV0YWxfYmluZGluZycsICctaW1hZScsICc8aW5maWxlLm1hZT4nLCAnLW9tYWUnLCAnPG91dGZpbGUubWFlPic=

> <r_epik_Ionization_Penalty>
0.266048

> <r_epik_Ionization_Penalty_Charging>
0

> <r_epik_Ionization_Penalty_Neutral>
0.266048

> <r_epik_State_Penalty>
0.257924

> <r_epik_Charging_Adjusted_Penalty>
0.257924

> <i_epik_Tot_Q>
0

> <i_epik_Tot_abs_Q>
0

> <r_epik_Metal_State_Penalty>
0.257922

> <b_epik_Metal_Only>
0

> <s_lp_Force_Field>
OPLS_2005

> <r_lp_Energy>
34.2136

> <b_lp_Chiralities_Consistent>
1

> <s_lp_Variant>
AV-unprocessed.smi:1737-1

> <Gold.Version>
5.8.1

> <Gold.Id.Protein>
6NUR|6NUR_protein|mol2

> <Gold.PLP.Fitness>
39.4737

> <Gold.PLP.PLP>
-29.6622

> <Gold.PLP.part.hbond>
-3.0000

> <Gold.PLP.part.metal>
0.0000

> <Gold.PLP.part.buried>
-4.5490

> <Gold.PLP.part.nonpolar>
-23.4667

> <Gold.PLP.part.repulsive>
0.4194

> <Gold.PLP.ligand.clash>
0.0000

> <Gold.PLP.ligand.torsion>
1.1248

> <Gold.PLP.Chemscore.Hbond>
3.0000

> <Gold.PLP.Chemscore.CHOScore>
1.0000

> <Gold.PLP.Chemscore.Metal>
0.0000

> <Gold.Chemscore.Hbonds>
donor molecule, donor type, donor heavy atom, donor atom, acceptor molecule, acceptor atom, score
      L1  H     8    27       P1  7948  1.00
      L1  H    11    28       P1  7948  1.00
      P1  H  7989  7998       L1    18  1.00
      L1  C     5    26       P1 10186  1.00

> <Gold.PLP.Chemscore.Internal.Correction>
0.0612

> <Gold.Rescore>
     Score         DG    S(hbond)    S(metal)    S(lipo)     H(rot)  DE(clash)    DE(int)     intcor
     18.14     -19.45       2.87        0.00      69.40       1.47       0.00       1.30       ----

> <Gold.Chemscore.Fitness>
18.1444

> <Gold.Chemscore.DG>
-19.4473

> <Gold.Chemscore.ZeroCoef>
-5.4800

> <Gold.Chemscore.Hbond>
2.8750

> <Gold.Chemscore.Metal>
0.0000

> <Gold.Chemscore.Lipo>
69.3992

> <Gold.Chemscore.Internal_Hbond>
0.0000

> <Gold.Chemscore.DEClash>
0.0048

> <Gold.Chemscore.DEInternal>
1.2981

> <Gold.Chemscore.Rot>
1.4667

> <Gold.Chemscore.Internal.Correction>
   9.000000E+99

> <Gold.Chemscore.Hbonds>
donor molecule, donor type, donor heavy atom, donor atom, acceptor molecule, acceptor atom, score
      L1  H     8    27       P1  7948  0.75
      L1  H    11    28       P1  7948  0.93
      P1  H  7989  7998       L1    18  0.54

> <Gold.Chemscore.Hbond.Weighted>
-9.6025

> <Gold.Chemscore.Metal.Weighted>
-0.0000

> <Gold.Chemscore.Lipo.Weighted>
-8.1197

> <Gold.Chemscore.Internal_Hbond.Weighted>
0.0000

> <Gold.Chemscore.DEClash.Weighted>
0.0048

> <Gold.Chemscore.DEInternal.Weighted>
1.2981

> <Gold.Chemscore.Rot.Weighted>
3.7549

> <Gold.Chemscore.Internal.Correction.Weighted>
   9.000000E+99

> <Gold.Protein.RotatedTorsions>
[ 6907 6896 6895 6894 ] final   80.75 input  -60.11 | X-H torsion
[ 7974 7965 7964 7962 ] final  -58.26 input  175.53 | X-H torsion
[ 8008 7997 7996 7995 ] final -169.58 input   59.86 | X-H torsion
[ 10167 10162 10161 10158 ] final   25.68 input  -65.29 | X-H torsion
[ 10718 10713 10712 10709 ] final   29.79 input   66.30 | X-H torsion
[ 10763 10752 10751 10750 ] final   84.86 input  -60.55 | X-H torsion
[ 11005 11000 10999 10996 ] final  149.93 input  -57.11 | X-H torsion

> <Gold.Protein.ActiveResidues>
 VAL166  LYS551  ARG553  GLY616  TRP617  ASP618  TYR619  PRO620  LYS621  CYS622 
 ASP623  PHE694  ASN695  SER759  ASP760  ASP761  ALA762  ILE779  LEU786  VAL792 
 PHE793  MET794  SER795  GLU796  ALA797  LYS798  CYS799  TRP800  GLU811  SER814 

> <Gold.Protein.RotatedAtoms>
  152.5245  134.3309  159.9182 H   0  0  0  0  0  0  0  0  0  0  0  0  # atno 6907 bound_to 6896
  151.3259  133.4014  159.2666 H   0  0  0  0  0  0  0  0  0  0  0  0  # atno 6908 bound_to 6896
  150.9921  134.9270  159.7963 H   0  0  0  0  0  0  0  0  0  0  0  0  # atno 6909 bound_to 6896
  145.8413  140.8415  143.0033 H   0  0  0  0  0  0  0  0  0  0  0  0  # atno 7974 bound_to 7965
  155.9069  140.1050  157.1309 H   0  0  0  0  0  0  0  0  0  0  0  0  # atno 8008 bound_to 7997
  154.4034  140.1282  156.4571 H   0  0  0  0  0  0  0  0  0  0  0  0  # atno 8009 bound_to 7997
  155.7357  140.3467  155.5082 H   0  0  0  0  0  0  0  0  0  0  0  0  # atno 8010 bound_to 7997
  140.5086  144.0197  150.6363 H   0  0  0  0  0  0  0  0  0  0  0  0  # atno 10167 bound_to 10162
  157.2511  130.7115  149.6406 H   0  0  0  0  0  0  0  0  0  0  0  0  # atno 10718 bound_to 10713
  153.1421  135.4638  154.9511 H   0  0  0  0  0  0  0  0  0  0  0  0  # atno 10763 bound_to 10752
  154.7755  135.3172  154.8102 H   0  0  0  0  0  0  0  0  0  0  0  0  # atno 10764 bound_to 10752
  153.8623  135.6911  153.4836 H   0  0  0  0  0  0  0  0  0  0  0  0  # atno 10765 bound_to 10752
  140.1087  134.8938  157.1904 H   0  0  0  0  0  0  0  0  0  0  0  0  # atno 11005 bound_to 11000
  144.6733  140.0817  143.7469 LP  0  0  0  0  0  0  0  0  0  0  0  0  # atno 17320 bound_to 7965
  145.9461  139.2702  143.1240 LP  0  0  0  0  0  0  0  0  0  0  0  0  # atno 17321 bound_to 7965
  140.3513  143.2961  152.0483 LP  0  0  0  0  0  0  0  0  0  0  0  0  # atno 17342 bound_to 10162
  139.4890  144.6371  151.6953 LP  0  0  0  0  0  0  0  0  0  0  0  0  # atno 17343 bound_to 10162
  155.9666  130.4427  150.5392 LP  0  0  0  0  0  0  0  0  0  0  0  0  # atno 17370 bound_to 10713
  157.3276  131.0693  151.1885 LP  0  0  0  0  0  0  0  0  0  0  0  0  # atno 17371 bound_to 10713
  140.3120  134.3013  155.7264 LP  0  0  0  0  0  0  0  0  0  0  0  0  # atno 17394 bound_to 11000
  141.2125  133.7656  156.9790 LP  0  0  0  0  0  0  0  0  0  0  0  0  # atno 17395 bound_to 11000

$$$$
