#       Name:                AV-unprocessed.smi:2237
#       Creating user name   scv26
#       Creation time:       Fri Mar 27 12:25:51 2020


#       File generated by GOLD software.
#

@<TRIPOS>MOLECULE
AV-unprocessed.smi:2237
    58    60     1
SMALL
NO_CHARGES


@<TRIPOS>ATOM
      1 ****        -6.0584   5.5253   1.1198 C.3            1 S1                 0.0000
      2 ****        -6.2910   4.1093   0.6360 C.ar           1 S1                 0.0000
      3 ****        -7.5960   3.6129   0.4487 C.ar           1 S1                 0.0000
      4 ****        -7.7430   2.2893  -0.0032 C.ar           1 S1                 0.0000
      5 ****        -6.5876   1.5219  -0.2467 C.ar           1 S1                 0.0000
      6 ****        -5.3141   2.0954  -0.0314 C.ar           1 S1                 0.0000
      7 ****        -4.2140   1.2407  -0.3079 N.am           1 S1                 0.0000
      8 ****        -2.9021   1.5076  -0.1805 C.2            1 S1                 0.0000
      9 ****        -2.4249   2.5656   0.2311 O.2            1 S1                 0.0000
     10 ****        -2.1546   0.4603  -0.5592 N.am           1 S1                 0.0000
     11 ****        -0.6950   0.4244  -0.5512 C.3            1 S1                 0.0000
     12 ****        -0.1930  -0.6210  -1.5551 C.3            1 S1                 0.0000
     13 ****         1.3393  -0.7541  -1.5158 C.3            1 S1                 0.0000
     14 ****         1.8330  -1.0814  -0.1460 N.4            1 S1                 1.0000
     15 ****         3.3065  -1.3403  -0.0406 C.3            1 S1                 0.0000
     16 ****         3.9136  -2.0722  -1.2624 C.3            1 S1                 0.0000
     17 ****         5.4017  -2.4018  -1.0524 C.3            1 S1                 0.0000
     18 ****         5.5681  -3.2421   0.1309 N.3            1 S1                 0.0000
     19 ****         6.9726  -3.5980   0.2764 C.3            1 S1                 0.0000
     20 ****         5.1283  -2.5119   1.3172 C.3            1 S1                 0.0000
     21 ****         3.6283  -2.1877   1.2119 C.3            1 S1                 0.0000
     22 ****         1.3695  -0.0580   0.8351 C.3            1 S1                 0.0000
     23 ****        -0.1617   0.0734   0.8462 C.3            1 S1                 0.0000
     24 ****        -5.1828   3.3729   0.4046 N.ar           1 S1                 0.0000
     25 ****        -6.9744   6.1145   1.0694 H              1 S1                 0.0000
     26 ****        -5.3037   6.0202   0.5075 H              1 S1                 0.0000
     27 ****        -5.7120   5.5180   2.1535 H              1 S1                 0.0000
     28 ****        -8.4623   4.2273   0.6453 H              1 S1                 0.0000
     29 ****        -8.7250   1.8684  -0.1608 H              1 S1                 0.0000
     30 ****        -6.6840   0.5037  -0.5949 H              1 S1                 0.0000
     31 ****        -4.4551   0.3220  -0.6489 H              1 S1                 0.0000
     32 ****        -2.6300  -0.3701  -0.8816 H              1 S1                 0.0000
     33 ****        -0.3089   1.4016  -0.8489 H              1 S1                 0.0000
     34 ****        -0.6436  -1.5906  -1.3370 H              1 S1                 0.0000
     35 ****        -0.5119  -0.3529  -2.5632 H              1 S1                 0.0000
     36 ****         1.6010  -1.5401  -2.2227 H              1 S1                 0.0000
     37 ****         1.8100   0.1664  -1.8650 H              1 S1                 0.0000
     38 ****         3.8129  -0.3771   0.0445 H              1 S1                 0.0000
     39 ****         3.3647  -2.9940  -1.4616 H              1 S1                 0.0000
     40 ****         3.8379  -1.4560  -2.1585 H              1 S1                 0.0000
     41 ****         5.7829  -2.9284  -1.9285 H              1 S1                 0.0000
     42 ****         5.9844  -1.4844  -0.9516 H              1 S1                 0.0000
     43 ****         7.1174  -4.2349   1.1497 H              1 S1                 0.0000
     44 ****         7.5996  -2.7126   0.3919 H              1 S1                 0.0000
     45 ****         7.3198  -4.1510  -0.5972 H              1 S1                 0.0000
     46 ****         5.3056  -3.1209   2.2047 H              1 S1                 0.0000
     47 ****         5.7083  -1.5950   1.4363 H              1 S1                 0.0000
     48 ****         3.3330  -1.6744   2.1253 H              1 S1                 0.0000
     49 ****         3.0577  -3.1176   1.1859 H              1 S1                 0.0000
     50 ****         1.6925  -0.3073   1.8438 H              1 S1                 0.0000
     51 ****         1.8216   0.9057   0.5944 H              1 S1                 0.0000
     52 ****        -0.4558   0.8399   1.5645 H              1 S1                 0.0000
     53 ****        -0.6053  -0.8614   1.1926 H              1 S1                 0.0000
     54 ****         1.3820  -1.9500   0.1040 H              1 S1                 0.0000
     55 ****        -3.0294   3.3142   0.5037 LP             1 S1                 0.0000
     56 ****        -1.4330   2.6762   0.2928 LP             1 S1                 0.0000
     57 ****         5.0192  -4.0718   0.0291 LP             1 S1                 0.0000
     58 ****        -4.2752   3.7654   0.5532 LP             1 S1                 0.0000
@<TRIPOS>BOND
    1    1    2 1     
    2    1   25 1     
    3    1   26 1     
    4    1   27 1     
    5    2   24 ar    
    6    2    3 ar    
    7    3    4 ar    
    8    3   28 1     
    9    4    5 ar    
   10    4   29 1     
   11    5    6 ar    
   12    5   30 1     
   13    6    7 1     
   14    6   24 ar    
   15    7    8 am    
   16    7   31 1     
   17    8    9 2     
   18    8   10 am    
   19   10   11 1     
   20   10   32 1     
   21   11   23 1     
   22   11   12 1     
   23   11   33 1     
   24   12   13 1     
   25   12   34 1     
   26   12   35 1     
   27   13   14 1     
   28   13   36 1     
   29   13   37 1     
   30   14   15 1     
   31   14   22 1     
   32   14   54 1     
   33   15   21 1     
   34   15   16 1     
   35   15   38 1     
   36   16   17 1     
   37   16   39 1     
   38   16   40 1     
   39   17   18 1     
   40   17   41 1     
   41   17   42 1     
   42   18   19 1     
   43   18   20 1     
   44   19   43 1     
   45   19   44 1     
   46   19   45 1     
   47   20   21 1     
   48   20   46 1     
   49   20   47 1     
   50   21   48 1     
   51   21   49 1     
   52   22   23 1     
   53   22   50 1     
   54   22   51 1     
   55   23   52 1     
   56   23   53 1     
   57    9   55 1     
   58    9   56 1     
   59   18   57 1     
   60   24   58 1     
@<TRIPOS>SUBSTRUCTURE
      1 S1             1
@<TRIPOS>SET
LONE_PAIRS      STATIC     ATOMS    <user>   **** ""
4 55 56 57 58
DONOR_HYDROGENS      STATIC     ATOMS    <user>   **** ""
3 31 32 54
ATOM$BLUE        STATIC     ATOMS    COLORGROUP SYSTEM
4 55 56 57 58
ATOM$RED        STATIC     ATOMS    COLORGROUP SYSTEM
3 31 32 54
