AV-unprocessed.smi:3064|AV-procd|sdf|11687|dock2
  -GOLD-   2272017 93D 1   1.00000     0.00000
 Structure written by MMmdl.
 22 23  0  0  0  0  0  0  0  0  2 V2000
  152.4932  143.0690  161.3487 C   0  0  0  0  0  0  0  0  0  0  0  0
  153.4056  142.0854  161.0638 C   0  0  0  0  0  0  0  0  0  0  0  0
  153.1418  141.3981  159.4848 S   0  0  0  0  0  0  0  0  0  0  0  0
  151.7688  142.4802  159.2743 C   0  0  0  0  0  0  0  0  0  0  0  0
  150.9552  142.5234  158.0203 C   0  0  2  0  0  0  0  0  0  0  0  0
  149.4511  142.3293  158.2890 C   0  0  0  0  0  0  0  0  0  0  0  0
  148.7125  142.2980  157.0119 N   0  3  0  0  0  0  0  0  0  0  0  0
  149.2548  141.2729  156.0983 C   0  0  0  0  0  0  0  0  0  0  0  0
  150.7670  141.4822  155.9023 C   0  0  0  0  0  0  0  0  0  0  0  0
  151.4225  141.4809  157.1665 O   0  0  0  0  0  0  0  0  0  0  0  0
  151.5754  143.2917  160.3194 N   0  0  0  0  0  0  0  0  0  0  0  0
  152.4266  143.6600  162.2504 H   0  0  0  0  0  0  0  0  0  0  0  0
  154.2146  141.7270  161.6834 H   0  0  0  0  0  0  0  0  0  0  0  0
  151.1294  143.4874  157.5388 H   0  0  0  0  0  0  0  0  0  0  0  0
  149.2767  141.3943  158.8237 H   0  0  0  0  0  0  0  0  0  0  0  0
  149.0620  143.1348  158.9122 H   0  0  0  0  0  0  0  0  0  0  0  0
  147.7371  142.1059  157.1920 H   0  0  0  0  0  0  0  0  0  0  0  0
  149.0614  140.2836  156.5149 H   0  0  0  0  0  0  0  0  0  0  0  0
  148.7324  141.3273  155.1430 H   0  0  0  0  0  0  0  0  0  0  0  0
  151.1809  140.6817  155.2887 H   0  0  0  0  0  0  0  0  0  0  0  0
  150.9661  142.4189  155.3791 H   0  0  0  0  0  0  0  0  0  0  0  0
  148.7936  143.2022  156.5687 H   0  0  0  0  0  0  0  0  0  0  0  0
  1 11  1  0  0  0  0
  1  2  2  0  0  0  0
  1 12  1  0  0  0  0
  2  3  1  0  0  0  0
  2 13  1  0  0  0  0
  3  4  1  0  0  0  0
  4  5  1  0  0  0  0
  4 11  2  0  0  0  0
  5 10  1  0  0  0  0
  5  6  1  0  0  0  0
  5 14  1  0  0  0  0
  6  7  1  0  0  0  0
  6 15  1  0  0  0  0
  6 16  1  0  0  0  0
  7  8  1  0  0  0  0
  7 17  1  0  0  0  0
  7 22  1  0  0  0  0
  8  9  1  0  0  0  0
  8 18  1  0  0  0  0
  8 19  1  0  0  0  0
  9 10  1  0  0  0  0
  9 20  1  0  0  0  0
  9 21  1  0  0  0  0
M  CHG  1   7   1
M  END
> <s_m_source_file>
AV-unprocessed.smi

> <i_m_source_file_index>
3064

> <i_lp_mmshare_version>
43012

> <i_f3d_flags>
0

> <s_epik_input>
bjFbY0hdW2NIXXNjMVtDQEBIXTJbQ0gyXVtOSF1bQ0gyXVtDSDJdTzI=

> <s_epik_cmdline>
J2VwaWtfcHl0aG9uJywgJy1waCcsICc3LjAnLCAnLXRuJywgJzgnLCAnLW1hJywgJzIwMCcsICctbWV0YWxfYmluZGluZycsICctaW1hZScsICc8aW5maWxlLm1hZT4nLCAnLW9tYWUnLCAnPG91dGZpbGUubWFlPic=

> <r_epik_Ionization_Penalty>
0.125708

> <r_epik_Ionization_Penalty_Charging>
0.125708

> <r_epik_Ionization_Penalty_Neutral>
1.25617e-07

> <r_epik_State_Penalty>
0.115169

> <r_epik_Charging_Adjusted_Penalty>
0.240877

> <i_epik_Tot_Q>
1

> <i_epik_Tot_abs_Q>
1

> <r_epik_Metal_State_Penalty>
0.115249

> <b_epik_Metal_Only>
0

> <s_lp_Force_Field>
OPLS_2005

> <r_lp_Energy>
7.58408

> <b_lp_Chiralities_Consistent>
1

> <s_lp_Variant>
AV-unprocessed.smi:3064-1

> <Gold.Version>
5.8.1

> <Gold.Id.Protein>
6NUR|6NUR_protein|mol2

> <Gold.PLP.Fitness>
29.3560

> <Gold.PLP.PLP>
-23.4242

> <Gold.PLP.part.hbond>
-1.1113

> <Gold.PLP.part.metal>
0.0000

> <Gold.PLP.part.buried>
-3.5119

> <Gold.PLP.part.nonpolar>
-18.2411

> <Gold.PLP.part.repulsive>
0.1089

> <Gold.PLP.ligand.clash>
0.0000

> <Gold.PLP.ligand.torsion>
0.0397

> <Gold.PLP.Chemscore.Hbond>
2.0000

> <Gold.PLP.Chemscore.CHOScore>
0.0000

> <Gold.PLP.Chemscore.Metal>
0.0000

> <Gold.Chemscore.Hbonds>
donor molecule, donor type, donor heavy atom, donor atom, acceptor molecule, acceptor atom, score
      L1  H     7    22       P1  8028  2.00

> <Gold.PLP.Chemscore.Internal.Correction>
0.0112

> <Gold.Rescore>
     Score         DG    S(hbond)    S(metal)    S(lipo)     H(rot)  DE(clash)    DE(int)     intcor
     14.10     -14.12       1.00        0.00      67.29       1.00       0.00       0.02       ----

> <Gold.Chemscore.Fitness>
14.1033

> <Gold.Chemscore.DG>
-14.1229

> <Gold.Chemscore.ZeroCoef>
-5.4800

> <Gold.Chemscore.Hbond>
0.9970

> <Gold.Chemscore.Metal>
0.0000

> <Gold.Chemscore.Lipo>
67.2897

> <Gold.Chemscore.Internal_Hbond>
0.0000

> <Gold.Chemscore.DEClash>
0.0000

> <Gold.Chemscore.DEInternal>
0.0196

> <Gold.Chemscore.Rot>
1.0000

> <Gold.Chemscore.Internal.Correction>
   9.000000E+99

> <Gold.Chemscore.Hbonds>
donor molecule, donor type, donor heavy atom, donor atom, acceptor molecule, acceptor atom, score
      L1  H     7    22       P1  8028  0.91

> <Gold.Chemscore.Hbond.Weighted>
-3.3300

> <Gold.Chemscore.Metal.Weighted>
-0.0000

> <Gold.Chemscore.Lipo.Weighted>
-7.8729

> <Gold.Chemscore.Internal_Hbond.Weighted>
0.0000

> <Gold.Chemscore.DEClash.Weighted>
0.0000

> <Gold.Chemscore.DEInternal.Weighted>
0.0196

> <Gold.Chemscore.Rot.Weighted>
2.5600

> <Gold.Chemscore.Internal.Correction.Weighted>
   9.000000E+99

> <Gold.Protein.RotatedTorsions>
[ 6907 6896 6895 6894 ] final  147.64 input  -60.11 | X-H torsion
[ 7974 7965 7964 7962 ] final   44.34 input  175.53 | X-H torsion
[ 8008 7997 7996 7995 ] final  167.74 input   59.86 | X-H torsion
[ 10167 10162 10161 10158 ] final  104.26 input  -65.29 | X-H torsion
[ 10718 10713 10712 10709 ] final  158.76 input   66.30 | X-H torsion
[ 10763 10752 10751 10750 ] final  -72.46 input  -60.55 | X-H torsion
[ 11005 11000 10999 10996 ] final   66.01 input  -57.11 | X-H torsion

> <Gold.Protein.ActiveResidues>
 VAL166  LYS551  ARG553  GLY616  TRP617  ASP618  TYR619  PRO620  LYS621  CYS622 
 ASP623  PHE694  ASN695  SER759  ASP760  ASP761  ALA762  ILE779  LEU786  VAL792 
 PHE793  MET794  SER795  GLU796  ALA797  LYS798  CYS799  TRP800  GLU811  SER814 

> <Gold.Protein.RotatedAtoms>
  152.1520  133.4528  159.4818 H   0  0  0  0  0  0  0  0  0  0  0  0  # atno 6907 bound_to 6896
  150.6896  134.2177  159.4393 H   0  0  0  0  0  0  0  0  0  0  0  0  # atno 6908 bound_to 6896
  152.0074  134.9895  160.0617 H   0  0  0  0  0  0  0  0  0  0  0  0  # atno 6909 bound_to 6896
  146.0577  139.5086  142.9678 H   0  0  0  0  0  0  0  0  0  0  0  0  # atno 7974 bound_to 7965
  156.1607  140.1609  156.8616 H   0  0  0  0  0  0  0  0  0  0  0  0  # atno 8008 bound_to 7997
  154.5158  140.0790  156.8114 H   0  0  0  0  0  0  0  0  0  0  0  0  # atno 8009 bound_to 7997
  155.3712  140.3400  155.4245 H   0  0  0  0  0  0  0  0  0  0  0  0  # atno 8010 bound_to 7997
  139.7192  144.7062  151.0900 H   0  0  0  0  0  0  0  0  0  0  0  0  # atno 10167 bound_to 10162
  157.1735  131.0615  151.2170 H   0  0  0  0  0  0  0  0  0  0  0  0  # atno 10718 bound_to 10713
  154.4459  135.5929  153.6160 H   0  0  0  0  0  0  0  0  0  0  0  0  # atno 10763 bound_to 10752
  152.9809  135.6009  154.3664 H   0  0  0  0  0  0  0  0  0  0  0  0  # atno 10764 bound_to 10752
  154.3520  135.2841  155.2346 H   0  0  0  0  0  0  0  0  0  0  0  0  # atno 10765 bound_to 10752
  139.9858  134.6670  156.0178 H   0  0  0  0  0  0  0  0  0  0  0  0  # atno 11005 bound_to 11000
  145.6615  141.0239  143.1706 LP  0  0  0  0  0  0  0  0  0  0  0  0  # atno 17320 bound_to 7965
  144.7157  139.8206  143.7399 LP  0  0  0  0  0  0  0  0  0  0  0  0  # atno 17321 bound_to 7965
  140.7750  143.5189  150.9561 LP  0  0  0  0  0  0  0  0  0  0  0  0  # atno 17342 bound_to 10162
  139.8875  143.6994  152.3149 LP  0  0  0  0  0  0  0  0  0  0  0  0  # atno 17343 bound_to 10162
  157.4021  130.7339  149.6774 LP  0  0  0  0  0  0  0  0  0  0  0  0  # atno 17370 bound_to 10713
  155.9735  130.4118  150.4000 LP  0  0  0  0  0  0  0  0  0  0  0  0  # atno 17371 bound_to 10713
  141.1523  133.6547  156.4053 LP  0  0  0  0  0  0  0  0  0  0  0  0  # atno 17394 bound_to 11000
  140.5005  134.6490  157.5246 LP  0  0  0  0  0  0  0  0  0  0  0  0  # atno 17395 bound_to 11000

$$$$
