AV-unprocessed.smi:2032|AV-procd|sdf|8244|dock8
  -GOLD-   2272010513D 1   1.00000     0.00000
 Structure written by MMmdl.
 43 44  0  0  0  0  0  0  0  0  2 V2000
  151.4219  137.7342  155.7045 C   0  0  0  0  0  0  0  0  0  0  0  0
  151.0761  138.7748  154.6235 C   0  0  1  0  0  0  0  0  0  0  0  0
  149.6243  138.6791  154.1157 C   0  0  0  0  0  0  0  0  0  0  0  0
  148.6411  139.2028  155.1062 N   0  3  2  0  0  0  0  0  0  0  0  0
  147.2125  139.0963  154.6501 C   0  0  1  0  0  0  0  0  0  0  0  0
  147.0530  139.5238  153.1696 C   0  0  0  0  0  0  0  0  0  0  0  0
  146.6308  137.6720  154.8765 C   0  0  0  0  0  0  0  0  0  0  0  0
  146.8492  136.7681  153.7488 N   0  0  0  0  0  0  0  0  0  0  0  0
  145.9270  135.9511  153.2180 C   0  0  0  0  0  0  0  0  0  0  0  0
  144.7781  135.8536  153.6501 O   0  0  0  0  0  0  0  0  0  0  0  0
  146.4271  135.2642  152.1761 N   0  0  0  0  0  0  0  0  0  0  0  0
  145.7727  134.2997  151.3655 C   0  0  0  0  0  0  0  0  0  0  0  0
  144.4479  134.2357  151.1889 N   0  0  0  0  0  0  0  0  0  0  0  0
  144.0824  133.1885  150.3392 C   0  0  0  0  0  0  0  0  0  0  0  0
  145.1493  132.4590  149.8767 C   0  0  0  0  0  0  0  0  0  0  0  0
  146.6647  133.0627  150.4920 S   0  0  0  0  0  0  0  0  0  0  0  0
  149.0442  140.5750  155.5227 C   0  0  0  0  0  0  0  0  0  0  0  0
  150.4958  140.6125  156.0338 C   0  0  2  0  0  0  0  0  0  0  0  0
  150.9467  142.0386  156.3705 C   0  0  0  0  0  0  0  0  0  0  0  0
  151.3692  140.1062  155.0336 O   0  0  0  0  0  0  0  0  0  0  0  0
  151.3310  136.7221  155.3094 H   0  0  0  0  0  0  0  0  0  0  0  0
  150.7652  137.8010  156.5714 H   0  0  0  0  0  0  0  0  0  0  0  0
  152.4481  137.8602  156.0507 H   0  0  0  0  0  0  0  0  0  0  0  0
  151.7336  138.5737  153.7771 H   0  0  0  0  0  0  0  0  0  0  0  0
  149.5241  139.2435  153.1874 H   0  0  0  0  0  0  0  0  0  0  0  0
  149.4353  137.6352  153.8748 H   0  0  0  0  0  0  0  0  0  0  0  0
  146.6253  139.7890  155.2556 H   0  0  0  0  0  0  0  0  0  0  0  0
  146.0310  139.4035  152.8138 H   0  0  0  0  0  0  0  0  0  0  0  0
  147.6985  138.9364  152.5159 H   0  0  0  0  0  0  0  0  0  0  0  0
  147.2745  140.5779  153.0121 H   0  0  0  0  0  0  0  0  0  0  0  0
  147.0199  137.2487  155.8041 H   0  0  0  0  0  0  0  0  0  0  0  0
  145.5483  137.7064  154.9835 H   0  0  0  0  0  0  0  0  0  0  0  0
  147.7684  136.7784  153.3309 H   0  0  0  0  0  0  0  0  0  0  0  0
  147.3892  135.4503  151.9341 H   0  0  0  0  0  0  0  0  0  0  0  0
  143.0370  133.0335  150.1165 H   0  0  0  0  0  0  0  0  0  0  0  0
  145.1356  131.6067  149.2138 H   0  0  0  0  0  0  0  0  0  0  0  0
  148.9175  141.2609  154.6834 H   0  0  0  0  0  0  0  0  0  0  0  0
  148.4196  140.9378  156.3364 H   0  0  0  0  0  0  0  0  0  0  0  0
  150.5816  140.0126  156.9398 H   0  0  0  0  0  0  0  0  0  0  0  0
  150.3196  142.4759  157.1478 H   0  0  0  0  0  0  0  0  0  0  0  0
  150.8955  142.6871  155.4953 H   0  0  0  0  0  0  0  0  0  0  0  0
  151.9755  142.0475  156.7311 H   0  0  0  0  0  0  0  0  0  0  0  0
  148.7230  138.6196  155.9271 H   0  0  0  0  0  0  0  0  0  0  0  0
  1  2  1  0  0  0  0
  1 21  1  0  0  0  0
  1 22  1  0  0  0  0
  1 23  1  0  0  0  0
  2 20  1  0  0  0  0
  2  3  1  0  0  0  0
  2 24  1  0  0  0  0
  3  4  1  0  0  0  0
  3 25  1  0  0  0  0
  3 26  1  0  0  0  0
  4  5  1  0  0  0  0
  4 17  1  0  0  0  0
  4 43  1  0  0  0  0
  5  6  1  0  0  0  0
  5  7  1  0  0  0  0
  5 27  1  0  0  0  0
  6 28  1  0  0  0  0
  6 29  1  0  0  0  0
  6 30  1  0  0  0  0
  7  8  1  0  0  0  0
  7 31  1  0  0  0  0
  7 32  1  0  0  0  0
  8  9  1  0  0  0  0
  8 33  1  0  0  0  0
  9 10  2  0  0  0  0
  9 11  1  0  0  0  0
 11 12  1  0  0  0  0
 11 34  1  0  0  0  0
 12 16  1  0  0  0  0
 12 13  2  0  0  0  0
 13 14  1  0  0  0  0
 14 15  2  0  0  0  0
 14 35  1  0  0  0  0
 15 16  1  0  0  0  0
 15 36  1  0  0  0  0
 17 18  1  0  0  0  0
 17 37  1  0  0  0  0
 17 38  1  0  0  0  0
 18 19  1  0  0  0  0
 18 20  1  0  0  0  0
 18 39  1  0  0  0  0
 19 40  1  0  0  0  0
 19 41  1  0  0  0  0
 19 42  1  0  0  0  0
M  CHG  1   4   1
M  END
> <s_m_source_file>
AV-unprocessed.smi

> <i_m_source_file_index>
2032

> <i_lp_mmshare_version>
43012

> <i_f3d_flags>
0

> <s_epik_input>
W0NIM11bQ0BASF0xW0NIMl1OKFtDSDJdW0NASF0oTzEpW0NIM10pW0NASF0oW0NIM10pW0NIMl1bTkhdQyg9TylbTkhdYzJuW2NIXVtjSF1zMg==

> <s_epik_cmdline>
J2VwaWtfcHl0aG9uJywgJy1waCcsICc3LjAnLCAnLXRuJywgJzgnLCAnLW1hJywgJzIwMCcsICctbWV0YWxfYmluZGluZycsICctaW1hZScsICc8aW5maWxlLm1hZT4nLCAnLW9tYWUnLCAnPG91dGZpbGUubWFlPic=

> <r_lp_tautomer_probability>
0.999

> <r_epik_Ionization_Penalty>
0.695838

> <r_epik_Ionization_Penalty_Charging>
0.695697

> <r_epik_Ionization_Penalty_Neutral>
0.000141198

> <r_epik_State_Penalty>
0.717972

> <r_epik_Charging_Adjusted_Penalty>
1.41367

> <i_epik_Tot_Q>
1

> <i_epik_Tot_abs_Q>
1

> <r_epik_Metal_State_Penalty>
0.756405

> <b_epik_Metal_Only>
0

> <s_lp_Force_Field>
OPLS_2005

> <r_lp_Energy>
22.0252

> <b_lp_Chiralities_Consistent>
1

> <s_lp_Variant>
AV-unprocessed.smi:2032-14

> <Gold.Version>
5.8.1

> <Gold.Id.Protein>
6NUR|6NUR_protein|mol2

> <Gold.PLP.Fitness>
41.2650

> <Gold.PLP.PLP>
-31.2352

> <Gold.PLP.part.hbond>
-3.0000

> <Gold.PLP.part.metal>
0.0000

> <Gold.PLP.part.buried>
-4.7997

> <Gold.PLP.part.nonpolar>
-23.4761

> <Gold.PLP.part.repulsive>
0.2874

> <Gold.PLP.ligand.clash>
0.0000

> <Gold.PLP.ligand.torsion>
0.9807

> <Gold.PLP.Chemscore.Hbond>
2.9760

> <Gold.PLP.Chemscore.CHOScore>
1.0000

> <Gold.PLP.Chemscore.Metal>
0.0000

> <Gold.Chemscore.Hbonds>
donor molecule, donor type, donor heavy atom, donor atom, acceptor molecule, acceptor atom, score
      L1  H     8    33       P1  7948  0.98
      L1  H    11    34       P1  7948  1.00
      P1  H  7989  7998       L1    20  1.00
      L1  C    14    35       P1 10186  1.00

> <Gold.PLP.Chemscore.Internal.Correction>
0.0633

> <Gold.Rescore>
     Score         DG    S(hbond)    S(metal)    S(lipo)     H(rot)  DE(clash)    DE(int)     intcor
     18.07     -20.20       2.81        0.00      80.82       1.61       0.13       1.99       ----

> <Gold.Chemscore.Fitness>
18.0744

> <Gold.Chemscore.DG>
-20.1971

> <Gold.Chemscore.ZeroCoef>
-5.4800

> <Gold.Chemscore.Hbond>
2.8101

> <Gold.Chemscore.Metal>
0.0000

> <Gold.Chemscore.Lipo>
80.8163

> <Gold.Chemscore.Internal_Hbond>
0.0000

> <Gold.Chemscore.DEClash>
0.1311

> <Gold.Chemscore.DEInternal>
1.9916

> <Gold.Chemscore.Rot>
1.6110

> <Gold.Chemscore.Internal.Correction>
   9.000000E+99

> <Gold.Chemscore.Hbonds>
donor molecule, donor type, donor heavy atom, donor atom, acceptor molecule, acceptor atom, score
      L1  H     8    33       P1  7948  0.92
      L1  H    11    34       P1  7948  1.00
      P1  H  7989  7998       L1    20  0.29

> <Gold.Chemscore.Hbond.Weighted>
-9.3857

> <Gold.Chemscore.Metal.Weighted>
-0.0000

> <Gold.Chemscore.Lipo.Weighted>
-9.4555

> <Gold.Chemscore.Internal_Hbond.Weighted>
0.0000

> <Gold.Chemscore.DEClash.Weighted>
0.1311

> <Gold.Chemscore.DEInternal.Weighted>
1.9916

> <Gold.Chemscore.Rot.Weighted>
4.1242

> <Gold.Chemscore.Internal.Correction.Weighted>
   9.000000E+99

> <Gold.Protein.RotatedTorsions>
[ 6907 6896 6895 6894 ] final  -85.63 input  -60.11 | X-H torsion
[ 7974 7965 7964 7962 ] final   11.51 input  175.53 | X-H torsion
[ 8008 7997 7996 7995 ] final    1.15 input   59.86 | X-H torsion
[ 10167 10162 10161 10158 ] final -153.87 input  -65.29 | X-H torsion
[ 10718 10713 10712 10709 ] final  -40.86 input   66.30 | X-H torsion
[ 10763 10752 10751 10750 ] final -116.82 input  -60.55 | X-H torsion
[ 11005 11000 10999 10996 ] final -117.91 input  -57.11 | X-H torsion

> <Gold.Protein.ActiveResidues>
 VAL166  LYS551  ARG553  GLY616  TRP617  ASP618  TYR619  PRO620  LYS621  CYS622 
 ASP623  PHE694  ASN695  SER759  ASP760  ASP761  ALA762  ILE779  LEU786  VAL792 
 PHE793  MET794  SER795  GLU796  ALA797  LYS798  CYS799  TRP800  GLU811  SER814 

> <Gold.Protein.RotatedAtoms>
  150.6869  134.3175  159.4772 H   0  0  0  0  0  0  0  0  0  0  0  0  # atno 6907 bound_to 6896
  152.1054  134.9309  160.0577 H   0  0  0  0  0  0  0  0  0  0  0  0  # atno 6908 bound_to 6896
  152.0572  133.4011  159.4439 H   0  0  0  0  0  0  0  0  0  0  0  0  # atno 6909 bound_to 6896
  146.2369  139.9475  142.8475 H   0  0  0  0  0  0  0  0  0  0  0  0  # atno 7974 bound_to 7965
  154.6764  140.2623  155.6954 H   0  0  0  0  0  0  0  0  0  0  0  0  # atno 8008 bound_to 7997
  156.2679  140.2819  156.1214 H   0  0  0  0  0  0  0  0  0  0  0  0  # atno 8009 bound_to 7997
  155.1095  140.0375  157.2710 H   0  0  0  0  0  0  0  0  0  0  0  0  # atno 8010 bound_to 7997
  139.7061  143.9184  152.2449 H   0  0  0  0  0  0  0  0  0  0  0  0  # atno 10167 bound_to 10162
  156.2767  130.4212  149.8380 H   0  0  0  0  0  0  0  0  0  0  0  0  # atno 10718 bound_to 10713
  154.8533  135.4332  154.1882 H   0  0  0  0  0  0  0  0  0  0  0  0  # atno 10763 bound_to 10752
  153.2957  135.6965  153.7257 H   0  0  0  0  0  0  0  0  0  0  0  0  # atno 10764 bound_to 10752
  153.6407  135.3468  155.3045 H   0  0  0  0  0  0  0  0  0  0  0  0  # atno 10765 bound_to 10752
  141.0322  133.9963  157.3125 H   0  0  0  0  0  0  0  0  0  0  0  0  # atno 11005 bound_to 11000
  145.1894  140.9804  143.4220 LP  0  0  0  0  0  0  0  0  0  0  0  0  # atno 17320 bound_to 7965
  144.9871  139.3726  143.6233 LP  0  0  0  0  0  0  0  0  0  0  0  0  # atno 17321 bound_to 7965
  139.9040  144.6895  150.8634 LP  0  0  0  0  0  0  0  0  0  0  0  0  # atno 17342 bound_to 10162
  140.7722  143.3492  151.2048 LP  0  0  0  0  0  0  0  0  0  0  0  0  # atno 17343 bound_to 10162
  156.5842  130.8479  151.3391 LP  0  0  0  0  0  0  0  0  0  0  0  0  # atno 17370 bound_to 10713
  157.7301  130.9681  150.1819 LP  0  0  0  0  0  0  0  0  0  0  0  0  # atno 17371 bound_to 10713
  139.9216  135.0200  156.8084 LP  0  0  0  0  0  0  0  0  0  0  0  0  # atno 17394 bound_to 11000
  140.6385  133.9840  155.7696 LP  0  0  0  0  0  0  0  0  0  0  0  0  # atno 17395 bound_to 11000

$$$$
