AV-unprocessed.smi:69|AV-procd|sdf|653|dock1
  -GOLD-   2262016553D 1   1.00000     0.00000
 Structure written by MMmdl.
 32 34  0  0  0  0  0  0  0  0  1 V2000
  151.8704  144.1284  162.4179 N   0  0  0  0  0  0  0  0  0  0  0  0
  152.2216  143.3290  161.4012 C   0  0  0  0  0  0  0  0  0  0  0  0
  153.3281  142.5620  161.5398 N   0  0  0  0  0  0  0  0  0  0  0  0
  153.6990  141.7566  160.5394 C   0  0  0  0  0  0  0  0  0  0  0  0
  153.1157  141.5775  159.3516 N   0  0  0  0  0  0  0  0  0  0  0  0
  151.9995  142.3512  159.2122 C   0  0  0  0  0  0  0  0  0  0  0  0
  151.4897  143.2509  160.1893 C   0  0  0  0  0  0  0  0  0  0  0  0
  150.3450  143.8722  159.7102 N   0  0  0  0  0  0  0  0  0  0  0  0
  150.1909  143.3664  158.5162 C   0  0  0  0  0  0  0  0  0  0  0  0
  151.1424  142.4464  158.1321 N   0  0  0  0  0  0  0  0  0  0  0  0
  151.2156  141.7131  156.8250 C   0  0  2  0  0  0  0  0  0  0  0  0
  150.0746  141.9910  156.0690 O   0  0  0  0  0  0  0  0  0  0  0  0
  149.3493  140.7942  155.7913 C   0  0  1  0  0  0  0  0  0  0  0  0
  148.6028  140.9010  154.4500 C   0  0  0  0  0  0  0  0  0  0  0  0
  149.5233  141.0782  153.3947 O   0  0  0  0  0  0  0  0  0  0  0  0
  150.4095  139.6866  155.8746 C   0  0  1  0  0  0  0  0  0  0  0  0
  151.1298  139.5684  154.6605 O   0  0  0  0  0  0  0  0  0  0  0  0
  151.3230  140.1826  156.9840 C   0  0  2  0  0  0  0  0  0  0  0  0
  150.8878  139.7003  158.2432 O   0  0  0  0  0  0  0  0  0  0  0  0
  152.0791  142.1423  156.3149 H   0  0  0  0  0  0  0  0  0  0  0  0
  148.6339  140.6239  156.5968 H   0  0  0  0  0  0  0  0  0  0  0  0
  149.9672  138.7150  156.0994 H   0  0  0  0  0  0  0  0  0  0  0  0
  152.3588  139.8703  156.8447 H   0  0  0  0  0  0  0  0  0  0  0  0
  151.0494  144.7110  162.3383 H   0  0  0  0  0  0  0  0  0  0  0  0
  152.4253  144.1436  163.2612 H   0  0  0  0  0  0  0  0  0  0  0  0
  154.5905  141.1728  160.7144 H   0  0  0  0  0  0  0  0  0  0  0  0
  149.3710  143.6554  157.8749 H   0  0  0  0  0  0  0  0  0  0  0  0
  147.9838  140.0220  154.2673 H   0  0  0  0  0  0  0  0  0  0  0  0
  147.9439  141.7699  154.4554 H   0  0  0  0  0  0  0  0  0  0  0  0
  149.4006  140.3818  152.7678 H   0  0  0  0  0  0  0  0  0  0  0  0
  151.0671  138.6747  154.3601 H   0  0  0  0  0  0  0  0  0  0  0  0
  151.5237  139.9517  158.8956 H   0  0  0  0  0  0  0  0  0  0  0  0
  1  2  1  0  0  0  0
  1 24  1  0  0  0  0
  1 25  1  0  0  0  0
  2  7  1  0  0  0  0
  2  3  2  0  0  0  0
  3  4  1  0  0  0  0
  4  5  2  0  0  0  0
  4 26  1  0  0  0  0
  5  6  1  0  0  0  0
  6 10  1  0  0  0  0
  6  7  2  0  0  0  0
  7  8  1  0  0  0  0
  8  9  2  0  0  0  0
  9 10  1  0  0  0  0
  9 27  1  0  0  0  0
 10 11  1  0  0  0  0
 11 20  1  0  0  0  0
 11 18  1  0  0  0  0
 11 12  1  0  0  0  0
 12 13  1  0  0  0  0
 13 21  1  0  0  0  0
 13 14  1  0  0  0  0
 13 16  1  0  0  0  0
 14 15  1  0  0  0  0
 14 28  1  0  0  0  0
 14 29  1  0  0  0  0
 15 30  1  0  0  0  0
 16 22  1  0  0  0  0
 16 17  1  0  0  0  0
 16 18  1  0  0  0  0
 17 31  1  0  0  0  0
 18 23  1  0  0  0  0
 18 19  1  0  0  0  0
 19 32  1  0  0  0  0
M  END
> <s_m_source_file>
AV-unprocessed.smi

> <i_m_source_file_index>
69

> <i_lp_mmshare_version>
43012

> <i_f3d_flags>
0

> <s_epik_input>
bjFbY0hdbmMoW05IMl0pYyhjMTIpbltjSF1uMltDQEBIXTNPW0NASF0oW0NIMl1bT0hdKVtDQEBIXShbT0hdKVtDQEhdM1tPSF0=

> <s_epik_cmdline>
J2VwaWtfcHl0aG9uJywgJy1waCcsICc3LjAnLCAnLXRuJywgJzgnLCAnLW1hJywgJzIwMCcsICctbWV0YWxfYmluZGluZycsICctaW1hZScsICc8aW5maWxlLm1hZT4nLCAnLW9tYWUnLCAnPG91dGZpbGUubWFlPic=

> <r_lp_tautomer_probability>
1

> <r_epik_Ionization_Penalty>
0.000428445

> <r_epik_Ionization_Penalty_Charging>
0

> <r_epik_Ionization_Penalty_Neutral>
0.000428445

> <r_epik_State_Penalty>
-0

> <r_epik_Charging_Adjusted_Penalty>
0

> <i_epik_Tot_Q>
0

> <i_epik_Tot_abs_Q>
0

> <r_epik_Metal_State_Penalty>
-0

> <b_epik_Metal_Only>
0

> <s_epik_Chemistry_Notes>
This compound contains an acetal/aminal-like group ( X-CH(R)-Y where X, Y are N, S, or O) that may be acid/base labile, releasing an aldehyde.

> <s_lp_Force_Field>
OPLS_2005

> <r_lp_Energy>
40.109

> <b_lp_Chiralities_Consistent>
1

> <s_lp_Variant>
AV-unprocessed.smi:69-11

> <Gold.Version>
5.8.1

> <Gold.Id.Protein>
6NUR|6NUR_protein|mol2

> <Gold.PLP.Fitness>
46.2227

> <Gold.PLP.PLP>
-34.6826

> <Gold.PLP.part.hbond>
-5.9969

> <Gold.PLP.part.metal>
0.0000

> <Gold.PLP.part.buried>
-6.9622

> <Gold.PLP.part.nonpolar>
-22.7090

> <Gold.PLP.part.repulsive>
1.2286

> <Gold.PLP.ligand.clash>
0.0000

> <Gold.PLP.ligand.torsion>
0.0941

> <Gold.PLP.Chemscore.Hbond>
2.8320

> <Gold.PLP.Chemscore.CHOScore>
1.0768

> <Gold.PLP.Chemscore.Metal>
0.0000

> <Gold.Chemscore.Hbonds>
donor molecule, donor type, donor heavy atom, donor atom, acceptor molecule, acceptor atom, score
      L1  H    15    30       P1  7957  0.82
      P1  H  7989  7998       L1    17  1.00
      P1  H  8011  8017       L1    15  1.00
      L1  C     9    27       P1  8028  0.98
      L1  C     9    27       P1  8029  0.11

> <Gold.PLP.Chemscore.Internal.Correction>
0.0019

> <Gold.Rescore>
     Score         DG    S(hbond)    S(metal)    S(lipo)     H(rot)  DE(clash)    DE(int)     intcor
      6.40      -6.64       2.30        0.00      32.53       4.03       0.21       0.04       ----

> <Gold.Chemscore.Fitness>
6.3967

> <Gold.Chemscore.DG>
-6.6442

> <Gold.Chemscore.ZeroCoef>
-5.4800

> <Gold.Chemscore.Hbond>
2.2961

> <Gold.Chemscore.Metal>
0.0000

> <Gold.Chemscore.Lipo>
32.5312

> <Gold.Chemscore.Internal_Hbond>
0.0000

> <Gold.Chemscore.DEClash>
0.2101

> <Gold.Chemscore.DEInternal>
0.0374

> <Gold.Chemscore.Rot>
4.0277

> <Gold.Chemscore.Internal.Correction>
   9.000000E+99

> <Gold.Chemscore.Hbonds>
donor molecule, donor type, donor heavy atom, donor atom, acceptor molecule, acceptor atom, score
      L1  H    15    30       P1  7957  0.81
      P1  H  7989  7998       L1    17  0.97
      P1  H  8011  8017       L1    15  0.25

> <Gold.Chemscore.Hbond.Weighted>
-7.6690

> <Gold.Chemscore.Metal.Weighted>
-0.0000

> <Gold.Chemscore.Lipo.Weighted>
-3.8061

> <Gold.Chemscore.Internal_Hbond.Weighted>
0.0000

> <Gold.Chemscore.DEClash.Weighted>
0.2101

> <Gold.Chemscore.DEInternal.Weighted>
0.0374

> <Gold.Chemscore.Rot.Weighted>
10.3110

> <Gold.Chemscore.Internal.Correction.Weighted>
   9.000000E+99

> <Gold.Protein.RotatedTorsions>
[ 6907 6896 6895 6894 ] final  -50.90 input  -60.11 | X-H torsion
[ 7974 7965 7964 7962 ] final  -25.59 input  175.53 | X-H torsion
[ 8008 7997 7996 7995 ] final  -55.74 input   59.86 | X-H torsion
[ 10167 10162 10161 10158 ] final -105.56 input  -65.29 | X-H torsion
[ 10718 10713 10712 10709 ] final -165.81 input   66.30 | X-H torsion
[ 10763 10752 10751 10750 ] final -137.08 input  -60.55 | X-H torsion
[ 11005 11000 10999 10996 ] final -112.81 input  -57.11 | X-H torsion

> <Gold.Protein.ActiveResidues>
 VAL166  LYS551  ARG553  GLY616  TRP617  ASP618  TYR619  PRO620  LYS621  CYS622 
 ASP623  PHE694  ASN695  SER759  ASP760  ASP761  ALA762  ILE779  LEU786  VAL792 
 PHE793  MET794  SER795  GLU796  ALA797  LYS798  CYS799  TRP800  GLU811  SER814 

> <Gold.Protein.RotatedAtoms>
  150.8663  134.8027  159.7120 H   0  0  0  0  0  0  0  0  0  0  0  0  # atno 6907 bound_to 6896
  152.4683  134.5019  159.9737 H   0  0  0  0  0  0  0  0  0  0  0  0  # atno 6908 bound_to 6896
  151.5114  133.3446  159.2921 H   0  0  0  0  0  0  0  0  0  0  0  0  # atno 6909 bound_to 6896
  146.1481  140.4906  142.8623 H   0  0  0  0  0  0  0  0  0  0  0  0  # atno 7974 bound_to 7965
  154.4205  140.1146  156.5526 H   0  0  0  0  0  0  0  0  0  0  0  0  # atno 8008 bound_to 7997
  155.6394  140.3496  155.4691 H   0  0  0  0  0  0  0  0  0  0  0  0  # atno 8009 bound_to 7997
  155.9883  140.1174  157.0652 H   0  0  0  0  0  0  0  0  0  0  0  0  # atno 8010 bound_to 7997
  140.1972  143.3846  152.1159 H   0  0  0  0  0  0  0  0  0  0  0  0  # atno 10167 bound_to 10162
  156.6588  130.9037  151.3025 H   0  0  0  0  0  0  0  0  0  0  0  0  # atno 10718 bound_to 10713
  154.8670  135.3653  154.5166 H   0  0  0  0  0  0  0  0  0  0  0  0  # atno 10763 bound_to 10752
  153.5798  135.7018  153.5473 H   0  0  0  0  0  0  0  0  0  0  0  0  # atno 10764 bound_to 10752
  153.3467  135.4083  155.1577 H   0  0  0  0  0  0  0  0  0  0  0  0  # atno 10765 bound_to 10752
  141.0652  133.9470  157.2591 H   0  0  0  0  0  0  0  0  0  0  0  0  # atno 11005 bound_to 11000
  144.7871  140.5958  143.6566 LP  0  0  0  0  0  0  0  0  0  0  0  0  # atno 17320 bound_to 7965
  145.4889  139.1490  143.3721 LP  0  0  0  0  0  0  0  0  0  0  0  0  # atno 17321 bound_to 7965
  139.5232  144.7068  151.5329 LP  0  0  0  0  0  0  0  0  0  0  0  0  # atno 17342 bound_to 10162
  140.6415  143.8878  150.6697 LP  0  0  0  0  0  0  0  0  0  0  0  0  # atno 17343 bound_to 10162
  157.7117  130.9448  150.1111 LP  0  0  0  0  0  0  0  0  0  0  0  0  # atno 17370 bound_to 10713
  156.2027  130.3661  149.8768 LP  0  0  0  0  0  0  0  0  0  0  0  0  # atno 17371 bound_to 10713
  139.9470  135.0182  156.8881 LP  0  0  0  0  0  0  0  0  0  0  0  0  # atno 17394 bound_to 11000
  140.5787  134.0373  155.7456 LP  0  0  0  0  0  0  0  0  0  0  0  0  # atno 17395 bound_to 11000

$$$$
