AV-unprocessed.smi:234|AV-procd|sdf|1792|dock10
  -GOLD-   2262020353D 1   1.00000     0.00000
 Structure written by MMmdl.
 59 62  0  0  0  0  0  0  0  0  1 V2000
  152.4798  143.2165  161.5462 C   0  0  0  0  0  0  0  0  0  0  0  0
  152.8092  142.7579  160.1197 C   0  0  0  0  0  0  0  0  0  0  0  0
  152.3500  141.4336  159.8880 O   0  0  0  0  0  0  0  0  0  0  0  0
  152.2109  141.0950  158.5113 C   0  0  1  0  0  0  0  0  0  0  0  0
  151.8064  139.6284  158.3243 C   0  0  0  0  0  0  0  0  0  0  0  0
  150.3571  140.1180  158.4375 C   0  0  2  0  0  0  0  0  0  0  0  0
  149.4127  139.4304  157.5553 N   0  0  0  0  0  0  0  0  0  0  0  0
  148.0963  140.0392  157.4206 C   0  0  0  0  0  0  0  0  0  0  0  0
  149.3110  138.1022  157.7795 C   0  0  0  0  0  0  0  0  0  0  0  0
  150.3354  137.3212  157.3574 N   0  0  0  0  0  0  0  0  0  0  0  0
  150.2972  136.0016  157.5668 C   0  0  0  0  0  0  0  0  0  0  0  0
  149.3481  135.2773  158.1642 N   0  0  0  0  0  0  0  0  0  0  0  0
  148.3132  136.0614  158.5830 C   0  0  0  0  0  0  0  0  0  0  0  0
  148.2104  137.4718  158.4258 C   0  0  0  0  0  0  0  0  0  0  0  0
  147.0101  137.9233  158.9604 N   0  0  0  0  0  0  0  0  0  0  0  0
  146.4385  136.8420  159.4142 C   0  0  0  0  0  0  0  0  0  0  0  0
  147.1590  135.6805  159.2455 N   0  0  0  0  0  0  0  0  0  0  0  0
  146.7693  134.3446  159.6707 C   0  0  0  0  0  0  0  0  0  0  0  0
  146.8475  134.1345  161.2038 C   0  0  2  0  0  0  0  0  0  0  0  0
  148.1854  133.8104  161.5418 O   0  0  0  0  0  0  0  0  0  0  0  0
  145.9466  132.9874  161.6728 C   0  0  0  0  0  0  0  0  0  0  0  0
  144.8279  133.6859  162.4363 C   0  0  0  0  0  0  0  0  0  0  0  0
  145.4918  134.7921  163.0203 O   0  0  0  0  0  0  0  0  0  0  0  0
  146.3310  135.3500  162.0192 C   0  0  1  0  0  0  0  0  0  0  0  0
  147.3887  136.2690  162.6536 C   0  0  0  0  0  0  0  0  0  0  0  0
  150.8321  141.5061  157.9321 C   0  0  0  0  0  0  0  0  0  0  0  0
  150.1694  142.7290  158.5712 C   0  0  0  0  0  0  0  0  0  0  0  0
  150.8414  141.7502  156.4137 C   0  0  0  0  0  0  0  0  0  0  0  0
  152.8913  144.2077  161.7371 H   0  0  0  0  0  0  0  0  0  0  0  0
  152.9045  142.5334  162.2819 H   0  0  0  0  0  0  0  0  0  0  0  0
  151.4055  143.2691  161.7188 H   0  0  0  0  0  0  0  0  0  0  0  0
  152.4074  143.4531  159.3814 H   0  0  0  0  0  0  0  0  0  0  0  0
  153.8914  142.7592  159.9903 H   0  0  0  0  0  0  0  0  0  0  0  0
  153.0502  141.4116  157.8912 H   0  0  0  0  0  0  0  0  0  0  0  0
  152.0683  139.2378  157.3396 H   0  0  0  0  0  0  0  0  0  0  0  0
  152.1159  138.9507  159.1201 H   0  0  0  0  0  0  0  0  0  0  0  0
  150.0308  140.1630  159.4783 H   0  0  0  0  0  0  0  0  0  0  0  0
  147.4724  139.4749  156.7262 H   0  0  0  0  0  0  0  0  0  0  0  0
  148.1778  141.0562  157.0395 H   0  0  0  0  0  0  0  0  0  0  0  0
  147.5877  140.0797  158.3846 H   0  0  0  0  0  0  0  0  0  0  0  0
  151.1509  135.4467  157.2070 H   0  0  0  0  0  0  0  0  0  0  0  0
  145.4721  136.8654  159.8963 H   0  0  0  0  0  0  0  0  0  0  0  0
  145.7524  134.1627  159.3203 H   0  0  0  0  0  0  0  0  0  0  0  0
  147.4025  133.6211  159.1550 H   0  0  0  0  0  0  0  0  0  0  0  0
  148.2337  133.6778  162.4761 H   0  0  0  0  0  0  0  0  0  0  0  0
  145.5665  132.3705  160.8577 H   0  0  0  0  0  0  0  0  0  0  0  0
  146.4785  132.3252  162.3583 H   0  0  0  0  0  0  0  0  0  0  0  0
  144.0494  134.0376  161.7574 H   0  0  0  0  0  0  0  0  0  0  0  0
  144.3673  133.0468  163.1899 H   0  0  0  0  0  0  0  0  0  0  0  0
  145.6792  135.9560  161.3885 H   0  0  0  0  0  0  0  0  0  0  0  0
  148.0590  136.6808  161.8985 H   0  0  0  0  0  0  0  0  0  0  0  0
  147.9939  135.7379  163.3886 H   0  0  0  0  0  0  0  0  0  0  0  0
  146.9137  137.1064  163.1649 H   0  0  0  0  0  0  0  0  0  0  0  0
  149.1843  142.9231  158.1466 H   0  0  0  0  0  0  0  0  0  0  0  0
  150.7718  143.6267  158.4295 H   0  0  0  0  0  0  0  0  0  0  0  0
  150.0314  142.5980  159.6446 H   0  0  0  0  0  0  0  0  0  0  0  0
  149.8374  141.9101  156.0207 H   0  0  0  0  0  0  0  0  0  0  0  0
  151.2691  140.9112  155.8647 H   0  0  0  0  0  0  0  0  0  0  0  0
  151.4316  142.6309  156.1593 H   0  0  0  0  0  0  0  0  0  0  0  0
  1  2  1  0  0  0  0
  1 29  1  0  0  0  0
  1 30  1  0  0  0  0
  1 31  1  0  0  0  0
  2  3  1  0  0  0  0
  2 32  1  0  0  0  0
  2 33  1  0  0  0  0
  3  4  1  0  0  0  0
  4 26  1  0  0  0  0
  4  5  1  0  0  0  0
  4 34  1  0  0  0  0
  5  6  1  0  0  0  0
  5 35  1  0  0  0  0
  5 36  1  0  0  0  0
  6  7  1  0  0  0  0
  6 26  1  0  0  0  0
  6 37  1  0  0  0  0
  7  8  1  0  0  0  0
  7  9  1  0  0  0  0
  8 38  1  0  0  0  0
  8 39  1  0  0  0  0
  8 40  1  0  0  0  0
  9 14  1  0  0  0  0
  9 10  2  0  0  0  0
 10 11  1  0  0  0  0
 11 12  2  0  0  0  0
 11 41  1  0  0  0  0
 12 13  1  0  0  0  0
 13 17  1  0  0  0  0
 13 14  2  0  0  0  0
 14 15  1  0  0  0  0
 15 16  2  0  0  0  0
 16 17  1  0  0  0  0
 16 42  1  0  0  0  0
 17 18  1  0  0  0  0
 18 19  1  0  0  0  0
 18 43  1  0  0  0  0
 18 44  1  0  0  0  0
 19 24  1  0  0  0  0
 19 20  1  0  0  0  0
 19 21  1  0  0  0  0
 20 45  1  0  0  0  0
 21 22  1  0  0  0  0
 21 46  1  0  0  0  0
 21 47  1  0  0  0  0
 22 23  1  0  0  0  0
 22 48  1  0  0  0  0
 22 49  1  0  0  0  0
 23 24  1  0  0  0  0
 24 25  1  0  0  0  0
 24 50  1  0  0  0  0
 25 51  1  0  0  0  0
 25 52  1  0  0  0  0
 25 53  1  0  0  0  0
 26 27  1  0  0  0  0
 26 28  1  0  0  0  0
 27 54  1  0  0  0  0
 27 55  1  0  0  0  0
 27 56  1  0  0  0  0
 28 57  1  0  0  0  0
 28 58  1  0  0  0  0
 28 59  1  0  0  0  0
M  END
> <s_m_source_file>
AV-unprocessed.smi

> <i_m_source_file_index>
234

> <i_lp_mmshare_version>
43012

> <i_f3d_flags>
0

> <s_epik_input>
W0NIM11bQ0gyXU9bQ0BASF0oQzEoW0NIM10pW0NIM10pW0NIMl1bQ0BIXTFOKFtDSDNdKWMobltjSF1uMiljKGMyMyluW2NIXW4zW0NIMl1bQ0BAXTQoW09IXSlbQ0gyXVtDSDJdT1tDQEhdNFtDSDNd

> <s_epik_cmdline>
J2VwaWtfcHl0aG9uJywgJy1waCcsICc3LjAnLCAnLXRuJywgJzgnLCAnLW1hJywgJzIwMCcsICctbWV0YWxfYmluZGluZycsICctaW1hZScsICc8aW5maWxlLm1hZT4nLCAnLW9tYWUnLCAnPG91dGZpbGUubWFlPic=

> <r_lp_tautomer_probability>
1

> <r_epik_Ionization_Penalty>
0.00349132

> <r_epik_Ionization_Penalty_Charging>
0

> <r_epik_Ionization_Penalty_Neutral>
0.00349132

> <r_epik_State_Penalty>
0.00242418

> <r_epik_Charging_Adjusted_Penalty>
0.00242418

> <i_epik_Tot_Q>
0

> <i_epik_Tot_abs_Q>
0

> <r_epik_Metal_State_Penalty>
-0

> <b_epik_Metal_Only>
0

> <s_lp_Force_Field>
OPLS_2005

> <r_lp_Energy>
49.6192

> <b_lp_Chiralities_Consistent>
1

> <s_lp_Variant>
AV-unprocessed.smi:234-8

> <Gold.Version>
5.8.1

> <Gold.Id.Protein>
6NUR|6NUR_protein|mol2

> <Gold.PLP.Fitness>
38.3902

> <Gold.PLP.PLP>
-37.1990

> <Gold.PLP.part.hbond>
-2.4567

> <Gold.PLP.part.metal>
0.0000

> <Gold.PLP.part.buried>
-2.0057

> <Gold.PLP.part.nonpolar>
-32.9437

> <Gold.PLP.part.repulsive>
0.0147

> <Gold.PLP.ligand.clash>
0.0000

> <Gold.PLP.ligand.torsion>
1.3903

> <Gold.PLP.Chemscore.Hbond>
1.0682

> <Gold.PLP.Chemscore.CHOScore>
0.0000

> <Gold.PLP.Chemscore.Metal>
0.0000

> <Gold.Chemscore.Hbonds>
donor molecule, donor type, donor heavy atom, donor atom, acceptor molecule, acceptor atom, score
      P1  H  6896  6907       L1    12  0.68
      P1  H  6934  6947       L1    15  0.27

> <Gold.PLP.Chemscore.Internal.Correction>
0.7672

> <Gold.Rescore>
     Score         DG    S(hbond)    S(metal)    S(lipo)     H(rot)  DE(clash)    DE(int)     intcor
      6.15     -10.64       0.07        0.00      99.50       2.62       0.03       4.47       ----

> <Gold.Chemscore.Fitness>
6.1451

> <Gold.Chemscore.DG>
-10.6443

> <Gold.Chemscore.ZeroCoef>
-5.4800

> <Gold.Chemscore.Hbond>
0.0704

> <Gold.Chemscore.Metal>
0.0000

> <Gold.Chemscore.Lipo>
99.4974

> <Gold.Chemscore.Internal_Hbond>
0.0000

> <Gold.Chemscore.DEClash>
0.0255

> <Gold.Chemscore.DEInternal>
4.4737

> <Gold.Chemscore.Rot>
2.6219

> <Gold.Chemscore.Internal.Correction>
   9.000000E+99

> <Gold.Chemscore.Hbonds>
donor molecule, donor type, donor heavy atom, donor atom, acceptor molecule, acceptor atom, score
      P1  H  6896  6907       L1    12  0.07
      P1  H  6934  6947       L1    15  0.06

> <Gold.Chemscore.Hbond.Weighted>
-0.2352

> <Gold.Chemscore.Metal.Weighted>
-0.0000

> <Gold.Chemscore.Lipo.Weighted>
-11.6412

> <Gold.Chemscore.Internal_Hbond.Weighted>
0.0000

> <Gold.Chemscore.DEClash.Weighted>
0.0255

> <Gold.Chemscore.DEInternal.Weighted>
4.4737

> <Gold.Chemscore.Rot.Weighted>
6.7121

> <Gold.Chemscore.Internal.Correction.Weighted>
   9.000000E+99

> <Gold.Protein.RotatedTorsions>
[ 6907 6896 6895 6894 ] final  -86.68 input  -60.11 | X-H torsion
[ 7974 7965 7964 7962 ] final -130.33 input  175.53 | X-H torsion
[ 8008 7997 7996 7995 ] final  137.34 input   59.86 | X-H torsion
[ 10167 10162 10161 10158 ] final -157.14 input  -65.29 | X-H torsion
[ 10718 10713 10712 10709 ] final  141.10 input   66.30 | X-H torsion
[ 10763 10752 10751 10750 ] final -100.66 input  -60.55 | X-H torsion
[ 11005 11000 10999 10996 ] final  -40.77 input  -57.11 | X-H torsion

> <Gold.Protein.ActiveResidues>
 VAL166  LYS551  ARG553  GLY616  TRP617  ASP618  TYR619  PRO620  LYS621  CYS622 
 ASP623  PHE694  ASN695  SER759  ASP760  ASP761  ALA762  ILE779  LEU786  VAL792 
 PHE793  MET794  SER795  GLU796  ALA797  LYS798  CYS799  TRP800  GLU811  SER814 

> <Gold.Protein.RotatedAtoms>
  150.6866  134.3013  159.4707 H   0  0  0  0  0  0  0  0  0  0  0  0  # atno 6907 bound_to 6896
  152.0909  134.9405  160.0581 H   0  0  0  0  0  0  0  0  0  0  0  0  # atno 6908 bound_to 6896
  152.0722  133.4077  159.4501 H   0  0  0  0  0  0  0  0  0  0  0  0  # atno 6909 bound_to 6896
  144.9485  140.7319  143.4802 H   0  0  0  0  0  0  0  0  0  0  0  0  # atno 7974 bound_to 7965
  156.3002  140.2422  156.3893 H   0  0  0  0  0  0  0  0  0  0  0  0  # atno 8008 bound_to 7997
  154.8628  140.0419  157.1696 H   0  0  0  0  0  0  0  0  0  0  0  0  # atno 8009 bound_to 7997
  154.8878  140.2958  155.5392 H   0  0  0  0  0  0  0  0  0  0  0  0  # atno 8010 bound_to 7997
  139.6794  143.9607  152.2328 H   0  0  0  0  0  0  0  0  0  0  0  0  # atno 10167 bound_to 10162
  157.3958  131.1010  151.0601 H   0  0  0  0  0  0  0  0  0  0  0  0  # atno 10718 bound_to 10713
  154.7597  135.4926  153.9441 H   0  0  0  0  0  0  0  0  0  0  0  0  # atno 10763 bound_to 10752
  153.1237  135.6737  153.9301 H   0  0  0  0  0  0  0  0  0  0  0  0  # atno 10764 bound_to 10752
  153.9025  135.3108  155.3427 H   0  0  0  0  0  0  0  0  0  0  0  0  # atno 10765 bound_to 10752
  141.0198  133.6868  156.2366 H   0  0  0  0  0  0  0  0  0  0  0  0  # atno 11005 bound_to 11000
  145.2880  139.1894  143.4755 LP  0  0  0  0  0  0  0  0  0  0  0  0  # atno 17320 bound_to 7965
  146.3312  140.2852  142.8612 LP  0  0  0  0  0  0  0  0  0  0  0  0  # atno 17321 bound_to 7965
  139.9393  144.6692  150.8283 LP  0  0  0  0  0  0  0  0  0  0  0  0  # atno 17342 bound_to 10162
  140.7647  143.3255  151.2525 LP  0  0  0  0  0  0  0  0  0  0  0  0  # atno 17343 bound_to 10162
  157.1618  130.6229  149.5613 LP  0  0  0  0  0  0  0  0  0  0  0  0  # atno 17370 bound_to 10713
  155.9810  130.4814  150.6803 LP  0  0  0  0  0  0  0  0  0  0  0  0  # atno 17371 bound_to 10713
  140.6592  134.4986  157.5582 LP  0  0  0  0  0  0  0  0  0  0  0  0  # atno 17394 bound_to 11000
  139.9139  134.8286  156.1432 LP  0  0  0  0  0  0  0  0  0  0  0  0  # atno 17395 bound_to 11000

$$$$
