AV-unprocessed.smi:103|AV-procd|sdf|977|dock1
  -GOLD-   2262017533D 1   1.00000     0.00000
 Structure written by MMmdl.
 53 55  0  0  0  0  0  0  0  0  1 V2000
  153.6059  141.2698  160.2871 C   0  0  0  0  0  0  0  0  0  0  0  0
  152.2171  141.7837  159.9305 C   0  0  0  0  0  0  0  0  0  0  0  0
  151.6232  142.5786  160.6599 O   0  0  0  0  0  0  0  0  0  0  0  0
  151.7596  141.2761  158.7702 O   0  0  0  0  0  0  0  0  0  0  0  0
  150.4989  141.6816  158.2545 C   0  0  0  0  0  0  0  0  0  0  0  0
  150.1125  140.8396  157.0230 C   0  0  2  0  0  0  0  0  0  0  0  0
  148.7344  141.0115  156.7169 O   0  0  0  0  0  0  0  0  0  0  0  0
  147.9735  140.1592  157.5111 C   0  0  1  0  0  0  0  0  0  0  0  0
  146.7735  139.7328  156.7204 N   0  0  0  0  0  0  0  0  0  0  0  0
  145.4474  139.6792  157.0984 C   0  0  0  0  0  0  0  0  0  0  0  0
  144.7734  140.1850  158.6762 S   0  0  0  0  0  0  0  0  0  0  0  0
  142.9892  140.3831  158.2775 C   0  0  0  0  0  0  0  0  0  0  0  0
  144.9449  139.0528  159.6001 O   0  0  0  0  0  0  0  0  0  0  0  0
  145.3470  141.5017  158.9932 O   0  0  0  0  0  0  0  0  0  0  0  0
  144.5909  139.3143  156.1833 N   0  0  0  0  0  0  0  0  0  0  0  0
  145.3999  139.0322  155.0914 C   0  0  0  0  0  0  0  0  0  0  0  0
  145.1521  138.5633  153.7766 C   0  0  0  0  0  0  0  0  0  0  0  0
  143.9245  138.2772  153.3219 N   0  0  0  0  0  0  0  0  0  0  0  0
  146.2030  138.3940  152.9408 N   0  0  0  0  0  0  0  0  0  0  0  0
  147.4375  138.6741  153.3701 C   0  0  0  0  0  0  0  0  0  0  0  0
  147.8229  139.1232  154.5669 N   0  0  0  0  0  0  0  0  0  0  0  0
  146.7635  139.2892  155.4122 C   0  0  0  0  0  0  0  0  0  0  0  0
  148.8815  138.9838  157.9334 C   0  0  1  0  0  0  0  0  0  0  0  0
  148.3967  137.7082  157.5150 O   0  0  0  0  0  0  0  0  0  0  0  0
  148.8154  136.5811  158.1123 C   0  0  0  0  0  0  0  0  0  0  0  0
  148.1699  135.3394  157.5129 C   0  0  0  0  0  0  0  0  0  0  0  0
  149.6178  136.5039  159.0418 O   0  0  0  0  0  0  0  0  0  0  0  0
  150.2216  139.3323  157.2877 C   0  0  1  0  0  0  0  0  0  0  0  0
  150.3920  138.6429  156.0525 O   0  0  0  0  0  0  0  0  0  0  0  0
  151.5603  138.6918  155.3935 C   0  0  0  0  0  0  0  0  0  0  0  0
  151.7129  137.5430  154.4060 C   0  0  0  0  0  0  0  0  0  0  0  0
  152.4353  139.5469  155.5297 O   0  0  0  0  0  0  0  0  0  0  0  0
  154.3445  142.0601  160.1525 H   0  0  0  0  0  0  0  0  0  0  0  0
  153.8840  140.4259  159.6551 H   0  0  0  0  0  0  0  0  0  0  0  0
  153.6328  140.9442  161.3270 H   0  0  0  0  0  0  0  0  0  0  0  0
  149.7633  141.5153  159.0417 H   0  0  0  0  0  0  0  0  0  0  0  0
  150.4768  142.7505  158.0375 H   0  0  0  0  0  0  0  0  0  0  0  0
  150.7277  141.1434  156.1752 H   0  0  0  0  0  0  0  0  0  0  0  0
  147.5866  140.7208  158.3584 H   0  0  0  0  0  0  0  0  0  0  0  0
  142.4518  140.7003  159.1706 H   0  0  0  0  0  0  0  0  0  0  0  0
  142.5870  139.4316  157.9302 H   0  0  0  0  0  0  0  0  0  0  0  0
  142.8687  141.1332  157.4964 H   0  0  0  0  0  0  0  0  0  0  0  0
  143.1247  138.3939  153.9273 H   0  0  0  0  0  0  0  0  0  0  0  0
  143.8012  137.9465  152.3759 H   0  0  0  0  0  0  0  0  0  0  0  0
  148.2300  138.5176  152.6533 H   0  0  0  0  0  0  0  0  0  0  0  0
  148.9959  139.0362  159.0171 H   0  0  0  0  0  0  0  0  0  0  0  0
  147.0846  135.4017  157.5944 H   0  0  0  0  0  0  0  0  0  0  0  0
  148.5046  134.4428  158.0351 H   0  0  0  0  0  0  0  0  0  0  0  0
  148.4350  135.2463  156.4597 H   0  0  0  0  0  0  0  0  0  0  0  0
  151.0437  139.0924  157.9639 H   0  0  0  0  0  0  0  0  0  0  0  0
  151.6831  136.5875  154.9300 H   0  0  0  0  0  0  0  0  0  0  0  0
  152.6614  137.6170  153.8738 H   0  0  0  0  0  0  0  0  0  0  0  0
  150.9037  137.5631  153.6759 H   0  0  0  0  0  0  0  0  0  0  0  0
  1  2  1  0  0  0  0
  1 33  1  0  0  0  0
  1 34  1  0  0  0  0
  1 35  1  0  0  0  0
  2  3  2  0  0  0  0
  2  4  1  0  0  0  0
  4  5  1  0  0  0  0
  5  6  1  0  0  0  0
  5 36  1  0  0  0  0
  5 37  1  0  0  0  0
  6 28  1  0  0  0  0
  6  7  1  0  0  0  0
  6 38  1  0  0  0  0
  7  8  1  0  0  0  0
  8  9  1  0  0  0  0
  8 23  1  0  0  0  0
  8 39  1  0  0  0  0
  9 22  1  0  0  0  0
  9 10  1  0  0  0  0
 10 11  1  0  0  0  0
 10 15  2  0  0  0  0
 11 12  1  0  0  0  0
 11 13  2  0  0  0  0
 11 14  2  0  0  0  0
 12 40  1  0  0  0  0
 12 41  1  0  0  0  0
 12 42  1  0  0  0  0
 15 16  1  0  0  0  0
 16 22  2  0  0  0  0
 16 17  1  0  0  0  0
 17 18  1  0  0  0  0
 17 19  2  0  0  0  0
 18 43  1  0  0  0  0
 18 44  1  0  0  0  0
 19 20  1  0  0  0  0
 20 21  2  0  0  0  0
 20 45  1  0  0  0  0
 21 22  1  0  0  0  0
 23 24  1  0  0  0  0
 23 28  1  0  0  0  0
 23 46  1  0  0  0  0
 24 25  1  0  0  0  0
 25 26  1  0  0  0  0
 25 27  2  0  0  0  0
 26 47  1  0  0  0  0
 26 48  1  0  0  0  0
 26 49  1  0  0  0  0
 28 29  1  0  0  0  0
 28 50  1  0  0  0  0
 29 30  1  0  0  0  0
 30 31  1  0  0  0  0
 30 32  2  0  0  0  0
 31 51  1  0  0  0  0
 31 52  1  0  0  0  0
 31 53  1  0  0  0  0
M  END
> <s_m_source_file>
AV-unprocessed.smi

> <i_m_source_file_index>
103

> <i_lp_mmshare_version>
43012

> <i_f3d_flags>
0

> <s_epik_input>
W0NIM11DKD1PKU9bQ0gyXVtDQEBIXTFPW0NASF0oW0NAQEhdKE9DKD1PKVtDSDNdKVtDQEhdMU9DKD1PKVtDSDNdKW4oYyhuMilTKD1PKSg9TylbQ0gzXSljKGMyMyluW2NIXW5jM1tOSDJd

> <s_epik_cmdline>
J2VwaWtfcHl0aG9uJywgJy1waCcsICc3LjAnLCAnLXRuJywgJzgnLCAnLW1hJywgJzIwMCcsICctbWV0YWxfYmluZGluZycsICctaW1hZScsICc8aW5maWxlLm1hZT4nLCAnLW9tYWUnLCAnPG91dGZpbGUubWFlPic=

> <r_lp_tautomer_probability>
1

> <r_epik_Ionization_Penalty>
1.51338e-05

> <r_epik_Ionization_Penalty_Charging>
0

> <r_epik_Ionization_Penalty_Neutral>
1.51338e-05

> <r_epik_State_Penalty>
-0

> <r_epik_Charging_Adjusted_Penalty>
0

> <i_epik_Tot_Q>
0

> <i_epik_Tot_abs_Q>
0

> <r_epik_Metal_State_Penalty>
-0

> <b_epik_Metal_Only>
0

> <s_epik_Chemistry_Notes>
This compound has an ester and may undergo hydrolysis at high or low pH. This compound contains an acetal/aminal-like group ( X-CH(R)-Y where X, Y are N, S, or O) that may be acid/base labile, releasing an aldehyde.

> <s_lp_Force_Field>
OPLS_2005

> <r_lp_Energy>
14.6626

> <b_lp_Chiralities_Consistent>
1

> <s_lp_Variant>
AV-unprocessed.smi:103-1

> <Gold.Version>
5.8.1

> <Gold.Id.Protein>
6NUR|6NUR_protein|mol2

> <Gold.PLP.Fitness>
42.8539

> <Gold.PLP.PLP>
-29.2524

> <Gold.PLP.part.hbond>
-6.5709

> <Gold.PLP.part.metal>
0.0000

> <Gold.PLP.part.buried>
-3.5661

> <Gold.PLP.part.nonpolar>
-20.2332

> <Gold.PLP.part.repulsive>
0.4851

> <Gold.PLP.ligand.clash>
0.0000

> <Gold.PLP.ligand.torsion>
2.1885

> <Gold.PLP.Chemscore.Hbond>
3.4153

> <Gold.PLP.Chemscore.CHOScore>
1.7962

> <Gold.PLP.Chemscore.Metal>
0.0000

> <Gold.Chemscore.Hbonds>
donor molecule, donor type, donor heavy atom, donor atom, acceptor molecule, acceptor atom, score
      P1  H  6896  6908       L1    27  0.71
      P1  H  6933  6945       L1     3  0.04
      P1  H  6934  6946       L1    14  0.07
      P1  H  7997  8010       L1    32  0.76
      L1  C    20    45       P1  7948  0.89
      L1  C    20    45       P1  7957  1.00

> <Gold.PLP.Chemscore.Internal.Correction>
2.3441

> <Gold.Rescore>
     Score         DG    S(hbond)    S(metal)    S(lipo)     H(rot)  DE(clash)    DE(int)     intcor
      3.35      -7.83       2.65        0.00      37.18       4.25       0.01       4.47       ----

> <Gold.Chemscore.Fitness>
3.3479

> <Gold.Chemscore.DG>
-7.8293

> <Gold.Chemscore.ZeroCoef>
-5.4800

> <Gold.Chemscore.Hbond>
2.6549

> <Gold.Chemscore.Metal>
0.0000

> <Gold.Chemscore.Lipo>
37.1833

> <Gold.Chemscore.Internal_Hbond>
0.0000

> <Gold.Chemscore.DEClash>
0.0122

> <Gold.Chemscore.DEInternal>
4.4692

> <Gold.Chemscore.Rot>
4.2456

> <Gold.Chemscore.Internal.Correction>
   9.000000E+99

> <Gold.Chemscore.Hbonds>
donor molecule, donor type, donor heavy atom, donor atom, acceptor molecule, acceptor atom, score
      P1  H  6896  6908       L1    27  0.71
      P1  H  6933  6945       L1     3  0.04
      P1  H  6934  6946       L1    14  0.02
      P1  H  7997  8010       L1    32  0.75

> <Gold.Chemscore.Hbond.Weighted>
-8.8675

> <Gold.Chemscore.Metal.Weighted>
-0.0000

> <Gold.Chemscore.Lipo.Weighted>
-4.3504

> <Gold.Chemscore.Internal_Hbond.Weighted>
0.0000

> <Gold.Chemscore.DEClash.Weighted>
0.0122

> <Gold.Chemscore.DEInternal.Weighted>
4.4692

> <Gold.Chemscore.Rot.Weighted>
10.8687

> <Gold.Chemscore.Internal.Correction.Weighted>
   9.000000E+99

> <Gold.Protein.RotatedTorsions>
[ 6907 6896 6895 6894 ] final -166.59 input  -60.11 | X-H torsion
[ 7974 7965 7964 7962 ] final  127.40 input  175.53 | X-H torsion
[ 8008 7997 7996 7995 ] final  100.01 input   59.86 | X-H torsion
[ 10167 10162 10161 10158 ] final   25.58 input  -65.29 | X-H torsion
[ 10718 10713 10712 10709 ] final -167.41 input   66.30 | X-H torsion
[ 10763 10752 10751 10750 ] final  -24.55 input  -60.55 | X-H torsion
[ 11005 11000 10999 10996 ] final  140.52 input  -57.11 | X-H torsion

> <Gold.Protein.ActiveResidues>
 VAL166  LYS551  ARG553  GLY616  TRP617  ASP618  TYR619  PRO620  LYS621  CYS622 
 ASP623  PHE694  ASN695  SER759  ASP760  ASP761  ALA762  ILE779  LEU786  VAL792 
 PHE793  MET794  SER795  GLU796  ALA797  LYS798  CYS799  TRP800  GLU811  SER814 

> <Gold.Protein.RotatedAtoms>
  151.4460  133.3630  159.2788 H   0  0  0  0  0  0  0  0  0  0  0  0  # atno 6907 bound_to 6896
  150.9124  134.8543  159.7445 H   0  0  0  0  0  0  0  0  0  0  0  0  # atno 6908 bound_to 6896
  152.4939  134.4390  159.9589 H   0  0  0  0  0  0  0  0  0  0  0  0  # atno 6909 bound_to 6896
  145.0510  139.3883  143.5054 H   0  0  0  0  0  0  0  0  0  0  0  0  # atno 7974 bound_to 7965
  156.1162  140.3220  155.8142 H   0  0  0  0  0  0  0  0  0  0  0  0  # atno 8008 bound_to 7997
  155.4586  140.0537  157.3010 H   0  0  0  0  0  0  0  0  0  0  0  0  # atno 8009 bound_to 7997
  154.4794  140.2046  155.9813 H   0  0  0  0  0  0  0  0  0  0  0  0  # atno 8010 bound_to 7997
  140.5094  144.0184  150.6366 H   0  0  0  0  0  0  0  0  0  0  0  0  # atno 10167 bound_to 10162
  156.6820  130.9125  151.3058 H   0  0  0  0  0  0  0  0  0  0  0  0  # atno 10718 bound_to 10713
  153.6856  135.6964  153.5105 H   0  0  0  0  0  0  0  0  0  0  0  0  # atno 10763 bound_to 10752
  153.2452  135.4293  155.0739 H   0  0  0  0  0  0  0  0  0  0  0  0  # atno 10764 bound_to 10752
  154.8387  135.3517  154.6399 H   0  0  0  0  0  0  0  0  0  0  0  0  # atno 10765 bound_to 10752
  140.0334  134.9341  157.0706 H   0  0  0  0  0  0  0  0  0  0  0  0  # atno 11005 bound_to 11000
  146.3518  140.0160  142.8663 LP  0  0  0  0  0  0  0  0  0  0  0  0  # atno 17320 bound_to 7965
  145.1527  140.9631  143.4423 LP  0  0  0  0  0  0  0  0  0  0  0  0  # atno 17321 bound_to 7965
  140.3503  143.2967  152.0494 LP  0  0  0  0  0  0  0  0  0  0  0  0  # atno 17342 bound_to 10162
  139.4892  144.6379  151.6938 LP  0  0  0  0  0  0  0  0  0  0  0  0  # atno 17343 bound_to 10162
  157.7040  130.9364  150.0873 LP  0  0  0  0  0  0  0  0  0  0  0  0  # atno 17370 bound_to 10713
  156.1860  130.3652  149.8972 LP  0  0  0  0  0  0  0  0  0  0  0  0  # atno 17371 bound_to 10713
  140.4188  134.1902  155.7164 LP  0  0  0  0  0  0  0  0  0  0  0  0  # atno 17394 bound_to 11000
  141.1844  133.8345  157.1143 LP  0  0  0  0  0  0  0  0  0  0  0  0  # atno 17395 bound_to 11000

$$$$
