AV-unprocessed.smi:1033|AV-procd|sdf|4505|dock6
  -GOLD-   22720 2503D 1   1.00000     0.00000
 Structure written by MMmdl.
 57 59  0  0  0  0  0  0  0  0  3 V2000
  152.9927  142.7282  161.2509 C   0  0  0  0  0  0  0  0  0  0  0  0
  152.4697  142.2028  159.9248 C   0  0  0  0  0  0  0  0  0  0  0  0
  151.6061  143.0258  159.1667 C   0  0  0  0  0  0  0  0  0  0  0  0
  151.1461  142.5186  157.9573 C   0  0  0  0  0  0  0  0  0  0  0  0
  150.2989  143.0721  156.9948 N   0  3  0  0  0  0  0  0  0  0  0  0
  150.1381  142.1904  155.9693 C   0  0  0  0  0  0  0  0  0  0  0  0
  150.8666  141.0799  156.2661 N   0  0  0  0  0  0  0  0  0  0  0  0
  151.0452  139.8357  155.5064 C   0  0  0  0  0  0  0  0  0  0  0  0
  149.9519  139.6255  154.4373 C   0  0  1  0  0  0  0  0  0  0  0  0
  150.1451  138.4164  153.7303 O   0  0  0  0  0  0  0  0  0  0  0  0
  148.5071  139.7106  154.9762 C   0  0  0  0  0  0  0  0  0  0  0  0
  147.5030  140.3181  154.0910 N   0  0  0  0  0  0  0  0  0  0  0  0
  147.0965  139.4241  153.0070 C   0  0  0  0  0  0  0  0  0  0  0  0
  146.2252  138.2434  153.4847 C   0  0  0  0  0  0  0  0  0  0  0  0
  145.0209  138.7395  154.2001 N   0  3  0  0  0  0  0  0  0  0  0  0
  144.1234  137.6361  154.6267 C   0  0  0  0  0  0  0  0  0  0  0  0
  143.7895  136.6559  153.4841 C   0  0  1  0  0  0  0  0  0  0  0  0
  142.7615  135.5876  153.8855 C   0  0  0  0  0  0  0  0  0  0  0  0
  143.2567  137.3959  152.4063 O   0  0  0  0  0  0  0  0  0  0  0  0
  145.4066  139.6565  155.3060 C   0  0  0  0  0  0  0  0  0  0  0  0
  146.2947  140.7956  154.7678 C   0  0  0  0  0  0  0  0  0  0  0  0
  151.5158  141.2410  157.4945 C   0  0  0  0  0  0  0  0  0  0  0  0
  152.3663  140.4173  158.2276 C   0  0  0  0  0  0  0  0  0  0  0  0
  152.8450  140.9152  159.4607 C   0  0  0  0  0  0  0  0  0  0  0  0
  153.7752  140.0397  160.2831 C   0  0  0  0  0  0  0  0  0  0  0  0
  152.5906  143.7168  161.4748 H   0  0  0  0  0  0  0  0  0  0  0  0
  154.0797  142.8079  161.2281 H   0  0  0  0  0  0  0  0  0  0  0  0
  152.7106  142.0624  162.0668 H   0  0  0  0  0  0  0  0  0  0  0  0
  151.3169  144.0075  159.5129 H   0  0  0  0  0  0  0  0  0  0  0  0
  149.5396  142.3440  155.0827 H   0  0  0  0  0  0  0  0  0  0  0  0
  152.0325  139.8807  155.0456 H   0  0  0  0  0  0  0  0  0  0  0  0
  151.0699  139.0020  156.2091 H   0  0  0  0  0  0  0  0  0  0  0  0
  150.0530  140.4109  153.6880 H   0  0  0  0  0  0  0  0  0  0  0  0
  149.9916  138.5789  152.8122 H   0  0  0  0  0  0  0  0  0  0  0  0
  148.1932  138.6841  155.1705 H   0  0  0  0  0  0  0  0  0  0  0  0
  148.5120  140.1945  155.9525 H   0  0  0  0  0  0  0  0  0  0  0  0
  146.5381  139.9973  152.2654 H   0  0  0  0  0  0  0  0  0  0  0  0
  147.9774  139.0475  152.4858 H   0  0  0  0  0  0  0  0  0  0  0  0
  145.9176  137.6542  152.6201 H   0  0  0  0  0  0  0  0  0  0  0  0
  146.7936  137.5744  154.1321 H   0  0  0  0  0  0  0  0  0  0  0  0
  144.5982  137.0761  155.4343 H   0  0  0  0  0  0  0  0  0  0  0  0
  143.2102  138.0616  155.0470 H   0  0  0  0  0  0  0  0  0  0  0  0
  144.6932  136.1707  153.1169 H   0  0  0  0  0  0  0  0  0  0  0  0
  143.1397  134.9573  154.6905 H   0  0  0  0  0  0  0  0  0  0  0  0
  142.5266  134.9346  153.0442 H   0  0  0  0  0  0  0  0  0  0  0  0
  141.8290  136.0390  154.2266 H   0  0  0  0  0  0  0  0  0  0  0  0
  143.3748  138.3174  152.5810 H   0  0  0  0  0  0  0  0  0  0  0  0
  144.5182  140.0928  155.7604 H   0  0  0  0  0  0  0  0  0  0  0  0
  145.9193  139.1024  156.0932 H   0  0  0  0  0  0  0  0  0  0  0  0
  146.5519  141.4825  155.5725 H   0  0  0  0  0  0  0  0  0  0  0  0
  145.7097  141.3895  154.0641 H   0  0  0  0  0  0  0  0  0  0  0  0
  152.6516  139.4374  157.8740 H   0  0  0  0  0  0  0  0  0  0  0  0
  153.9725  139.0894  159.7860 H   0  0  0  0  0  0  0  0  0  0  0  0
  153.3356  139.8214  161.2565 H   0  0  0  0  0  0  0  0  0  0  0  0
  154.7321  140.5386  160.4386 H   0  0  0  0  0  0  0  0  0  0  0  0
  144.5046  139.2900  153.5291 H   0  0  0  0  0  0  0  0  0  0  0  0
  149.8633  143.9849  157.0312 H   0  0  0  0  0  0  0  0  0  0  0  0
  1  2  1  0  0  0  0
  1 26  1  0  0  0  0
  1 27  1  0  0  0  0
  1 28  1  0  0  0  0
  2 24  1  0  0  0  0
  2  3  2  0  0  0  0
  3  4  1  0  0  0  0
  3 29  1  0  0  0  0
  4 22  2  0  0  0  0
  4  5  1  0  0  0  0
  5  6  2  0  0  0  0
  5 57  1  0  0  0  0
  6  7  1  0  0  0  0
  6 30  1  0  0  0  0
  7  8  1  0  0  0  0
  7 22  1  0  0  0  0
  8  9  1  0  0  0  0
  8 31  1  0  0  0  0
  8 32  1  0  0  0  0
  9 10  1  0  0  0  0
  9 11  1  0  0  0  0
  9 33  1  0  0  0  0
 10 34  1  0  0  0  0
 11 12  1  0  0  0  0
 11 35  1  0  0  0  0
 11 36  1  0  0  0  0
 12 21  1  0  0  0  0
 12 13  1  0  0  0  0
 13 14  1  0  0  0  0
 13 37  1  0  0  0  0
 13 38  1  0  0  0  0
 14 15  1  0  0  0  0
 14 39  1  0  0  0  0
 14 40  1  0  0  0  0
 15 16  1  0  0  0  0
 15 20  1  0  0  0  0
 15 56  1  0  0  0  0
 16 17  1  0  0  0  0
 16 41  1  0  0  0  0
 16 42  1  0  0  0  0
 17 18  1  0  0  0  0
 17 19  1  0  0  0  0
 17 43  1  0  0  0  0
 18 44  1  0  0  0  0
 18 45  1  0  0  0  0
 18 46  1  0  0  0  0
 19 47  1  0  0  0  0
 20 21  1  0  0  0  0
 20 48  1  0  0  0  0
 20 49  1  0  0  0  0
 21 50  1  0  0  0  0
 21 51  1  0  0  0  0
 22 23  1  0  0  0  0
 23 24  2  0  0  0  0
 23 52  1  0  0  0  0
 24 25  1  0  0  0  0
 25 53  1  0  0  0  0
 25 54  1  0  0  0  0
 25 55  1  0  0  0  0
M  CHG  1   5   1
M  CHG  1  15   1
M  END
> <s_m_source_file>
AV-unprocessed.smi

> <i_m_source_file_index>
1033

> <i_lp_mmshare_version>
43012

> <i_f3d_flags>
0

> <s_epik_input>
W0NIM11jKFtjSF0xKWMoW0NIM10pW2NIXWMoYzEyKW4oW2NIXW4yKVtDSDJdW0NASF0oW09IXSlbQ0gyXU4zW0NIMl1bQ0gyXU4oW0NIMl1bQ0gyXTMpW0NIMl1bQ0BIXShbQ0gzXSlbT0hd

> <s_epik_cmdline>
J2VwaWtfcHl0aG9uJywgJy1waCcsICc3LjAnLCAnLXRuJywgJzgnLCAnLW1hJywgJzIwMCcsICctbWV0YWxfYmluZGluZycsICctaW1hZScsICc8aW5maWxlLm1hZT4nLCAnLW9tYWUnLCAnPG91dGZpbGUubWFlPic=

> <r_epik_Ionization_Penalty>
1.28617

> <r_epik_Ionization_Penalty_Charging>
1.23646

> <r_epik_Ionization_Penalty_Neutral>
0.0497112

> <r_epik_State_Penalty>
1.79157

> <r_epik_Charging_Adjusted_Penalty>
3.02803

> <i_epik_Tot_Q>
2

> <i_epik_Tot_abs_Q>
2

> <r_epik_Metal_State_Penalty>
5.81739

> <b_epik_Metal_Only>
0

> <s_lp_Force_Field>
OPLS_2005

> <r_lp_Energy>
43.5011

> <b_lp_Chiralities_Consistent>
1

> <s_lp_Variant>
AV-unprocessed.smi:1033-16

> <Gold.Version>
5.8.1

> <Gold.Id.Protein>
6NUR|6NUR_protein|mol2

> <Gold.PLP.Fitness>
58.5665

> <Gold.PLP.PLP>
-44.7264

> <Gold.PLP.part.hbond>
-5.8763

> <Gold.PLP.part.metal>
0.0000

> <Gold.PLP.part.buried>
-2.2632

> <Gold.PLP.part.nonpolar>
-36.3688

> <Gold.PLP.part.repulsive>
0.1432

> <Gold.PLP.ligand.clash>
0.0000

> <Gold.PLP.ligand.torsion>
0.8774

> <Gold.PLP.Chemscore.Hbond>
4.7161

> <Gold.PLP.Chemscore.CHOScore>
0.4208

> <Gold.PLP.Chemscore.Metal>
0.0000

> <Gold.Chemscore.Hbonds>
donor molecule, donor type, donor heavy atom, donor atom, acceptor molecule, acceptor atom, score
      L1  H     5    57       P1  8028  1.02
      L1  H    10    34       P1  7957  0.54
      L1  H    15    56       P1 10175  2.00
      L1  H    19    47       P1 10175  0.75
      L1  C     6    30       P1  8028  0.32

> <Gold.PLP.Chemscore.Internal.Correction>
0.1842

> <Gold.Rescore>
     Score         DG    S(hbond)    S(metal)    S(lipo)     H(rot)  DE(clash)    DE(int)     intcor
     17.92     -20.14       2.78        0.00     114.66       3.15       1.22       0.99       ----

> <Gold.Chemscore.Fitness>
17.9234

> <Gold.Chemscore.DG>
-20.1357

> <Gold.Chemscore.ZeroCoef>
-5.4800

> <Gold.Chemscore.Hbond>
2.7844

> <Gold.Chemscore.Metal>
0.0000

> <Gold.Chemscore.Lipo>
114.6625

> <Gold.Chemscore.Internal_Hbond>
0.0000

> <Gold.Chemscore.DEClash>
1.2192

> <Gold.Chemscore.DEInternal>
0.9931

> <Gold.Chemscore.Rot>
3.1483

> <Gold.Chemscore.Internal.Correction>
   9.000000E+99

> <Gold.Chemscore.Hbonds>
donor molecule, donor type, donor heavy atom, donor atom, acceptor molecule, acceptor atom, score
      L1  H     5    57       P1  8028  0.46
      L1  H    10    34       P1  7957  0.26
      L1  H    15    56       P1 10175  1.00
      L1  H    19    47       P1 10175  0.75

> <Gold.Chemscore.Hbond.Weighted>
-9.2999

> <Gold.Chemscore.Metal.Weighted>
-0.0000

> <Gold.Chemscore.Lipo.Weighted>
-13.4155

> <Gold.Chemscore.Internal_Hbond.Weighted>
0.0000

> <Gold.Chemscore.DEClash.Weighted>
1.2192

> <Gold.Chemscore.DEInternal.Weighted>
0.9931

> <Gold.Chemscore.Rot.Weighted>
8.0597

> <Gold.Chemscore.Internal.Correction.Weighted>
   9.000000E+99

> <Gold.Protein.RotatedTorsions>
[ 6907 6896 6895 6894 ] final   32.93 input  -60.11 | X-H torsion
[ 7974 7965 7964 7962 ] final   22.41 input  175.53 | X-H torsion
[ 8008 7997 7996 7995 ] final  143.69 input   59.86 | X-H torsion
[ 10167 10162 10161 10158 ] final -105.20 input  -65.29 | X-H torsion
[ 10718 10713 10712 10709 ] final   23.51 input   66.30 | X-H torsion
[ 10763 10752 10751 10750 ] final   82.67 input  -60.55 | X-H torsion
[ 11005 11000 10999 10996 ] final -129.74 input  -57.11 | X-H torsion

> <Gold.Protein.ActiveResidues>
 VAL166  LYS551  ARG553  GLY616  TRP617  ASP618  TYR619  PRO620  LYS621  CYS622 
 ASP623  PHE694  ASN695  SER759  ASP760  ASP761  ALA762  ILE779  LEU786  VAL792 
 PHE793  MET794  SER795  GLU796  ALA797  LYS798  CYS799  TRP800  GLU811  SER814 

> <Gold.Protein.RotatedAtoms>
  152.0813  134.9469  160.0573 H   0  0  0  0  0  0  0  0  0  0  0  0  # atno 6907 bound_to 6896
  152.0756  133.4123  159.4487 H   0  0  0  0  0  0  0  0  0  0  0  0  # atno 6908 bound_to 6896
  150.6836  134.2961  159.4730 H   0  0  0  0  0  0  0  0  0  0  0  0  # atno 6909 bound_to 6896
  146.2030  139.7889  142.8747 H   0  0  0  0  0  0  0  0  0  0  0  0  # atno 7974 bound_to 7965
  156.2925  140.2255  156.4932 H   0  0  0  0  0  0  0  0  0  0  0  0  # atno 8008 bound_to 7997
  154.7753  140.0464  157.1105 H   0  0  0  0  0  0  0  0  0  0  0  0  # atno 8009 bound_to 7997
  154.9824  140.3080  155.4944 H   0  0  0  0  0  0  0  0  0  0  0  0  # atno 8010 bound_to 7997
  140.2011  143.3818  152.1128 H   0  0  0  0  0  0  0  0  0  0  0  0  # atno 10167 bound_to 10162
  157.1671  130.6743  149.6064 H   0  0  0  0  0  0  0  0  0  0  0  0  # atno 10718 bound_to 10713
  153.1223  135.4720  154.9215 H   0  0  0  0  0  0  0  0  0  0  0  0  # atno 10763 bound_to 10752
  154.7587  135.3125  154.8423 H   0  0  0  0  0  0  0  0  0  0  0  0  # atno 10764 bound_to 10752
  153.8984  135.6877  153.4810 H   0  0  0  0  0  0  0  0  0  0  0  0  # atno 10765 bound_to 10752
  140.9406  134.1198  157.4154 H   0  0  0  0  0  0  0  0  0  0  0  0  # atno 11005 bound_to 11000
  145.3418  141.0289  143.3388 LP  0  0  0  0  0  0  0  0  0  0  0  0  # atno 17320 bound_to 7965
  144.8726  139.5016  143.6760 LP  0  0  0  0  0  0  0  0  0  0  0  0  # atno 17321 bound_to 7965
  139.5217  144.7049  151.5384 LP  0  0  0  0  0  0  0  0  0  0  0  0  # atno 17342 bound_to 10162
  140.6389  143.8928  150.6673 LP  0  0  0  0  0  0  0  0  0  0  0  0  # atno 17343 bound_to 10162
  155.9744  130.4692  150.6385 LP  0  0  0  0  0  0  0  0  0  0  0  0  # atno 17370 bound_to 10713
  157.4078  131.0819  151.1249 LP  0  0  0  0  0  0  0  0  0  0  0  0  # atno 17371 bound_to 10713
  139.8819  135.0035  156.6192 LP  0  0  0  0  0  0  0  0  0  0  0  0  # atno 17394 bound_to 11000
  140.7739  133.8715  155.8514 LP  0  0  0  0  0  0  0  0  0  0  0  0  # atno 17395 bound_to 11000

$$$$
