#       Name:                AV-unprocessed.smi:1521
#       Creating user name   scv26
#       Creation time:       Fri Mar 27 06:27:30 2020


#       File generated by GOLD software.
#

@<TRIPOS>MOLECULE
AV-unprocessed.smi:1521
    44    45     1
SMALL
NO_CHARGES


@<TRIPOS>ATOM
      1 ****         0.3589   1.0793  -0.8409 O.2            1 S1                 0.0000
      2 ****        -0.1820  -0.0264  -0.8644 C.2            1 S1                 0.0000
      3 ****         0.5029  -1.1783  -0.8791 N.am           1 S1                 0.0000
      4 ****         1.9568  -1.2909  -0.8559 C.3            1 S1                 0.0000
      5 ****         2.5050  -1.2283   0.5794 C.3            1 S1                 0.0000
      6 ****         4.0462  -1.2545   0.6070 C.3            1 S1                 0.0000
      7 ****         4.4948  -1.2552   1.9560 O.3            1 S1                 0.0000
      8 ****         4.0071  -2.3883   2.6612 C.3            1 S1                 0.0000
      9 ****         2.4701  -2.3628   2.6433 C.3            1 S1                 0.0000
     10 ****         2.0261  -2.3640   1.2933 O.3            1 S1                 0.0000
     11 ****        -1.5068  -0.2587  -0.8584 N.am           1 S1                 0.0000
     12 ****        -2.5711   0.6583  -0.8738 C.2            1 S1                 0.0000
     13 ****        -2.4665   1.9621  -1.2536 C.2            1 S1                 0.0000
     14 ****        -3.6108   2.8649  -1.2661 C.2            1 S1                 0.0000
     15 ****        -3.5156   4.3441  -1.5943 C.3            1 S1                 0.0000
     16 ****        -4.3494   5.0576  -0.8374 F              1 S1                 0.0000
     17 ****        -2.2775   4.7990  -1.4006 F              1 S1                 0.0000
     18 ****        -3.8380   4.5465  -2.8710 F              1 S1                 0.0000
     19 ****        -4.7716   2.2454  -0.8453 C.2            1 S1                 0.0000
     20 ****        -4.9658   0.9589  -0.4811 N.pl3          1 S1                -1.0000
     21 ****        -3.8899   0.1221  -0.4783 C.2            1 S1                 0.0000
     22 ****        -3.9957  -1.0620  -0.1565 O.2            1 S1                 0.0000
     23 ****        -0.0200  -2.0417  -0.8871 H              1 S1                 0.0000
     24 ****         2.2362  -2.2358  -1.3228 H              1 S1                 0.0000
     25 ****         2.4005  -0.5026  -1.4663 H              1 S1                 0.0000
     26 ****         2.1514  -0.3162   1.0642 H              1 S1                 0.0000
     27 ****         4.4331  -2.1302   0.0834 H              1 S1                 0.0000
     28 ****         4.4492  -0.3754   0.1038 H              1 S1                 0.0000
     29 ****         4.3863  -3.3063   2.2095 H              1 S1                 0.0000
     30 ****         4.3762  -2.3575   3.6865 H              1 S1                 0.0000
     31 ****         2.0697  -3.2406   3.1506 H              1 S1                 0.0000
     32 ****         2.0881  -1.4850   3.1668 H              1 S1                 0.0000
     33 ****        -1.7931  -1.2248  -0.7980 H              1 S1                 0.0000
     34 ****        -1.5238   2.3671  -1.5831 H              1 S1                 0.0000
     35 ****        -5.6818   2.8800  -0.7926 H              1 S1                 0.0000
     36 ****         1.3565   1.1478  -0.8318 LP             1 S1                 0.0000
     37 ****        -0.1993   1.9089  -0.8308 LP             1 S1                 0.0000
     38 ****         4.1690  -0.4249   2.4082 LP             1 S1                 0.0000
     39 ****         5.4947  -1.2702   1.9669 LP             1 S1                 0.0000
     40 ****         2.3585  -3.1931   0.8437 LP             1 S1                 0.0000
     41 ****         1.0262  -2.3563   1.2812 LP             1 S1                 0.0000
     42 ****        -5.8735   0.6298  -0.2208 LP             1 S1                 0.0000
     43 ****        -3.1912  -1.6559  -0.1636 LP             1 S1                 0.0000
     44 ****        -4.8861  -1.4295   0.1120 LP             1 S1                 0.0000
@<TRIPOS>BOND
    1    1    2 2     
    2    2    3 am    
    3    2   11 am    
    4    3    4 1     
    5    3   23 1     
    6    4    5 1     
    7    4   24 1     
    8    4   25 1     
    9    5   10 1     
   10    5    6 1     
   11    5   26 1     
   12    6    7 1     
   13    6   27 1     
   14    6   28 1     
   15    7    8 1     
   16    8    9 1     
   17    8   29 1     
   18    8   30 1     
   19    9   10 1     
   20    9   31 1     
   21    9   32 1     
   22   11   12 1     
   23   11   33 1     
   24   12   21 1     
   25   12   13 2     
   26   13   14 1     
   27   13   34 1     
   28   14   15 1     
   29   14   19 2     
   30   15   16 1     
   31   15   17 1     
   32   15   18 1     
   33   19   20 1     
   34   19   35 1     
   35   20   21 1     
   36   21   22 2     
   37    1   36 1     
   38    1   37 1     
   39    7   38 1     
   40    7   39 1     
   41   10   40 1     
   42   10   41 1     
   43   20   42 1     
   44   22   43 1     
   45   22   44 1     
@<TRIPOS>SUBSTRUCTURE
      1 S1             1
@<TRIPOS>SET
LONE_PAIRS      STATIC     ATOMS    <user>   **** ""
9 36 37 38 39 40 41 42 43 44
DONOR_HYDROGENS      STATIC     ATOMS    <user>   **** ""
2 23 33
ATOM$BLUE        STATIC     ATOMS    COLORGROUP SYSTEM
9 36 37 38 39 40 41 42 43 44
ATOM$RED        STATIC     ATOMS    COLORGROUP SYSTEM
2 23 33
