AV-unprocessed.smi:2502|AV-procd|sdf|9846|dock6
  -GOLD-   2272013473D 1   1.00000     0.00000
 Structure written by MMmdl.
 39 41  0  0  0  0  0  0  0  0  1 V2000
  148.3381  142.3207  157.0293 O   0  0  0  0  0  0  0  0  0  0  0  0
  149.4982  141.5207  156.9009 C   0  0  1  0  0  0  0  0  0  0  0  0
  149.6744  141.1506  155.4198 C   0  0  0  0  0  0  0  0  0  0  0  0
  149.1903  139.8308  155.2161 O   0  0  0  0  0  0  0  0  0  0  0  0
  150.0945  138.8024  155.5985 C   0  0  0  0  0  0  0  0  0  0  0  0
  151.4928  139.0249  154.9962 C   0  0  0  0  0  0  0  0  0  0  0  0
  152.3905  137.8040  155.2563 C   0  0  0  0  0  0  0  0  0  0  0  0
  151.7821  136.6279  154.7323 O   0  0  0  0  0  0  0  0  0  0  0  0
  150.5315  136.3285  155.3438 C   0  0  0  0  0  0  0  0  0  0  0  0
  149.5353  137.4699  155.0836 C   0  0  0  0  0  0  0  0  0  0  0  0
  150.7088  142.3042  157.4456 C   0  0  0  0  0  0  0  0  0  0  0  0
  151.7244  141.4370  158.0170 N   0  0  0  0  0  0  0  0  0  0  0  0
  152.1842  140.3789  157.2909 N   0  0  0  0  0  0  0  0  0  0  0  0
  153.0768  139.7482  157.9938 N   0  0  0  0  0  0  0  0  0  0  0  0
  153.2079  140.4029  159.2072 C   0  0  0  0  0  0  0  0  0  0  0  0
  154.0247  140.1485  160.3313 C   0  0  0  0  0  0  0  0  0  0  0  0
  153.9602  140.9875  161.4654 C   0  0  0  0  0  0  0  0  0  0  0  0
  154.9745  140.6429  162.8209 Cl  0  0  0  0  0  0  0  0  0  0  0  0
  153.0753  142.0928  161.4871 C   0  0  0  0  0  0  0  0  0  0  0  0
  152.9825  143.1278  162.8673 Cl  0  0  0  0  0  0  0  0  0  0  0  0
  152.2555  142.3591  160.3723 C   0  0  0  0  0  0  0  0  0  0  0  0
  152.3358  141.5122  159.2536 C   0  0  0  0  0  0  0  0  0  0  0  0
  148.5841  143.2270  156.9237 H   0  0  0  0  0  0  0  0  0  0  0  0
  149.3688  140.6113  157.4894 H   0  0  0  0  0  0  0  0  0  0  0  0
  149.1772  141.8763  154.7754 H   0  0  0  0  0  0  0  0  0  0  0  0
  150.7351  141.1666  155.1642 H   0  0  0  0  0  0  0  0  0  0  0  0
  150.1629  138.7498  156.6867 H   0  0  0  0  0  0  0  0  0  0  0  0
  151.4086  139.1906  153.9216 H   0  0  0  0  0  0  0  0  0  0  0  0
  151.9606  139.9155  155.4149 H   0  0  0  0  0  0  0  0  0  0  0  0
  153.3591  137.9423  154.7757 H   0  0  0  0  0  0  0  0  0  0  0  0
  152.5804  137.6821  156.3238 H   0  0  0  0  0  0  0  0  0  0  0  0
  150.1502  135.3962  154.9268 H   0  0  0  0  0  0  0  0  0  0  0  0
  150.6674  136.1665  156.4141 H   0  0  0  0  0  0  0  0  0  0  0  0
  148.5802  137.2520  155.5626 H   0  0  0  0  0  0  0  0  0  0  0  0
  149.3392  137.5411  154.0129 H   0  0  0  0  0  0  0  0  0  0  0  0
  151.1692  142.8897  156.6483 H   0  0  0  0  0  0  0  0  0  0  0  0
  150.3904  143.0171  158.2076 H   0  0  0  0  0  0  0  0  0  0  0  0
  154.7009  139.3063  160.3214 H   0  0  0  0  0  0  0  0  0  0  0  0
  151.5753  143.1981  160.3769 H   0  0  0  0  0  0  0  0  0  0  0  0
  1  2  1  0  0  0  0
  1 23  1  0  0  0  0
  2  3  1  0  0  0  0
  2 11  1  0  0  0  0
  2 24  1  0  0  0  0
  3  4  1  0  0  0  0
  3 25  1  0  0  0  0
  3 26  1  0  0  0  0
  4  5  1  0  0  0  0
  5 10  1  0  0  0  0
  5  6  1  0  0  0  0
  5 27  1  0  0  0  0
  6  7  1  0  0  0  0
  6 28  1  0  0  0  0
  6 29  1  0  0  0  0
  7  8  1  0  0  0  0
  7 30  1  0  0  0  0
  7 31  1  0  0  0  0
  8  9  1  0  0  0  0
  9 10  1  0  0  0  0
  9 32  1  0  0  0  0
  9 33  1  0  0  0  0
 10 34  1  0  0  0  0
 10 35  1  0  0  0  0
 11 12  1  0  0  0  0
 11 36  1  0  0  0  0
 11 37  1  0  0  0  0
 12 22  1  0  0  0  0
 12 13  1  0  0  0  0
 13 14  2  0  0  0  0
 14 15  1  0  0  0  0
 15 22  2  0  0  0  0
 15 16  1  0  0  0  0
 16 17  2  0  0  0  0
 16 38  1  0  0  0  0
 17 18  1  0  0  0  0
 17 19  1  0  0  0  0
 19 20  1  0  0  0  0
 19 21  2  0  0  0  0
 21 22  1  0  0  0  0
 21 39  1  0  0  0  0
M  END
> <s_m_source_file>
AV-unprocessed.smi

> <i_m_source_file_index>
2502

> <i_lp_mmshare_version>
43012

> <i_f3d_flags>
0

> <s_epik_input>
W2NIXTFjKENsKWMoQ2wpW2NIXWMoYzEyKW4obm4yKVtDSDJdW0NASF0oW09IXSlbQ0gyXU9bQ0hdM1tDSDJdW0NIMl1PW0NIMl1bQ0gyXTM=

> <s_epik_cmdline>
J2VwaWtfcHl0aG9uJywgJy1waCcsICc3LjAnLCAnLXRuJywgJzgnLCAnLW1hJywgJzIwMCcsICctbWV0YWxfYmluZGluZycsICctaW1hZScsICc8aW5maWxlLm1hZT4nLCAnLW9tYWUnLCAnPG91dGZpbGUubWFlPic=

> <r_lp_tautomer_probability>
1

> <r_epik_Ionization_Penalty>
2.65748e-06

> <r_epik_Ionization_Penalty_Charging>
0

> <r_epik_Ionization_Penalty_Neutral>
2.65748e-06

> <r_epik_State_Penalty>
-0

> <r_epik_Charging_Adjusted_Penalty>
0

> <i_epik_Tot_Q>
0

> <i_epik_Tot_abs_Q>
0

> <r_epik_Metal_State_Penalty>
-0

> <b_epik_Metal_Only>
0

> <s_lp_Force_Field>
OPLS_2005

> <r_lp_Energy>
14.648

> <b_lp_Chiralities_Consistent>
1

> <s_lp_Variant>
AV-unprocessed.smi:2502-2

> <Gold.Version>
5.8.1

> <Gold.Id.Protein>
6NUR|6NUR_protein|mol2

> <Gold.PLP.Fitness>
49.1747

> <Gold.PLP.PLP>
-43.3853

> <Gold.PLP.part.hbond>
-3.4686

> <Gold.PLP.part.metal>
0.0000

> <Gold.PLP.part.buried>
-0.5607

> <Gold.PLP.part.nonpolar>
-38.5405

> <Gold.PLP.part.repulsive>
0.6757

> <Gold.PLP.ligand.clash>
0.0000

> <Gold.PLP.ligand.torsion>
1.1796

> <Gold.PLP.Chemscore.Hbond>
2.7104

> <Gold.PLP.Chemscore.CHOScore>
0.0000

> <Gold.PLP.Chemscore.Metal>
0.0000

> <Gold.Chemscore.Hbonds>
donor molecule, donor type, donor heavy atom, donor atom, acceptor molecule, acceptor atom, score
      L1  H     1    23       P1  8028  0.94
      P1  H  7997  8010       L1    14  0.45
      P1  H 10752 10763       L1     8  1.00

> <Gold.PLP.Chemscore.Internal.Correction>
0.0175

> <Gold.Rescore>
     Score         DG    S(hbond)    S(metal)    S(lipo)     H(rot)  DE(clash)    DE(int)     intcor
     16.86     -19.94       1.60        0.00     126.07       2.21       0.16       2.92       ----

> <Gold.Chemscore.Fitness>
16.8571

> <Gold.Chemscore.DG>
-19.9394

> <Gold.Chemscore.ZeroCoef>
-5.4800

> <Gold.Chemscore.Hbond>
1.6042

> <Gold.Chemscore.Metal>
0.0000

> <Gold.Chemscore.Lipo>
126.0683

> <Gold.Chemscore.Internal_Hbond>
0.0000

> <Gold.Chemscore.DEClash>
0.1594

> <Gold.Chemscore.DEInternal>
2.9229

> <Gold.Chemscore.Rot>
2.2065

> <Gold.Chemscore.Internal.Correction>
   9.000000E+99

> <Gold.Chemscore.Hbonds>
donor molecule, donor type, donor heavy atom, donor atom, acceptor molecule, acceptor atom, score
      L1  H     1    23       P1  8028  0.45
      P1  H  7997  8010       L1    14  0.02
      P1  H 10752 10763       L1     8  0.52

> <Gold.Chemscore.Hbond.Weighted>
-5.3579

> <Gold.Chemscore.Metal.Weighted>
-0.0000

> <Gold.Chemscore.Lipo.Weighted>
-14.7500

> <Gold.Chemscore.Internal_Hbond.Weighted>
0.0000

> <Gold.Chemscore.DEClash.Weighted>
0.1594

> <Gold.Chemscore.DEInternal.Weighted>
2.9229

> <Gold.Chemscore.Rot.Weighted>
5.6485

> <Gold.Chemscore.Internal.Correction.Weighted>
   9.000000E+99

> <Gold.Protein.RotatedTorsions>
[ 6907 6896 6895 6894 ] final  166.60 input  -60.11 | X-H torsion
[ 7974 7965 7964 7962 ] final  112.93 input  175.53 | X-H torsion
[ 8008 7997 7996 7995 ] final   61.51 input   59.86 | X-H torsion
[ 10167 10162 10161 10158 ] final   47.61 input  -65.29 | X-H torsion
[ 10718 10713 10712 10709 ] final   52.19 input   66.30 | X-H torsion
[ 10763 10752 10751 10750 ] final   51.27 input  -60.55 | X-H torsion
[ 11005 11000 10999 10996 ] final  -54.89 input  -57.11 | X-H torsion

> <Gold.Protein.ActiveResidues>
 VAL166  LYS551  ARG553  GLY616  TRP617  ASP618  TYR619  PRO620  LYS621  CYS622 
 ASP623  PHE694  ASN695  SER759  ASP760  ASP761  ALA762  ILE779  LEU786  VAL792 
 PHE793  MET794  SER795  GLU796  ALA797  LYS798  CYS799  TRP800  GLU811  SER814 

> <Gold.Protein.RotatedAtoms>
  151.8764  133.3486  159.3751 H   0  0  0  0  0  0  0  0  0  0  0  0  # atno 6907 bound_to 6896
  150.7139  134.5062  159.5594 H   0  0  0  0  0  0  0  0  0  0  0  0  # atno 6908 bound_to 6896
  152.2605  134.8040  160.0482 H   0  0  0  0  0  0  0  0  0  0  0  0  # atno 6909 bound_to 6896
  145.2233  139.2852  143.4207 H   0  0  0  0  0  0  0  0  0  0  0  0  # atno 7974 bound_to 7965
  155.5995  140.3494  155.4589 H   0  0  0  0  0  0  0  0  0  0  0  0  # atno 8008 bound_to 7997
  156.0239  140.1260  157.0353 H   0  0  0  0  0  0  0  0  0  0  0  0  # atno 8009 bound_to 7997
  154.4326  140.1057  156.5989 H   0  0  0  0  0  0  0  0  0  0  0  0  # atno 8010 bound_to 7997
  140.3018  144.2924  150.6217 H   0  0  0  0  0  0  0  0  0  0  0  0  # atno 10167 bound_to 10162
  157.5051  130.8464  149.8365 H   0  0  0  0  0  0  0  0  0  0  0  0  # atno 10718 bound_to 10713
  152.9785  135.5851  154.4389 H   0  0  0  0  0  0  0  0  0  0  0  0  # atno 10763 bound_to 10752
  154.3992  135.2768  155.2109 H   0  0  0  0  0  0  0  0  0  0  0  0  # atno 10764 bound_to 10752
  154.3947  135.6117  153.5917 H   0  0  0  0  0  0  0  0  0  0  0  0  # atno 10765 bound_to 10752
  141.1048  133.6614  156.4388 H   0  0  0  0  0  0  0  0  0  0  0  0  # atno 11005 bound_to 11000
  146.3371  140.2546  142.8599 LP  0  0  0  0  0  0  0  0  0  0  0  0  # atno 17320 bound_to 7965
  144.9745  140.8400  143.5435 LP  0  0  0  0  0  0  0  0  0  0  0  0  # atno 17321 bound_to 7965
  140.5644  143.2188  151.7709 LP  0  0  0  0  0  0  0  0  0  0  0  0  # atno 17342 bound_to 10162
  139.4913  144.4304  151.9879 LP  0  0  0  0  0  0  0  0  0  0  0  0  # atno 17343 bound_to 10162
  156.0253  130.3781  150.1840 LP  0  0  0  0  0  0  0  0  0  0  0  0  # atno 17370 bound_to 10713
  157.0030  130.9928  151.3386 LP  0  0  0  0  0  0  0  0  0  0  0  0  # atno 17371 bound_to 10713
  140.4931  134.6557  157.5219 LP  0  0  0  0  0  0  0  0  0  0  0  0  # atno 17394 bound_to 11000
  139.9913  134.6981  155.9685 LP  0  0  0  0  0  0  0  0  0  0  0  0  # atno 17395 bound_to 11000

$$$$
