#       Name:                AV-unprocessed.smi:239
#       Creating user name   scv26
#       Creation time:       Thu Mar 26 20:41:42 2020


#       File generated by GOLD software.
#

@<TRIPOS>MOLECULE
AV-unprocessed.smi:239
    64    68     1
SMALL
NO_CHARGES


@<TRIPOS>ATOM
      1 ****        -4.6803  -2.0748  -3.1980 C.3            1 S1                 0.0000
      2 ****        -3.9486  -1.2302  -2.1496 C.3            1 S1                 0.0000
      3 ****        -2.4325  -1.1732  -2.4095 C.3            1 S1                 0.0000
      4 ****        -1.7906  -0.2705  -1.4574 N.3            1 S1                 0.0000
      5 ****        -0.4351  -0.2852  -1.3778 C.ar           1 S1                 0.0000
      6 ****         0.2982  -0.8167  -2.3929 N.ar           1 S1                 0.0000
      7 ****         1.6327  -0.8294  -2.3294 C.ar           1 S1                 0.0000
      8 ****         2.4259  -0.3759  -1.3576 N.ar           1 S1                 0.0000
      9 ****         1.6986   0.1481  -0.3302 C.ar           1 S1                 0.0000
     10 ****         0.2789   0.2355  -0.2607 C.ar           1 S1                 0.0000
     11 ****        -0.0978   0.8245   0.9411 N.2            1 S1                 0.0000
     12 ****         1.0327   1.0816   1.5400 C.2            1 S1                 0.0000
     13 ****         2.1619   0.6979   0.8526 N.pl3          1 S1                 0.0000
     14 ****         3.5426   0.8547   1.2856 C.3            1 S1                 0.0000
     15 ****         4.0860  -0.3388   2.1109 C.3            1 S1                 0.0000
     16 ****         4.0513  -1.4892   1.2845 O.3            1 S1                 0.0000
     17 ****         5.5492  -0.0824   2.5251 C.3            1 S1                 0.0000
     18 ****         6.0778  -1.1595   3.4892 C.3            1 S1                 0.0000
     19 ****         5.2283  -1.2525   4.6261 O.3            1 S1                 0.0000
     20 ****         3.9079  -1.6628   4.2932 C.3            1 S1                 0.0000
     21 ****         3.2442  -0.6213   3.3746 C.3            1 S1                 0.0000
     22 ****        -2.3975   1.0563  -1.4303 C.3            1 S1                 0.0000
     23 ****        -3.9150   0.9442  -1.1952 C.3            1 S1                 0.0000
     24 ****        -4.5842   2.3083  -1.2192 C.3            1 S1                 0.0000
     25 ****        -6.0537   2.4575  -1.5513 C.3            1 S1                 0.0000
     26 ****        -5.0113   2.9515  -2.5212 C.3            1 S1                 0.0000
     27 ****        -4.4772   0.0920  -2.1927 O.3            1 S1                 0.0000
     28 ****        -4.3159  -3.1022  -3.1980 H              1 S1                 0.0000
     29 ****        -4.5384  -1.6694  -4.2003 H              1 S1                 0.0000
     30 ****        -5.7518  -2.1019  -2.9980 H              1 S1                 0.0000
     31 ****        -4.1369  -1.6591  -1.1638 H              1 S1                 0.0000
     32 ****        -2.0077  -2.1742  -2.3207 H              1 S1                 0.0000
     33 ****        -2.2393  -0.8247  -3.4253 H              1 S1                 0.0000
     34 ****         2.1370  -1.2651  -3.1792 H              1 S1                 0.0000
     35 ****         1.0743   1.5522   2.5115 H              1 S1                 0.0000
     36 ****         4.1620   1.0164   0.4022 H              1 S1                 0.0000
     37 ****         3.6073   1.7729   1.8709 H              1 S1                 0.0000
     38 ****         4.3974  -2.2207   1.7724 H              1 S1                 0.0000
     39 ****         6.1915  -0.0199   1.6457 H              1 S1                 0.0000
     40 ****         5.6187   0.8863   3.0218 H              1 S1                 0.0000
     41 ****         6.1531  -2.1296   2.9958 H              1 S1                 0.0000
     42 ****         7.0820  -0.8985   3.8233 H              1 S1                 0.0000
     43 ****         3.9283  -2.6466   3.8217 H              1 S1                 0.0000
     44 ****         3.3319  -1.7678   5.2127 H              1 S1                 0.0000
     45 ****         3.1180   0.3052   3.9361 H              1 S1                 0.0000
     46 ****         2.2419  -0.9585   3.1086 H              1 S1                 0.0000
     47 ****        -1.9564   1.6809  -0.6546 H              1 S1                 0.0000
     48 ****        -2.2022   1.5517  -2.3825 H              1 S1                 0.0000
     49 ****        -4.1011   0.5083  -0.2120 H              1 S1                 0.0000
     50 ****        -4.2035   2.9892  -0.4600 H              1 S1                 0.0000
     51 ****        -6.6117   1.5647  -1.8266 H              1 S1                 0.0000
     52 ****        -6.6183   3.2043  -0.9968 H              1 S1                 0.0000
     53 ****        -4.8796   4.0276  -2.6137 H              1 S1                 0.0000
     54 ****        -4.8726   2.3867  -3.4409 H              1 S1                 0.0000
     55 ****        -2.0087  -0.6984  -0.5803 LP             1 S1                 0.0000
     56 ****        -0.1647  -1.2004  -3.1920 LP             1 S1                 0.0000
     57 ****         3.4249  -0.4151  -1.3797 LP             1 S1                 0.0000
     58 ****        -1.0236   1.0090   1.2711 LP             1 S1                 0.0000
     59 ****         4.6080  -1.3347   0.4683 LP             1 S1                 0.0000
     60 ****         3.1081  -1.6810   1.0132 LP             1 S1                 0.0000
     61 ****         5.1832  -0.3555   5.0659 LP             1 S1                 0.0000
     62 ****         5.6186  -1.9169   5.2634 LP             1 S1                 0.0000
     63 ****        -5.4663   0.0456  -2.0530 LP             1 S1                 0.0000
     64 ****        -4.2857   0.4837  -3.0927 LP             1 S1                 0.0000
@<TRIPOS>BOND
    1    1    2 1     
    2    1   28 1     
    3    1   29 1     
    4    1   30 1     
    5    2   27 1     
    6    2    3 1     
    7    2   31 1     
    8    3    4 1     
    9    3   32 1     
   10    3   33 1     
   11    4    5 1     
   12    4   22 1     
   13    5   10 ar    
   14    5    6 ar    
   15    6    7 ar    
   16    7    8 ar    
   17    7   34 1     
   18    8    9 ar    
   19    9   13 1     
   20    9   10 ar    
   21   10   11 1     
   22   11   12 2     
   23   12   13 1     
   24   12   35 1     
   25   13   14 1     
   26   14   15 1     
   27   14   36 1     
   28   14   37 1     
   29   15   21 1     
   30   15   16 1     
   31   15   17 1     
   32   16   38 1     
   33   17   18 1     
   34   17   39 1     
   35   17   40 1     
   36   18   19 1     
   37   18   41 1     
   38   18   42 1     
   39   19   20 1     
   40   20   21 1     
   41   20   43 1     
   42   20   44 1     
   43   21   45 1     
   44   21   46 1     
   45   22   23 1     
   46   22   47 1     
   47   22   48 1     
   48   23   24 1     
   49   23   27 1     
   50   23   49 1     
   51   24   26 1     
   52   24   25 1     
   53   24   50 1     
   54   25   26 1     
   55   25   51 1     
   56   25   52 1     
   57   26   53 1     
   58   26   54 1     
   59    4   55 1     
   60    6   56 1     
   61    8   57 1     
   62   11   58 1     
   63   16   59 1     
   64   16   60 1     
   65   19   61 1     
   66   19   62 1     
   67   27   63 1     
   68   27   64 1     
@<TRIPOS>SUBSTRUCTURE
      1 S1             1
@<TRIPOS>SET
LONE_PAIRS      STATIC     ATOMS    <user>   **** ""
10 55 56 57 58 59 60 61 62 63 64
DONOR_HYDROGENS      STATIC     ATOMS    <user>   **** ""
1 38
ATOM$BLUE        STATIC     ATOMS    COLORGROUP SYSTEM
10 55 56 57 58 59 60 61 62 63 64
ATOM$RED        STATIC     ATOMS    COLORGROUP SYSTEM
1 38
