AV-unprocessed.smi:83|AV-procd|sdf|802|dock2
  -GOLD-   2262017183D 1   1.00000     0.00000
 Structure written by MMmdl.
 56 59  0  0  0  0  0  0  0  0  1 V2000
  151.6770  145.3590  160.1400 C   0  0  0  0  0  0  0  0  0  0  0  0
  152.1873  144.1064  160.8538 C   0  0  0  0  0  0  0  0  0  0  0  0
  152.2476  144.1041  162.0830 O   0  0  0  0  0  0  0  0  0  0  0  0
  152.5544  143.0446  160.1078 N   0  0  0  0  0  0  0  0  0  0  0  0
  153.0624  141.7944  160.6662 C   0  0  0  0  0  0  0  0  0  0  0  0
  153.4144  140.9205  159.4582 C   0  0  0  0  0  0  0  0  0  0  0  0
  152.5143  141.4397  158.3375 C   0  0  1  0  0  0  0  0  0  0  0  0
  151.1439  140.7196  158.3785 C   0  0  0  0  0  0  0  0  0  0  0  0
  150.7612  140.0809  157.1180 N   0  0  0  0  0  0  0  0  0  0  0  0
  151.5368  140.4387  155.9314 C   0  0  0  0  0  0  0  0  0  0  0  0
  149.5385  139.4900  156.9536 C   0  0  0  0  0  0  0  0  0  0  0  0
  148.9181  138.9894  158.0576 N   0  0  0  0  0  0  0  0  0  0  0  0
  147.7447  138.3598  157.9666 C   0  0  0  0  0  0  0  0  0  0  0  0
  147.0150  138.1143  156.8799 N   0  0  0  0  0  0  0  0  0  0  0  0
  147.6102  138.6215  155.7648 C   0  0  0  0  0  0  0  0  0  0  0  0
  148.8512  139.3243  155.7080 C   0  0  0  0  0  0  0  0  0  0  0  0
  149.1025  139.6869  154.3877 N   0  0  0  0  0  0  0  0  0  0  0  0
  148.0978  139.2082  153.7097 C   0  0  0  0  0  0  0  0  0  0  0  0
  147.1563  138.5477  154.4597 N   0  0  0  0  0  0  0  0  0  0  0  0
  145.9508  137.9100  153.9612 C   0  0  0  0  0  0  0  0  0  0  0  0
  146.2501  136.8945  152.8411 C   0  0  1  0  0  0  0  0  0  0  0  0
  147.0005  135.8209  153.3757 O   0  0  0  0  0  0  0  0  0  0  0  0
  144.9666  136.3326  152.2036 C   0  0  2  0  0  0  0  0  0  0  0  0
  144.1437  135.4287  153.1239 C   0  0  0  0  0  0  0  0  0  0  0  0
  143.3851  134.5274  152.1620 C   0  0  0  0  0  0  0  0  0  0  0  0
  144.1045  134.7200  150.8246 C   0  0  0  0  0  0  0  0  0  0  0  0
  145.2831  135.4473  151.1402 O   0  0  0  0  0  0  0  0  0  0  0  0
  152.4608  142.9429  158.6535 C   0  0  0  0  0  0  0  0  0  0  0  0
  152.4123  145.7214  159.4212 H   0  0  0  0  0  0  0  0  0  0  0  0
  151.4815  146.1585  160.8553 H   0  0  0  0  0  0  0  0  0  0  0  0
  150.7472  145.1486  159.6125 H   0  0  0  0  0  0  0  0  0  0  0  0
  153.9291  141.9577  161.3081 H   0  0  0  0  0  0  0  0  0  0  0  0
  152.2793  141.3259  161.2645 H   0  0  0  0  0  0  0  0  0  0  0  0
  154.4587  141.0822  159.1876 H   0  0  0  0  0  0  0  0  0  0  0  0
  153.2904  139.8555  159.6575 H   0  0  0  0  0  0  0  0  0  0  0  0
  152.9765  141.2695  157.3643 H   0  0  0  0  0  0  0  0  0  0  0  0
  151.2033  139.9276  159.1258 H   0  0  0  0  0  0  0  0  0  0  0  0
  150.3709  141.3747  158.7646 H   0  0  0  0  0  0  0  0  0  0  0  0
  151.6835  139.5710  155.2871 H   0  0  0  0  0  0  0  0  0  0  0  0
  152.5228  140.8146  156.2056 H   0  0  0  0  0  0  0  0  0  0  0  0
  151.0300  141.2170  155.3598 H   0  0  0  0  0  0  0  0  0  0  0  0
  147.3359  137.9947  158.8972 H   0  0  0  0  0  0  0  0  0  0  0  0
  148.0198  139.3188  152.6377 H   0  0  0  0  0  0  0  0  0  0  0  0
  145.4333  137.4290  154.7924 H   0  0  0  0  0  0  0  0  0  0  0  0
  145.2860  138.6925  153.5936 H   0  0  0  0  0  0  0  0  0  0  0  0
  146.8530  137.3762  152.0700 H   0  0  0  0  0  0  0  0  0  0  0  0
  147.7888  135.7224  152.8638 H   0  0  0  0  0  0  0  0  0  0  0  0
  144.3425  137.1414  151.8179 H   0  0  0  0  0  0  0  0  0  0  0  0
  144.8038  134.8226  153.7460 H   0  0  0  0  0  0  0  0  0  0  0  0
  143.4844  135.9919  153.7849 H   0  0  0  0  0  0  0  0  0  0  0  0
  143.4200  133.4892  152.4936 H   0  0  0  0  0  0  0  0  0  0  0  0
  142.3376  134.8193  152.0806 H   0  0  0  0  0  0  0  0  0  0  0  0
  144.3453  133.7749  150.3377 H   0  0  0  0  0  0  0  0  0  0  0  0
  143.4918  135.3095  150.1409 H   0  0  0  0  0  0  0  0  0  0  0  0
  151.5835  143.4333  158.2393 H   0  0  0  0  0  0  0  0  0  0  0  0
  153.3314  143.4424  158.2260 H   0  0  0  0  0  0  0  0  0  0  0  0
  1  2  1  0  0  0  0
  1 29  1  0  0  0  0
  1 30  1  0  0  0  0
  1 31  1  0  0  0  0
  2  3  2  0  0  0  0
  2  4  1  0  0  0  0
  4 28  1  0  0  0  0
  4  5  1  0  0  0  0
  5  6  1  0  0  0  0
  5 32  1  0  0  0  0
  5 33  1  0  0  0  0
  6  7  1  0  0  0  0
  6 34  1  0  0  0  0
  6 35  1  0  0  0  0
  7  8  1  0  0  0  0
  7 28  1  0  0  0  0
  7 36  1  0  0  0  0
  8  9  1  0  0  0  0
  8 37  1  0  0  0  0
  8 38  1  0  0  0  0
  9 10  1  0  0  0  0
  9 11  1  0  0  0  0
 10 39  1  0  0  0  0
 10 40  1  0  0  0  0
 10 41  1  0  0  0  0
 11 16  1  0  0  0  0
 11 12  2  0  0  0  0
 12 13  1  0  0  0  0
 13 14  2  0  0  0  0
 13 42  1  0  0  0  0
 14 15  1  0  0  0  0
 15 19  1  0  0  0  0
 15 16  2  0  0  0  0
 16 17  1  0  0  0  0
 17 18  2  0  0  0  0
 18 19  1  0  0  0  0
 18 43  1  0  0  0  0
 19 20  1  0  0  0  0
 20 21  1  0  0  0  0
 20 44  1  0  0  0  0
 20 45  1  0  0  0  0
 21 22  1  0  0  0  0
 21 23  1  0  0  0  0
 21 46  1  0  0  0  0
 22 47  1  0  0  0  0
 23 27  1  0  0  0  0
 23 24  1  0  0  0  0
 23 48  1  0  0  0  0
 24 25  1  0  0  0  0
 24 49  1  0  0  0  0
 24 50  1  0  0  0  0
 25 26  1  0  0  0  0
 25 51  1  0  0  0  0
 25 52  1  0  0  0  0
 26 27  1  0  0  0  0
 26 53  1  0  0  0  0
 26 54  1  0  0  0  0
 28 55  1  0  0  0  0
 28 56  1  0  0  0  0
M  END
> <s_m_source_file>
AV-unprocessed.smi

> <i_m_source_file_index>
83

> <i_lp_mmshare_version>
43012

> <i_f3d_flags>
0

> <s_epik_input>
W0NIM11DKD1PKU4xW0NIMl1bQ0gyXVtDQEhdKFtDSDJdMSlbQ0gyXU4oW0NIM10pYyhuW2NIXW4yKWMoYzIzKW5bY0hdbjNbQ0gyXVtDQEhdKFtPSF0pW0NAQEhdNFtDSDJdW0NIMl1bQ0gyXU80

> <s_epik_cmdline>
J2VwaWtfcHl0aG9uJywgJy1waCcsICc3LjAnLCAnLXRuJywgJzgnLCAnLW1hJywgJzIwMCcsICctbWV0YWxfYmluZGluZycsICctaW1hZScsICc8aW5maWxlLm1hZT4nLCAnLW9tYWUnLCAnPG91dGZpbGUubWFlPic=

> <r_lp_tautomer_probability>
1

> <r_epik_Ionization_Penalty>
0.00109752

> <r_epik_Ionization_Penalty_Charging>
0

> <r_epik_Ionization_Penalty_Neutral>
0.00109752

> <r_epik_State_Penalty>
0.000634803

> <r_epik_Charging_Adjusted_Penalty>
0.000634803

> <i_epik_Tot_Q>
0

> <i_epik_Tot_abs_Q>
0

> <r_epik_Metal_State_Penalty>
-0

> <b_epik_Metal_Only>
0

> <s_lp_Force_Field>
OPLS_2005

> <r_lp_Energy>
53.2546

> <b_lp_Chiralities_Consistent>
1

> <s_lp_Variant>
AV-unprocessed.smi:83-3

> <Gold.Version>
5.8.1

> <Gold.Id.Protein>
6NUR|6NUR_protein|mol2

> <Gold.PLP.Fitness>
45.5256

> <Gold.PLP.PLP>
-41.2695

> <Gold.PLP.part.hbond>
-1.0000

> <Gold.PLP.part.metal>
0.0000

> <Gold.PLP.part.buried>
-6.0951

> <Gold.PLP.part.nonpolar>
-34.7540

> <Gold.PLP.part.repulsive>
0.6014

> <Gold.PLP.ligand.clash>
0.0000

> <Gold.PLP.ligand.torsion>
1.0917

> <Gold.PLP.Chemscore.Hbond>
1.0000

> <Gold.PLP.Chemscore.CHOScore>
1.0000

> <Gold.PLP.Chemscore.Metal>
0.0000

> <Gold.Chemscore.Hbonds>
donor molecule, donor type, donor heavy atom, donor atom, acceptor molecule, acceptor atom, score
      L1  H    22    47       P1  7948  1.00
      L1  C    18    43       P1  7957  0.99

> <Gold.PLP.Chemscore.Internal.Correction>
0.4395

> <Gold.Rescore>
     Score         DG    S(hbond)    S(metal)    S(lipo)     H(rot)  DE(clash)    DE(int)     intcor
     10.33     -12.64       1.00        0.00      90.01       2.62       0.11       2.20       ----

> <Gold.Chemscore.Fitness>
10.3342

> <Gold.Chemscore.DG>
-12.6414

> <Gold.Chemscore.ZeroCoef>
-5.4800

> <Gold.Chemscore.Hbond>
0.9955

> <Gold.Chemscore.Metal>
0.0000

> <Gold.Chemscore.Lipo>
90.0121

> <Gold.Chemscore.Internal_Hbond>
0.0000

> <Gold.Chemscore.DEClash>
0.1100

> <Gold.Chemscore.DEInternal>
2.1972

> <Gold.Chemscore.Rot>
2.6152

> <Gold.Chemscore.Internal.Correction>
   9.000000E+99

> <Gold.Chemscore.Hbonds>
donor molecule, donor type, donor heavy atom, donor atom, acceptor molecule, acceptor atom, score
      L1  H    22    47       P1  7948  0.97

> <Gold.Chemscore.Hbond.Weighted>
-3.3249

> <Gold.Chemscore.Metal.Weighted>
-0.0000

> <Gold.Chemscore.Lipo.Weighted>
-10.5314

> <Gold.Chemscore.Internal_Hbond.Weighted>
0.0000

> <Gold.Chemscore.DEClash.Weighted>
0.1100

> <Gold.Chemscore.DEInternal.Weighted>
2.1972

> <Gold.Chemscore.Rot.Weighted>
6.6949

> <Gold.Chemscore.Internal.Correction.Weighted>
   9.000000E+99

> <Gold.Protein.RotatedTorsions>
[ 6907 6896 6895 6894 ] final -103.05 input  -60.11 | X-H torsion
[ 7974 7965 7964 7962 ] final -127.84 input  175.53 | X-H torsion
[ 8008 7997 7996 7995 ] final -114.35 input   59.86 | X-H torsion
[ 10167 10162 10161 10158 ] final  111.73 input  -65.29 | X-H torsion
[ 10718 10713 10712 10709 ] final   72.86 input   66.30 | X-H torsion
[ 10763 10752 10751 10750 ] final -128.72 input  -60.55 | X-H torsion
[ 11005 11000 10999 10996 ] final  -11.27 input  -57.11 | X-H torsion

> <Gold.Protein.ActiveResidues>
 VAL166  LYS551  ARG553  GLY616  TRP617  ASP618  TYR619  PRO620  LYS621  CYS622 
 ASP623  PHE694  ASN695  SER759  ASP760  ASP761  ALA762  ILE779  LEU786  VAL792 
 PHE793  MET794  SER795  GLU796  ALA797  LYS798  CYS799  TRP800  GLU811  SER814 

> <Gold.Protein.RotatedAtoms>
  150.7223  134.0489  159.3791 H   0  0  0  0  0  0  0  0  0  0  0  0  # atno 6907 bound_to 6896
  151.8465  135.0570  160.0463 H   0  0  0  0  0  0  0  0  0  0  0  0  # atno 6908 bound_to 6896
  152.2823  133.5446  159.5542 H   0  0  0  0  0  0  0  0  0  0  0  0  # atno 6909 bound_to 6896
  144.9730  140.7565  143.4658 H   0  0  0  0  0  0  0  0  0  0  0  0  # atno 7974 bound_to 7965
  155.0350  140.0392  157.2488 H   0  0  0  0  0  0  0  0  0  0  0  0  # atno 8008 bound_to 7997
  154.7264  140.2722  155.6471 H   0  0  0  0  0  0  0  0  0  0  0  0  # atno 8009 bound_to 7997
  156.2830  140.2693  156.1951 H   0  0  0  0  0  0  0  0  0  0  0  0  # atno 8010 bound_to 7997
  139.6589  144.7129  151.1903 H   0  0  0  0  0  0  0  0  0  0  0  0  # atno 10167 bound_to 10162
  157.6521  130.9599  150.0987 H   0  0  0  0  0  0  0  0  0  0  0  0  # atno 10718 bound_to 10713
  154.8757  135.3919  154.3802 H   0  0  0  0  0  0  0  0  0  0  0  0  # atno 10763 bound_to 10752
  153.4550  135.7028  153.6090 H   0  0  0  0  0  0  0  0  0  0  0  0  # atno 10764 bound_to 10752
  153.4613  135.3811  155.2308 H   0  0  0  0  0  0  0  0  0  0  0  0  # atno 10765 bound_to 10752
  140.7535  133.8573  155.9065 H   0  0  0  0  0  0  0  0  0  0  0  0  # atno 11005 bound_to 11000
  145.2530  139.2023  143.4932 LP  0  0  0  0  0  0  0  0  0  0  0  0  # atno 17320 bound_to 7965
  146.3387  140.2447  142.8596 LP  0  0  0  0  0  0  0  0  0  0  0  0  # atno 17321 bound_to 7965
  140.7571  143.6026  150.8684 LP  0  0  0  0  0  0  0  0  0  0  0  0  # atno 17342 bound_to 10162
  139.9682  143.6087  152.2982 LP  0  0  0  0  0  0  0  0  0  0  0  0  # atno 17343 bound_to 10162
  156.1916  130.3655  149.8903 LP  0  0  0  0  0  0  0  0  0  0  0  0  # atno 17370 bound_to 10713
  156.6829  130.8865  151.3578 LP  0  0  0  0  0  0  0  0  0  0  0  0  # atno 17371 bound_to 10713
  140.9729  134.1508  157.4561 LP  0  0  0  0  0  0  0  0  0  0  0  0  # atno 17394 bound_to 11000
  139.8783  134.9984  156.5901 LP  0  0  0  0  0  0  0  0  0  0  0  0  # atno 17395 bound_to 11000

$$$$
