#       Name:                AV-unprocessed.smi:1669
#       Creating user name   scv26
#       Creation time:       Fri Mar 27 07:41:39 2020


#       File generated by GOLD software.
#

@<TRIPOS>MOLECULE
AV-unprocessed.smi:1669
    53    55     1
SMALL
NO_CHARGES


@<TRIPOS>ATOM
      1 ****        -3.2946   0.2306  -0.5214 C.3            1 S1                 0.0000
      2 ****        -1.8388   0.4708  -0.6560 N.4            1 S1                 1.0000
      3 ****        -1.3092   1.3791   0.3935 C.3            1 S1                 0.0000
      4 ****        -1.7292   2.8184   0.1596 C.ar           1 S1                 0.0000
      5 ****        -1.0779   3.5894  -0.8264 C.ar           1 S1                 0.0000
      6 ****        -1.4637   4.9256  -1.0489 C.ar           1 S1                 0.0000
      7 ****        -2.5010   5.4958  -0.2857 C.ar           1 S1                 0.0000
      8 ****        -3.1517   4.7300   0.7010 C.ar           1 S1                 0.0000
      9 ****        -2.7660   3.3939   0.9246 C.ar           1 S1                 0.0000
     10 ****        -1.0706  -0.7949  -0.7647 C.3            1 S1                 0.0000
     11 ****         0.2161  -0.6221  -1.6022 C.3            1 S1                 0.0000
     12 ****        -0.1510  -0.3556  -2.9396 O.3            1 S1                 0.0000
     13 ****         1.1263  -1.8674  -1.6033 C.3            1 S1                 0.0000
     14 ****         1.5753  -2.2524  -0.2563 N.pl3          1 S1                 0.0000
     15 ****         1.1443  -3.2450   0.5771 C.2            1 S1                 0.0000
     16 ****         0.0548  -4.2355   0.3138 C.3            1 S1                 0.0000
     17 ****        -0.6399  -4.6089   1.4843 O.3            1 S1                 0.0000
     18 ****         1.8964  -3.1697   1.7123 N.pl3          1 S1                 1.0000
     19 ****         2.8149  -2.1255   1.6057 C.ar           1 S1                 0.0000
     20 ****         3.7787  -1.6642   2.4968 C.ar           1 S1                 0.0000
     21 ****         4.5595  -0.5686   2.0732 C.ar           1 S1                 0.0000
     22 ****         4.3692   0.0228   0.8074 C.ar           1 S1                 0.0000
     23 ****         3.3891  -0.4544  -0.0879 C.ar           1 S1                 0.0000
     24 ****         2.6185  -1.5351   0.3408 C.ar           1 S1                 0.0000
     25 ****        -3.5198  -0.2926   0.4087 H              1 S1                 0.0000
     26 ****        -3.6645  -0.3729  -1.3509 H              1 S1                 0.0000
     27 ****        -3.8528   1.1667  -0.5320 H              1 S1                 0.0000
     28 ****        -1.6325   1.0408   1.3794 H              1 S1                 0.0000
     29 ****        -0.2196   1.3555   0.4096 H              1 S1                 0.0000
     30 ****        -0.2821   3.1579  -1.4161 H              1 S1                 0.0000
     31 ****        -0.9640   5.5138  -1.8047 H              1 S1                 0.0000
     32 ****        -2.7969   6.5205  -0.4564 H              1 S1                 0.0000
     33 ****        -3.9464   5.1679   1.2870 H              1 S1                 0.0000
     34 ****        -3.2705   2.8132   1.6831 H              1 S1                 0.0000
     35 ****        -0.8466  -1.1508   0.2416 H              1 S1                 0.0000
     36 ****        -1.6826  -1.5704  -1.2285 H              1 S1                 0.0000
     37 ****         0.7904   0.2308  -1.2428 H              1 S1                 0.0000
     38 ****         0.6343  -0.2382  -3.4533 H              1 S1                 0.0000
     39 ****         0.6052  -2.7207  -2.0386 H              1 S1                 0.0000
     40 ****         2.0098  -1.7043  -2.2224 H              1 S1                 0.0000
     41 ****        -0.6630  -3.8192  -0.3927 H              1 S1                 0.0000
     42 ****         0.4860  -5.1250  -0.1461 H              1 S1                 0.0000
     43 ****        -1.2935  -5.2523   1.2544 H              1 S1                 0.0000
     44 ****         3.9284  -2.1171   3.4663 H              1 S1                 0.0000
     45 ****         5.3206  -0.1753   2.7318 H              1 S1                 0.0000
     46 ****         4.9884   0.8595   0.5170 H              1 S1                 0.0000
     47 ****         3.2542   0.0050  -1.0560 H              1 S1                 0.0000
     48 ****        -1.7134   0.9426  -1.5407 H              1 S1                 0.0000
     49 ****         1.7822  -3.7914   2.5029 H              1 S1                 0.0000
     50 ****        -0.7046   0.4763  -2.9768 LP             1 S1                 0.0000
     51 ****        -0.6786  -1.1236  -3.3027 LP             1 S1                 0.0000
     52 ****        -1.0830  -3.8063   1.8838 LP             1 S1                 0.0000
     53 ****         0.0000  -5.0001   2.1457 LP             1 S1                 0.0000
@<TRIPOS>BOND
    1    1    2 1     
    2    1   25 1     
    3    1   26 1     
    4    1   27 1     
    5    2    3 1     
    6    2   10 1     
    7    2   48 1     
    8    3    4 1     
    9    3   28 1     
   10    3   29 1     
   11    4    9 ar    
   12    4    5 ar    
   13    5    6 ar    
   14    5   30 1     
   15    6    7 ar    
   16    6   31 1     
   17    7    8 ar    
   18    7   32 1     
   19    8    9 ar    
   20    8   33 1     
   21    9   34 1     
   22   10   11 1     
   23   10   35 1     
   24   10   36 1     
   25   11   12 1     
   26   11   13 1     
   27   11   37 1     
   28   12   38 1     
   29   13   14 1     
   30   13   39 1     
   31   13   40 1     
   32   14   24 1     
   33   14   15 1     
   34   15   16 1     
   35   15   18 2     
   36   16   17 1     
   37   16   41 1     
   38   16   42 1     
   39   17   43 1     
   40   18   19 1     
   41   18   49 1     
   42   19   24 ar    
   43   19   20 ar    
   44   20   21 ar    
   45   20   44 1     
   46   21   22 ar    
   47   21   45 1     
   48   22   23 ar    
   49   22   46 1     
   50   23   24 ar    
   51   23   47 1     
   52   12   50 1     
   53   12   51 1     
   54   17   52 1     
   55   17   53 1     
@<TRIPOS>SUBSTRUCTURE
      1 S1             1
@<TRIPOS>SET
LONE_PAIRS      STATIC     ATOMS    <user>   **** ""
4 50 51 52 53
DONOR_HYDROGENS      STATIC     ATOMS    <user>   **** ""
4 48 38 43 49
ATOM$BLUE        STATIC     ATOMS    COLORGROUP SYSTEM
4 50 51 52 53
ATOM$RED        STATIC     ATOMS    COLORGROUP SYSTEM
4 48 38 43 49
