AV-unprocessed.smi:3329|AV-procd|sdf|12796|dock3
  -GOLD-   2272019153D 1   1.00000     0.00000
 Structure written by MMmdl.
 42 43  0  0  0  0  0  0  0  0  2 V2000
  151.1978  142.4372  158.0754 C   0  0  0  0  0  0  0  0  0  0  0  0
  150.7399  141.5955  156.9192 C   0  0  0  0  0  0  0  0  0  0  0  0
  151.4696  140.5815  156.2359 C   0  0  0  0  0  0  0  0  0  0  0  0
  150.7783  140.0247  155.2548 N   0  0  0  0  0  0  0  0  0  0  0  0
  149.5856  140.6568  155.2787 N   0  0  0  0  0  0  0  0  0  0  0  0
  148.5580  140.3058  154.3130 C   0  0  0  0  0  0  0  0  0  0  0  0
  148.2801  138.7936  154.2622 C   0  0  0  0  0  0  0  0  0  0  0  0
  147.9608  138.3519  152.8904 N   0  3  0  0  0  0  0  0  0  0  0  0
  146.5400  138.5039  152.5185 C   0  0  0  0  0  0  0  0  0  0  0  0
  145.7325  137.2399  152.8166 C   0  0  0  0  0  0  0  0  0  0  0  0
  144.5860  137.3246  153.2563 O   0  0  0  0  0  0  0  0  0  0  0  0
  146.3536  136.0745  152.5654 N   0  0  0  0  0  0  0  0  0  0  0  0
  145.8401  134.7088  152.7421 C   0  0  2  0  0  0  0  0  0  0  0  0
  145.5263  134.5632  154.2403 C   0  0  0  0  0  0  0  0  0  0  0  0
  146.8554  133.6942  152.3972 C   0  0  0  0  0  0  0  0  0  0  0  0
  147.6522  132.8999  152.1254 N   0  0  0  0  0  0  0  0  0  0  0  0
  144.5728  134.3817  151.9483 C   0  0  0  0  0  0  0  0  0  0  0  0
  144.1710  132.9857  151.5249 C   0  0  0  0  0  0  0  0  0  0  0  0
  144.6115  133.9942  150.4871 C   0  0  0  0  0  0  0  0  0  0  0  0
  149.5400  141.6184  156.2662 C   0  0  0  0  0  0  0  0  0  0  0  0
  151.8381  143.2559  157.7468 H   0  0  0  0  0  0  0  0  0  0  0  0
  151.7679  141.8528  158.7980 H   0  0  0  0  0  0  0  0  0  0  0  0
  150.3589  142.8802  158.6125 H   0  0  0  0  0  0  0  0  0  0  0  0
  152.4758  140.2363  156.4229 H   0  0  0  0  0  0  0  0  0  0  0  0
  147.6444  140.8480  154.5614 H   0  0  0  0  0  0  0  0  0  0  0  0
  148.8771  140.6611  153.3325 H   0  0  0  0  0  0  0  0  0  0  0  0
  149.1547  138.2472  154.6166 H   0  0  0  0  0  0  0  0  0  0  0  0
  147.4563  138.5369  154.9296 H   0  0  0  0  0  0  0  0  0  0  0  0
  148.5155  138.8953  152.2440 H   0  0  0  0  0  0  0  0  0  0  0  0
  146.1058  139.3391  153.0695 H   0  0  0  0  0  0  0  0  0  0  0  0
  146.4694  138.7375  151.4550 H   0  0  0  0  0  0  0  0  0  0  0  0
  147.2952  136.1343  152.2055 H   0  0  0  0  0  0  0  0  0  0  0  0
  145.1683  133.5599  154.4750 H   0  0  0  0  0  0  0  0  0  0  0  0
  144.7568  135.2687  154.5570 H   0  0  0  0  0  0  0  0  0  0  0  0
  146.4123  134.7424  154.8513 H   0  0  0  0  0  0  0  0  0  0  0  0
  143.7349  135.0161  152.2333 H   0  0  0  0  0  0  0  0  0  0  0  0
  144.8420  132.1549  151.7226 H   0  0  0  0  0  0  0  0  0  0  0  0
  143.1120  132.7391  151.5637 H   0  0  0  0  0  0  0  0  0  0  0  0
  143.8460  134.4147  149.8381 H   0  0  0  0  0  0  0  0  0  0  0  0
  145.5811  133.8388  150.0190 H   0  0  0  0  0  0  0  0  0  0  0  0
  148.6653  142.2321  156.4243 H   0  0  0  0  0  0  0  0  0  0  0  0
  148.2157  137.3794  152.7915 H   0  0  0  0  0  0  0  0  0  0  0  0
  1  2  1  0  0  0  0
  1 21  1  0  0  0  0
  1 22  1  0  0  0  0
  1 23  1  0  0  0  0
  2 20  2  0  0  0  0
  2  3  1  0  0  0  0
  3  4  2  0  0  0  0
  3 24  1  0  0  0  0
  4  5  1  0  0  0  0
  5  6  1  0  0  0  0
  5 20  1  0  0  0  0
  6  7  1  0  0  0  0
  6 25  1  0  0  0  0
  6 26  1  0  0  0  0
  7  8  1  0  0  0  0
  7 27  1  0  0  0  0
  7 28  1  0  0  0  0
  8  9  1  0  0  0  0
  8 29  1  0  0  0  0
  8 42  1  0  0  0  0
  9 10  1  0  0  0  0
  9 30  1  0  0  0  0
  9 31  1  0  0  0  0
 10 11  2  0  0  0  0
 10 12  1  0  0  0  0
 12 13  1  0  0  0  0
 12 32  1  0  0  0  0
 13 14  1  0  0  0  0
 13 15  1  0  0  0  0
 13 17  1  0  0  0  0
 14 33  1  0  0  0  0
 14 34  1  0  0  0  0
 14 35  1  0  0  0  0
 15 16  3  0  0  0  0
 17 19  1  0  0  0  0
 17 18  1  0  0  0  0
 17 36  1  0  0  0  0
 18 19  1  0  0  0  0
 18 37  1  0  0  0  0
 18 38  1  0  0  0  0
 19 39  1  0  0  0  0
 19 40  1  0  0  0  0
 20 41  1  0  0  0  0
M  CHG  1   8   1
M  END
> <s_m_source_file>
AV-unprocessed.smi

> <i_m_source_file_index>
3329

> <i_lp_mmshare_version>
43012

> <i_f3d_flags>
0

> <s_epik_input>
W0NIM11jMVtjSF1ubihbY0hdMSlbQ0gyXVtDSDJdW05IXVtDSDJdQyg9TylbTkhdW0NAQF0oW0NIM10pKEMjTilbQ0hdMltDSDJdW0NIMl0y

> <s_epik_cmdline>
J2VwaWtfcHl0aG9uJywgJy1waCcsICc3LjAnLCAnLXRuJywgJzgnLCAnLW1hJywgJzIwMCcsICctbWV0YWxfYmluZGluZycsICctaW1hZScsICc8aW5maWxlLm1hZT4nLCAnLW9tYWUnLCAnPG91dGZpbGUubWFlPic=

> <r_lp_tautomer_probability>
1

> <r_epik_Ionization_Penalty>
0.350291

> <r_epik_Ionization_Penalty_Charging>
0.350239

> <r_epik_Ionization_Penalty_Neutral>
5.12768e-05

> <r_epik_State_Penalty>
0.347656

> <r_epik_Charging_Adjusted_Penalty>
0.697895

> <i_epik_Tot_Q>
1

> <i_epik_Tot_abs_Q>
1

> <r_epik_Metal_State_Penalty>
0.371739

> <b_epik_Metal_Only>
0

> <s_lp_Force_Field>
OPLS_2005

> <r_lp_Energy>
13.221

> <b_lp_Chiralities_Consistent>
1

> <s_lp_Variant>
AV-unprocessed.smi:3329-2

> <Gold.Version>
5.8.1

> <Gold.Id.Protein>
6NUR|6NUR_protein|mol2

> <Gold.PLP.Fitness>
51.5377

> <Gold.PLP.PLP>
-35.8591

> <Gold.PLP.part.hbond>
-4.0000

> <Gold.PLP.part.metal>
0.0000

> <Gold.PLP.part.buried>
-3.1734

> <Gold.PLP.part.nonpolar>
-30.2023

> <Gold.PLP.part.repulsive>
1.3439

> <Gold.PLP.ligand.clash>
0.0000

> <Gold.PLP.ligand.torsion>
1.7165

> <Gold.PLP.Chemscore.Hbond>
4.9500

> <Gold.PLP.Chemscore.CHOScore>
0.8573

> <Gold.PLP.Chemscore.Metal>
0.0000

> <Gold.Chemscore.Hbonds>
donor molecule, donor type, donor heavy atom, donor atom, acceptor molecule, acceptor atom, score
      L1  H     8    29       P1  7957  1.00
      L1  H     8    42       P1  7948  1.82
      L1  H    12    32       P1  7948  1.00
      P1  H  7989  7998       L1     4  0.76
      L1  C    20    41       P1  8028  0.58

> <Gold.PLP.Chemscore.Internal.Correction>
1.6897

> <Gold.Rescore>
     Score         DG    S(hbond)    S(metal)    S(lipo)     H(rot)  DE(clash)    DE(int)     intcor
     17.00     -18.61       3.53        0.00      63.82       2.40       0.05       1.56       ----

> <Gold.Chemscore.Fitness>
16.9970

> <Gold.Chemscore.DG>
-18.6112

> <Gold.Chemscore.ZeroCoef>
-5.4800

> <Gold.Chemscore.Hbond>
3.5332

> <Gold.Chemscore.Metal>
0.0000

> <Gold.Chemscore.Lipo>
63.8220

> <Gold.Chemscore.Internal_Hbond>
0.0000

> <Gold.Chemscore.DEClash>
0.0509

> <Gold.Chemscore.DEInternal>
1.5633

> <Gold.Chemscore.Rot>
2.3972

> <Gold.Chemscore.Internal.Correction>
   9.000000E+99

> <Gold.Chemscore.Hbonds>
donor molecule, donor type, donor heavy atom, donor atom, acceptor molecule, acceptor atom, score
      L1  H     8    29       P1  7957  0.98
      L1  H     8    42       P1  7948  0.89
      L1  H    12    32       P1  7948  1.00
      P1  H  7989  7998       L1     4  0.09

> <Gold.Chemscore.Hbond.Weighted>
-11.8009

> <Gold.Chemscore.Metal.Weighted>
-0.0000

> <Gold.Chemscore.Lipo.Weighted>
-7.4672

> <Gold.Chemscore.Internal_Hbond.Weighted>
0.0000

> <Gold.Chemscore.DEClash.Weighted>
0.0509

> <Gold.Chemscore.DEInternal.Weighted>
1.5633

> <Gold.Chemscore.Rot.Weighted>
6.1369

> <Gold.Chemscore.Internal.Correction.Weighted>
   9.000000E+99

> <Gold.Protein.RotatedTorsions>
[ 6907 6896 6895 6894 ] final   -6.56 input  -60.11 | X-H torsion
[ 7974 7965 7964 7962 ] final   50.58 input  175.53 | X-H torsion
[ 8008 7997 7996 7995 ] final -155.13 input   59.86 | X-H torsion
[ 10167 10162 10161 10158 ] final  -31.91 input  -65.29 | X-H torsion
[ 10718 10713 10712 10709 ] final   84.91 input   66.30 | X-H torsion
[ 10763 10752 10751 10750 ] final -172.09 input  -60.55 | X-H torsion
[ 11005 11000 10999 10996 ] final  107.84 input  -57.11 | X-H torsion

> <Gold.Protein.ActiveResidues>
 VAL166  LYS551  ARG553  GLY616  TRP617  ASP618  TYR619  PRO620  LYS621  CYS622 
 ASP623  PHE694  ASN695  SER759  ASP760  ASP761  ALA762  ILE779  LEU786  VAL792 
 PHE793  MET794  SER795  GLU796  ALA797  LYS798  CYS799  TRP800  GLU811  SER814 

> <Gold.Protein.RotatedAtoms>
  151.4637  135.1040  159.9731 H   0  0  0  0  0  0  0  0  0  0  0  0  # atno 6907 bound_to 6896
  152.4843  133.8329  159.7123 H   0  0  0  0  0  0  0  0  0  0  0  0  # atno 6908 bound_to 6896
  150.8940  133.7145  159.2924 H   0  0  0  0  0  0  0  0  0  0  0  0  # atno 6909 bound_to 6896
  145.9997  139.4426  143.0022 H   0  0  0  0  0  0  0  0  0  0  0  0  # atno 7974 bound_to 7965
  155.6971  140.0762  157.2425 H   0  0  0  0  0  0  0  0  0  0  0  0  # atno 8008 bound_to 7997
  154.4079  140.1654  156.2203 H   0  0  0  0  0  0  0  0  0  0  0  0  # atno 8009 bound_to 7997
  155.9400  140.3385  155.6323 H   0  0  0  0  0  0  0  0  0  0  0  0  # atno 8010 bound_to 7997
  140.7229  143.3735  151.1733 H   0  0  0  0  0  0  0  0  0  0  0  0  # atno 10167 bound_to 10162
  157.6906  131.0153  150.2743 H   0  0  0  0  0  0  0  0  0  0  0  0  # atno 10718 bound_to 10713
  154.6232  135.2877  155.0302 H   0  0  0  0  0  0  0  0  0  0  0  0  # atno 10763 bound_to 10752
  154.1489  135.6506  153.4963 H   0  0  0  0  0  0  0  0  0  0  0  0  # atno 10764 bound_to 10752
  153.0245  135.5351  154.7030 H   0  0  0  0  0  0  0  0  0  0  0  0  # atno 10765 bound_to 10752
  139.8834  134.9413  156.5880 H   0  0  0  0  0  0  0  0  0  0  0  0  # atno 11005 bound_to 11000
  145.7505  140.9974  143.1253 LP  0  0  0  0  0  0  0  0  0  0  0  0  # atno 17320 bound_to 7965
  144.6915  139.9209  143.7468 LP  0  0  0  0  0  0  0  0  0  0  0  0  # atno 17321 bound_to 7965
  139.7311  143.9072  152.3019 LP  0  0  0  0  0  0  0  0  0  0  0  0  # atno 17342 bound_to 10162
  139.8861  144.6991  150.8823 LP  0  0  0  0  0  0  0  0  0  0  0  0  # atno 17343 bound_to 10162
  156.3300  130.3799  149.7499 LP  0  0  0  0  0  0  0  0  0  0  0  0  # atno 17370 bound_to 10713
  156.5041  130.8142  151.3144 LP  0  0  0  0  0  0  0  0  0  0  0  0  # atno 17371 bound_to 10713
  140.7977  133.8531  155.8699 LP  0  0  0  0  0  0  0  0  0  0  0  0  # atno 17394 bound_to 11000
  140.9621  134.1642  157.4646 LP  0  0  0  0  0  0  0  0  0  0  0  0  # atno 17395 bound_to 11000

$$$$
