AV-unprocessed.smi:1207|AV-procd|sdf|5057|dock5
  -GOLD-   22720 4 93D 1   1.00000     0.00000
 Structure written by MMmdl.
 53 55  0  0  0  0  0  0  0  0  3 V2000
  146.3190  128.3090  152.2841 C   0  0  0  0  0  0  0  0  0  0  0  0
  146.1030  129.8009  152.0929 C   0  0  0  0  0  0  0  0  0  0  0  0
  144.9527  130.2317  151.3939 C   0  0  0  0  0  0  0  0  0  0  0  0
  144.7827  131.6019  151.2352 C   0  0  0  0  0  0  0  0  0  0  0  0
  143.7732  132.3330  150.6048 N   0  3  0  0  0  0  0  0  0  0  0  0
  144.0435  133.6640  150.7070 C   0  0  0  0  0  0  0  0  0  0  0  0
  145.2086  133.7935  151.3990 N   0  0  0  0  0  0  0  0  0  0  0  0
  145.9515  135.0012  151.7830 C   0  0  0  0  0  0  0  0  0  0  0  0
  145.1249  136.2923  151.6216 C   0  0  2  0  0  0  0  0  0  0  0  0
  145.4923  136.9305  150.4139 O   0  0  0  0  0  0  0  0  0  0  0  0
  145.3615  137.2700  152.7904 C   0  0  0  0  0  0  0  0  0  0  0  0
  146.7706  137.7386  152.8715 N   0  3  1  0  0  0  0  0  0  0  0  0
  147.0238  138.9384  152.0349 C   0  0  0  0  0  0  0  0  0  0  0  0
  147.2261  137.9114  154.2757 C   0  0  0  0  0  0  0  0  0  0  0  0
  148.6174  138.4873  154.3494 C   0  0  0  0  0  0  0  0  0  0  0  0
  149.0238  139.8444  154.1909 C   0  0  0  0  0  0  0  0  0  0  0  0
  148.1776  141.0532  153.9099 C   0  0  0  0  0  0  0  0  0  0  0  0
  150.3315  139.9857  154.3244 N   0  0  0  0  0  0  0  0  0  0  0  0
  150.8321  138.7067  154.5848 O   0  0  0  0  0  0  0  0  0  0  0  0
  149.7933  137.8339  154.5970 C   0  0  0  0  0  0  0  0  0  0  0  0
  150.1226  136.4042  154.8653 C   0  0  0  0  0  0  0  0  0  0  0  0
  145.7085  132.5331  151.7442 C   0  0  0  0  0  0  0  0  0  0  0  0
  146.8479  132.1264  152.4340 C   0  0  0  0  0  0  0  0  0  0  0  0
  147.0386  130.7366  152.6061 C   0  0  0  0  0  0  0  0  0  0  0  0
  148.2719  130.2618  153.3556 C   0  0  0  0  0  0  0  0  0  0  0  0
  145.5203  127.7278  151.8222 H   0  0  0  0  0  0  0  0  0  0  0  0
  146.3429  128.0579  153.3448 H   0  0  0  0  0  0  0  0  0  0  0  0
  147.2610  127.9967  151.8326 H   0  0  0  0  0  0  0  0  0  0  0  0
  144.2372  129.5249  150.9992 H   0  0  0  0  0  0  0  0  0  0  0  0
  143.4418  134.4700  150.3117 H   0  0  0  0  0  0  0  0  0  0  0  0
  146.2918  134.8810  152.8123 H   0  0  0  0  0  0  0  0  0  0  0  0
  146.8491  135.0439  151.1640 H   0  0  0  0  0  0  0  0  0  0  0  0
  144.0718  136.0243  151.5542 H   0  0  0  0  0  0  0  0  0  0  0  0
  144.7323  137.3701  150.0634 H   0  0  0  0  0  0  0  0  0  0  0  0
  144.7017  138.1348  152.7067 H   0  0  0  0  0  0  0  0  0  0  0  0
  145.0780  136.7644  153.7148 H   0  0  0  0  0  0  0  0  0  0  0  0
  146.4740  139.8002  152.4149 H   0  0  0  0  0  0  0  0  0  0  0  0
  146.7254  138.7794  151.0000 H   0  0  0  0  0  0  0  0  0  0  0  0
  148.0833  139.1929  152.0174 H   0  0  0  0  0  0  0  0  0  0  0  0
  146.5064  138.5301  154.8133 H   0  0  0  0  0  0  0  0  0  0  0  0
  147.2167  136.9434  154.7780 H   0  0  0  0  0  0  0  0  0  0  0  0
  147.3152  140.7992  153.2942 H   0  0  0  0  0  0  0  0  0  0  0  0
  148.7415  141.8221  153.3807 H   0  0  0  0  0  0  0  0  0  0  0  0
  147.8065  141.4921  154.8361 H   0  0  0  0  0  0  0  0  0  0  0  0
  149.4838  135.7416  154.2812 H   0  0  0  0  0  0  0  0  0  0  0  0
  149.9804  136.1685  155.9200 H   0  0  0  0  0  0  0  0  0  0  0  0
  151.1588  136.1856  154.6063 H   0  0  0  0  0  0  0  0  0  0  0  0
  147.5612  132.8377  152.8227 H   0  0  0  0  0  0  0  0  0  0  0  0
  148.8921  131.0995  153.6765 H   0  0  0  0  0  0  0  0  0  0  0  0
  148.8828  129.6203  152.7201 H   0  0  0  0  0  0  0  0  0  0  0  0
  147.9867  129.6988  154.2448 H   0  0  0  0  0  0  0  0  0  0  0  0
  147.3302  136.9882  152.4915 H   0  0  0  0  0  0  0  0  0  0  0  0
  142.9605  131.9539  150.1355 H   0  0  0  0  0  0  0  0  0  0  0  0
  1  2  1  0  0  0  0
  1 26  1  0  0  0  0
  1 27  1  0  0  0  0
  1 28  1  0  0  0  0
  2 24  1  0  0  0  0
  2  3  2  0  0  0  0
  3  4  1  0  0  0  0
  3 29  1  0  0  0  0
  4 22  2  0  0  0  0
  4  5  1  0  0  0  0
  5  6  2  0  0  0  0
  5 53  1  0  0  0  0
  6  7  1  0  0  0  0
  6 30  1  0  0  0  0
  7  8  1  0  0  0  0
  7 22  1  0  0  0  0
  8  9  1  0  0  0  0
  8 31  1  0  0  0  0
  8 32  1  0  0  0  0
  9 10  1  0  0  0  0
  9 11  1  0  0  0  0
  9 33  1  0  0  0  0
 10 34  1  0  0  0  0
 11 12  1  0  0  0  0
 11 35  1  0  0  0  0
 11 36  1  0  0  0  0
 12 13  1  0  0  0  0
 12 14  1  0  0  0  0
 12 52  1  0  0  0  0
 13 37  1  0  0  0  0
 13 38  1  0  0  0  0
 13 39  1  0  0  0  0
 14 15  1  0  0  0  0
 14 40  1  0  0  0  0
 14 41  1  0  0  0  0
 15 20  2  0  0  0  0
 15 16  1  0  0  0  0
 16 17  1  0  0  0  0
 16 18  2  0  0  0  0
 17 42  1  0  0  0  0
 17 43  1  0  0  0  0
 17 44  1  0  0  0  0
 18 19  1  0  0  0  0
 19 20  1  0  0  0  0
 20 21  1  0  0  0  0
 21 45  1  0  0  0  0
 21 46  1  0  0  0  0
 21 47  1  0  0  0  0
 22 23  1  0  0  0  0
 23 24  2  0  0  0  0
 23 48  1  0  0  0  0
 24 25  1  0  0  0  0
 25 49  1  0  0  0  0
 25 50  1  0  0  0  0
 25 51  1  0  0  0  0
M  CHG  1   5   1
M  CHG  1  12   1
M  END
> <s_m_source_file>
AV-unprocessed.smi

> <i_m_source_file_index>
1207

> <i_lp_mmshare_version>
43012

> <i_f3d_flags>
0

> <s_epik_input>
W0NIM11jKFtjSF0xKWMoW0NIM10pW2NIXWMoYzEyKW4oW2NIXW4yKVtDSDJdW0NASF0oW09IXSlbQ0gyXU4oW0NIM10pW0NIMl1jM2MoW0NIM10pbm9jM1tDSDNd

> <s_epik_cmdline>
J2VwaWtfcHl0aG9uJywgJy1waCcsICc3LjAnLCAnLXRuJywgJzgnLCAnLW1hJywgJzIwMCcsICctbWV0YWxfYmluZGluZycsICctaW1hZScsICc8aW5maWxlLm1hZT4nLCAnLW9tYWUnLCAnPG91dGZpbGUubWFlPic=

> <r_epik_Ionization_Penalty>
1.77463

> <r_epik_Ionization_Penalty_Charging>
1.77463

> <r_epik_Ionization_Penalty_Neutral>
3.70885e-06

> <r_epik_State_Penalty>
1.85225

> <r_epik_Charging_Adjusted_Penalty>
3.62688

> <i_epik_Tot_Q>
2

> <i_epik_Tot_abs_Q>
2

> <r_epik_Metal_State_Penalty>
1.92674

> <b_epik_Metal_Only>
0

> <s_lp_Force_Field>
OPLS_2005

> <r_lp_Energy>
17.578

> <b_lp_Chiralities_Consistent>
1

> <s_lp_Variant>
AV-unprocessed.smi:1207-9

> <Gold.Version>
5.8.1

> <Gold.Id.Protein>
6NUR|6NUR_protein|mol2

> <Gold.PLP.Fitness>
55.3751

> <Gold.PLP.PLP>
-43.6843

> <Gold.PLP.part.hbond>
-2.5848

> <Gold.PLP.part.metal>
0.0000

> <Gold.PLP.part.buried>
-4.2997

> <Gold.PLP.part.nonpolar>
-37.9939

> <Gold.PLP.part.repulsive>
0.3404

> <Gold.PLP.ligand.clash>
0.0000

> <Gold.PLP.ligand.torsion>
1.4383

> <Gold.PLP.Chemscore.Hbond>
4.0000

> <Gold.PLP.Chemscore.CHOScore>
0.8151

> <Gold.PLP.Chemscore.Metal>
0.0000

> <Gold.Chemscore.Hbonds>
donor molecule, donor type, donor heavy atom, donor atom, acceptor molecule, acceptor atom, score
      L1  H    10    34       P1 10171  0.93
      L1  H    12    52       P1  7948  2.00
      P1  H  7989  7998       L1    18  1.00
      L1  C     6    30       P1 10186  0.95

> <Gold.PLP.Chemscore.Internal.Correction>
0.1221

> <Gold.Rescore>
     Score         DG    S(hbond)    S(metal)    S(lipo)     H(rot)  DE(clash)    DE(int)     intcor
     19.02     -22.43       2.86        0.00     118.78       2.54       1.90       1.51       ----

> <Gold.Chemscore.Fitness>
19.0248

> <Gold.Chemscore.DG>
-22.4329

> <Gold.Chemscore.ZeroCoef>
-5.4800

> <Gold.Chemscore.Hbond>
2.8580

> <Gold.Chemscore.Metal>
0.0000

> <Gold.Chemscore.Lipo>
118.7786

> <Gold.Chemscore.Internal_Hbond>
0.0000

> <Gold.Chemscore.DEClash>
1.8970

> <Gold.Chemscore.DEInternal>
1.5111

> <Gold.Chemscore.Rot>
2.5351

> <Gold.Chemscore.Internal.Correction>
   9.000000E+99

> <Gold.Chemscore.Hbonds>
donor molecule, donor type, donor heavy atom, donor atom, acceptor molecule, acceptor atom, score
      L1  H    10    34       P1 10171  0.86
      L1  H    12    52       P1  7948  0.97
      P1  H  7989  7998       L1    18  0.60

> <Gold.Chemscore.Hbond.Weighted>
-9.5458

> <Gold.Chemscore.Metal.Weighted>
-0.0000

> <Gold.Chemscore.Lipo.Weighted>
-13.8971

> <Gold.Chemscore.Internal_Hbond.Weighted>
0.0000

> <Gold.Chemscore.DEClash.Weighted>
1.8970

> <Gold.Chemscore.DEInternal.Weighted>
1.5111

> <Gold.Chemscore.Rot.Weighted>
6.4900

> <Gold.Chemscore.Internal.Correction.Weighted>
   9.000000E+99

> <Gold.Protein.RotatedTorsions>
[ 6907 6896 6895 6894 ] final   10.84 input  -60.11 | X-H torsion
[ 7974 7965 7964 7962 ] final  156.71 input  175.53 | X-H torsion
[ 8008 7997 7996 7995 ] final   25.61 input   59.86 | X-H torsion
[ 10167 10162 10161 10158 ] final -144.44 input  -65.29 | X-H torsion
[ 10718 10713 10712 10709 ] final -151.24 input   66.30 | X-H torsion
[ 10763 10752 10751 10750 ] final   57.62 input  -60.55 | X-H torsion
[ 11005 11000 10999 10996 ] final  135.89 input  -57.11 | X-H torsion

> <Gold.Protein.ActiveResidues>
 VAL166  LYS551  ARG553  GLY616  TRP617  ASP618  TYR619  PRO620  LYS621  CYS622 
 ASP623  PHE694  ASN695  SER759  ASP760  ASP761  ALA762  ILE779  LEU786  VAL792 
 PHE793  MET794  SER795  GLU796  ALA797  LYS798  CYS799  TRP800  GLU811  SER814 

> <Gold.Protein.RotatedAtoms>
  151.7448  135.0846  160.0321 H   0  0  0  0  0  0  0  0  0  0  0  0  # atno 6907 bound_to 6896
  152.3456  133.6114  159.5916 H   0  0  0  0  0  0  0  0  0  0  0  0  # atno 6908 bound_to 6896
  150.7506  133.9571  159.3545 H   0  0  0  0  0  0  0  0  0  0  0  0  # atno 6909 bound_to 6896
  144.7946  139.7241  143.6207 H   0  0  0  0  0  0  0  0  0  0  0  0  # atno 7974 bound_to 7965
  155.0144  140.3140  155.4817 H   0  0  0  0  0  0  0  0  0  0  0  0  # atno 8008 bound_to 7997
  156.2903  140.2209  156.5201 H   0  0  0  0  0  0  0  0  0  0  0  0  # atno 8009 bound_to 7997
  154.7506  140.0466  157.0878 H   0  0  0  0  0  0  0  0  0  0  0  0  # atno 8010 bound_to 7997
  139.7898  143.7982  152.2648 H   0  0  0  0  0  0  0  0  0  0  0  0  # atno 10167 bound_to 10162
  156.4566  130.8193  151.2424 H   0  0  0  0  0  0  0  0  0  0  0  0  # atno 10718 bound_to 10713
  152.9853  135.5635  154.5419 H   0  0  0  0  0  0  0  0  0  0  0  0  # atno 10763 bound_to 10752
  154.4872  135.2791  155.1527 H   0  0  0  0  0  0  0  0  0  0  0  0  # atno 10764 bound_to 10752
  154.3011  135.6307  153.5478 H   0  0  0  0  0  0  0  0  0  0  0  0  # atno 10765 bound_to 10752
  140.0010  134.9478  157.0071 H   0  0  0  0  0  0  0  0  0  0  0  0  # atno 11005 bound_to 11000
  146.2210  139.5636  142.9618 LP  0  0  0  0  0  0  0  0  0  0  0  0  # atno 17320 bound_to 7965
  145.5705  141.0394  143.2176 LP  0  0  0  0  0  0  0  0  0  0  0  0  # atno 17321 bound_to 7965
  139.8070  144.7351  150.9748 LP  0  0  0  0  0  0  0  0  0  0  0  0  # atno 17342 bound_to 10162
  140.7820  143.4288  151.0726 LP  0  0  0  0  0  0  0  0  0  0  0  0  # atno 17343 bound_to 10162
  157.7500  131.0120  150.3370 LP  0  0  0  0  0  0  0  0  0  0  0  0  # atno 17370 bound_to 10713
  156.3760  130.3872  149.7138 LP  0  0  0  0  0  0  0  0  0  0  0  0  # atno 17371 bound_to 10713
  140.4729  134.1368  155.7205 LP  0  0  0  0  0  0  0  0  0  0  0  0  # atno 17394 bound_to 11000
  141.1641  133.8736  157.1764 LP  0  0  0  0  0  0  0  0  0  0  0  0  # atno 17395 bound_to 11000

$$$$
