AV-unprocessed.smi:2226|AV-procd|sdf|9010|dock3
  -GOLD-   2272012213D 1   1.00000     0.00000
 Structure written by MMmdl.
 40 42  0  0  0  0  0  0  0  0  2 V2000
  145.7334  143.1421  153.7156 C   0  0  0  0  0  0  0  0  0  0  0  0
  145.9115  141.6909  153.9603 N   0  3  2  0  0  0  0  0  0  0  0  0
  145.6970  141.2640  155.3645 C   0  0  1  0  0  0  0  0  0  0  0  0
  145.4817  139.7326  155.3948 C   0  0  0  0  0  0  0  0  0  0  0  0
  146.5978  138.9317  154.6932 C   0  0  0  0  0  0  0  0  0  0  0  0
  147.0449  139.5830  153.3685 C   0  0  0  0  0  0  0  0  0  0  0  0
  147.1799  141.1223  153.4426 C   0  0  2  0  0  0  0  0  0  0  0  0
  148.3974  141.6298  154.2553 C   0  0  0  0  0  0  0  0  0  0  0  0
  148.2593  141.4780  155.7878 C   0  0  1  0  0  0  0  0  0  0  0  0
  149.1980  142.3866  156.4450 N   0  0  0  0  0  0  0  0  0  0  0  0
  150.2816  142.0414  157.1579 C   0  0  0  0  0  0  0  0  0  0  0  0
  150.5978  140.8601  157.3305 O   0  0  0  0  0  0  0  0  0  0  0  0
  150.9192  143.1827  157.6215 N   0  0  0  0  0  0  0  0  0  0  0  0
  151.4496  143.1889  158.8055 C   0  0  0  0  0  0  0  0  0  0  0  0
  152.1197  144.2314  159.4253 N   0  0  0  0  0  0  0  0  0  0  0  0
  152.5124  143.8079  160.6648 C   0  0  0  0  0  0  0  0  0  0  0  0
  152.1072  142.5510  160.8205 C   0  0  0  0  0  0  0  0  0  0  0  0
  151.4522  142.1418  159.6984 O   0  0  0  0  0  0  0  0  0  0  0  0
  146.8281  141.7801  156.2887 C   0  0  0  0  0  0  0  0  0  0  0  0
  146.4733  143.7449  154.2417 H   0  0  0  0  0  0  0  0  0  0  0  0
  144.7438  143.4636  154.0414 H   0  0  0  0  0  0  0  0  0  0  0  0
  145.8160  143.3608  152.6508 H   0  0  0  0  0  0  0  0  0  0  0  0
  144.7649  141.7135  155.7103 H   0  0  0  0  0  0  0  0  0  0  0  0
  145.3598  139.3843  156.4210 H   0  0  0  0  0  0  0  0  0  0  0  0
  144.5389  139.5121  154.8925 H   0  0  0  0  0  0  0  0  0  0  0  0
  147.4472  138.8015  155.3581 H   0  0  0  0  0  0  0  0  0  0  0  0
  146.2484  137.9172  154.4985 H   0  0  0  0  0  0  0  0  0  0  0  0
  147.9780  139.1339  153.0269 H   0  0  0  0  0  0  0  0  0  0  0  0
  146.3032  139.3435  152.6054 H   0  0  0  0  0  0  0  0  0  0  0  0
  147.3066  141.4705  152.4165 H   0  0  0  0  0  0  0  0  0  0  0  0
  149.3068  141.1319  153.9168 H   0  0  0  0  0  0  0  0  0  0  0  0
  148.5443  142.6840  154.0163 H   0  0  0  0  0  0  0  0  0  0  0  0
  148.5077  140.4545  156.0552 H   0  0  0  0  0  0  0  0  0  0  0  0
  149.0078  143.3739  156.3503 H   0  0  0  0  0  0  0  0  0  0  0  0
  152.3087  145.1559  159.0658 H   0  0  0  0  0  0  0  0  0  0  0  0
  153.0558  144.4707  161.3218 H   0  0  0  0  0  0  0  0  0  0  0  0
  152.2021  141.8445  161.6318 H   0  0  0  0  0  0  0  0  0  0  0  0
  146.7104  142.8597  156.3923 H   0  0  0  0  0  0  0  0  0  0  0  0
  146.6992  141.3819  157.2960 H   0  0  0  0  0  0  0  0  0  0  0  0
  145.1769  141.2489  153.4260 H   0  0  0  0  0  0  0  0  0  0  0  0
  1  2  1  0  0  0  0
  1 20  1  0  0  0  0
  1 21  1  0  0  0  0
  1 22  1  0  0  0  0
  2  7  1  0  0  0  0
  2  3  1  0  0  0  0
  2 40  1  0  0  0  0
  3 19  1  0  0  0  0
  3  4  1  0  0  0  0
  3 23  1  0  0  0  0
  4  5  1  0  0  0  0
  4 24  1  0  0  0  0
  4 25  1  0  0  0  0
  5  6  1  0  0  0  0
  5 26  1  0  0  0  0
  5 27  1  0  0  0  0
  6  7  1  0  0  0  0
  6 28  1  0  0  0  0
  6 29  1  0  0  0  0
  7  8  1  0  0  0  0
  7 30  1  0  0  0  0
  8  9  1  0  0  0  0
  8 31  1  0  0  0  0
  8 32  1  0  0  0  0
  9 10  1  0  0  0  0
  9 19  1  0  0  0  0
  9 33  1  0  0  0  0
 10 34  1  0  0  0  0
 10 11  1  0  0  0  0
 11 13  1  0  0  0  0
 11 12  2  0  0  0  0
 13 14  2  0  0  0  0
 14 18  1  0  0  0  0
 14 15  1  0  0  0  0
 15 35  1  0  0  0  0
 15 16  1  0  0  0  0
 16 36  1  0  0  0  0
 16 17  2  0  0  0  0
 17 37  1  0  0  0  0
 17 18  1  0  0  0  0
 19 38  1  0  0  0  0
 19 39  1  0  0  0  0
M  CHG  1   2   1
M  END
> <s_m_source_file>
AV-unprocessed.smi

> <i_m_source_file_index>
2226

> <i_lp_mmshare_version>
43012

> <i_f3d_flags>
0

> <s_epik_input>
W0NIMl0xW0NIMl1bQ0gyXVtDQEhdKE4oW0NIM10pW0NIXTEyKVtDSDJdW0NASF0oW0NIMl0yKVtOSF1DKD1PKVtOSF1jM25bY0hdW2NIXW8z

> <s_epik_cmdline>
J2VwaWtfcHl0aG9uJywgJy1waCcsICc3LjAnLCAnLXRuJywgJzgnLCAnLW1hJywgJzIwMCcsICctbWV0YWxfYmluZGluZycsICctaW1hZScsICc8aW5maWxlLm1hZT4nLCAnLW9tYWUnLCAnPG91dGZpbGUubWFlPic=

> <r_lp_tautomer_probability>
0.107061

> <r_epik_Ionization_Penalty>
1.08307

> <r_epik_Ionization_Penalty_Charging>
1.08272

> <r_epik_Ionization_Penalty_Neutral>
0.000345913

> <r_epik_State_Penalty>
2.5744

> <r_epik_Charging_Adjusted_Penalty>
3.65713

> <i_epik_Tot_Q>
1

> <i_epik_Tot_abs_Q>
1

> <r_epik_Metal_State_Penalty>
3.72133

> <b_epik_Metal_Only>
0

> <s_lp_Force_Field>
OPLS_2005

> <r_lp_Energy>
57.8706

> <b_lp_Chiralities_Consistent>
1

> <s_lp_Variant>
AV-unprocessed.smi:2226-10

> <Gold.Version>
5.8.1

> <Gold.Id.Protein>
6NUR|6NUR_protein|mol2

> <Gold.PLP.Fitness>
40.5204

> <Gold.PLP.PLP>
-32.1578

> <Gold.PLP.part.hbond>
-2.0000

> <Gold.PLP.part.metal>
0.0000

> <Gold.PLP.part.buried>
-6.1574

> <Gold.PLP.part.nonpolar>
-24.2391

> <Gold.PLP.part.repulsive>
0.2285

> <Gold.PLP.ligand.clash>
0.0000

> <Gold.PLP.ligand.torsion>
0.3217

> <Gold.PLP.Chemscore.Hbond>
3.0000

> <Gold.PLP.Chemscore.CHOScore>
0.0000

> <Gold.PLP.Chemscore.Metal>
0.0000

> <Gold.Chemscore.Hbonds>
donor molecule, donor type, donor heavy atom, donor atom, acceptor molecule, acceptor atom, score
      L1  H     2    40       P1 10175  2.00
      L1  H    10    34       P1  8028  0.96

> <Gold.PLP.Chemscore.Internal.Correction>
0.0060

> <Gold.Rescore>
     Score         DG    S(hbond)    S(metal)    S(lipo)     H(rot)  DE(clash)    DE(int)     intcor
     15.17     -16.92       1.89        0.00      65.77       1.00       0.05       1.70       ----

> <Gold.Chemscore.Fitness>
15.1657

> <Gold.Chemscore.DG>
-16.9196

> <Gold.Chemscore.ZeroCoef>
-5.4800

> <Gold.Chemscore.Hbond>
1.8877

> <Gold.Chemscore.Metal>
0.0000

> <Gold.Chemscore.Lipo>
65.7675

> <Gold.Chemscore.Internal_Hbond>
0.0000

> <Gold.Chemscore.DEClash>
0.0502

> <Gold.Chemscore.DEInternal>
1.7037

> <Gold.Chemscore.Rot>
1.0000

> <Gold.Chemscore.Internal.Correction>
   9.000000E+99

> <Gold.Chemscore.Hbonds>
donor molecule, donor type, donor heavy atom, donor atom, acceptor molecule, acceptor atom, score
      L1  H     2    40       P1 10175  0.25
      L1  H    10    34       P1  8028  0.90

> <Gold.Chemscore.Hbond.Weighted>
-6.3048

> <Gold.Chemscore.Metal.Weighted>
-0.0000

> <Gold.Chemscore.Lipo.Weighted>
-7.6948

> <Gold.Chemscore.Internal_Hbond.Weighted>
0.0000

> <Gold.Chemscore.DEClash.Weighted>
0.0502

> <Gold.Chemscore.DEInternal.Weighted>
1.7037

> <Gold.Chemscore.Rot.Weighted>
2.5600

> <Gold.Chemscore.Internal.Correction.Weighted>
   9.000000E+99

> <Gold.Protein.RotatedTorsions>
[ 6907 6896 6895 6894 ] final  -88.11 input  -60.11 | X-H torsion
[ 7974 7965 7964 7962 ] final   69.23 input  175.53 | X-H torsion
[ 8008 7997 7996 7995 ] final -151.14 input   59.86 | X-H torsion
[ 10167 10162 10161 10158 ] final -160.44 input  -65.29 | X-H torsion
[ 10718 10713 10712 10709 ] final  -88.65 input   66.30 | X-H torsion
[ 10763 10752 10751 10750 ] final  155.66 input  -60.55 | X-H torsion
[ 11005 11000 10999 10996 ] final -132.90 input  -57.11 | X-H torsion

> <Gold.Protein.ActiveResidues>
 VAL166  LYS551  ARG553  GLY616  TRP617  ASP618  TYR619  PRO620  LYS621  CYS622 
 ASP623  PHE694  ASN695  SER759  ASP760  ASP761  ALA762  ILE779  LEU786  VAL792 
 PHE793  MET794  SER795  GLU796  ALA797  LYS798  CYS799  TRP800  GLU811  SER814 

> <Gold.Protein.RotatedAtoms>
  150.6868  134.2792  159.4619 H   0  0  0  0  0  0  0  0  0  0  0  0  # atno 6907 bound_to 6896
  152.0708  134.9532  160.0584 H   0  0  0  0  0  0  0  0  0  0  0  0  # atno 6908 bound_to 6896
  152.0923  133.4172  159.4586 H   0  0  0  0  0  0  0  0  0  0  0  0  # atno 6909 bound_to 6896
  145.7930  139.2943  143.1199 H   0  0  0  0  0  0  0  0  0  0  0  0  # atno 7974 bound_to 7965
  155.6346  140.0695  157.2638 H   0  0  0  0  0  0  0  0  0  0  0  0  # atno 8008 bound_to 7997
  154.4198  140.1761  156.1558 H   0  0  0  0  0  0  0  0  0  0  0  0  # atno 8009 bound_to 7997
  155.9905  140.3345  155.6751 H   0  0  0  0  0  0  0  0  0  0  0  0  # atno 8010 bound_to 7997
  139.6539  144.0034  152.2181 H   0  0  0  0  0  0  0  0  0  0  0  0  # atno 10167 bound_to 10162
  155.9983  130.4843  150.5051 H   0  0  0  0  0  0  0  0  0  0  0  0  # atno 10718 bound_to 10713
  154.1719  135.2804  155.3078 H   0  0  0  0  0  0  0  0  0  0  0  0  # atno 10763 bound_to 10752
  154.6069  135.5511  153.7435 H   0  0  0  0  0  0  0  0  0  0  0  0  # atno 10764 bound_to 10752
  153.0162  135.6405  154.1859 H   0  0  0  0  0  0  0  0  0  0  0  0  # atno 10765 bound_to 10752
  140.9129  134.1544  157.4375 H   0  0  0  0  0  0  0  0  0  0  0  0  # atno 11005 bound_to 11000
  145.9957  140.8564  143.0044 LP  0  0  0  0  0  0  0  0  0  0  0  0  # atno 17320 bound_to 7965
  144.6779  140.2280  143.7359 LP  0  0  0  0  0  0  0  0  0  0  0  0  # atno 17321 bound_to 7965
  139.9755  144.6464  150.7949 LP  0  0  0  0  0  0  0  0  0  0  0  0  # atno 17342 bound_to 10162
  140.7550  143.3038  151.3012 LP  0  0  0  0  0  0  0  0  0  0  0  0  # atno 17343 bound_to 10162
  157.3031  131.0649  151.2054 LP  0  0  0  0  0  0  0  0  0  0  0  0  # atno 17370 bound_to 10713
  157.3026  130.6850  149.6172 LP  0  0  0  0  0  0  0  0  0  0  0  0  # atno 17371 bound_to 10713
  139.8761  134.9942  156.5684 LP  0  0  0  0  0  0  0  0  0  0  0  0  # atno 17394 bound_to 11000
  140.8087  133.8447  155.8790 LP  0  0  0  0  0  0  0  0  0  0  0  0  # atno 17395 bound_to 11000

$$$$
