#       Name:                AV-unprocessed.smi:727
#       Creating user name   scv26
#       Creation time:       Fri Mar 27 00:51:18 2020


#       File generated by GOLD software.
#

@<TRIPOS>MOLECULE
AV-unprocessed.smi:727
    42    43     1
SMALL
NO_CHARGES


@<TRIPOS>ATOM
      1 ****        -5.0637   3.6755   0.5368 C.3            1 S1                 0.0000
      2 ****        -4.3998   2.3693   0.5561 N.am           1 S1                 0.0000
      3 ****        -5.2117   1.2261   0.4664 C.2            1 S1                 0.0000
      4 ****        -4.6904  -0.0084   0.4731 C.2            1 S1                 0.0000
      5 ****        -3.2577  -0.1487   0.5773 C.2            1 S1                 0.0000
      6 ****        -2.4546   0.9416   0.6707 C.2            1 S1                 0.0000
      7 ****        -1.0519   0.9035   0.7705 N.am           1 S1                 0.0000
      8 ****        -0.2294  -0.1416   0.9788 C.2            1 S1                 0.0000
      9 ****        -0.5734  -1.3121   1.1394 O.2            1 S1                 0.0000
     10 ****         1.0502   0.2591   1.0000 N.am           1 S1                 0.0000
     11 ****         2.2096  -0.6026   1.2159 C.3            1 S1                 0.0000
     12 ****         2.9970  -0.8644  -0.0848 C.3            1 S1                 0.0000
     13 ****         4.3131  -1.6146   0.2196 C.3            1 S1                 0.0000
     14 ****         5.0089  -2.1145  -1.0332 C.2            1 S1                 0.0000
     15 ****         4.4074  -2.1946  -2.2313 C.2            1 S1                 0.0000
     16 ****         2.9620  -1.7984  -2.4659 C.3            1 S1                 0.0000
     17 ****         2.1793  -1.6261  -1.1506 C.3            1 S1                 0.0000
     18 ****        -3.0390   2.2975   0.6551 C.2            1 S1                 0.0000
     19 ****        -2.3511   3.3190   0.7276 O.2            1 S1                 0.0000
     20 ****        -6.1498   3.5957   0.4789 H              1 S1                 0.0000
     21 ****        -4.7341   4.2594  -0.3239 H              1 S1                 0.0000
     22 ****        -4.8289   4.2394   1.4409 H              1 S1                 0.0000
     23 ****        -6.2730   1.4135   0.3914 H              1 S1                 0.0000
     24 ****        -5.3268  -0.8782   0.4020 H              1 S1                 0.0000
     25 ****        -2.8649  -1.1517   0.5665 H              1 S1                 0.0000
     26 ****        -0.6079   1.8072   0.6954 H              1 S1                 0.0000
     27 ****         1.2392   1.2409   0.8605 H              1 S1                 0.0000
     28 ****         2.8548  -0.0991   1.9366 H              1 S1                 0.0000
     29 ****         1.9207  -1.5474   1.6795 H              1 S1                 0.0000
     30 ****         3.2640   0.1047  -0.5100 H              1 S1                 0.0000
     31 ****         4.9945  -0.9600   0.7638 H              1 S1                 0.0000
     32 ****         4.1232  -2.4767   0.8601 H              1 S1                 0.0000
     33 ****         6.0375  -2.4271  -0.9273 H              1 S1                 0.0000
     34 ****         4.9620  -2.5466  -3.0887 H              1 S1                 0.0000
     35 ****         2.9562  -0.8672  -3.0331 H              1 S1                 0.0000
     36 ****         2.4787  -2.5521  -3.0881 H              1 S1                 0.0000
     37 ****         1.9078  -2.6071  -0.7582 H              1 S1                 0.0000
     38 ****         1.2418  -1.1143  -1.3671 H              1 S1                 0.0000
     39 ****        -1.5432  -1.5552   1.1211 LP             1 S1                 0.0000
     40 ****         0.1169  -2.0202   1.2882 LP             1 S1                 0.0000
     41 ****        -2.7883   4.2183   0.7144 LP             1 S1                 0.0000
     42 ****        -1.3562   3.2478   0.7996 LP             1 S1                 0.0000
@<TRIPOS>BOND
    1    1    2 1     
    2    1   20 1     
    3    1   21 1     
    4    1   22 1     
    5    2   18 am    
    6    2    3 1     
    7    3    4 2     
    8    3   23 1     
    9    4    5 1     
   10    4   24 1     
   11    5    6 2     
   12    5   25 1     
   13    6    7 1     
   14    6   18 1     
   15    7    8 am    
   16    7   26 1     
   17    8    9 2     
   18    8   10 am    
   19   10   11 1     
   20   10   27 1     
   21   11   12 1     
   22   11   28 1     
   23   11   29 1     
   24   12   17 1     
   25   12   13 1     
   26   12   30 1     
   27   13   14 1     
   28   13   31 1     
   29   13   32 1     
   30   14   15 2     
   31   14   33 1     
   32   15   16 1     
   33   15   34 1     
   34   16   17 1     
   35   16   35 1     
   36   16   36 1     
   37   17   37 1     
   38   17   38 1     
   39   18   19 2     
   40    9   39 1     
   41    9   40 1     
   42   19   41 1     
   43   19   42 1     
@<TRIPOS>SUBSTRUCTURE
      1 S1             1
@<TRIPOS>SET
LONE_PAIRS      STATIC     ATOMS    <user>   **** ""
4 39 40 41 42
DONOR_HYDROGENS      STATIC     ATOMS    <user>   **** ""
2 26 27
ATOM$BLUE        STATIC     ATOMS    COLORGROUP SYSTEM
4 39 40 41 42
ATOM$RED        STATIC     ATOMS    COLORGROUP SYSTEM
2 26 27
