#       Name:                AV-unprocessed.smi:2476
#       Creating user name   scv26
#       Creation time:       Fri Mar 27 13:40:00 2020


#       File generated by GOLD software.
#

@<TRIPOS>MOLECULE
AV-unprocessed.smi:2476
    40    41     1
SMALL
NO_CHARGES


@<TRIPOS>ATOM
      1 ****        -3.4200   2.0958  -2.5211 C.3            1 S1                 0.0000
      2 ****        -1.9277   2.3395  -2.3220 C.2            1 S1                 0.0000
      3 ****        -1.5338   3.4317  -1.9146 O.2            1 S1                 0.0000
      4 ****        -1.1089   1.3173  -2.6128 N.am           1 S1                 0.0000
      5 ****         0.3444   1.3438  -2.4833 C.3            1 S1                 0.0000
      6 ****         0.8094   1.1913  -1.0233 C.3            1 S1                 0.0000
      7 ****         0.3477  -0.1329  -0.3775 C.3            1 S1                 0.0000
      8 ****         0.9040  -0.2587   0.9637 N.3            1 S1                 0.0000
      9 ****         0.4305  -1.3769   1.6660 C.ar           1 S1                 0.0000
     10 ****         0.7504  -2.6091   1.1999 N.ar           1 S1                 0.0000
     11 ****         0.2982  -3.6871   1.8761 C.ar           1 S1                 0.0000
     12 ****        -0.4894  -3.5953   3.0403 C.ar           1 S1                 0.0000
     13 ****        -0.8220  -2.3151   3.5225 C.ar           1 S1                 0.0000
     14 ****        -0.3548  -1.1845   2.8244 C.ar           1 S1                 0.0000
     15 ****        -0.6566   0.0616   3.2625 F              1 S1                 0.0000
     16 ****         2.3553  -0.1319   0.9796 C.3            1 S1                 0.0000
     17 ****         2.7724   1.1853   0.3052 C.3            1 S1                 0.0000
     18 ****         2.2350   1.2355  -1.0135 O.3            1 S1                 0.0000
     19 ****        -3.6509   1.0299  -2.5344 H              1 S1                 0.0000
     20 ****        -3.7498   2.5317  -3.4642 H              1 S1                 0.0000
     21 ****        -3.9896   2.5557  -1.7132 H              1 S1                 0.0000
     22 ****        -1.5218   0.4582  -2.9459 H              1 S1                 0.0000
     23 ****         0.7531   0.5341  -3.0886 H              1 S1                 0.0000
     24 ****         0.7346   2.2705  -2.9077 H              1 S1                 0.0000
     25 ****         0.4312   2.0334  -0.4406 H              1 S1                 0.0000
     26 ****        -0.7409  -0.1686  -0.3209 H              1 S1                 0.0000
     27 ****         0.6681  -0.9770  -0.9899 H              1 S1                 0.0000
     28 ****         0.5732  -4.6526   1.4775 H              1 S1                 0.0000
     29 ****        -0.8294  -4.4846   3.5501 H              1 S1                 0.0000
     30 ****        -1.4240  -2.2023   4.4120 H              1 S1                 0.0000
     31 ****         2.7184  -0.1589   2.0077 H              1 S1                 0.0000
     32 ****         2.8058  -0.9753   0.4542 H              1 S1                 0.0000
     33 ****         2.4297   2.0450   0.8834 H              1 S1                 0.0000
     34 ****         3.8588   1.2511   0.2489 H              1 S1                 0.0000
     35 ****        -2.1918   4.1577  -1.7147 LP             1 S1                 0.0000
     36 ****        -0.5557   3.5933  -1.7835 LP             1 S1                 0.0000
     37 ****         0.5559   0.5254   1.4774 LP             1 S1                 0.0000
     38 ****         1.3071  -2.7171   0.3762 LP             1 S1                 0.0000
     39 ****         2.5327   2.0849  -1.4492 LP             1 S1                 0.0000
     40 ****         2.5838   0.4548  -1.5321 LP             1 S1                 0.0000
@<TRIPOS>BOND
    1    1    2 1     
    2    1   19 1     
    3    1   20 1     
    4    1   21 1     
    5    2    3 2     
    6    2    4 am    
    7    4    5 1     
    8    4   22 1     
    9    5    6 1     
   10    5   23 1     
   11    5   24 1     
   12    6   18 1     
   13    6    7 1     
   14    6   25 1     
   15    7    8 1     
   16    7   26 1     
   17    7   27 1     
   18    8    9 1     
   19    8   16 1     
   20    9   14 ar    
   21    9   10 ar    
   22   10   11 ar    
   23   11   12 ar    
   24   11   28 1     
   25   12   13 ar    
   26   12   29 1     
   27   13   14 ar    
   28   13   30 1     
   29   14   15 1     
   30   16   17 1     
   31   16   31 1     
   32   16   32 1     
   33   17   18 1     
   34   17   33 1     
   35   17   34 1     
   36    3   35 1     
   37    3   36 1     
   38    8   37 1     
   39   10   38 1     
   40   18   39 1     
   41   18   40 1     
@<TRIPOS>SUBSTRUCTURE
      1 S1             1
@<TRIPOS>SET
LONE_PAIRS      STATIC     ATOMS    <user>   **** ""
6 35 36 37 38 39 40
DONOR_HYDROGENS      STATIC     ATOMS    <user>   **** ""
1 22
ATOM$BLUE        STATIC     ATOMS    COLORGROUP SYSTEM
6 35 36 37 38 39 40
ATOM$RED        STATIC     ATOMS    COLORGROUP SYSTEM
1 22
