AV-unprocessed.smi:2912|AV-procd|sdf|11181|dock9
  -GOLD-   2272016 73D 1   1.00000     0.00000
 Structure written by MMmdl.
 31 32  0  0  0  0  0  0  0  0  1 V2000
  145.9052  137.9724  152.3235 C   0  0  0  0  0  0  0  0  0  0  0  0
  146.4526  138.8842  153.3045 N   0  0  0  0  0  0  0  0  0  0  0  0
  147.3088  139.9456  153.1093 C   0  0  0  0  0  0  0  0  0  0  0  0
  147.5361  140.5196  154.3286 C   0  0  0  0  0  0  0  0  0  0  0  0
  148.3665  141.7339  154.6564 C   0  0  0  0  0  0  0  0  0  0  0  0
  149.5519  141.4199  155.5910 C   0  0  0  0  0  0  0  0  0  0  0  0
  150.0741  142.6252  156.2315 N   0  0  0  0  0  0  0  0  0  0  0  0
  150.7642  142.6598  157.3842 C   0  0  0  0  0  0  0  0  0  0  0  0
  151.1427  141.6412  157.9648 O   0  0  0  0  0  0  0  0  0  0  0  0
  151.0453  144.0522  157.9729 C   0  0  0  0  0  0  0  0  0  0  0  0
  152.8140  144.3939  158.1496 S   0  0  0  0  0  0  0  0  0  0  0  0
  152.8508  143.7049  159.8213 C   0  0  0  0  0  0  0  0  0  0  0  0
  151.6540  144.2639  160.6015 C   0  0  0  0  0  0  0  0  0  0  0  0
  150.1727  144.2962  159.5465 S   0  0  0  0  0  0  0  0  0  0  0  0
  146.7708  139.7139  155.2197 C   0  0  0  0  0  0  0  0  0  0  0  0
  146.1219  138.7391  154.6037 N   0  0  0  0  0  0  0  0  0  0  0  0
  146.3159  138.1930  151.3380 H   0  0  0  0  0  0  0  0  0  0  0  0
  144.8206  138.0778  152.2875 H   0  0  0  0  0  0  0  0  0  0  0  0
  146.1571  136.9459  152.5912 H   0  0  0  0  0  0  0  0  0  0  0  0
  147.6706  140.2125  152.1272 H   0  0  0  0  0  0  0  0  0  0  0  0
  148.7488  142.1923  153.7438 H   0  0  0  0  0  0  0  0  0  0  0  0
  147.7456  142.4976  155.1260 H   0  0  0  0  0  0  0  0  0  0  0  0
  149.2486  140.6855  156.3388 H   0  0  0  0  0  0  0  0  0  0  0  0
  150.3564  140.9545  155.0212 H   0  0  0  0  0  0  0  0  0  0  0  0
  149.8134  143.5078  155.8156 H   0  0  0  0  0  0  0  0  0  0  0  0
  150.6487  144.7754  157.2602 H   0  0  0  0  0  0  0  0  0  0  0  0
  152.7765  142.6193  159.7497 H   0  0  0  0  0  0  0  0  0  0  0  0
  153.7959  143.9370  160.3120 H   0  0  0  0  0  0  0  0  0  0  0  0
  151.4613  143.6896  161.5074 H   0  0  0  0  0  0  0  0  0  0  0  0
  151.8666  145.2884  160.9073 H   0  0  0  0  0  0  0  0  0  0  0  0
  146.6568  139.8185  156.2885 H   0  0  0  0  0  0  0  0  0  0  0  0
  1  2  1  0  0  0  0
  1 17  1  0  0  0  0
  1 18  1  0  0  0  0
  1 19  1  0  0  0  0
  2 16  1  0  0  0  0
  2  3  1  0  0  0  0
  3  4  2  0  0  0  0
  3 20  1  0  0  0  0
  4  5  1  0  0  0  0
  4 15  1  0  0  0  0
  5  6  1  0  0  0  0
  5 21  1  0  0  0  0
  5 22  1  0  0  0  0
  6  7  1  0  0  0  0
  6 23  1  0  0  0  0
  6 24  1  0  0  0  0
  7  8  1  0  0  0  0
  7 25  1  0  0  0  0
  8  9  2  0  0  0  0
  8 10  1  0  0  0  0
 10 14  1  0  0  0  0
 10 11  1  0  0  0  0
 10 26  1  0  0  0  0
 11 12  1  0  0  0  0
 12 13  1  0  0  0  0
 12 27  1  0  0  0  0
 12 28  1  0  0  0  0
 13 14  1  0  0  0  0
 13 29  1  0  0  0  0
 13 30  1  0  0  0  0
 15 16  2  0  0  0  0
 15 31  1  0  0  0  0
M  END
> <s_m_source_file>
AV-unprocessed.smi

> <i_m_source_file_index>
2912

> <i_lp_mmshare_version>
43012

> <i_f3d_flags>
0

> <s_epik_input>
W0NIM11uMVtjSF1jKFtjSF1uMSlbQ0gyXVtDSDJdW05IXUMoPU8pW0NIXTJTW0NIMl1bQ0gyXVMy

> <s_epik_cmdline>
J2VwaWtfcHl0aG9uJywgJy1waCcsICc3LjAnLCAnLXRuJywgJzgnLCAnLW1hJywgJzIwMCcsICctbWV0YWxfYmluZGluZycsICctaW1hZScsICc8aW5maWxlLm1hZT4nLCAnLW9tYWUnLCAnPG91dGZpbGUubWFlPic=

> <r_lp_tautomer_probability>
1

> <r_epik_Ionization_Penalty>
0.000416309

> <r_epik_Ionization_Penalty_Charging>
0

> <r_epik_Ionization_Penalty_Neutral>
0.000416309

> <r_epik_State_Penalty>
-0

> <r_epik_Charging_Adjusted_Penalty>
0

> <i_epik_Tot_Q>
0

> <i_epik_Tot_abs_Q>
0

> <r_epik_Metal_State_Penalty>
-0

> <b_epik_Metal_Only>
0

> <s_epik_Chemistry_Notes>
This compound contains an acetal/aminal-like group ( X-CH(R)-Y where X, Y are N, S, or O) that may be acid/base labile, releasing an aldehyde.

> <s_lp_Force_Field>
OPLS_2005

> <r_lp_Energy>
6.65343

> <b_lp_Chiralities_Consistent>
1

> <s_lp_Variant>
AV-unprocessed.smi:2912-1

> <Gold.Version>
5.8.1

> <Gold.Id.Protein>
6NUR|6NUR_protein|mol2

> <Gold.PLP.Fitness>
37.5093

> <Gold.PLP.PLP>
-32.0451

> <Gold.PLP.part.hbond>
-0.9278

> <Gold.PLP.part.metal>
0.0000

> <Gold.PLP.part.buried>
-2.1700

> <Gold.PLP.part.nonpolar>
-30.9222

> <Gold.PLP.part.repulsive>
0.2173

> <Gold.PLP.ligand.clash>
0.0000

> <Gold.PLP.ligand.torsion>
0.2884

> <Gold.PLP.Chemscore.Hbond>
1.0000

> <Gold.PLP.Chemscore.CHOScore>
1.0000

> <Gold.PLP.Chemscore.Metal>
0.0000

> <Gold.Chemscore.Hbonds>
donor molecule, donor type, donor heavy atom, donor atom, acceptor molecule, acceptor atom, score
      L1  H     7    25       P1  8028  1.00
      L1  C     3    20       P1  7957  1.00

> <Gold.PLP.Chemscore.Internal.Correction>
0.0409

> <Gold.Rescore>
     Score         DG    S(hbond)    S(metal)    S(lipo)     H(rot)  DE(clash)    DE(int)     intcor
     15.33     -15.58       0.99        0.00      91.79       1.54       0.02       0.23       ----

> <Gold.Chemscore.Fitness>
15.3304

> <Gold.Chemscore.DG>
-15.5816

> <Gold.Chemscore.ZeroCoef>
-5.4800

> <Gold.Chemscore.Hbond>
0.9922

> <Gold.Chemscore.Metal>
0.0000

> <Gold.Chemscore.Lipo>
91.7851

> <Gold.Chemscore.Internal_Hbond>
0.0000

> <Gold.Chemscore.DEClash>
0.0174

> <Gold.Chemscore.DEInternal>
0.2338

> <Gold.Chemscore.Rot>
1.5434

> <Gold.Chemscore.Internal.Correction>
   9.000000E+99

> <Gold.Chemscore.Hbonds>
donor molecule, donor type, donor heavy atom, donor atom, acceptor molecule, acceptor atom, score
      L1  H     7    25       P1  8028  0.91

> <Gold.Chemscore.Hbond.Weighted>
-3.3138

> <Gold.Chemscore.Metal.Weighted>
-0.0000

> <Gold.Chemscore.Lipo.Weighted>
-10.7389

> <Gold.Chemscore.Internal_Hbond.Weighted>
0.0000

> <Gold.Chemscore.DEClash.Weighted>
0.0174

> <Gold.Chemscore.DEInternal.Weighted>
0.2338

> <Gold.Chemscore.Rot.Weighted>
3.9511

> <Gold.Chemscore.Internal.Correction.Weighted>
   9.000000E+99

> <Gold.Protein.RotatedTorsions>
[ 6907 6896 6895 6894 ] final  132.56 input  -60.11 | X-H torsion
[ 7974 7965 7964 7962 ] final   67.86 input  175.53 | X-H torsion
[ 8008 7997 7996 7995 ] final  100.10 input   59.86 | X-H torsion
[ 10167 10162 10161 10158 ] final  -11.77 input  -65.29 | X-H torsion
[ 10718 10713 10712 10709 ] final  -35.21 input   66.30 | X-H torsion
[ 10763 10752 10751 10750 ] final   18.67 input  -60.55 | X-H torsion
[ 11005 11000 10999 10996 ] final -148.74 input  -57.11 | X-H torsion

> <Gold.Protein.ActiveResidues>
 VAL166  LYS551  ARG553  GLY616  TRP617  ASP618  TYR619  PRO620  LYS621  CYS622 
 ASP623  PHE694  ASN695  SER759  ASP760  ASP761  ALA762  ILE779  LEU786  VAL792 
 PHE793  MET794  SER795  GLU796  ALA797  LYS798  CYS799  TRP800  GLU811  SER814 

> <Gold.Protein.RotatedAtoms>
  152.3311  133.5959  159.5809 H   0  0  0  0  0  0  0  0  0  0  0  0  # atno 6907 bound_to 6896
  150.7423  133.9867  159.3602 H   0  0  0  0  0  0  0  0  0  0  0  0  # atno 6908 bound_to 6896
  151.7741  135.0779  160.0415 H   0  0  0  0  0  0  0  0  0  0  0  0  # atno 6909 bound_to 6896
  145.8096  139.3025  143.1107 H   0  0  0  0  0  0  0  0  0  0  0  0  # atno 7974 bound_to 7965
  156.1170  140.3218  155.8153 H   0  0  0  0  0  0  0  0  0  0  0  0  # atno 8008 bound_to 7997
  155.4572  140.0537  157.3012 H   0  0  0  0  0  0  0  0  0  0  0  0  # atno 8009 bound_to 7997
  154.4800  140.2049  155.9801 H   0  0  0  0  0  0  0  0  0  0  0  0  # atno 8010 bound_to 7997
  140.7146  143.5604  150.9202 H   0  0  0  0  0  0  0  0  0  0  0  0  # atno 10167 bound_to 10162
  156.3414  130.4294  149.7784 H   0  0  0  0  0  0  0  0  0  0  0  0  # atno 10718 bound_to 10713
  153.1229  135.6723  153.9306 H   0  0  0  0  0  0  0  0  0  0  0  0  # atno 10763 bound_to 10752
  153.8816  135.3057  155.3446 H   0  0  0  0  0  0  0  0  0  0  0  0  # atno 10764 bound_to 10752
  154.7638  135.4974  153.9594 H   0  0  0  0  0  0  0  0  0  0  0  0  # atno 10765 bound_to 10752
  140.7581  134.3330  157.5109 H   0  0  0  0  0  0  0  0  0  0  0  0  # atno 11005 bound_to 11000
  145.9792  140.8697  143.0123 LP  0  0  0  0  0  0  0  0  0  0  0  0  # atno 17320 bound_to 7965
  144.6759  140.2055  143.7382 LP  0  0  0  0  0  0  0  0  0  0  0  0  # atno 17321 bound_to 7965
  139.9330  143.6471  152.3072 LP  0  0  0  0  0  0  0  0  0  0  0  0  # atno 17342 bound_to 10162
  139.6929  144.7645  151.1407 LP  0  0  0  0  0  0  0  0  0  0  0  0  # atno 17343 bound_to 10162
  156.5019  130.8133  151.3136 LP  0  0  0  0  0  0  0  0  0  0  0  0  # atno 17370 bound_to 10713
  157.7447  130.9942  150.2698 LP  0  0  0  0  0  0  0  0  0  0  0  0  # atno 17371 bound_to 10713
  139.8775  134.9185  156.3203 LP  0  0  0  0  0  0  0  0  0  0  0  0  # atno 17394 bound_to 11000
  140.9689  133.7340  156.0506 LP  0  0  0  0  0  0  0  0  0  0  0  0  # atno 17395 bound_to 11000

$$$$
