AV-unprocessed.smi:1265|AV-procd|sdf|5317|dock4
  -GOLD-   22720 4443D 1   1.00000     0.00000
 Structure written by MMmdl.
 45 47  0  0  0  0  0  0  0  0  2 V2000
  146.2008  137.0039  155.1560 O   0  0  0  0  0  0  0  0  0  0  0  0
  147.0733  136.6828  154.3503 C   0  0  0  0  0  0  0  0  0  0  0  0
  148.3731  136.9662  154.5145 N   0  0  0  0  0  0  0  0  0  0  0  0
  148.9566  137.6981  155.6383 C   0  0  0  0  0  0  0  0  0  0  0  0
  149.4080  139.1433  155.2437 C   0  0  1  0  0  0  0  0  0  0  0  0
  148.2165  139.9982  154.9479 N   0  0  0  0  0  0  0  0  0  0  0  0
  147.2573  140.1738  156.0486 C   0  0  0  0  0  0  0  0  0  0  0  0
  146.0285  141.0003  155.6315 C   0  0  0  0  0  0  0  0  0  0  0  0
  146.4439  142.2625  155.1281 O   0  0  0  0  0  0  0  0  0  0  0  0
  147.3098  142.1333  154.0091 C   0  0  0  0  0  0  0  0  0  0  0  0
  148.5541  141.3232  154.4091 C   0  0  0  0  0  0  0  0  0  0  0  0
  150.2954  139.6978  156.3959 C   0  0  0  0  0  0  0  0  0  0  0  0
  151.6346  138.9527  156.4060 C   0  0  0  0  0  0  0  0  0  0  0  0
  152.0261  138.5259  154.6930 S   0  0  0  0  0  0  0  0  0  0  0  0
  150.4027  139.0322  154.0596 C   0  0  0  0  0  0  0  0  0  0  0  0
  146.8698  136.0081  153.2052 N   0  0  0  0  0  0  0  0  0  0  0  0
  145.6590  135.4963  152.6605 C   0  0  0  0  0  0  0  0  0  0  0  0
  145.6599  135.1676  151.2862 C   0  0  0  0  0  0  0  0  0  0  0  0
  144.4875  134.6630  150.6878 C   0  0  0  0  0  0  0  0  0  0  0  0
  143.3708  134.5020  151.4287 N   0  3  0  0  0  0  0  0  0  0  0  0
  143.3166  134.8100  152.7420 C   0  0  0  0  0  0  0  0  0  0  0  0
  144.4575  135.3197  153.3951 C   0  0  0  0  0  0  0  0  0  0  0  0
  149.0173  136.6700  153.7958 H   0  0  0  0  0  0  0  0  0  0  0  0
  148.2682  137.7070  156.4829 H   0  0  0  0  0  0  0  0  0  0  0  0
  149.7971  137.1136  156.0098 H   0  0  0  0  0  0  0  0  0  0  0  0
  146.8795  139.2154  156.3965 H   0  0  0  0  0  0  0  0  0  0  0  0
  147.7322  140.6614  156.8992 H   0  0  0  0  0  0  0  0  0  0  0  0
  145.4460  140.4717  154.8750 H   0  0  0  0  0  0  0  0  0  0  0  0
  145.3719  141.1586  156.4871 H   0  0  0  0  0  0  0  0  0  0  0  0
  146.7833  141.6516  153.1836 H   0  0  0  0  0  0  0  0  0  0  0  0
  147.5994  143.1270  153.6672 H   0  0  0  0  0  0  0  0  0  0  0  0
  149.1249  141.8906  155.1451 H   0  0  0  0  0  0  0  0  0  0  0  0
  149.1795  141.2393  153.5234 H   0  0  0  0  0  0  0  0  0  0  0  0
  150.5539  140.7407  156.2277 H   0  0  0  0  0  0  0  0  0  0  0  0
  149.8044  139.6582  157.3681 H   0  0  0  0  0  0  0  0  0  0  0  0
  152.4302  139.5559  156.8439 H   0  0  0  0  0  0  0  0  0  0  0  0
  151.5646  138.0359  156.9914 H   0  0  0  0  0  0  0  0  0  0  0  0
  150.0644  138.3368  153.2910 H   0  0  0  0  0  0  0  0  0  0  0  0
  150.5530  139.9936  153.5717 H   0  0  0  0  0  0  0  0  0  0  0  0
  147.7013  135.7930  152.6748 H   0  0  0  0  0  0  0  0  0  0  0  0
  146.5526  135.2965  150.6910 H   0  0  0  0  0  0  0  0  0  0  0  0
  144.4102  134.3871  149.6463 H   0  0  0  0  0  0  0  0  0  0  0  0
  142.3661  134.6453  153.2283 H   0  0  0  0  0  0  0  0  0  0  0  0
  144.3776  135.5696  154.4411 H   0  0  0  0  0  0  0  0  0  0  0  0
  142.5321  134.1359  150.9770 H   0  0  0  0  0  0  0  0  0  0  0  0
  1  2  2  0  0  0  0
  2  3  1  0  0  0  0
  2 16  1  0  0  0  0
  3  4  1  0  0  0  0
  3 23  1  0  0  0  0
  4  5  1  0  0  0  0
  4 24  1  0  0  0  0
  4 25  1  0  0  0  0
  5 15  1  0  0  0  0
  5  6  1  0  0  0  0
  5 12  1  0  0  0  0
  6 11  1  0  0  0  0
  6  7  1  0  0  0  0
  7  8  1  0  0  0  0
  7 26  1  0  0  0  0
  7 27  1  0  0  0  0
  8  9  1  0  0  0  0
  8 28  1  0  0  0  0
  8 29  1  0  0  0  0
  9 10  1  0  0  0  0
 10 11  1  0  0  0  0
 10 30  1  0  0  0  0
 10 31  1  0  0  0  0
 11 32  1  0  0  0  0
 11 33  1  0  0  0  0
 12 13  1  0  0  0  0
 12 34  1  0  0  0  0
 12 35  1  0  0  0  0
 13 14  1  0  0  0  0
 13 36  1  0  0  0  0
 13 37  1  0  0  0  0
 14 15  1  0  0  0  0
 15 38  1  0  0  0  0
 15 39  1  0  0  0  0
 16 17  1  0  0  0  0
 16 40  1  0  0  0  0
 17 22  1  0  0  0  0
 17 18  2  0  0  0  0
 18 19  1  0  0  0  0
 18 41  1  0  0  0  0
 19 20  2  0  0  0  0
 19 42  1  0  0  0  0
 20 21  1  0  0  0  0
 20 45  1  0  0  0  0
 21 22  2  0  0  0  0
 21 43  1  0  0  0  0
 22 44  1  0  0  0  0
M  CHG  1  20   1
M  END
> <s_m_source_file>
AV-unprocessed.smi

> <i_m_source_file_index>
1265

> <i_lp_mmshare_version>
43012

> <i_f3d_flags>
0

> <s_epik_input>
W2NIXTFbY0hdbltjSF1bY0hdYzFbTkhdQyg9TylbTkhdW0NIMl1bQ0BdMihbQ0gyXVtDSDJdU1tDSDJdMilOM1tDSDJdW0NIMl1PW0NIMl1bQ0gyXTM=

> <s_epik_cmdline>
J2VwaWtfcHl0aG9uJywgJy1waCcsICc3LjAnLCAnLXRuJywgJzgnLCAnLW1hJywgJzIwMCcsICctbWV0YWxfYmluZGluZycsICctaW1hZScsICc8aW5maWxlLm1hZT4nLCAnLW9tYWUnLCAnPG91dGZpbGUubWFlPic=

> <r_epik_Ionization_Penalty>
1.06168

> <r_epik_Ionization_Penalty_Charging>
1.04215

> <r_epik_Ionization_Penalty_Neutral>
0.019527

> <r_epik_State_Penalty>
1.12733

> <r_epik_Charging_Adjusted_Penalty>
2.16948

> <i_epik_Tot_Q>
1

> <i_epik_Tot_abs_Q>
1

> <r_epik_Metal_State_Penalty>
1.22116

> <b_epik_Metal_Only>
0

> <s_lp_Force_Field>
OPLS_2005

> <r_lp_Energy>
64.97

> <b_lp_Chiralities_Consistent>
1

> <s_lp_Variant>
AV-unprocessed.smi:1265-3

> <Gold.Version>
5.8.1

> <Gold.Id.Protein>
6NUR|6NUR_protein|mol2

> <Gold.PLP.Fitness>
39.6809

> <Gold.PLP.PLP>
-28.7400

> <Gold.PLP.part.hbond>
-2.9258

> <Gold.PLP.part.metal>
0.0000

> <Gold.PLP.part.buried>
-4.4921

> <Gold.PLP.part.nonpolar>
-21.8208

> <Gold.PLP.part.repulsive>
0.2471

> <Gold.PLP.ligand.clash>
0.0000

> <Gold.PLP.ligand.torsion>
0.2448

> <Gold.PLP.Chemscore.Hbond>
3.7840

> <Gold.PLP.Chemscore.CHOScore>
0.0000

> <Gold.PLP.Chemscore.Metal>
0.0000

> <Gold.Chemscore.Hbonds>
donor molecule, donor type, donor heavy atom, donor atom, acceptor molecule, acceptor atom, score
      L1  H     3    23       P1  7948  0.78
      L1  H    16    40       P1  7948  1.00
      L1  H    20    45       P1 10186  1.56

> <Gold.PLP.Chemscore.Internal.Correction>
0.0785

> <Gold.Rescore>
     Score         DG    S(hbond)    S(metal)    S(lipo)     H(rot)  DE(clash)    DE(int)     intcor
     17.03     -18.54       2.66        0.00      68.00       1.47       0.22       1.28       ----

> <Gold.Chemscore.Fitness>
17.0301

> <Gold.Chemscore.DG>
-18.5362

> <Gold.Chemscore.ZeroCoef>
-5.4800

> <Gold.Chemscore.Hbond>
2.6570

> <Gold.Chemscore.Metal>
0.0000

> <Gold.Chemscore.Lipo>
68.0011

> <Gold.Chemscore.Internal_Hbond>
0.0000

> <Gold.Chemscore.DEClash>
0.2242

> <Gold.Chemscore.DEInternal>
1.2819

> <Gold.Chemscore.Rot>
1.4743

> <Gold.Chemscore.Internal.Correction>
   9.000000E+99

> <Gold.Chemscore.Hbonds>
donor molecule, donor type, donor heavy atom, donor atom, acceptor molecule, acceptor atom, score
      L1  H     3    23       P1  7948  0.76
      L1  H    16    40       P1  7948  0.91
      L1  H    20    45       P1 10186  0.26

> <Gold.Chemscore.Hbond.Weighted>
-8.8743

> <Gold.Chemscore.Metal.Weighted>
-0.0000

> <Gold.Chemscore.Lipo.Weighted>
-7.9561

> <Gold.Chemscore.Internal_Hbond.Weighted>
0.0000

> <Gold.Chemscore.DEClash.Weighted>
0.2242

> <Gold.Chemscore.DEInternal.Weighted>
1.2819

> <Gold.Chemscore.Rot.Weighted>
3.7742

> <Gold.Chemscore.Internal.Correction.Weighted>
   9.000000E+99

> <Gold.Protein.RotatedTorsions>
[ 6907 6896 6895 6894 ] final   -0.65 input  -60.11 | X-H torsion
[ 7974 7965 7964 7962 ] final  -95.62 input  175.53 | X-H torsion
[ 8008 7997 7996 7995 ] final -149.03 input   59.86 | X-H torsion
[ 10167 10162 10161 10158 ] final  100.14 input  -65.29 | X-H torsion
[ 10718 10713 10712 10709 ] final -146.12 input   66.30 | X-H torsion
[ 10763 10752 10751 10750 ] final  -24.24 input  -60.55 | X-H torsion
[ 11005 11000 10999 10996 ] final   63.50 input  -57.11 | X-H torsion

> <Gold.Protein.ActiveResidues>
 VAL166  LYS551  ARG553  GLY616  TRP617  ASP618  TYR619  PRO620  LYS621  CYS622 
 ASP623  PHE694  ASN695  SER759  ASP760  ASP761  ALA762  ILE779  LEU786  VAL792 
 PHE793  MET794  SER795  GLU796  ALA797  LYS798  CYS799  TRP800  GLU811  SER814 

> <Gold.Protein.RotatedAtoms>
  151.5588  135.1066  159.9967 H   0  0  0  0  0  0  0  0  0  0  0  0  # atno 6907 bound_to 6896
  152.4457  133.7527  159.6713 H   0  0  0  0  0  0  0  0  0  0  0  0  # atno 6908 bound_to 6896
  150.8372  133.7927  159.3099 H   0  0  0  0  0  0  0  0  0  0  0  0  # atno 6909 bound_to 6896
  145.3576  140.9487  143.2519 H   0  0  0  0  0  0  0  0  0  0  0  0  # atno 7974 bound_to 7965
  155.6012  140.0662  157.2732 H   0  0  0  0  0  0  0  0  0  0  0  0  # atno 8008 bound_to 7997
  154.4278  140.1818  156.1222 H   0  0  0  0  0  0  0  0  0  0  0  0  # atno 8009 bound_to 7997
  156.0158  140.3322  155.6991 H   0  0  0  0  0  0  0  0  0  0  0  0  # atno 8010 bound_to 7997
  139.7554  144.6971  151.0370 H   0  0  0  0  0  0  0  0  0  0  0  0  # atno 10167 bound_to 10162
  156.3909  130.7885  151.2087 H   0  0  0  0  0  0  0  0  0  0  0  0  # atno 10718 bound_to 10713
  153.6807  135.6967  153.5119 H   0  0  0  0  0  0  0  0  0  0  0  0  # atno 10763 bound_to 10752
  153.2487  135.4282  155.0774 H   0  0  0  0  0  0  0  0  0  0  0  0  # atno 10764 bound_to 10752
  154.8401  135.3526  154.6350 H   0  0  0  0  0  0  0  0  0  0  0  0  # atno 10765 bound_to 10752
  140.0020  134.6427  155.9915 H   0  0  0  0  0  0  0  0  0  0  0  0  # atno 11005 bound_to 11000
  144.8670  139.5093  143.6785 LP  0  0  0  0  0  0  0  0  0  0  0  0  # atno 17320 bound_to 7965
  146.2941  139.7225  142.9139 LP  0  0  0  0  0  0  0  0  0  0  0  0  # atno 17321 bound_to 7965
  140.7802  143.4759  151.0083 LP  0  0  0  0  0  0  0  0  0  0  0  0  # atno 17342 bound_to 10162
  139.8446  143.7518  152.3179 LP  0  0  0  0  0  0  0  0  0  0  0  0  # atno 17343 bound_to 10162
  157.7499  131.0316  150.4188 LP  0  0  0  0  0  0  0  0  0  0  0  0  # atno 17370 bound_to 10713
  156.4449  130.3999  149.6673 LP  0  0  0  0  0  0  0  0  0  0  0  0  # atno 17371 bound_to 10713
  141.1649  133.6537  156.4446 LP  0  0  0  0  0  0  0  0  0  0  0  0  # atno 17394 bound_to 11000
  140.4710  134.6754  157.5129 LP  0  0  0  0  0  0  0  0  0  0  0  0  # atno 17395 bound_to 11000

$$$$
