AV-unprocessed.smi:1492|AV-procd|sdf|6040|dock2
  -GOLD-   22720 6143D 1   1.00000     0.00000
 Structure written by MMmdl.
 52 53  0  0  0  0  0  0  0  0  1 V2000
  146.8694  134.3625  156.9386 C   0  0  0  0  0  0  0  0  0  0  0  0
  148.3544  134.6471  156.6473 C   0  0  0  0  0  0  0  0  0  0  0  0
  148.9401  134.0381  155.3338 C   0  0  1  0  0  0  0  0  0  0  0  0
  147.9840  134.3749  154.1576 C   0  0  0  0  0  0  0  0  0  0  0  0
  150.2948  134.7409  155.0087 C   0  0  0  0  0  0  0  0  0  0  0  0
  150.0874  136.1068  154.5348 N   0  0  0  0  0  0  0  0  0  0  0  0
  150.5091  137.2263  155.1396 C   0  0  0  0  0  0  0  0  0  0  0  0
  150.9901  137.2570  156.2718 O   0  0  0  0  0  0  0  0  0  0  0  0
  150.4116  138.5034  154.3071 C   0  0  0  0  0  0  0  0  0  0  0  0
  150.7505  139.7796  155.0760 C   0  0  0  0  0  0  0  0  0  0  0  0
  149.9160  140.8483  155.1362 C   0  0  0  0  0  0  0  0  0  0  0  0
  148.5636  140.9199  154.4498 C   0  0  0  0  0  0  0  0  0  0  0  0
  150.2473  141.9751  155.8675 N   0  0  0  0  0  0  0  0  0  0  0  0
  151.4501  141.9722  156.5536 C   0  0  0  0  0  0  0  0  0  0  0  0
  151.7004  143.2363  157.3463 C   0  0  0  0  0  0  0  0  0  0  0  0
  152.3126  141.0022  156.5589 N   0  0  0  0  0  0  0  0  0  0  0  0
  152.0304  139.8413  155.8218 C   0  0  0  0  0  0  0  0  0  0  0  0
  152.8262  138.9030  155.8125 O   0  0  0  0  0  0  0  0  0  0  0  0
  149.1259  132.5598  155.4326 N   0  0  0  0  0  0  0  0  0  0  0  0
  149.5246  131.8945  154.1864 C   0  0  0  0  0  0  0  0  0  0  0  0
  149.5281  130.3638  154.3290 C   0  0  0  0  0  0  0  0  0  0  0  0
  150.3916  129.9836  155.3935 O   0  0  0  0  0  0  0  0  0  0  0  0
  150.0167  130.5687  156.6348 C   0  0  0  0  0  0  0  0  0  0  0  0
  150.0117  132.1021  156.5093 C   0  0  0  0  0  0  0  0  0  0  0  0
  149.5940  142.7449  155.8915 H   0  0  0  0  0  0  0  0  0  0  0  0
  146.5761  134.8241  157.8816 H   0  0  0  0  0  0  0  0  0  0  0  0
  146.6667  133.2959  157.0299 H   0  0  0  0  0  0  0  0  0  0  0  0
  146.2151  134.7703  156.1689 H   0  0  0  0  0  0  0  0  0  0  0  0
  148.4778  135.7296  156.6405 H   0  0  0  0  0  0  0  0  0  0  0  0
  148.9230  134.2907  157.5057 H   0  0  0  0  0  0  0  0  0  0  0  0
  148.0188  135.4311  153.8902 H   0  0  0  0  0  0  0  0  0  0  0  0
  146.9444  134.1514  154.3983 H   0  0  0  0  0  0  0  0  0  0  0  0
  148.2410  133.8138  153.2581 H   0  0  0  0  0  0  0  0  0  0  0  0
  150.9201  134.8124  155.8984 H   0  0  0  0  0  0  0  0  0  0  0  0
  150.8786  134.1544  154.2981 H   0  0  0  0  0  0  0  0  0  0  0  0
  149.6987  136.2003  153.6075 H   0  0  0  0  0  0  0  0  0  0  0  0
  151.0480  138.4069  153.4264 H   0  0  0  0  0  0  0  0  0  0  0  0
  149.3994  138.5792  153.9097 H   0  0  0  0  0  0  0  0  0  0  0  0
  147.9174  140.1144  154.7987 H   0  0  0  0  0  0  0  0  0  0  0  0
  148.6778  140.8302  153.3694 H   0  0  0  0  0  0  0  0  0  0  0  0
  148.0585  141.8646  154.6547 H   0  0  0  0  0  0  0  0  0  0  0  0
  152.6754  143.2039  157.8340 H   0  0  0  0  0  0  0  0  0  0  0  0
  150.9380  143.3571  158.1164 H   0  0  0  0  0  0  0  0  0  0  0  0
  151.6754  144.1081  156.6917 H   0  0  0  0  0  0  0  0  0  0  0  0
  148.8540  132.1531  153.3699 H   0  0  0  0  0  0  0  0  0  0  0  0
  150.5223  132.2173  153.8885 H   0  0  0  0  0  0  0  0  0  0  0  0
  148.5211  129.9925  154.5175 H   0  0  0  0  0  0  0  0  0  0  0  0
  149.8730  129.8973  153.4062 H   0  0  0  0  0  0  0  0  0  0  0  0
  149.0335  130.2045  156.9343 H   0  0  0  0  0  0  0  0  0  0  0  0
  150.7215  130.2534  157.4039 H   0  0  0  0  0  0  0  0  0  0  0  0
  151.0315  132.4435  156.3325 H   0  0  0  0  0  0  0  0  0  0  0  0
  149.7027  132.5099  157.4701 H   0  0  0  0  0  0  0  0  0  0  0  0
  1  2  1  0  0  0  0
  1 26  1  0  0  0  0
  1 27  1  0  0  0  0
  1 28  1  0  0  0  0
  2  3  1  0  0  0  0
  2 29  1  0  0  0  0
  2 30  1  0  0  0  0
  3  4  1  0  0  0  0
  3  5  1  0  0  0  0
  3 19  1  0  0  0  0
  4 31  1  0  0  0  0
  4 32  1  0  0  0  0
  4 33  1  0  0  0  0
  5  6  1  0  0  0  0
  5 34  1  0  0  0  0
  5 35  1  0  0  0  0
  6  7  1  0  0  0  0
  6 36  1  0  0  0  0
  7  8  2  0  0  0  0
  7  9  1  0  0  0  0
  9 37  1  0  0  0  0
  9 38  1  0  0  0  0
  9 10  1  0  0  0  0
 10 17  1  0  0  0  0
 10 11  2  0  0  0  0
 11 12  1  0  0  0  0
 11 13  1  0  0  0  0
 12 39  1  0  0  0  0
 12 40  1  0  0  0  0
 12 41  1  0  0  0  0
 13 25  1  0  0  0  0
 13 14  1  0  0  0  0
 14 15  1  0  0  0  0
 14 16  2  0  0  0  0
 15 42  1  0  0  0  0
 15 43  1  0  0  0  0
 15 44  1  0  0  0  0
 16 17  1  0  0  0  0
 17 18  2  0  0  0  0
 19 24  1  0  0  0  0
 19 20  1  0  0  0  0
 20 21  1  0  0  0  0
 20 45  1  0  0  0  0
 20 46  1  0  0  0  0
 21 22  1  0  0  0  0
 21 47  1  0  0  0  0
 21 48  1  0  0  0  0
 22 23  1  0  0  0  0
 23 24  1  0  0  0  0
 23 49  1  0  0  0  0
 23 50  1  0  0  0  0
 24 51  1  0  0  0  0
 24 52  1  0  0  0  0
M  END
> <s_m_source_file>
AV-unprocessed.smi

> <i_m_source_file_index>
1492

> <i_lp_mmshare_version>
43012

> <i_f3d_flags>
0

> <s_epik_input>
W0NIMl0xW0NIMl1PW0NIMl1bQ0gyXU4xW0NAQF0oW0NIM10pKFtDSDJdW0NIM10pW0NIMl1bTkhdQyg9TylbQ0gyXWMyYyhbQ0gzXSluYyhbQ0gzXSlbbkhdYzI9Tw==

> <s_epik_cmdline>
J2VwaWtfcHl0aG9uJywgJy1waCcsICc3LjAnLCAnLXRuJywgJzgnLCAnLW1hJywgJzIwMCcsICctbWV0YWxfYmluZGluZycsICctaW1hZScsICc8aW5maWxlLm1hZT4nLCAnLW9tYWUnLCAnPG91dGZpbGUubWFlPic=

> <r_lp_tautomer_probability>
0.156392

> <r_epik_Ionization_Penalty>
0.342516

> <r_epik_Ionization_Penalty_Charging>
0.0141408

> <r_epik_Ionization_Penalty_Neutral>
0.328375

> <r_epik_State_Penalty>
1.47662

> <r_epik_Charging_Adjusted_Penalty>
1.49076

> <i_epik_Tot_Q>
0

> <i_epik_Tot_abs_Q>
0

> <r_epik_Metal_State_Penalty>
1.65506

> <b_epik_Metal_Only>
0

> <s_lp_Force_Field>
OPLS_2005

> <r_lp_Energy>
46.8903

> <b_lp_Chiralities_Consistent>
1

> <s_lp_Variant>
AV-unprocessed.smi:1492-5

> <Gold.Version>
5.8.1

> <Gold.Id.Protein>
6NUR|6NUR_protein|mol2

> <Gold.PLP.Fitness>
39.8377

> <Gold.PLP.PLP>
-31.7025

> <Gold.PLP.part.hbond>
-3.5863

> <Gold.PLP.part.metal>
0.0000

> <Gold.PLP.part.buried>
0.6355

> <Gold.PLP.part.nonpolar>
-27.9159

> <Gold.PLP.part.repulsive>
0.2238

> <Gold.PLP.ligand.clash>
0.0000

> <Gold.PLP.ligand.torsion>
0.4412

> <Gold.PLP.Chemscore.Hbond>
2.9600

> <Gold.PLP.Chemscore.CHOScore>
0.0000

> <Gold.PLP.Chemscore.Metal>
0.0000

> <Gold.Chemscore.Hbonds>
donor molecule, donor type, donor heavy atom, donor atom, acceptor molecule, acceptor atom, score
      L1  H     6    36       P1  7948  1.00
      L1  H    13    25       P1  8028  0.80
      P1  H  7997  8009       L1    18  0.60

> <Gold.PLP.Chemscore.Internal.Correction>
0.1376

> <Gold.Rescore>
     Score         DG    S(hbond)    S(metal)    S(lipo)     H(rot)  DE(clash)    DE(int)     intcor
      9.13     -15.45       2.08        0.00      72.05       2.12       1.71       4.61       ----

> <Gold.Chemscore.Fitness>
9.1338

> <Gold.Chemscore.DG>
-15.4545

> <Gold.Chemscore.ZeroCoef>
-5.4800

> <Gold.Chemscore.Hbond>
2.0839

> <Gold.Chemscore.Metal>
0.0000

> <Gold.Chemscore.Lipo>
72.0506

> <Gold.Chemscore.Internal_Hbond>
0.0000

> <Gold.Chemscore.DEClash>
1.7079

> <Gold.Chemscore.DEInternal>
4.6129

> <Gold.Chemscore.Rot>
2.1155

> <Gold.Chemscore.Internal.Correction>
   9.000000E+99

> <Gold.Chemscore.Hbonds>
donor molecule, donor type, donor heavy atom, donor atom, acceptor molecule, acceptor atom, score
      L1  H     6    36       P1  7948  0.30
      L1  H    13    25       P1  8028  0.78
      P1  H  7997  8009       L1    18  0.04

> <Gold.Chemscore.Hbond.Weighted>
-6.9603

> <Gold.Chemscore.Metal.Weighted>
-0.0000

> <Gold.Chemscore.Lipo.Weighted>
-8.4299

> <Gold.Chemscore.Internal_Hbond.Weighted>
0.0000

> <Gold.Chemscore.DEClash.Weighted>
1.7079

> <Gold.Chemscore.DEInternal.Weighted>
4.6129

> <Gold.Chemscore.Rot.Weighted>
5.4157

> <Gold.Chemscore.Internal.Correction.Weighted>
   9.000000E+99

> <Gold.Protein.RotatedTorsions>
[ 6907 6896 6895 6894 ] final -162.22 input  -60.11 | X-H torsion
[ 7974 7965 7964 7962 ] final  -86.26 input  175.53 | X-H torsion
[ 8008 7997 7996 7995 ] final -158.00 input   59.86 | X-H torsion
[ 10167 10162 10161 10158 ] final -134.92 input  -65.29 | X-H torsion
[ 10718 10713 10712 10709 ] final  -35.17 input   66.30 | X-H torsion
[ 10763 10752 10751 10750 ] final  -90.08 input  -60.55 | X-H torsion
[ 11005 11000 10999 10996 ] final   37.28 input  -57.11 | X-H torsion

> <Gold.Protein.ActiveResidues>
 VAL166  LYS551  ARG553  GLY616  TRP617  ASP618  TYR619  PRO620  LYS621  CYS622 
 ASP623  PHE694  ASN695  SER759  ASP760  ASP761  ALA762  ILE779  LEU786  VAL792 
 PHE793  MET794  SER795  GLU796  ALA797  LYS798  CYS799  TRP800  GLU811  SER814 

> <Gold.Protein.RotatedAtoms>
  151.3769  133.3835  159.2705 H   0  0  0  0  0  0  0  0  0  0  0  0  # atno 6907 bound_to 6896
  150.9607  134.8996  159.7739 H   0  0  0  0  0  0  0  0  0  0  0  0  # atno 6908 bound_to 6896
  152.5148  134.3728  159.9376 H   0  0  0  0  0  0  0  0  0  0  0  0  # atno 6909 bound_to 6896
  145.4822  140.9556  143.1858 H   0  0  0  0  0  0  0  0  0  0  0  0  # atno 7974 bound_to 7965
  155.7409  140.0814  157.2246 H   0  0  0  0  0  0  0  0  0  0  0  0  # atno 8008 bound_to 7997
  154.4022  140.1578  156.2670 H   0  0  0  0  0  0  0  0  0  0  0  0  # atno 8009 bound_to 7997
  155.9021  140.3409  155.6037 H   0  0  0  0  0  0  0  0  0  0  0  0  # atno 8010 bound_to 7997
  139.8831  143.6815  152.2624 H   0  0  0  0  0  0  0  0  0  0  0  0  # atno 10167 bound_to 10162
  156.3418  130.4295  149.7780 H   0  0  0  0  0  0  0  0  0  0  0  0  # atno 10718 bound_to 10713
  154.6621  135.5317  153.8031 H   0  0  0  0  0  0  0  0  0  0  0  0  # atno 10763 bound_to 10752
  153.0448  135.6508  154.0856 H   0  0  0  0  0  0  0  0  0  0  0  0  # atno 10764 bound_to 10752
  154.0764  135.2950  155.3278 H   0  0  0  0  0  0  0  0  0  0  0  0  # atno 10765 bound_to 10752
  140.2241  134.3606  155.7992 H   0  0  0  0  0  0  0  0  0  0  0  0  # atno 11005 bound_to 11000
  144.7882  139.6383  143.7125 LP  0  0  0  0  0  0  0  0  0  0  0  0  # atno 17320 bound_to 7965
  146.2334  139.5858  142.9540 LP  0  0  0  0  0  0  0  0  0  0  0  0  # atno 17321 bound_to 7965
  139.7178  144.7608  151.1005 LP  0  0  0  0  0  0  0  0  0  0  0  0  # atno 17342 bound_to 10162
  140.7741  143.5247  150.9494 LP  0  0  0  0  0  0  0  0  0  0  0  0  # atno 17343 bound_to 10162
  156.5014  130.8130  151.3134 LP  0  0  0  0  0  0  0  0  0  0  0  0  # atno 17370 bound_to 10713
  157.7448  130.9943  150.2704 LP  0  0  0  0  0  0  0  0  0  0  0  0  # atno 17371 bound_to 10713
  141.2221  133.7209  156.8624 LP  0  0  0  0  0  0  0  0  0  0  0  0  # atno 17394 bound_to 11000
  140.1819  134.9027  157.2958 LP  0  0  0  0  0  0  0  0  0  0  0  0  # atno 17395 bound_to 11000

$$$$
