AV-unprocessed.smi:1487|AV-procd|sdf|6013|dock4
  -GOLD-   22720 6113D 1   1.00000     0.00000
 Structure written by MMmdl.
 48 50  0  0  0  0  0  0  0  0  2 V2000
  152.6301  143.3387  161.7863 C   0  0  0  0  0  0  0  0  0  0  0  0
  152.1769  142.9490  160.3900 C   0  0  0  0  0  0  0  0  0  0  0  0
  152.3224  141.6076  159.9696 C   0  0  0  0  0  0  0  0  0  0  0  0
  151.9133  141.2045  158.6798 C   0  0  0  0  0  0  0  0  0  0  0  0
  151.9557  139.9623  158.0703 N   0  0  0  0  0  0  0  0  0  0  0  0
  151.4335  140.2303  156.8771 C   0  0  0  0  0  0  0  0  0  0  0  0
  151.0504  141.5001  156.6433 N   0  0  0  0  0  0  0  0  0  0  0  0
  150.4564  142.0210  155.4256 C   0  0  0  0  0  0  0  0  0  0  0  0
  149.5060  141.0140  154.7478 C   0  0  2  0  0  0  0  0  0  0  0  0
  150.2988  140.1765  153.9300 O   0  0  0  0  0  0  0  0  0  0  0  0
  148.4158  141.6898  153.8839 C   0  0  0  0  0  0  0  0  0  0  0  0
  147.3858  142.3996  154.6859 N   0  3  2  0  0  0  0  0  0  0  0  0
  146.9845  141.6243  155.8892 C   0  0  0  0  0  0  0  0  0  0  0  0
  146.0335  142.4366  156.7843 C   0  0  0  0  0  0  0  0  0  0  0  0
  144.7989  142.8968  155.9989 C   0  0  0  0  0  0  0  0  0  0  0  0
  145.2370  143.6680  154.7453 C   0  0  2  0  0  0  0  0  0  0  0  0
  144.0979  144.0056  153.9828 O   0  0  0  0  0  0  0  0  0  0  0  0
  146.2016  142.8241  153.8910 C   0  0  0  0  0  0  0  0  0  0  0  0
  151.3535  142.1885  157.8135 C   0  0  0  0  0  0  0  0  0  0  0  0
  151.2047  143.5266  158.2197 C   0  0  0  0  0  0  0  0  0  0  0  0
  151.6153  143.9116  159.5131 C   0  0  0  0  0  0  0  0  0  0  0  0
  151.4472  145.3578  159.9439 C   0  0  0  0  0  0  0  0  0  0  0  0
  153.0282  142.4817  162.3302 H   0  0  0  0  0  0  0  0  0  0  0  0
  151.7961  143.7405  162.3618 H   0  0  0  0  0  0  0  0  0  0  0  0
  153.4134  144.0952  161.7362 H   0  0  0  0  0  0  0  0  0  0  0  0
  152.7510  140.8741  160.6370 H   0  0  0  0  0  0  0  0  0  0  0  0
  151.3192  139.4584  156.1300 H   0  0  0  0  0  0  0  0  0  0  0  0
  149.9278  142.9448  155.6646 H   0  0  0  0  0  0  0  0  0  0  0  0
  151.2642  142.2950  154.7451 H   0  0  0  0  0  0  0  0  0  0  0  0
  149.0548  140.3981  155.5248 H   0  0  0  0  0  0  0  0  0  0  0  0
  149.8771  140.0770  153.0904 H   0  0  0  0  0  0  0  0  0  0  0  0
  148.8563  142.3984  153.1817 H   0  0  0  0  0  0  0  0  0  0  0  0
  147.9372  140.9195  153.2772 H   0  0  0  0  0  0  0  0  0  0  0  0
  146.5086  140.6917  155.5812 H   0  0  0  0  0  0  0  0  0  0  0  0
  147.8695  141.3530  156.4662 H   0  0  0  0  0  0  0  0  0  0  0  0
  145.7267  141.8380  157.6427 H   0  0  0  0  0  0  0  0  0  0  0  0
  146.5588  143.3047  157.1849 H   0  0  0  0  0  0  0  0  0  0  0  0
  144.2017  142.0286  155.7158 H   0  0  0  0  0  0  0  0  0  0  0  0
  144.1648  143.5214  156.6293 H   0  0  0  0  0  0  0  0  0  0  0  0
  145.7293  144.5948  155.0429 H   0  0  0  0  0  0  0  0  0  0  0  0
  143.9522  143.3316  153.3362 H   0  0  0  0  0  0  0  0  0  0  0  0
  146.5138  143.4106  153.0279 H   0  0  0  0  0  0  0  0  0  0  0  0
  145.6912  141.9404  153.5039 H   0  0  0  0  0  0  0  0  0  0  0  0
  150.7771  144.2507  157.5422 H   0  0  0  0  0  0  0  0  0  0  0  0
  151.0019  145.9602  159.1517 H   0  0  0  0  0  0  0  0  0  0  0  0
  152.4131  145.7965  160.1950 H   0  0  0  0  0  0  0  0  0  0  0  0
  150.7988  145.4229  160.8180 H   0  0  0  0  0  0  0  0  0  0  0  0
  147.8266  143.2398  155.0316 H   0  0  0  0  0  0  0  0  0  0  0  0
  1  2  1  0  0  0  0
  1 23  1  0  0  0  0
  1 24  1  0  0  0  0
  1 25  1  0  0  0  0
  2 21  1  0  0  0  0
  2  3  2  0  0  0  0
  3  4  1  0  0  0  0
  3 26  1  0  0  0  0
  4 19  2  0  0  0  0
  4  5  1  0  0  0  0
  5  6  2  0  0  0  0
  6  7  1  0  0  0  0
  6 27  1  0  0  0  0
  7  8  1  0  0  0  0
  7 19  1  0  0  0  0
  8  9  1  0  0  0  0
  8 28  1  0  0  0  0
  8 29  1  0  0  0  0
  9 10  1  0  0  0  0
  9 11  1  0  0  0  0
  9 30  1  0  0  0  0
 10 31  1  0  0  0  0
 11 12  1  0  0  0  0
 11 32  1  0  0  0  0
 11 33  1  0  0  0  0
 12 18  1  0  0  0  0
 12 13  1  0  0  0  0
 12 48  1  0  0  0  0
 13 14  1  0  0  0  0
 13 34  1  0  0  0  0
 13 35  1  0  0  0  0
 14 15  1  0  0  0  0
 14 36  1  0  0  0  0
 14 37  1  0  0  0  0
 15 16  1  0  0  0  0
 15 38  1  0  0  0  0
 15 39  1  0  0  0  0
 16 17  1  0  0  0  0
 16 18  1  0  0  0  0
 16 40  1  0  0  0  0
 17 41  1  0  0  0  0
 18 42  1  0  0  0  0
 18 43  1  0  0  0  0
 19 20  1  0  0  0  0
 20 21  2  0  0  0  0
 20 44  1  0  0  0  0
 21 22  1  0  0  0  0
 22 45  1  0  0  0  0
 22 46  1  0  0  0  0
 22 47  1  0  0  0  0
M  CHG  1  12   1
M  END
> <s_m_source_file>
AV-unprocessed.smi

> <i_m_source_file_index>
1487

> <i_lp_mmshare_version>
43012

> <i_f3d_flags>
0

> <s_epik_input>
W0NIM11jKFtjSF0xKWMoW0NIM10pW2NIXWMoYzEyKW4oW2NIXW4yKVtDSDJdW0NASF0oW09IXSlbQ0gyXU4zW0NIMl1bQ0gyXVtDSDJdW0NAQEhdKFtPSF0pW0NIMl0z

> <s_epik_cmdline>
J2VwaWtfcHl0aG9uJywgJy1waCcsICc3LjAnLCAnLXRuJywgJzgnLCAnLW1hJywgJzIwMCcsICctbWV0YWxfYmluZGluZycsICctaW1hZScsICc8aW5maWxlLm1hZT4nLCAnLW9tYWUnLCAnPG91dGZpbGUubWFlPic=

> <r_epik_Ionization_Penalty>
0.0940186

> <r_epik_Ionization_Penalty_Charging>
0.00679686

> <r_epik_Ionization_Penalty_Neutral>
0.0872218

> <r_epik_State_Penalty>
0.0799311

> <r_epik_Charging_Adjusted_Penalty>
0.086728

> <i_epik_Tot_Q>
1

> <i_epik_Tot_abs_Q>
1

> <r_epik_Metal_State_Penalty>
7.95545e-05

> <b_epik_Metal_Only>
0

> <s_lp_Force_Field>
OPLS_2005

> <r_lp_Energy>
23.9156

> <b_lp_Chiralities_Consistent>
1

> <s_lp_Variant>
AV-unprocessed.smi:1487-7

> <Gold.Version>
5.8.1

> <Gold.Id.Protein>
6NUR|6NUR_protein|mol2

> <Gold.PLP.Fitness>
63.6608

> <Gold.PLP.PLP>
-50.3545

> <Gold.PLP.part.hbond>
-4.0000

> <Gold.PLP.part.metal>
0.0000

> <Gold.PLP.part.buried>
-6.4710

> <Gold.PLP.part.nonpolar>
-39.6261

> <Gold.PLP.part.repulsive>
0.1168

> <Gold.PLP.ligand.clash>
0.0000

> <Gold.PLP.ligand.torsion>
0.7979

> <Gold.PLP.Chemscore.Hbond>
4.9510

> <Gold.PLP.Chemscore.CHOScore>
0.0000

> <Gold.PLP.Chemscore.Metal>
0.0000

> <Gold.Chemscore.Hbonds>
donor molecule, donor type, donor heavy atom, donor atom, acceptor molecule, acceptor atom, score
      L1  H    10    31       P1  7957  1.00
      L1  H    12    48       P1  8028  2.00
      L1  H    17    41       P1 10174  0.93
      P1  H  7989  7998       L1    10  0.87

> <Gold.PLP.Chemscore.Internal.Correction>
0.0491

> <Gold.Rescore>
     Score         DG    S(hbond)    S(metal)    S(lipo)     H(rot)  DE(clash)    DE(int)     intcor
     18.50     -20.10       2.06        0.00     124.68       2.67       0.62       0.99       ----

> <Gold.Chemscore.Fitness>
18.4950

> <Gold.Chemscore.DG>
-20.1041

> <Gold.Chemscore.ZeroCoef>
-5.4800

> <Gold.Chemscore.Hbond>
2.0585

> <Gold.Chemscore.Metal>
0.0000

> <Gold.Chemscore.Lipo>
124.6773

> <Gold.Chemscore.Internal_Hbond>
0.0000

> <Gold.Chemscore.DEClash>
0.6231

> <Gold.Chemscore.DEInternal>
0.9860

> <Gold.Chemscore.Rot>
2.6712

> <Gold.Chemscore.Internal.Correction>
   9.000000E+99

> <Gold.Chemscore.Hbonds>
donor molecule, donor type, donor heavy atom, donor atom, acceptor molecule, acceptor atom, score
      L1  H    10    31       P1  7957  0.99
      L1  H    12    48       P1  8028  0.65
      L1  H    17    41       P1 10174  0.23
      P1  H  7989  7998       L1    10  0.15

> <Gold.Chemscore.Hbond.Weighted>
-6.8752

> <Gold.Chemscore.Metal.Weighted>
-0.0000

> <Gold.Chemscore.Lipo.Weighted>
-14.5872

> <Gold.Chemscore.Internal_Hbond.Weighted>
0.0000

> <Gold.Chemscore.DEClash.Weighted>
0.6231

> <Gold.Chemscore.DEInternal.Weighted>
0.9860

> <Gold.Chemscore.Rot.Weighted>
6.8383

> <Gold.Chemscore.Internal.Correction.Weighted>
   9.000000E+99

> <Gold.Protein.RotatedTorsions>
[ 6907 6896 6895 6894 ] final -110.22 input  -60.11 | X-H torsion
[ 7974 7965 7964 7962 ] final -132.30 input  175.53 | X-H torsion
[ 8008 7997 7996 7995 ] final -129.77 input   59.86 | X-H torsion
[ 10167 10162 10161 10158 ] final  104.59 input  -65.29 | X-H torsion
[ 10718 10713 10712 10709 ] final  -10.60 input   66.30 | X-H torsion
[ 10763 10752 10751 10750 ] final  140.28 input  -60.55 | X-H torsion
[ 11005 11000 10999 10996 ] final  145.04 input  -57.11 | X-H torsion

> <Gold.Protein.ActiveResidues>
 VAL166  LYS551  ARG553  GLY616  TRP617  ASP618  TYR619  PRO620  LYS621  CYS622 
 ASP623  PHE694  ASN695  SER759  ASP760  ASP761  ALA762  ILE779  LEU786  VAL792 
 PHE793  MET794  SER795  GLU796  ALA797  LYS798  CYS799  TRP800  GLU811  SER814 

> <Gold.Protein.RotatedAtoms>
  150.7611  133.9414  159.3457 H   0  0  0  0  0  0  0  0  0  0  0  0  # atno 6907 bound_to 6896
  151.7322  135.0870  160.0311 H   0  0  0  0  0  0  0  0  0  0  0  0  # atno 6908 bound_to 6896
  152.3582  133.6226  159.6031 H   0  0  0  0  0  0  0  0  0  0  0  0  # atno 6909 bound_to 6896
  144.9298  140.7115  143.4913 H   0  0  0  0  0  0  0  0  0  0  0  0  # atno 7974 bound_to 7965
  155.2847  140.0445  157.3018 H   0  0  0  0  0  0  0  0  0  0  0  0  # atno 8008 bound_to 7997
  154.5576  140.2336  155.8354 H   0  0  0  0  0  0  0  0  0  0  0  0  # atno 8009 bound_to 7997
  156.2020  140.3023  155.9554 H   0  0  0  0  0  0  0  0  0  0  0  0  # atno 8010 bound_to 7997
  139.7164  144.7067  151.0943 H   0  0  0  0  0  0  0  0  0  0  0  0  # atno 10167 bound_to 10162
  156.6711  130.5009  149.6000 H   0  0  0  0  0  0  0  0  0  0  0  0  # atno 10718 bound_to 10713
  153.9200  135.3001  155.3448 H   0  0  0  0  0  0  0  0  0  0  0  0  # atno 10763 bound_to 10752
  154.7580  135.4948  153.9414 H   0  0  0  0  0  0  0  0  0  0  0  0  # atno 10764 bound_to 10752
  153.1147  135.6768  153.9542 H   0  0  0  0  0  0  0  0  0  0  0  0  # atno 10765 bound_to 10752
  140.0680  134.9167  157.1297 H   0  0  0  0  0  0  0  0  0  0  0  0  # atno 11005 bound_to 11000
  145.3160  139.1803  143.4613 LP  0  0  0  0  0  0  0  0  0  0  0  0  # atno 17320 bound_to 7965
  146.3242  140.3170  142.8630 LP  0  0  0  0  0  0  0  0  0  0  0  0  # atno 17321 bound_to 7965
  140.7744  143.5224  150.9521 LP  0  0  0  0  0  0  0  0  0  0  0  0  # atno 17342 bound_to 10162
  139.8910  143.6953  152.3145 LP  0  0  0  0  0  0  0  0  0  0  0  0  # atno 17343 bound_to 10162
  156.1938  130.6576  151.1091 LP  0  0  0  0  0  0  0  0  0  0  0  0  # atno 17370 bound_to 10713
  157.7077  131.0749  150.6611 LP  0  0  0  0  0  0  0  0  0  0  0  0  # atno 17371 bound_to 10713
  140.3669  134.2432  155.7181 LP  0  0  0  0  0  0  0  0  0  0  0  0  # atno 17394 bound_to 11000
  141.2000  133.7996  157.0507 LP  0  0  0  0  0  0  0  0  0  0  0  0  # atno 17395 bound_to 11000

$$$$
