#       Name:                AV-unprocessed.smi:1242
#       Creating user name   scv26
#       Creation time:       Fri Mar 27 04:31:18 2020


#       File generated by GOLD software.
#

@<TRIPOS>MOLECULE
AV-unprocessed.smi:1242
    45    46     1
SMALL
NO_CHARGES


@<TRIPOS>ATOM
      1 ****        -0.2257   1.0312  -0.4635 O.2            1 S1                 0.0000
      2 ****         0.4841   0.0288  -0.3714 C.2            1 S1                 0.0000
      3 ****         2.0108   0.1362  -0.4844 C.3            1 S1                 0.0000
      4 ****         2.5308   1.4373  -0.0323 N.am           1 S1                 0.0000
      5 ****         2.8103   2.3986  -1.0236 C.2            1 S1                 0.0000
      6 ****         3.2725   3.6314  -0.7395 C.2            1 S1                 0.0000
      7 ****         3.6122   4.6313  -1.8337 C.3            1 S1                 0.0000
      8 ****         4.5848   5.4561  -1.4447 F              1 S1                 0.0000
      9 ****         4.0085   4.0126  -2.9467 F              1 S1                 0.0000
     10 ****         2.5389   5.3642  -2.1263 F              1 S1                 0.0000
     11 ****         3.5094   3.9246   0.6603 C.2            1 S1                 0.0000
     12 ****         3.2525   3.0149   1.6203 C.2            1 S1                 0.0000
     13 ****         2.7258   1.6871   1.2973 C.2            1 S1                 0.0000
     14 ****         2.4781   0.8511   2.1667 O.2            1 S1                 0.0000
     15 ****        -0.0082  -1.2067  -0.1874 N.am           1 S1                 0.0000
     16 ****        -1.4253  -1.5426  -0.0308 C.3            1 S1                 0.0000
     17 ****        -1.6007  -3.0253  -0.4317 C.3            1 S1                 0.0000
     18 ****        -3.0379  -3.3922  -0.8408 C.3            1 S1                 0.0000
     19 ****        -4.0802  -3.2857   0.2826 C.3            1 S1                 0.0000
     20 ****        -4.2520  -1.8602   0.8337 C.3            1 S1                 0.0000
     21 ****        -3.1744  -1.4899   1.7416 N.am           1 S1                 0.0000
     22 ****        -1.8745  -1.3557   1.4377 C.2            1 S1                 0.0000
     23 ****        -1.0550  -1.0921   2.3176 O.2            1 S1                 0.0000
     24 ****         2.4784  -0.6709   0.0831 H              1 S1                 0.0000
     25 ****         2.2870  -0.0495  -1.5232 H              1 S1                 0.0000
     26 ****         2.6183   2.0702  -2.0349 H              1 S1                 0.0000
     27 ****         3.8941   4.8926   0.9453 H              1 S1                 0.0000
     28 ****         3.4378   3.2693   2.6536 H              1 S1                 0.0000
     29 ****         0.6479  -1.9710  -0.1209 H              1 S1                 0.0000
     30 ****        -2.0168  -0.9029  -0.6883 H              1 S1                 0.0000
     31 ****        -0.9621  -3.2390  -1.2904 H              1 S1                 0.0000
     32 ****        -1.2522  -3.6891   0.3615 H              1 S1                 0.0000
     33 ****        -3.3452  -2.7680  -1.6806 H              1 S1                 0.0000
     34 ****        -3.0402  -4.4157  -1.2170 H              1 S1                 0.0000
     35 ****        -5.0395  -3.6195  -0.1142 H              1 S1                 0.0000
     36 ****        -3.8357  -3.9758   1.0911 H              1 S1                 0.0000
     37 ****        -4.3416  -1.1317   0.0267 H              1 S1                 0.0000
     38 ****        -5.1815  -1.8049   1.4008 H              1 S1                 0.0000
     39 ****        -3.4350  -1.3491   2.7070 H              1 S1                 0.0000
     40 ****         0.1918   1.9274  -0.6136 LP             1 S1                 0.0000
     41 ****        -1.2194   0.9488  -0.3882 LP             1 S1                 0.0000
     42 ****         2.1214  -0.0470   1.9096 LP             1 S1                 0.0000
     43 ****         2.6337   1.0703   3.1299 LP             1 S1                 0.0000
     44 ****        -0.0867  -0.9965   2.0866 LP             1 S1                 0.0000
     45 ****        -1.3575  -0.9736   3.2633 LP             1 S1                 0.0000
@<TRIPOS>BOND
    1    1    2 2     
    2    2    3 1     
    3    2   15 am    
    4    3    4 1     
    5    3   24 1     
    6    3   25 1     
    7    4   13 am    
    8    4    5 1     
    9    5    6 2     
   10    5   26 1     
   11    6    7 1     
   12    6   11 1     
   13    7    8 1     
   14    7    9 1     
   15    7   10 1     
   16   11   12 2     
   17   11   27 1     
   18   12   13 1     
   19   12   28 1     
   20   13   14 2     
   21   15   16 1     
   22   15   29 1     
   23   16   22 1     
   24   16   17 1     
   25   16   30 1     
   26   17   18 1     
   27   17   31 1     
   28   17   32 1     
   29   18   19 1     
   30   18   33 1     
   31   18   34 1     
   32   19   20 1     
   33   19   35 1     
   34   19   36 1     
   35   20   21 1     
   36   20   37 1     
   37   20   38 1     
   38   21   22 am    
   39   21   39 1     
   40   22   23 2     
   41    1   40 1     
   42    1   41 1     
   43   14   42 1     
   44   14   43 1     
   45   23   44 1     
   46   23   45 1     
@<TRIPOS>SUBSTRUCTURE
      1 S1             1
@<TRIPOS>SET
LONE_PAIRS      STATIC     ATOMS    <user>   **** ""
6 40 41 42 43 44 45
DONOR_HYDROGENS      STATIC     ATOMS    <user>   **** ""
2 29 39
ATOM$BLUE        STATIC     ATOMS    COLORGROUP SYSTEM
6 40 41 42 43 44 45
ATOM$RED        STATIC     ATOMS    COLORGROUP SYSTEM
2 29 39
