#       Name:                AV-unprocessed.smi:1745
#       Creating user name   scv26
#       Creation time:       Fri Mar 27 08:24:55 2020


#       File generated by GOLD software.
#

@<TRIPOS>MOLECULE
AV-unprocessed.smi:1745
    55    57     1
SMALL
NO_CHARGES


@<TRIPOS>ATOM
      1 ****        -4.1827  -2.7627   1.7563 C.3            1 S1                 0.0000
      2 ****        -3.7616  -1.9327   0.5351 C.3            1 S1                 0.0000
      3 ****        -2.3037  -1.8231   0.5153 N.am           1 S1                 0.0000
      4 ****        -1.5988  -0.6829   0.4760 C.2            1 S1                 0.0000
      5 ****        -2.1109   0.4356   0.4486 O.2            1 S1                 0.0000
      6 ****        -0.2785  -0.9345   0.4843 N.am           1 S1                 0.0000
      7 ****         0.8026  -0.0117   0.4845 C.ar           1 S1                 0.0000
      8 ****         2.0649  -0.4785   0.9022 C.ar           1 S1                 0.0000
      9 ****         3.1592   0.4062   0.9060 C.ar           1 S1                 0.0000
     10 ****         2.9552   1.7384   0.4800 C.ar           1 S1                 0.0000
     11 ****         3.9994   2.6729   0.4662 N.3            1 S1                 0.0000
     12 ****         4.4912   3.0098   1.7959 C.3            1 S1                 0.0000
     13 ****         5.5457   4.1262   1.7000 C.3            1 S1                 0.0000
     14 ****         6.5901   3.7224   0.8185 O.3            1 S1                 0.0000
     15 ****         6.1098   3.4709  -0.4993 C.3            1 S1                 0.0000
     16 ****         5.0718   2.3361  -0.4615 C.3            1 S1                 0.0000
     17 ****         1.7531   2.1906   0.0626 N.ar           1 S1                 0.0000
     18 ****         0.7068   1.3368   0.0619 C.ar           1 S1                 0.0000
     19 ****        -4.2645  -2.5537  -0.7828 C.3            1 S1                 0.0000
     20 ****        -3.8990  -1.7709  -2.0449 C.3            1 S1                 0.0000
     21 ****        -4.9680  -2.1865  -3.0430 C.3            1 S1                 0.0000
     22 ****        -6.0641  -2.8149  -2.1773 C.3            1 S1                 0.0000
     23 ****        -5.6824  -2.5465  -0.8352 O.3            1 S1                 0.0000
     24 ****        -5.2681  -2.8423   1.8218 H              1 S1                 0.0000
     25 ****        -3.8324  -2.3047   2.6818 H              1 S1                 0.0000
     26 ****        -3.7776  -3.7740   1.7097 H              1 S1                 0.0000
     27 ****        -4.2111  -0.9436   0.6393 H              1 S1                 0.0000
     28 ****        -1.7900  -2.6918   0.5337 H              1 S1                 0.0000
     29 ****        -0.0160  -1.9053   0.5706 H              1 S1                 0.0000
     30 ****         2.1953  -1.5017   1.2230 H              1 S1                 0.0000
     31 ****         4.1312   0.0654   1.2316 H              1 S1                 0.0000
     32 ****         3.6613   3.3319   2.4264 H              1 S1                 0.0000
     33 ****         4.9299   2.1275   2.2638 H              1 S1                 0.0000
     34 ****         5.0972   5.0563   1.3471 H              1 S1                 0.0000
     35 ****         5.9692   4.3297   2.6835 H              1 S1                 0.0000
     36 ****         5.6776   4.3804  -0.9200 H              1 S1                 0.0000
     37 ****         6.9489   3.1920  -1.1368 H              1 S1                 0.0000
     38 ****         5.5530   1.4074  -0.1523 H              1 S1                 0.0000
     39 ****         4.6596   2.1714  -1.4577 H              1 S1                 0.0000
     40 ****        -0.2149   1.7592  -0.3062 H              1 S1                 0.0000
     41 ****        -3.9145  -3.5840  -0.8749 H              1 S1                 0.0000
     42 ****        -3.9726  -0.6988  -1.8564 H              1 S1                 0.0000
     43 ****        -2.8878  -1.9819  -2.3944 H              1 S1                 0.0000
     44 ****        -5.3359  -1.3262  -3.6031 H              1 S1                 0.0000
     45 ****        -4.5827  -2.9135  -3.7588 H              1 S1                 0.0000
     46 ****        -7.0522  -2.4066  -2.3906 H              1 S1                 0.0000
     47 ****        -6.1015  -3.8944  -2.3307 H              1 S1                 0.0000
     48 ****        -3.1064   0.5300   0.4551 LP             1 S1                 0.0000
     49 ****        -1.5316   1.2502   0.4198 LP             1 S1                 0.0000
     50 ****         3.5872   3.5103   0.1072 LP             1 S1                 0.0000
     51 ****         7.0080   2.8866   1.1747 LP             1 S1                 0.0000
     52 ****         7.2772   4.4478   0.7786 LP             1 S1                 0.0000
     53 ****         1.6402   3.1372  -0.2394 LP             1 S1                 0.0000
     54 ****        -6.0295  -1.6517  -0.5544 LP             1 S1                 0.0000
     55 ****        -6.0497  -3.2517  -0.2287 LP             1 S1                 0.0000
@<TRIPOS>BOND
    1    1    2 1     
    2    1   24 1     
    3    1   25 1     
    4    1   26 1     
    5    2    3 1     
    6    2   19 1     
    7    2   27 1     
    8    3    4 am    
    9    3   28 1     
   10    4    5 2     
   11    4    6 am    
   12    6    7 1     
   13    6   29 1     
   14    7   18 ar    
   15    7    8 ar    
   16    8    9 ar    
   17    8   30 1     
   18    9   10 ar    
   19    9   31 1     
   20   10   11 1     
   21   10   17 ar    
   22   11   16 1     
   23   11   12 1     
   24   12   13 1     
   25   12   32 1     
   26   12   33 1     
   27   13   14 1     
   28   13   34 1     
   29   13   35 1     
   30   14   15 1     
   31   15   16 1     
   32   15   36 1     
   33   15   37 1     
   34   16   38 1     
   35   16   39 1     
   36   17   18 ar    
   37   18   40 1     
   38   19   23 1     
   39   19   20 1     
   40   19   41 1     
   41   20   21 1     
   42   20   42 1     
   43   20   43 1     
   44   21   22 1     
   45   21   44 1     
   46   21   45 1     
   47   22   23 1     
   48   22   46 1     
   49   22   47 1     
   50    5   48 1     
   51    5   49 1     
   52   11   50 1     
   53   14   51 1     
   54   14   52 1     
   55   17   53 1     
   56   23   54 1     
   57   23   55 1     
@<TRIPOS>SUBSTRUCTURE
      1 S1             1
@<TRIPOS>SET
LONE_PAIRS      STATIC     ATOMS    <user>   **** ""
8 48 49 50 51 52 53 54 55
DONOR_HYDROGENS      STATIC     ATOMS    <user>   **** ""
2 28 29
ATOM$BLUE        STATIC     ATOMS    COLORGROUP SYSTEM
8 48 49 50 51 52 53 54 55
ATOM$RED        STATIC     ATOMS    COLORGROUP SYSTEM
2 28 29
