AV-unprocessed.smi:527|AV-procd|sdf|2829|dock10
  -GOLD-   2262023313D 1   1.00000     0.00000
 Structure written by MMmdl.
 43 44  0  0  0  0  0  0  0  0  2 V2000
  146.5030  142.5367  153.8459 C   0  0  0  0  0  0  0  0  0  0  0  0
  147.2830  141.2946  154.3072 C   0  0  2  0  0  0  0  0  0  0  0  0
  148.8059  141.5362  154.2932 C   0  0  0  0  0  0  0  0  0  0  0  0
  149.5714  140.3281  154.8557 C   0  0  0  0  0  0  0  0  0  0  0  0
  149.1998  139.0316  154.1203 C   0  0  0  0  0  0  0  0  0  0  0  0
  147.6771  138.7939  154.1378 C   0  0  2  0  0  0  0  0  0  0  0  0
  147.3659  137.5356  153.4615 N   0  0  0  0  0  0  0  0  0  0  0  0
  146.5102  136.6048  153.9090 C   0  0  0  0  0  0  0  0  0  0  0  0
  145.6890  136.8144  154.8042 O   0  0  0  0  0  0  0  0  0  0  0  0
  146.6728  135.4412  153.2500 N   0  0  0  0  0  0  0  0  0  0  0  0
  145.8660  134.3605  153.2838 C   0  0  0  0  0  0  0  0  0  0  0  0
  144.8259  134.2687  153.9386 O   0  0  0  0  0  0  0  0  0  0  0  0
  146.3016  133.1773  152.4177 C   0  0  0  0  0  0  0  0  0  0  0  0
  145.4355  133.0316  151.2434 N   0  0  0  0  0  0  0  0  0  0  0  0
  145.6371  132.2190  150.1568 C   0  0  0  0  0  0  0  0  0  0  0  0
  144.5725  132.4193  149.3159 C   0  0  0  0  0  0  0  0  0  0  0  0
  143.7671  133.3456  149.9230 N   0  3  0  0  0  0  0  0  0  0  0  0
  144.2926  133.7157  151.0954 C   0  0  0  0  0  0  0  0  0  0  0  0
  146.9024  140.0009  153.5386 C   0  0  2  0  0  0  0  0  0  0  0  0
  147.0583  140.1238  152.0049 C   0  0  0  0  0  0  0  0  0  0  0  0
  146.7941  142.8505  152.8435 H   0  0  0  0  0  0  0  0  0  0  0  0
  146.6848  143.3791  154.5142 H   0  0  0  0  0  0  0  0  0  0  0  0
  145.4291  142.3484  153.8417 H   0  0  0  0  0  0  0  0  0  0  0  0
  146.9992  141.1330  155.3485 H   0  0  0  0  0  0  0  0  0  0  0  0
  149.1449  141.7479  153.2787 H   0  0  0  0  0  0  0  0  0  0  0  0
  149.0465  142.4209  154.8836 H   0  0  0  0  0  0  0  0  0  0  0  0
  150.6456  140.5020  154.7842 H   0  0  0  0  0  0  0  0  0  0  0  0
  149.3471  140.2199  155.9176 H   0  0  0  0  0  0  0  0  0  0  0  0
  149.5641  139.0763  153.0934 H   0  0  0  0  0  0  0  0  0  0  0  0
  149.7126  138.1910  154.5893 H   0  0  0  0  0  0  0  0  0  0  0  0
  147.3815  138.6866  155.1837 H   0  0  0  0  0  0  0  0  0  0  0  0
  147.8419  137.3650  152.5879 H   0  0  0  0  0  0  0  0  0  0  0  0
  147.4913  135.3713  152.6636 H   0  0  0  0  0  0  0  0  0  0  0  0
  147.3306  133.3016  152.0763 H   0  0  0  0  0  0  0  0  0  0  0  0
  146.2596  132.2520  152.9947 H   0  0  0  0  0  0  0  0  0  0  0  0
  146.5000  131.5749  150.0642 H   0  0  0  0  0  0  0  0  0  0  0  0
  144.3342  131.9842  148.3560 H   0  0  0  0  0  0  0  0  0  0  0  0
  143.8781  134.4303  151.7847 H   0  0  0  0  0  0  0  0  0  0  0  0
  145.8413  139.8273  153.7227 H   0  0  0  0  0  0  0  0  0  0  0  0
  148.0878  140.3249  151.7117 H   0  0  0  0  0  0  0  0  0  0  0  0
  146.4388  140.9251  151.6040 H   0  0  0  0  0  0  0  0  0  0  0  0
  146.7448  139.2124  151.4963 H   0  0  0  0  0  0  0  0  0  0  0  0
  142.8996  133.7021  149.5414 H   0  0  0  0  0  0  0  0  0  0  0  0
  1  2  1  0  0  0  0
  1 21  1  0  0  0  0
  1 22  1  0  0  0  0
  1 23  1  0  0  0  0
  2 19  1  0  0  0  0
  2  3  1  0  0  0  0
  2 24  1  0  0  0  0
  3  4  1  0  0  0  0
  3 25  1  0  0  0  0
  3 26  1  0  0  0  0
  4  5  1  0  0  0  0
  4 27  1  0  0  0  0
  4 28  1  0  0  0  0
  5  6  1  0  0  0  0
  5 29  1  0  0  0  0
  5 30  1  0  0  0  0
  6  7  1  0  0  0  0
  6 19  1  0  0  0  0
  6 31  1  0  0  0  0
  7  8  1  0  0  0  0
  7 32  1  0  0  0  0
  8  9  2  0  0  0  0
  8 10  1  0  0  0  0
 10 11  1  0  0  0  0
 10 33  1  0  0  0  0
 11 12  2  0  0  0  0
 11 13  1  0  0  0  0
 13 14  1  0  0  0  0
 13 34  1  0  0  0  0
 13 35  1  0  0  0  0
 14 18  1  0  0  0  0
 14 15  1  0  0  0  0
 15 16  2  0  0  0  0
 15 36  1  0  0  0  0
 16 17  1  0  0  0  0
 16 37  1  0  0  0  0
 17 18  2  0  0  0  0
 17 43  1  0  0  0  0
 18 38  1  0  0  0  0
 19 20  1  0  0  0  0
 19 39  1  0  0  0  0
 20 40  1  0  0  0  0
 20 41  1  0  0  0  0
 20 42  1  0  0  0  0
M  CHG  1  17   1
M  END
> <s_m_source_file>
AV-unprocessed.smi

> <i_m_source_file_index>
527

> <i_lp_mmshare_version>
43012

> <i_f3d_flags>
0

> <s_epik_input>
W0NIM11bQ0BASF0xW0NIMl1bQ0gyXVtDSDJdW0NASF0oW0NASF0xW0NIM10pW05IXUMoPU8pW05IXUMoPU8pW0NIMl1uMltjSF1bY0hdbltjSF0y

> <s_epik_cmdline>
J2VwaWtfcHl0aG9uJywgJy1waCcsICc3LjAnLCAnLXRuJywgJzgnLCAnLW1hJywgJzIwMCcsICctbWV0YWxfYmluZGluZycsICctaW1hZScsICc8aW5maWxlLm1hZT4nLCAnLW9tYWUnLCAnPG91dGZpbGUubWFlPic=

> <r_lp_tautomer_probability>
1

> <r_epik_Ionization_Penalty>
0.816441

> <r_epik_Ionization_Penalty_Charging>
0

> <r_epik_Ionization_Penalty_Neutral>
0.816441

> <r_epik_State_Penalty>
0.849034

> <r_epik_Charging_Adjusted_Penalty>
0.849034

> <i_epik_Tot_Q>
1

> <i_epik_Tot_abs_Q>
1

> <r_epik_Metal_State_Penalty>
0.984327

> <b_epik_Metal_Only>
0

> <s_lp_Force_Field>
OPLS_2005

> <r_lp_Energy>
18.4408

> <b_lp_Chiralities_Consistent>
1

> <s_lp_Variant>
AV-unprocessed.smi:527-15

> <Gold.Version>
5.8.1

> <Gold.Id.Protein>
6NUR|6NUR_protein|mol2

> <Gold.PLP.Fitness>
47.8424

> <Gold.PLP.PLP>
-34.6932

> <Gold.PLP.part.hbond>
-3.0000

> <Gold.PLP.part.metal>
0.0000

> <Gold.PLP.part.buried>
-0.6222

> <Gold.PLP.part.nonpolar>
-30.6964

> <Gold.PLP.part.repulsive>
0.1959

> <Gold.PLP.ligand.clash>
0.0000

> <Gold.PLP.ligand.torsion>
0.5447

> <Gold.PLP.Chemscore.Hbond>
3.8240

> <Gold.PLP.Chemscore.CHOScore>
0.9156

> <Gold.PLP.Chemscore.Metal>
0.0000

> <Gold.Chemscore.Hbonds>
donor molecule, donor type, donor heavy atom, donor atom, acceptor molecule, acceptor atom, score
      L1  H     7    32       P1  7948  0.83
      L1  H    10    33       P1  7948  0.99
      L1  H    17    43       P1 10186  2.00
      L1  C    15    36       P1 10747  0.89

> <Gold.PLP.Chemscore.Internal.Correction>
0.0197

> <Gold.Rescore>
     Score         DG    S(hbond)    S(metal)    S(lipo)     H(rot)  DE(clash)    DE(int)     intcor
     16.93     -19.38       2.83        0.00      75.23       1.71       0.51       1.94       ----

> <Gold.Chemscore.Fitness>
16.9337

> <Gold.Chemscore.DG>
-19.3843

> <Gold.Chemscore.ZeroCoef>
-5.4800

> <Gold.Chemscore.Hbond>
2.8347

> <Gold.Chemscore.Metal>
0.0000

> <Gold.Chemscore.Lipo>
75.2283

> <Gold.Chemscore.Internal_Hbond>
0.0000

> <Gold.Chemscore.DEClash>
0.5138

> <Gold.Chemscore.DEInternal>
1.9369

> <Gold.Chemscore.Rot>
1.7052

> <Gold.Chemscore.Internal.Correction>
   9.000000E+99

> <Gold.Chemscore.Hbonds>
donor molecule, donor type, donor heavy atom, donor atom, acceptor molecule, acceptor atom, score
      L1  H     7    32       P1  7948  0.81
      L1  H    10    33       P1  7948  0.93
      L1  H    17    43       P1 10186  0.94

> <Gold.Chemscore.Hbond.Weighted>
-9.4679

> <Gold.Chemscore.Metal.Weighted>
-0.0000

> <Gold.Chemscore.Lipo.Weighted>
-8.8017

> <Gold.Chemscore.Internal_Hbond.Weighted>
0.0000

> <Gold.Chemscore.DEClash.Weighted>
0.5138

> <Gold.Chemscore.DEInternal.Weighted>
1.9369

> <Gold.Chemscore.Rot.Weighted>
4.3653

> <Gold.Chemscore.Internal.Correction.Weighted>
   9.000000E+99

> <Gold.Protein.RotatedTorsions>
[ 6907 6896 6895 6894 ] final  -56.55 input  -60.11 | X-H torsion
[ 7974 7965 7964 7962 ] final  128.26 input  175.53 | X-H torsion
[ 8008 7997 7996 7995 ] final   28.82 input   59.86 | X-H torsion
[ 10167 10162 10161 10158 ] final -110.55 input  -65.29 | X-H torsion
[ 10718 10713 10712 10709 ] final -158.91 input   66.30 | X-H torsion
[ 10763 10752 10751 10750 ] final  -57.73 input  -60.55 | X-H torsion
[ 11005 11000 10999 10996 ] final   -6.48 input  -57.11 | X-H torsion

> <Gold.Protein.ActiveResidues>
 VAL166  LYS551  ARG553  GLY616  TRP617  ASP618  TYR619  PRO620  LYS621  CYS622 
 ASP623  PHE694  ASN695  SER759  ASP760  ASP761  ALA762  ILE779  LEU786  VAL792 
 PHE793  MET794  SER795  GLU796  ALA797  LYS798  CYS799  TRP800  GLU811  SER814 

> <Gold.Protein.RotatedAtoms>
  150.8158  134.7340  159.6728 H   0  0  0  0  0  0  0  0  0  0  0  0  # atno 6907 bound_to 6896
  152.4277  134.5834  159.9964 H   0  0  0  0  0  0  0  0  0  0  0  0  # atno 6908 bound_to 6896
  151.6031  133.3317  159.3087 H   0  0  0  0  0  0  0  0  0  0  0  0  # atno 6909 bound_to 6896
  145.0415  139.3959  143.5099 H   0  0  0  0  0  0  0  0  0  0  0  0  # atno 7974 bound_to 7965
  155.0647  140.3194  155.4649 H   0  0  0  0  0  0  0  0  0  0  0  0  # atno 8008 bound_to 7997
  156.2805  140.2122  156.5719 H   0  0  0  0  0  0  0  0  0  0  0  0  # atno 8009 bound_to 7997
  154.7103  140.0498  157.0531 H   0  0  0  0  0  0  0  0  0  0  0  0  # atno 8010 bound_to 7997
  140.1432  143.4261  152.1547 H   0  0  0  0  0  0  0  0  0  0  0  0  # atno 10167 bound_to 10162
  156.5608  130.8646  151.2809 H   0  0  0  0  0  0  0  0  0  0  0  0  # atno 10718 bound_to 10713
  154.2270  135.6367  153.5163 H   0  0  0  0  0  0  0  0  0  0  0  0  # atno 10763 bound_to 10752
  152.9957  135.5510  154.6053 H   0  0  0  0  0  0  0  0  0  0  0  0  # atno 10764 bound_to 10752
  154.5527  135.2903  155.0967 H   0  0  0  0  0  0  0  0  0  0  0  0  # atno 10765 bound_to 10752
  140.7024  133.8978  155.8693 H   0  0  0  0  0  0  0  0  0  0  0  0  # atno 11005 bound_to 11000
  146.3510  140.0018  142.8675 LP  0  0  0  0  0  0  0  0  0  0  0  0  # atno 17320 bound_to 7965
  145.1642  140.9688  143.4359 LP  0  0  0  0  0  0  0  0  0  0  0  0  # atno 17321 bound_to 7965
  139.5461  144.7300  151.4578 LP  0  0  0  0  0  0  0  0  0  0  0  0  # atno 17342 bound_to 10162
  140.6747  143.8215  150.7044 LP  0  0  0  0  0  0  0  0  0  0  0  0  # atno 17343 bound_to 10162
  157.7369  130.9786  150.2162 LP  0  0  0  0  0  0  0  0  0  0  0  0  # atno 17370 bound_to 10713
  156.2801  130.3732  149.7944 LP  0  0  0  0  0  0  0  0  0  0  0  0  # atno 17371 bound_to 10713
  141.0152  134.0965  157.4179 LP  0  0  0  0  0  0  0  0  0  0  0  0  # atno 17394 bound_to 11000
  139.8893  135.0104  156.6671 LP  0  0  0  0  0  0  0  0  0  0  0  0  # atno 17395 bound_to 11000

$$$$
