AV-unprocessed.smi:3331|AV-procd|sdf|12826|dock9
  -GOLD-   2272019203D 1   1.00000     0.00000
 Structure written by MMmdl.
 46 47  0  0  0  0  0  0  0  0  1 V2000
  150.5331  141.5945  155.9341 C   0  0  0  0  0  0  0  0  0  0  0  0
  150.0804  140.1745  155.5681 C   0  0  2  0  0  0  0  0  0  0  0  0
  151.2863  139.2605  155.2534 C   0  0  0  0  0  0  0  0  0  0  0  0
  150.8658  137.8620  154.7483 C   0  0  1  0  0  0  0  0  0  0  0  0
  150.3866  136.9512  155.8926 C   0  0  0  0  0  0  0  0  0  0  0  0
  149.8216  138.0002  153.6184 C   0  0  0  0  0  0  0  0  0  0  0  0
  148.6819  138.8029  154.0887 N   0  0  0  0  0  0  0  0  0  0  0  0
  147.4221  138.3521  154.3225 C   0  0  0  0  0  0  0  0  0  0  0  0
  146.5348  139.0975  154.7425 O   0  0  0  0  0  0  0  0  0  0  0  0
  147.0749  136.8725  154.0508 C   0  0  1  0  0  0  0  0  0  0  0  0
  146.5146  136.1793  155.3130 C   0  0  0  0  0  0  0  0  0  0  0  0
  146.1295  136.7831  152.9257 N   0  0  0  0  0  0  0  0  0  0  0  0
  145.6373  135.4289  152.7039 C   0  0  0  0  0  0  0  0  0  0  0  0
  144.9148  135.3412  151.3492 C   0  0  0  0  0  0  0  0  0  0  0  0
  144.8474  133.9804  150.8456 N   0  0  0  0  0  0  0  0  0  0  0  0
  143.7527  133.3056  150.3475 C   0  0  0  0  0  0  0  0  0  0  0  0
  144.1717  132.0543  149.9963 C   0  0  0  0  0  0  0  0  0  0  0  0
  145.5560  132.0570  150.3254 C   0  0  0  0  0  0  0  0  0  0  0  0
  145.9569  133.2101  150.8360 N   0  0  0  0  0  0  0  0  0  0  0  0
  149.0930  140.1827  154.3826 C   0  0  0  0  0  0  0  0  0  0  0  0
  151.0601  142.0685  155.1056 H   0  0  0  0  0  0  0  0  0  0  0  0
  151.2039  141.5830  156.7936 H   0  0  0  0  0  0  0  0  0  0  0  0
  149.6806  142.2242  156.1902 H   0  0  0  0  0  0  0  0  0  0  0  0
  149.5597  139.7667  156.4358 H   0  0  0  0  0  0  0  0  0  0  0  0
  151.8932  139.7361  154.4816 H   0  0  0  0  0  0  0  0  0  0  0  0
  151.9326  139.1693  156.1274 H   0  0  0  0  0  0  0  0  0  0  0  0
  151.7509  137.3870  154.3231 H   0  0  0  0  0  0  0  0  0  0  0  0
  149.4988  137.3469  156.3861 H   0  0  0  0  0  0  0  0  0  0  0  0
  151.1611  136.8370  156.6513 H   0  0  0  0  0  0  0  0  0  0  0  0
  150.1428  135.9554  155.5219 H   0  0  0  0  0  0  0  0  0  0  0  0
  150.2745  138.5102  152.7668 H   0  0  0  0  0  0  0  0  0  0  0  0
  149.5486  137.0184  153.2374 H   0  0  0  0  0  0  0  0  0  0  0  0
  148.0005  136.3572  153.7953 H   0  0  0  0  0  0  0  0  0  0  0  0
  147.1546  136.3541  156.1789 H   0  0  0  0  0  0  0  0  0  0  0  0
  146.4543  135.0987  155.1881 H   0  0  0  0  0  0  0  0  0  0  0  0
  145.5152  136.5404  155.5597 H   0  0  0  0  0  0  0  0  0  0  0  0
  146.5556  137.1074  152.0691 H   0  0  0  0  0  0  0  0  0  0  0  0
  146.4796  134.7357  152.7056 H   0  0  0  0  0  0  0  0  0  0  0  0
  144.9626  135.1197  153.5015 H   0  0  0  0  0  0  0  0  0  0  0  0
  143.9071  135.7546  151.4218 H   0  0  0  0  0  0  0  0  0  0  0  0
  145.4441  135.9441  150.6106 H   0  0  0  0  0  0  0  0  0  0  0  0
  142.7789  133.7683  150.2824 H   0  0  0  0  0  0  0  0  0  0  0  0
  143.5798  131.2585  149.5694 H   0  0  0  0  0  0  0  0  0  0  0  0
  146.2761  131.2604  150.2108 H   0  0  0  0  0  0  0  0  0  0  0  0
  148.2487  140.8356  154.6076 H   0  0  0  0  0  0  0  0  0  0  0  0
  149.5669  140.6136  153.4992 H   0  0  0  0  0  0  0  0  0  0  0  0
  1  2  1  0  0  0  0
  1 21  1  0  0  0  0
  1 22  1  0  0  0  0
  1 23  1  0  0  0  0
  2 20  1  0  0  0  0
  2  3  1  0  0  0  0
  2 24  1  0  0  0  0
  3  4  1  0  0  0  0
  3 25  1  0  0  0  0
  3 26  1  0  0  0  0
  4  5  1  0  0  0  0
  4  6  1  0  0  0  0
  4 27  1  0  0  0  0
  5 28  1  0  0  0  0
  5 29  1  0  0  0  0
  5 30  1  0  0  0  0
  6  7  1  0  0  0  0
  6 31  1  0  0  0  0
  6 32  1  0  0  0  0
  7  8  1  0  0  0  0
  7 20  1  0  0  0  0
  8  9  2  0  0  0  0
  8 10  1  0  0  0  0
 10 11  1  0  0  0  0
 10 12  1  0  0  0  0
 10 33  1  0  0  0  0
 11 34  1  0  0  0  0
 11 35  1  0  0  0  0
 11 36  1  0  0  0  0
 12 13  1  0  0  0  0
 12 37  1  0  0  0  0
 13 14  1  0  0  0  0
 13 38  1  0  0  0  0
 13 39  1  0  0  0  0
 14 15  1  0  0  0  0
 14 40  1  0  0  0  0
 14 41  1  0  0  0  0
 15 19  1  0  0  0  0
 15 16  1  0  0  0  0
 16 17  2  0  0  0  0
 16 42  1  0  0  0  0
 17 18  1  0  0  0  0
 17 43  1  0  0  0  0
 18 19  2  0  0  0  0
 18 44  1  0  0  0  0
 20 45  1  0  0  0  0
 20 46  1  0  0  0  0
M  END
> <s_m_source_file>
AV-unprocessed.smi

> <i_m_source_file_index>
3331

> <i_lp_mmshare_version>
43012

> <i_f3d_flags>
0

> <s_epik_input>
W0NIM11bQ0BASF0xW0NIMl1bQ0BASF0oW0NIM10pW0NIMl1OKFtDSDJdMSlDKD1PKVtDQEhdKFtDSDNdKVtOSF1bQ0gyXVtDSDJdbjJbY0hdW2NIXVtjSF1uMg==

> <s_epik_cmdline>
J2VwaWtfcHl0aG9uJywgJy1waCcsICc3LjAnLCAnLXRuJywgJzgnLCAnLW1hJywgJzIwMCcsICctbWV0YWxfYmluZGluZycsICctaW1hZScsICc8aW5maWxlLm1hZT4nLCAnLW9tYWUnLCAnPG91dGZpbGUubWFlPic=

> <r_lp_tautomer_probability>
1

> <r_epik_Ionization_Penalty>
0.767994

> <r_epik_Ionization_Penalty_Charging>
0

> <r_epik_Ionization_Penalty_Neutral>
0.767994

> <r_epik_State_Penalty>
0.795453

> <r_epik_Charging_Adjusted_Penalty>
0.795453

> <i_epik_Tot_Q>
0

> <i_epik_Tot_abs_Q>
0

> <r_epik_Metal_State_Penalty>
0.794784

> <b_epik_Metal_Only>
0

> <s_lp_Force_Field>
OPLS_2005

> <r_lp_Energy>
31.6007

> <b_lp_Chiralities_Consistent>
1

> <s_lp_Variant>
AV-unprocessed.smi:3331-10

> <Gold.Version>
5.8.1

> <Gold.Id.Protein>
6NUR|6NUR_protein|mol2

> <Gold.PLP.Fitness>
37.7683

> <Gold.PLP.PLP>
-32.4260

> <Gold.PLP.part.hbond>
-1.0000

> <Gold.PLP.part.metal>
0.0000

> <Gold.PLP.part.buried>
-3.2440

> <Gold.PLP.part.nonpolar>
-28.4655

> <Gold.PLP.part.repulsive>
0.2440

> <Gold.PLP.ligand.clash>
0.0000

> <Gold.PLP.ligand.torsion>
0.3706

> <Gold.PLP.Chemscore.Hbond>
0.0133

> <Gold.PLP.Chemscore.CHOScore>
2.0000

> <Gold.PLP.Chemscore.Metal>
0.0000

> <Gold.Chemscore.Hbonds>
donor molecule, donor type, donor heavy atom, donor atom, acceptor molecule, acceptor atom, score
      L1  C    16    42       P1 10186  0.98
      L1  C    18    44       P1 10747  0.53

> <Gold.PLP.Chemscore.Internal.Correction>
0.0437

> <Gold.Rescore>
     Score         DG    S(hbond)    S(metal)    S(lipo)     H(rot)  DE(clash)    DE(int)     intcor
     12.35     -13.02       0.80        0.00      78.19       1.66       0.10       0.58       ----

> <Gold.Chemscore.Fitness>
12.3455

> <Gold.Chemscore.DG>
-13.0228

> <Gold.Chemscore.ZeroCoef>
-5.4800

> <Gold.Chemscore.Hbond>
0.7955

> <Gold.Chemscore.Metal>
0.0000

> <Gold.Chemscore.Lipo>
78.1876

> <Gold.Chemscore.Internal_Hbond>
0.0000

> <Gold.Chemscore.DEClash>
0.0961

> <Gold.Chemscore.DEInternal>
0.5812

> <Gold.Chemscore.Rot>
1.6649

> <Gold.Chemscore.Internal.Correction>
   9.000000E+99

> <Gold.Chemscore.Hbond.Weighted>
-2.6569

> <Gold.Chemscore.Metal.Weighted>
-0.0000

> <Gold.Chemscore.Lipo.Weighted>
-9.1479

> <Gold.Chemscore.Internal_Hbond.Weighted>
0.0000

> <Gold.Chemscore.DEClash.Weighted>
0.0961

> <Gold.Chemscore.DEInternal.Weighted>
0.5812

> <Gold.Chemscore.Rot.Weighted>
4.2621

> <Gold.Chemscore.Internal.Correction.Weighted>
   9.000000E+99

> <Gold.Protein.RotatedTorsions>
[ 6907 6896 6895 6894 ] final -123.58 input  -60.11 | X-H torsion
[ 7974 7965 7964 7962 ] final   98.82 input  175.53 | X-H torsion
[ 8008 7997 7996 7995 ] final   -7.82 input   59.86 | X-H torsion
[ 10167 10162 10161 10158 ] final -106.06 input  -65.29 | X-H torsion
[ 10718 10713 10712 10709 ] final  -52.31 input   66.30 | X-H torsion
[ 10763 10752 10751 10750 ] final  -95.62 input  -60.55 | X-H torsion
[ 11005 11000 10999 10996 ] final -172.13 input  -57.11 | X-H torsion

> <Gold.Protein.ActiveResidues>
 VAL166  LYS551  ARG553  GLY616  TRP617  ASP618  TYR619  PRO620  LYS621  CYS622 
 ASP623  PHE694  ASN695  SER759  ASP760  ASP761  ALA762  ILE779  LEU786  VAL792 
 PHE793  MET794  SER795  GLU796  ALA797  LYS798  CYS799  TRP800  GLU811  SER814 

> <Gold.Protein.RotatedAtoms>
  150.8685  133.7540  159.2968 H   0  0  0  0  0  0  0  0  0  0  0  0  # atno 6907 bound_to 6896
  151.5160  135.1064  159.9875 H   0  0  0  0  0  0  0  0  0  0  0  0  # atno 6908 bound_to 6896
  152.4678  133.7917  159.6961 H   0  0  0  0  0  0  0  0  0  0  0  0  # atno 6909 bound_to 6896
  145.4071  139.2339  143.3268 H   0  0  0  0  0  0  0  0  0  0  0  0  # atno 7974 bound_to 7965
  154.5801  140.2397  155.8066 H   0  0  0  0  0  0  0  0  0  0  0  0  # atno 8008 bound_to 7997
  156.2173  140.3008  155.9825 H   0  0  0  0  0  0  0  0  0  0  0  0  # atno 8009 bound_to 7997
  155.2556  140.0412  157.2982 H   0  0  0  0  0  0  0  0  0  0  0  0  # atno 8010 bound_to 7997
  140.1919  143.3886  152.1200 H   0  0  0  0  0  0  0  0  0  0  0  0  # atno 10167 bound_to 10162
  156.1633  130.4149  149.9760 H   0  0  0  0  0  0  0  0  0  0  0  0  # atno 10718 bound_to 10713
  154.7165  135.5114  153.8745 H   0  0  0  0  0  0  0  0  0  0  0  0  # atno 10763 bound_to 10752
  153.0825  135.6635  154.0025 H   0  0  0  0  0  0  0  0  0  0  0  0  # atno 10764 bound_to 10752
  153.9857  135.3024  155.3396 H   0  0  0  0  0  0  0  0  0  0  0  0  # atno 10765 bound_to 10752
  140.5005  134.5898  157.4986 H   0  0  0  0  0  0  0  0  0  0  0  0  # atno 11005 bound_to 11000
  146.2723  140.4777  142.8809 LP  0  0  0  0  0  0  0  0  0  0  0  0  # atno 17320 bound_to 7965
  144.8334  140.6743  143.6276 LP  0  0  0  0  0  0  0  0  0  0  0  0  # atno 17321 bound_to 7965
  139.5252  144.7093  151.5255 LP  0  0  0  0  0  0  0  0  0  0  0  0  # atno 17342 bound_to 10162
  140.6450  143.8812  150.6728 LP  0  0  0  0  0  0  0  0  0  0  0  0  # atno 17343 bound_to 10162
  156.7582  130.9141  151.3640 LP  0  0  0  0  0  0  0  0  0  0  0  0  # atno 17370 bound_to 10713
  157.6749  130.9085  150.0126 LP  0  0  0  0  0  0  0  0  0  0  0  0  # atno 17371 bound_to 10713
  139.9716  134.7283  156.0030 LP  0  0  0  0  0  0  0  0  0  0  0  0  # atno 17394 bound_to 11000
  141.1438  133.6559  156.3807 LP  0  0  0  0  0  0  0  0  0  0  0  0  # atno 17395 bound_to 11000

$$$$
