AV-unprocessed.smi:2995|AV-procd|sdf|11409|dock1
  -GOLD-   2272016333D 1   1.00000     0.00000
 Structure written by MMmdl.
 50 52  0  0  0  0  0  0  0  0  3 V2000
  147.3137  133.1976  151.9882 C   0  0  0  0  0  0  0  0  0  0  0  0
  146.0220  133.5148  151.2546 C   0  0  0  0  0  0  0  0  0  0  0  0
  145.3206  132.4777  150.6003 C   0  0  0  0  0  0  0  0  0  0  0  0
  144.1223  132.7731  149.9222 C   0  0  0  0  0  0  0  0  0  0  0  0
  143.6560  134.0389  149.9074 N   0  3  0  0  0  0  0  0  0  0  0  0
  144.2914  135.0624  150.5172 C   0  0  0  0  0  0  0  0  0  0  0  0
  145.5085  134.8368  151.2092 C   0  0  0  0  0  0  0  0  0  0  0  0
  146.2148  135.8690  151.8910 N   0  0  0  0  0  0  0  0  0  0  0  0
  145.7234  136.9601  152.5038 C   0  0  0  0  0  0  0  0  0  0  0  0
  144.5327  137.2652  152.5613 O   0  0  0  0  0  0  0  0  0  0  0  0
  146.7071  137.6987  153.0382 N   0  0  0  0  0  0  0  0  0  0  0  0
  146.5347  138.9567  153.7613 C   0  0  2  0  0  0  0  0  0  0  0  0
  147.1862  140.1091  152.9760 C   0  0  0  0  0  0  0  0  0  0  0  0
  147.1527  141.4235  153.7800 C   0  0  0  0  0  0  0  0  0  0  0  0
  147.7877  141.2772  155.1196 N   0  3  2  0  0  0  0  0  0  0  0  0
  149.2791  141.1911  155.0902 C   0  0  0  0  0  0  0  0  0  0  0  0
  149.8134  139.9214  154.4132 C   0  0  0  0  0  0  0  0  0  0  0  0
  151.2557  139.7866  154.9086 C   0  0  0  0  0  0  0  0  0  0  0  0
  151.3046  140.4952  156.2688 C   0  0  0  0  0  0  0  0  0  0  0  0
  149.9148  141.1050  156.4857 C   0  0  0  0  0  0  0  0  0  0  0  0
  147.1175  140.1989  155.8986 C   0  0  0  0  0  0  0  0  0  0  0  0
  147.1573  138.8454  155.1639 C   0  0  0  0  0  0  0  0  0  0  0  0
  147.5682  132.1403  151.9089 H   0  0  0  0  0  0  0  0  0  0  0  0
  147.2208  133.4430  153.0465 H   0  0  0  0  0  0  0  0  0  0  0  0
  148.1396  133.7740  151.5702 H   0  0  0  0  0  0  0  0  0  0  0  0
  145.6932  131.4636  150.6164 H   0  0  0  0  0  0  0  0  0  0  0  0
  143.5247  132.0403  149.3995 H   0  0  0  0  0  0  0  0  0  0  0  0
  143.7886  136.0139  150.4353 H   0  0  0  0  0  0  0  0  0  0  0  0
  147.2214  135.7952  151.8599 H   0  0  0  0  0  0  0  0  0  0  0  0
  147.6546  137.3654  152.9349 H   0  0  0  0  0  0  0  0  0  0  0  0
  145.4746  139.1875  153.8819 H   0  0  0  0  0  0  0  0  0  0  0  0
  148.2164  139.8567  152.7220 H   0  0  0  0  0  0  0  0  0  0  0  0
  146.6664  140.2489  152.0272 H   0  0  0  0  0  0  0  0  0  0  0  0
  147.6112  142.2314  153.2112 H   0  0  0  0  0  0  0  0  0  0  0  0
  146.1148  141.7247  153.9273 H   0  0  0  0  0  0  0  0  0  0  0  0
  149.6934  142.0568  154.5725 H   0  0  0  0  0  0  0  0  0  0  0  0
  149.2367  139.0533  154.7366 H   0  0  0  0  0  0  0  0  0  0  0  0
  149.7658  139.9676  153.3249 H   0  0  0  0  0  0  0  0  0  0  0  0
  151.5632  138.7425  154.9761 H   0  0  0  0  0  0  0  0  0  0  0  0
  151.9347  140.2824  154.2136 H   0  0  0  0  0  0  0  0  0  0  0  0
  151.5612  139.8066  157.0747 H   0  0  0  0  0  0  0  0  0  0  0  0
  152.0660  141.2761  156.2534 H   0  0  0  0  0  0  0  0  0  0  0  0
  149.9740  142.0733  156.9835 H   0  0  0  0  0  0  0  0  0  0  0  0
  149.3275  140.4412  157.1223 H   0  0  0  0  0  0  0  0  0  0  0  0
  147.5434  140.1060  156.8968 H   0  0  0  0  0  0  0  0  0  0  0  0
  146.0775  140.4892  156.0549 H   0  0  0  0  0  0  0  0  0  0  0  0
  146.6191  138.0979  155.7478 H   0  0  0  0  0  0  0  0  0  0  0  0
  148.1866  138.4921  155.0937 H   0  0  0  0  0  0  0  0  0  0  0  0
  147.5877  142.1353  155.6137 H   0  0  0  0  0  0  0  0  0  0  0  0
  142.7824  134.2319  149.4169 H   0  0  0  0  0  0  0  0  0  0  0  0
  1  2  1  0  0  0  0
  1 23  1  0  0  0  0
  1 24  1  0  0  0  0
  1 25  1  0  0  0  0
  2  7  1  0  0  0  0
  2  3  2  0  0  0  0
  3  4  1  0  0  0  0
  3 26  1  0  0  0  0
  4  5  2  0  0  0  0
  4 27  1  0  0  0  0
  5  6  1  0  0  0  0
  5 50  1  0  0  0  0
  6  7  2  0  0  0  0
  6 28  1  0  0  0  0
  7  8  1  0  0  0  0
  8  9  1  0  0  0  0
  8 29  1  0  0  0  0
  9 10  2  0  0  0  0
  9 11  1  0  0  0  0
 11 12  1  0  0  0  0
 11 30  1  0  0  0  0
 12 22  1  0  0  0  0
 12 13  1  0  0  0  0
 12 31  1  0  0  0  0
 13 14  1  0  0  0  0
 13 32  1  0  0  0  0
 13 33  1  0  0  0  0
 14 15  1  0  0  0  0
 14 34  1  0  0  0  0
 14 35  1  0  0  0  0
 15 16  1  0  0  0  0
 15 21  1  0  0  0  0
 15 49  1  0  0  0  0
 16 20  1  0  0  0  0
 16 17  1  0  0  0  0
 16 36  1  0  0  0  0
 17 18  1  0  0  0  0
 17 37  1  0  0  0  0
 17 38  1  0  0  0  0
 18 19  1  0  0  0  0
 18 39  1  0  0  0  0
 18 40  1  0  0  0  0
 19 20  1  0  0  0  0
 19 41  1  0  0  0  0
 19 42  1  0  0  0  0
 20 43  1  0  0  0  0
 20 44  1  0  0  0  0
 21 22  1  0  0  0  0
 21 45  1  0  0  0  0
 21 46  1  0  0  0  0
 22 47  1  0  0  0  0
 22 48  1  0  0  0  0
M  CHG  1   5   1
M  CHG  1  15   1
M  END
> <s_m_source_file>
AV-unprocessed.smi

> <i_m_source_file_index>
2995

> <i_lp_mmshare_version>
43012

> <i_f3d_flags>
0

> <s_epik_input>
W0NIM11jMVtjSF1bY0hdbltjSF1jMVtOSF1DKD1PKVtOSF1bQ0hdMltDSDJdW0NIMl1OKFtDSDJdW0NIMl0yKVtDSF0zW0NIMl1bQ0gyXVtDSDJdW0NIMl0z

> <s_epik_cmdline>
J2VwaWtfcHl0aG9uJywgJy1waCcsICc3LjAnLCAnLXRuJywgJzgnLCAnLW1hJywgJzIwMCcsICctbWV0YWxfYmluZGluZycsICctaW1hZScsICc8aW5maWxlLm1hZT4nLCAnLW9tYWUnLCAnPG91dGZpbGUubWFlPic=

> <r_epik_Ionization_Penalty>
2.08537

> <r_epik_Ionization_Penalty_Charging>
2.08535

> <r_epik_Ionization_Penalty_Neutral>
2.13957e-05

> <r_epik_State_Penalty>
2.21824

> <r_epik_Charging_Adjusted_Penalty>
4.30358

> <i_epik_Tot_Q>
2

> <i_epik_Tot_abs_Q>
2

> <r_epik_Metal_State_Penalty>
2.23856

> <b_epik_Metal_Only>
0

> <s_lp_Force_Field>
OPLS_2005

> <r_lp_Energy>
50.6964

> <b_lp_Chiralities_Consistent>
1

> <s_lp_Variant>
AV-unprocessed.smi:2995-4

> <Gold.Version>
5.8.1

> <Gold.Id.Protein>
6NUR|6NUR_protein|mol2

> <Gold.PLP.Fitness>
48.7540

> <Gold.PLP.PLP>
-38.6778

> <Gold.PLP.part.hbond>
-3.0000

> <Gold.PLP.part.metal>
0.0000

> <Gold.PLP.part.buried>
-2.4506

> <Gold.PLP.part.nonpolar>
-34.2551

> <Gold.PLP.part.repulsive>
0.3610

> <Gold.PLP.ligand.clash>
1.2425

> <Gold.PLP.ligand.torsion>
0.2588

> <Gold.PLP.Chemscore.Hbond>
3.9280

> <Gold.PLP.Chemscore.CHOScore>
0.0000

> <Gold.PLP.Chemscore.Metal>
0.0000

> <Gold.Chemscore.Hbonds>
donor molecule, donor type, donor heavy atom, donor atom, acceptor molecule, acceptor atom, score
      L1  H     5    50       P1 10186  1.89
      L1  H     8    29       P1  7948  1.00
      L1  H    11    30       P1  7948  0.94

> <Gold.PLP.Chemscore.Internal.Correction>
0.0523

> <Gold.Rescore>
     Score         DG    S(hbond)    S(metal)    S(lipo)     H(rot)  DE(clash)    DE(int)     intcor
     19.20     -23.84       2.88        0.00     100.62       1.19       1.24       3.40       ----

> <Gold.Chemscore.Fitness>
19.1984

> <Gold.Chemscore.DG>
-23.8427

> <Gold.Chemscore.ZeroCoef>
-5.4800

> <Gold.Chemscore.Hbond>
2.8823

> <Gold.Chemscore.Metal>
0.0000

> <Gold.Chemscore.Lipo>
100.6169

> <Gold.Chemscore.Internal_Hbond>
0.0000

> <Gold.Chemscore.DEClash>
1.2430

> <Gold.Chemscore.DEInternal>
3.4013

> <Gold.Chemscore.Rot>
1.1861

> <Gold.Chemscore.Internal.Correction>
   9.000000E+99

> <Gold.Chemscore.Hbonds>
donor molecule, donor type, donor heavy atom, donor atom, acceptor molecule, acceptor atom, score
      L1  H     5    50       P1 10186  0.91
      L1  H     8    29       P1  7948  1.00
      L1  H    11    30       P1  7948  0.85

> <Gold.Chemscore.Hbond.Weighted>
-9.6269

> <Gold.Chemscore.Metal.Weighted>
-0.0000

> <Gold.Chemscore.Lipo.Weighted>
-11.7722

> <Gold.Chemscore.Internal_Hbond.Weighted>
0.0000

> <Gold.Chemscore.DEClash.Weighted>
1.2430

> <Gold.Chemscore.DEInternal.Weighted>
3.4013

> <Gold.Chemscore.Rot.Weighted>
3.0364

> <Gold.Chemscore.Internal.Correction.Weighted>
   9.000000E+99

> <Gold.Protein.RotatedTorsions>
[ 6907 6896 6895 6894 ] final -178.22 input  -60.11 | X-H torsion
[ 7974 7965 7964 7962 ] final   69.13 input  175.53 | X-H torsion
[ 8008 7997 7996 7995 ] final  -62.94 input   59.86 | X-H torsion
[ 10167 10162 10161 10158 ] final -113.33 input  -65.29 | X-H torsion
[ 10718 10713 10712 10709 ] final  106.62 input   66.30 | X-H torsion
[ 10763 10752 10751 10750 ] final -174.82 input  -60.55 | X-H torsion
[ 11005 11000 10999 10996 ] final -141.84 input  -57.11 | X-H torsion

> <Gold.Protein.ActiveResidues>
 VAL166  LYS551  ARG553  GLY616  TRP617  ASP618  TYR619  PRO620  LYS621  CYS622 
 ASP623  PHE694  ASN695  SER759  ASP760  ASP761  ALA762  ILE779  LEU786  VAL792 
 PHE793  MET794  SER795  GLU796  ALA797  LYS798  CYS799  TRP800  GLU811  SER814 

> <Gold.Protein.RotatedAtoms>
  151.6337  133.3330  159.3114 H   0  0  0  0  0  0  0  0  0  0  0  0  # atno 6907 bound_to 6896
  150.8043  134.7162  159.6641 H   0  0  0  0  0  0  0  0  0  0  0  0  # atno 6908 bound_to 6896
  152.4138  134.6083  160.0070 H   0  0  0  0  0  0  0  0  0  0  0  0  # atno 6909 bound_to 6896
  145.7941  139.2949  143.1193 H   0  0  0  0  0  0  0  0  0  0  0  0  # atno 7974 bound_to 7965
  154.4527  140.0985  156.6665 H   0  0  0  0  0  0  0  0  0  0  0  0  # atno 8008 bound_to 7997
  155.5235  140.3479  155.4393 H   0  0  0  0  0  0  0  0  0  0  0  0  # atno 8009 bound_to 7997
  156.0714  140.1350  156.9813 H   0  0  0  0  0  0  0  0  0  0  0  0  # atno 8010 bound_to 7997
  140.1130  143.4510  152.1740 H   0  0  0  0  0  0  0  0  0  0  0  0  # atno 10167 bound_to 10162
  157.6661  131.0854  150.6034 H   0  0  0  0  0  0  0  0  0  0  0  0  # atno 10718 bound_to 10713
  154.5917  135.2845  155.0629 H   0  0  0  0  0  0  0  0  0  0  0  0  # atno 10763 bound_to 10752
  154.1927  135.6438  153.5068 H   0  0  0  0  0  0  0  0  0  0  0  0  # atno 10764 bound_to 10752
  153.0123  135.5450  154.6605 H   0  0  0  0  0  0  0  0  0  0  0  0  # atno 10765 bound_to 10752
  140.8284  134.2547  157.4868 H   0  0  0  0  0  0  0  0  0  0  0  0  # atno 11005 bound_to 11000
  145.9946  140.8573  143.0049 LP  0  0  0  0  0  0  0  0  0  0  0  0  # atno 17320 bound_to 7965
  144.6777  140.2264  143.7360 LP  0  0  0  0  0  0  0  0  0  0  0  0  # atno 17321 bound_to 7965
  139.5609  144.7405  151.4158 LP  0  0  0  0  0  0  0  0  0  0  0  0  # atno 17342 bound_to 10162
  140.6915  143.7850  150.7262 LP  0  0  0  0  0  0  0  0  0  0  0  0  # atno 17343 bound_to 10162
  156.6334  130.4438  149.5778 LP  0  0  0  0  0  0  0  0  0  0  0  0  # atno 17370 bound_to 10713
  156.2264  130.6768  151.1420 LP  0  0  0  0  0  0  0  0  0  0  0  0  # atno 17371 bound_to 10713
  139.8705  134.9573  156.4264 LP  0  0  0  0  0  0  0  0  0  0  0  0  # atno 17394 bound_to 11000
  140.9024  133.7770  155.9696 LP  0  0  0  0  0  0  0  0  0  0  0  0  # atno 17395 bound_to 11000

$$$$
