AV-unprocessed.smi:160|AV-procd|sdf|1360|dock4
  -GOLD-   2262019 73D 1   1.00000     0.00000
 Structure written by MMmdl.
 28 29  0  0  0  0  0  0  0  0  2 V2000
  154.5088  135.9805  156.8092 N   0  5  0  0  0  0  0  0  0  0  0  0
  154.5062  137.3195  156.9858 C   0  0  0  0  0  0  0  0  0  0  0  0
  155.3192  137.9681  157.6435 O   0  0  0  0  0  0  0  0  0  0  0  0
  153.3772  138.0420  156.2898 C   0  0  0  0  0  0  0  0  0  0  0  0
  152.6796  137.4357  155.2812 N   0  0  0  0  0  0  0  0  0  0  0  0
  151.8306  138.4125  154.9930 C   0  0  0  0  0  0  0  0  0  0  0  0
  151.9859  139.5118  155.7360 N   0  0  0  0  0  0  0  0  0  0  0  0
  151.2260  140.8043  155.7019 C   0  0  1  0  0  0  0  0  0  0  0  0
  150.3489  140.7732  154.6150 O   0  0  0  0  0  0  0  0  0  0  0  0
  149.0215  140.5354  155.0729 C   0  0  2  0  0  0  0  0  0  0  0  0
  148.0122  141.0316  154.0260 C   0  0  0  0  0  0  0  0  0  0  0  0
  148.0065  140.1696  152.9083 O   0  0  0  0  0  0  0  0  0  0  0  0
  149.0030  141.3431  156.3721 C   0  0  1  0  0  0  0  0  0  0  0  0
  147.9283  140.9943  157.2251 O   0  0  0  0  0  0  0  0  0  0  0  0
  150.3794  141.0612  156.9723 C   0  0  1  0  0  0  0  0  0  0  0  0
  150.3636  139.9835  157.8965 O   0  0  0  0  0  0  0  0  0  0  0  0
  153.0015  139.2851  156.6064 N   0  0  0  0  0  0  0  0  0  0  0  0
  151.9914  141.5629  155.5344 H   0  0  0  0  0  0  0  0  0  0  0  0
  148.8792  139.4749  155.2908 H   0  0  0  0  0  0  0  0  0  0  0  0
  148.9324  142.4059  156.1352 H   0  0  0  0  0  0  0  0  0  0  0  0
  150.7654  141.9412  157.4874 H   0  0  0  0  0  0  0  0  0  0  0  0
  155.2394  135.4280  157.2740 H   0  0  0  0  0  0  0  0  0  0  0  0
  151.0812  138.3260  154.2202 H   0  0  0  0  0  0  0  0  0  0  0  0
  147.0055  141.0280  154.4448 H   0  0  0  0  0  0  0  0  0  0  0  0
  148.2306  142.0539  153.7164 H   0  0  0  0  0  0  0  0  0  0  0  0
  148.8024  140.3063  152.4183 H   0  0  0  0  0  0  0  0  0  0  0  0
  147.6294  141.7752  157.6647 H   0  0  0  0  0  0  0  0  0  0  0  0
  150.2459  139.1765  157.4198 H   0  0  0  0  0  0  0  0  0  0  0  0
  1  2  1  0  0  0  0
  1 22  1  0  0  0  0
  2  3  2  0  0  0  0
  2  4  1  0  0  0  0
  4 17  2  0  0  0  0
  4  5  1  0  0  0  0
  5  6  2  0  0  0  0
  6  7  1  0  0  0  0
  6 23  1  0  0  0  0
  7  8  1  0  0  0  0
  7 17  1  0  0  0  0
  8 18  1  0  0  0  0
  8 15  1  0  0  0  0
  8  9  1  0  0  0  0
  9 10  1  0  0  0  0
 10 19  1  0  0  0  0
 10 11  1  0  0  0  0
 10 13  1  0  0  0  0
 11 12  1  0  0  0  0
 11 24  1  0  0  0  0
 11 25  1  0  0  0  0
 12 26  1  0  0  0  0
 13 20  1  0  0  0  0
 13 14  1  0  0  0  0
 13 15  1  0  0  0  0
 14 27  1  0  0  0  0
 15 21  1  0  0  0  0
 15 16  1  0  0  0  0
 16 28  1  0  0  0  0
M  CHG  1   1  -1
M  END
> <s_m_source_file>
AV-unprocessed.smi

> <i_m_source_file_index>
160

> <i_lp_mmshare_version>
43012

> <i_f3d_flags>
0

> <s_epik_input>
W05IMl1DKD1PKWMxbltjSF1uKG4xKVtDQEBIXTJPW0NASF0oW0NIMl1bT0hdKVtDQEBIXShbT0hdKVtDQEhdMltPSF0=

> <s_epik_cmdline>
J2VwaWtfcHl0aG9uJywgJy1waCcsICc3LjAnLCAnLXRuJywgJzgnLCAnLW1hJywgJzIwMCcsICctbWV0YWxfYmluZGluZycsICctaW1hZScsICc8aW5maWxlLm1hZT4nLCAnLW9tYWUnLCAnPG91dGZpbGUubWFlPic=

> <r_lp_tautomer_probability>
1

> <r_epik_Ionization_Penalty>
6.6993

> <r_epik_Ionization_Penalty_Charging>
6.6993

> <r_epik_Ionization_Penalty_Neutral>
6.01698e-06

> <r_epik_State_Penalty>
6.69929

> <r_epik_Charging_Adjusted_Penalty>
13.3986

> <i_epik_Tot_Q>
-1

> <i_epik_Tot_abs_Q>
1

> <r_epik_Metal_State_Penalty>
2.62798

> <b_epik_Metal_Only>
1

> <s_epik_Chemistry_Notes>
This compound contains an acetal/aminal-like group ( X-CH(R)-Y where X, Y are N, S, or O) that may be acid/base labile, releasing an aldehyde.

> <s_lp_Force_Field>
OPLS_2005

> <r_lp_Energy>
50.1609

> <b_lp_Chiralities_Consistent>
1

> <s_lp_Variant>
AV-unprocessed.smi:160-18

> <Gold.Version>
5.8.1

> <Gold.Id.Protein>
6NUR|6NUR_protein|mol2

> <Gold.PLP.Fitness>
39.8499

> <Gold.PLP.PLP>
-24.5199

> <Gold.PLP.part.hbond>
-5.5527

> <Gold.PLP.part.metal>
0.0000

> <Gold.PLP.part.buried>
-2.2414

> <Gold.PLP.part.nonpolar>
-16.3794

> <Gold.PLP.part.repulsive>
0.1497

> <Gold.PLP.ligand.clash>
0.0000

> <Gold.PLP.ligand.torsion>
0.2667

> <Gold.PLP.Chemscore.Hbond>
5.2826

> <Gold.PLP.Chemscore.CHOScore>
0.0000

> <Gold.PLP.Chemscore.Metal>
0.0000

> <Gold.Chemscore.Hbonds>
donor molecule, donor type, donor heavy atom, donor atom, acceptor molecule, acceptor atom, score
      L1  H    12    26       P1  7957  0.92
      P1  H  7989  7998       L1     9  0.53
      P1  H  7997  8009       L1     3  0.35
      P1  H  7997  8010       L1    17  1.00
      P1  H 10752 10763       L1     1  2.00
      P1  H 10752 10765       L1     5  0.43

> <Gold.PLP.Chemscore.Internal.Correction>
0.0155

> <Gold.Rescore>
     Score         DG    S(hbond)    S(metal)    S(lipo)     H(rot)  DE(clash)    DE(int)     intcor
      7.73      -8.22       3.16        0.00      21.50       4.04       0.02       0.46       ----

> <Gold.Chemscore.Fitness>
7.7336

> <Gold.Chemscore.DG>
-8.2200

> <Gold.Chemscore.ZeroCoef>
-5.4800

> <Gold.Chemscore.Hbond>
3.1641

> <Gold.Chemscore.Metal>
0.0000

> <Gold.Chemscore.Lipo>
21.4968

> <Gold.Chemscore.Internal_Hbond>
0.0000

> <Gold.Chemscore.DEClash>
0.0222

> <Gold.Chemscore.DEInternal>
0.4643

> <Gold.Chemscore.Rot>
4.0403

> <Gold.Chemscore.Internal.Correction>
   9.000000E+99

> <Gold.Chemscore.Hbonds>
donor molecule, donor type, donor heavy atom, donor atom, acceptor molecule, acceptor atom, score
      L1  H    12    26       P1  7957  0.83
      P1  H  7989  7998       L1     9  0.05
      P1  H  7997  8009       L1     3  0.35
      P1  H  7997  8010       L1    17  0.24
      P1  H 10752 10763       L1     1  0.48
      P1  H 10752 10765       L1     5  0.42

> <Gold.Chemscore.Hbond.Weighted>
-10.5680

> <Gold.Chemscore.Metal.Weighted>
-0.0000

> <Gold.Chemscore.Lipo.Weighted>
-2.5151

> <Gold.Chemscore.Internal_Hbond.Weighted>
0.0000

> <Gold.Chemscore.DEClash.Weighted>
0.0222

> <Gold.Chemscore.DEInternal.Weighted>
0.4643

> <Gold.Chemscore.Rot.Weighted>
10.3431

> <Gold.Chemscore.Internal.Correction.Weighted>
   9.000000E+99

> <Gold.Protein.RotatedTorsions>
[ 6907 6896 6895 6894 ] final  105.79 input  -60.11 | X-H torsion
[ 7974 7965 7964 7962 ] final  142.05 input  175.53 | X-H torsion
[ 8008 7997 7996 7995 ] final   86.16 input   59.86 | X-H torsion
[ 10167 10162 10161 10158 ] final   56.20 input  -65.29 | X-H torsion
[ 10718 10713 10712 10709 ] final  153.60 input   66.30 | X-H torsion
[ 10763 10752 10751 10750 ] final  166.20 input  -60.55 | X-H torsion
[ 11005 11000 10999 10996 ] final  106.30 input  -57.11 | X-H torsion

> <Gold.Protein.ActiveResidues>
 VAL166  LYS551  ARG553  GLY616  TRP617  ASP618  TYR619  PRO620  LYS621  CYS622 
 ASP623  PHE694  ASN695  SER759  ASP760  ASP761  ALA762  ILE779  LEU786  VAL792 
 PHE793  MET794  SER795  GLU796  ALA797  LYS798  CYS799  TRP800  GLU811  SER814 

> <Gold.Protein.RotatedAtoms>
  152.5218  133.9476  159.7656 H   0  0  0  0  0  0  0  0  0  0  0  0  # atno 6907 bound_to 6896
  150.9793  133.6254  159.2732 H   0  0  0  0  0  0  0  0  0  0  0  0  # atno 6908 bound_to 6896
  151.3437  135.0875  159.9432 H   0  0  0  0  0  0  0  0  0  0  0  0  # atno 6909 bound_to 6896
  144.9042  139.5381  143.5739 H   0  0  0  0  0  0  0  0  0  0  0  0  # atno 7974 bound_to 7965
  155.9592  140.3395  155.6476 H   0  0  0  0  0  0  0  0  0  0  0  0  # atno 8008 bound_to 7997
  155.6820  140.0739  157.2499 H   0  0  0  0  0  0  0  0  0  0  0  0  # atno 8009 bound_to 7997
  154.4139  140.1672  156.1980 H   0  0  0  0  0  0  0  0  0  0  0  0  # atno 8010 bound_to 7997
  140.2113  144.3886  150.6488 H   0  0  0  0  0  0  0  0  0  0  0  0  # atno 10167 bound_to 10162
  157.2427  131.0762  151.1782 H   0  0  0  0  0  0  0  0  0  0  0  0  # atno 10718 bound_to 10713
  154.3355  135.2754  155.2450 H   0  0  0  0  0  0  0  0  0  0  0  0  # atno 10763 bound_to 10752
  154.4743  135.5875  153.6347 H   0  0  0  0  0  0  0  0  0  0  0  0  # atno 10764 bound_to 10752
  152.9862  135.6096  154.3551 H   0  0  0  0  0  0  0  0  0  0  0  0  # atno 10765 bound_to 10752
  139.8812  134.9365  156.5646 H   0  0  0  0  0  0  0  0  0  0  0  0  # atno 11005 bound_to 11000
  146.3125  139.7797  142.9009 LP  0  0  0  0  0  0  0  0  0  0  0  0  # atno 17320 bound_to 7965
  145.3564  141.0317  143.3309 LP  0  0  0  0  0  0  0  0  0  0  0  0  # atno 17321 bound_to 7965
  140.6321  143.2189  151.6472 LP  0  0  0  0  0  0  0  0  0  0  0  0  # atno 17342 bound_to 10162
  139.5179  144.3301  152.0834 LP  0  0  0  0  0  0  0  0  0  0  0  0  # atno 17343 bound_to 10162
  157.3362  130.7010  149.6354 LP  0  0  0  0  0  0  0  0  0  0  0  0  # atno 17370 bound_to 10713
  155.9669  130.4293  150.4827 LP  0  0  0  0  0  0  0  0  0  0  0  0  # atno 17371 bound_to 10713
  140.8144  133.8404  155.8838 LP  0  0  0  0  0  0  0  0  0  0  0  0  # atno 17394 bound_to 11000
  140.9477  134.1819  157.4751 LP  0  0  0  0  0  0  0  0  0  0  0  0  # atno 17395 bound_to 11000

$$$$
