AV-unprocessed.smi:36|AV-procd|sdf|302|dock2
  -GOLD-   2262016103D 1   1.00000     0.00000
 Structure written by MMmdl.
 63 66  0  0  0  0  0  0  0  0  2 V2000
  153.6968  129.7872  154.5679 C   0  0  0  0  0  0  0  0  0  0  0  0
  152.9380  128.8623  155.5338 C   0  0  0  0  0  0  0  0  0  0  0  0
  152.7207  127.4869  154.8811 C   0  0  0  0  0  0  0  0  0  0  0  0
  153.7394  128.6970  156.8355 C   0  0  0  0  0  0  0  0  0  0  0  0
  151.2371  129.6298  155.9428 Si  0  0  0  0  0  0  0  0  0  0  0  0
  150.2635  130.0282  154.3606 C   0  0  0  0  0  0  0  0  0  0  0  0
  150.2161  128.4754  157.0543 C   0  0  0  0  0  0  0  0  0  0  0  0
  151.5078  131.0761  156.7773 O   0  0  0  0  0  0  0  0  0  0  0  0
  150.5443  131.6926  157.6050 C   0  0  0  0  0  0  0  0  0  0  0  0
  150.1545  133.0487  157.0038 C   0  0  1  0  0  0  0  0  0  0  0  0
  151.3215  133.8300  156.7689 O   0  0  0  0  0  0  0  0  0  0  0  0
  151.1019  134.7114  155.7060 C   0  0  2  0  0  0  0  0  0  0  0  0
  151.1069  136.1059  156.2425 N   0  0  0  0  0  0  0  0  0  0  0  0
  151.2827  136.5185  157.5148 C   0  0  0  0  0  0  0  0  0  0  0  0
  151.2428  137.8291  157.7453 N   0  0  0  0  0  0  0  0  0  0  0  0
  151.0128  138.3306  156.4726 C   0  0  0  0  0  0  0  0  0  0  0  0
  150.8535  139.6544  155.9789 C   0  0  0  0  0  0  0  0  0  0  0  0
  150.9226  140.7347  156.7718 N   0  5  0  0  0  0  0  0  0  0  0  0
  151.9908  140.9054  157.5913 C   0  0  0  0  0  0  0  0  0  0  0  0
  152.8565  140.0791  157.8881 O   0  0  0  0  0  0  0  0  0  0  0  0
  152.0395  142.2675  158.2300 C   0  0  0  0  0  0  0  0  0  0  0  0
  151.2455  143.3144  157.7089 C   0  0  0  0  0  0  0  0  0  0  0  0
  151.2535  144.5875  158.3114 C   0  0  0  0  0  0  0  0  0  0  0  0
  152.0492  144.8252  159.4478 C   0  0  0  0  0  0  0  0  0  0  0  0
  152.8343  143.7872  159.9833 C   0  0  0  0  0  0  0  0  0  0  0  0
  152.8268  142.5137  159.3815 C   0  0  0  0  0  0  0  0  0  0  0  0
  150.6458  139.7917  154.6442 N   0  0  0  0  0  0  0  0  0  0  0  0
  150.5822  138.7126  153.8548 C   0  0  0  0  0  0  0  0  0  0  0  0
  150.7044  137.4220  154.1826 N   0  0  0  0  0  0  0  0  0  0  0  0
  150.9251  137.2730  155.5213 C   0  0  0  0  0  0  0  0  0  0  0  0
  149.7299  134.3791  155.1080 C   0  0  0  0  0  0  0  0  0  0  0  0
  149.4986  132.9730  155.6244 C   0  0  2  0  0  0  0  0  0  0  0  0
  148.1185  132.6765  155.6936 O   0  0  0  0  0  0  0  0  0  0  0  0
  154.6748  129.3767  154.3141 H   0  0  0  0  0  0  0  0  0  0  0  0
  153.8582  130.7723  155.0063 H   0  0  0  0  0  0  0  0  0  0  0  0
  153.1477  129.9271  153.6365 H   0  0  0  0  0  0  0  0  0  0  0  0
  152.1647  127.5727  153.9473 H   0  0  0  0  0  0  0  0  0  0  0  0
  152.1586  126.8220  155.5379 H   0  0  0  0  0  0  0  0  0  0  0  0
  153.6700  127.0009  154.6539 H   0  0  0  0  0  0  0  0  0  0  0  0
  154.7132  128.2434  156.6466 H   0  0  0  0  0  0  0  0  0  0  0  0
  153.2119  128.0613  157.5472 H   0  0  0  0  0  0  0  0  0  0  0  0
  153.9145  129.6582  157.3193 H   0  0  0  0  0  0  0  0  0  0  0  0
  150.0903  129.1356  153.7600 H   0  0  0  0  0  0  0  0  0  0  0  0
  150.7934  130.7452  153.7339 H   0  0  0  0  0  0  0  0  0  0  0  0
  149.2889  130.4583  154.5903 H   0  0  0  0  0  0  0  0  0  0  0  0
  150.0421  127.5111  156.5777 H   0  0  0  0  0  0  0  0  0  0  0  0
  149.2405  128.9018  157.2854 H   0  0  0  0  0  0  0  0  0  0  0  0
  150.7185  128.2841  158.0021 H   0  0  0  0  0  0  0  0  0  0  0  0
  149.6700  131.0435  157.6584 H   0  0  0  0  0  0  0  0  0  0  0  0
  150.9255  131.8089  158.6199 H   0  0  0  0  0  0  0  0  0  0  0  0
  149.5186  133.6008  157.6984 H   0  0  0  0  0  0  0  0  0  0  0  0
  151.9245  134.6618  154.9918 H   0  0  0  0  0  0  0  0  0  0  0  0
  151.4489  135.8183  158.3198 H   0  0  0  0  0  0  0  0  0  0  0  0
  150.6268  143.1476  156.8389 H   0  0  0  0  0  0  0  0  0  0  0  0
  150.6463  145.3810  157.9021 H   0  0  0  0  0  0  0  0  0  0  0  0
  152.0539  145.8006  159.9109 H   0  0  0  0  0  0  0  0  0  0  0  0
  153.4404  143.9656  160.8593 H   0  0  0  0  0  0  0  0  0  0  0  0
  153.4273  141.7273  159.8157 H   0  0  0  0  0  0  0  0  0  0  0  0
  150.4098  138.9126  152.8078 H   0  0  0  0  0  0  0  0  0  0  0  0
  148.9770  135.0671  155.4979 H   0  0  0  0  0  0  0  0  0  0  0  0
  149.7456  134.4509  154.0201 H   0  0  0  0  0  0  0  0  0  0  0  0
  150.0101  132.2485  154.9891 H   0  0  0  0  0  0  0  0  0  0  0  0
  147.8059  132.4982  154.8198 H   0  0  0  0  0  0  0  0  0  0  0  0
  1  2  1  0  0  0  0
  1 34  1  0  0  0  0
  1 35  1  0  0  0  0
  1 36  1  0  0  0  0
  2  3  1  0  0  0  0
  2  4  1  0  0  0  0
  2  5  1  0  0  0  0
  3 37  1  0  0  0  0
  3 38  1  0  0  0  0
  3 39  1  0  0  0  0
  4 40  1  0  0  0  0
  4 41  1  0  0  0  0
  4 42  1  0  0  0  0
  5  6  1  0  0  0  0
  5  7  1  0  0  0  0
  5  8  1  0  0  0  0
  6 43  1  0  0  0  0
  6 44  1  0  0  0  0
  6 45  1  0  0  0  0
  7 46  1  0  0  0  0
  7 47  1  0  0  0  0
  7 48  1  0  0  0  0
  8  9  1  0  0  0  0
  9 10  1  0  0  0  0
  9 49  1  0  0  0  0
  9 50  1  0  0  0  0
 10 32  1  0  0  0  0
 10 11  1  0  0  0  0
 10 51  1  0  0  0  0
 11 12  1  0  0  0  0
 12 13  1  0  0  0  0
 12 31  1  0  0  0  0
 12 52  1  0  0  0  0
 13 30  1  0  0  0  0
 13 14  1  0  0  0  0
 14 15  2  0  0  0  0
 14 53  1  0  0  0  0
 15 16  1  0  0  0  0
 16 30  2  0  0  0  0
 16 17  1  0  0  0  0
 17 18  1  0  0  0  0
 17 27  2  0  0  0  0
 18 19  1  0  0  0  0
 19 20  2  0  0  0  0
 19 21  1  0  0  0  0
 21 26  1  0  0  0  0
 21 22  2  0  0  0  0
 22 23  1  0  0  0  0
 22 54  1  0  0  0  0
 23 24  2  0  0  0  0
 23 55  1  0  0  0  0
 24 25  1  0  0  0  0
 24 56  1  0  0  0  0
 25 26  2  0  0  0  0
 25 57  1  0  0  0  0
 26 58  1  0  0  0  0
 27 28  1  0  0  0  0
 28 29  2  0  0  0  0
 28 59  1  0  0  0  0
 29 30  1  0  0  0  0
 31 32  1  0  0  0  0
 31 60  1  0  0  0  0
 31 61  1  0  0  0  0
 32 33  1  0  0  0  0
 32 62  1  0  0  0  0
 33 63  1  0  0  0  0
M  CHG  1  18  -1
M  END
> <s_m_source_file>
AV-unprocessed.smi

> <i_m_source_file_index>
36

> <i_lp_mmshare_version>
43012

> <i_f3d_flags>
0

> <s_epik_input>
W0NIM11DKFtDSDNdKShbQ0gzXSlbU2ldKFtDSDNdKShbQ0gzXSlPW0NIMl1bQ0BASF0xT1tDQEhdKFtDSDJdW0NASF0xW09IXSluKFtjSF1uMiljKGMyMyluW2NIXW5jM1tOSF1DKD1PKWM0W2NIXVtjSF1bY0hdW2NIXVtjSF00

> <s_epik_cmdline>
J2VwaWtfcHl0aG9uJywgJy1waCcsICc3LjAnLCAnLXRuJywgJzgnLCAnLW1hJywgJzIwMCcsICctbWV0YWxfYmluZGluZycsICctaW1hZScsICc8aW5maWxlLm1hZT4nLCAnLW9tYWUnLCAnPG91dGZpbGUubWFlPic=

> <r_lp_tautomer_probability>
1

> <r_epik_Ionization_Penalty>
4.75685

> <r_epik_Ionization_Penalty_Charging>
3.55822

> <r_epik_Ionization_Penalty_Neutral>
1.19863

> <r_epik_State_Penalty>
3.564

> <r_epik_Charging_Adjusted_Penalty>
7.12222

> <i_epik_Tot_Q>
-1

> <i_epik_Tot_abs_Q>
1

> <r_epik_Metal_State_Penalty>
0.523258

> <b_epik_Metal_Only>
1

> <s_epik_Chemistry_Notes>
This compound contains an acetal/aminal-like group ( X-CH(R)-Y where X, Y are N, S, or O) that may be acid/base labile, releasing an aldehyde.

> <s_lp_Force_Field>
OPLS_2005

> <r_lp_Energy>
39.042

> <b_lp_Chiralities_Consistent>
1

> <s_lp_Variant>
AV-unprocessed.smi:36-24

> <Gold.Version>
5.8.1

> <Gold.Id.Protein>
6NUR|6NUR_protein|mol2

> <Gold.PLP.Fitness>
52.8182

> <Gold.PLP.PLP>
-46.3237

> <Gold.PLP.part.hbond>
-2.6580

> <Gold.PLP.part.metal>
0.0000

> <Gold.PLP.part.buried>
-6.1774

> <Gold.PLP.part.nonpolar>
-38.1582

> <Gold.PLP.part.repulsive>
0.8038

> <Gold.PLP.ligand.clash>
0.0000

> <Gold.PLP.ligand.torsion>
1.3708

> <Gold.PLP.Chemscore.Hbond>
1.9000

> <Gold.PLP.Chemscore.CHOScore>
0.9951

> <Gold.PLP.Chemscore.Metal>
0.0000

> <Gold.Chemscore.Hbonds>
donor molecule, donor type, donor heavy atom, donor atom, acceptor molecule, acceptor atom, score
      P1  H  7989  7998       L1    27  0.85
      P1  H  7997  8008       L1    20  1.00
      L1  C    28    59       P1  7957  1.00

> <Gold.PLP.Chemscore.Internal.Correction>
0.5510

> <Gold.Rescore>
     Score         DG    S(hbond)    S(metal)    S(lipo)     H(rot)  DE(clash)    DE(int)     intcor
     11.83     -15.83       1.22        0.00     112.12       2.67       0.28       3.71       ----

> <Gold.Chemscore.Fitness>
11.8309

> <Gold.Chemscore.DG>
-15.8295

> <Gold.Chemscore.ZeroCoef>
-5.4800

> <Gold.Chemscore.Hbond>
1.2178

> <Gold.Chemscore.Metal>
0.0000

> <Gold.Chemscore.Lipo>
112.1167

> <Gold.Chemscore.Internal_Hbond>
0.0000

> <Gold.Chemscore.DEClash>
0.2838

> <Gold.Chemscore.DEInternal>
3.7148

> <Gold.Chemscore.Rot>
2.6702

> <Gold.Chemscore.Internal.Correction>
   9.000000E+99

> <Gold.Chemscore.Hbonds>
donor molecule, donor type, donor heavy atom, donor atom, acceptor molecule, acceptor atom, score
      P1  H  7989  7998       L1    27  0.15
      P1  H  7997  8008       L1    20  0.94

> <Gold.Chemscore.Hbond.Weighted>
-4.0676

> <Gold.Chemscore.Metal.Weighted>
-0.0000

> <Gold.Chemscore.Lipo.Weighted>
-13.1177

> <Gold.Chemscore.Internal_Hbond.Weighted>
0.0000

> <Gold.Chemscore.DEClash.Weighted>
0.2838

> <Gold.Chemscore.DEInternal.Weighted>
3.7148

> <Gold.Chemscore.Rot.Weighted>
6.8358

> <Gold.Chemscore.Internal.Correction.Weighted>
   9.000000E+99

> <Gold.Protein.RotatedTorsions>
[ 6907 6896 6895 6894 ] final -119.08 input  -60.11 | X-H torsion
[ 7974 7965 7964 7962 ] final   69.78 input  175.53 | X-H torsion
[ 8008 7997 7996 7995 ] final  -76.98 input   59.86 | X-H torsion
[ 10167 10162 10161 10158 ] final   36.45 input  -65.29 | X-H torsion
[ 10718 10713 10712 10709 ] final  -69.32 input   66.30 | X-H torsion
[ 10763 10752 10751 10750 ] final   54.93 input  -60.55 | X-H torsion
[ 11005 11000 10999 10996 ] final  -57.54 input  -57.11 | X-H torsion

> <Gold.Protein.ActiveResidues>
 VAL166  LYS551  ARG553  GLY616  TRP617  ASP618  TYR619  PRO620  LYS621  CYS622 
 ASP623  PHE694  ASN695  SER759  ASP760  ASP761  ALA762  ILE779  LEU786  VAL792 
 PHE793  MET794  SER795  GLU796  ALA797  LYS798  CYS799  TRP800  GLU811  SER814 

> <Gold.Protein.RotatedAtoms>
  150.8275  133.8148  159.3112 H   0  0  0  0  0  0  0  0  0  0  0  0  # atno 6907 bound_to 6896
  151.5888  135.1053  160.0043 H   0  0  0  0  0  0  0  0  0  0  0  0  # atno 6908 bound_to 6896
  152.4358  133.7317  159.6647 H   0  0  0  0  0  0  0  0  0  0  0  0  # atno 6909 bound_to 6896
  145.7863  139.2912  143.1236 H   0  0  0  0  0  0  0  0  0  0  0  0  # atno 7974 bound_to 7965
  154.5555  140.0718  156.8736 H   0  0  0  0  0  0  0  0  0  0  0  0  # atno 8008 bound_to 7997
  155.2911  140.3378  155.4234 H   0  0  0  0  0  0  0  0  0  0  0  0  # atno 8009 bound_to 7997
  156.1998  140.1717  156.7909 H   0  0  0  0  0  0  0  0  0  0  0  0  # atno 8010 bound_to 7997
  140.4126  144.1571  150.6140 H   0  0  0  0  0  0  0  0  0  0  0  0  # atno 10167 bound_to 10162
  156.0461  130.4310  150.2130 H   0  0  0  0  0  0  0  0  0  0  0  0  # atno 10718 bound_to 10713
  152.9810  135.5728  154.4984 H   0  0  0  0  0  0  0  0  0  0  0  0  # atno 10763 bound_to 10752
  154.4507  135.2778  155.1785 H   0  0  0  0  0  0  0  0  0  0  0  0  # atno 10764 bound_to 10752
  154.3413  135.6228  153.5651 H   0  0  0  0  0  0  0  0  0  0  0  0  # atno 10765 bound_to 10752
  141.1169  133.6610  156.4785 H   0  0  0  0  0  0  0  0  0  0  0  0  # atno 11005 bound_to 11000
  146.0023  140.8509  143.0012 LP  0  0  0  0  0  0  0  0  0  0  0  0  # atno 17320 bound_to 7965
  144.6788  140.2370  143.7348 LP  0  0  0  0  0  0  0  0  0  0  0  0  # atno 17321 bound_to 7965
  140.4621  143.2445  151.9205 LP  0  0  0  0  0  0  0  0  0  0  0  0  # atno 17342 bound_to 10162
  139.4782  144.5456  151.8462 LP  0  0  0  0  0  0  0  0  0  0  0  0  # atno 17343 bound_to 10162
  157.0220  130.9982  151.3337 LP  0  0  0  0  0  0  0  0  0  0  0  0  # atno 17370 bound_to 10713
  157.5338  130.8075  149.7947 LP  0  0  0  0  0  0  0  0  0  0  0  0  # atno 17371 bound_to 10713
  140.4620  134.6832  157.5090 LP  0  0  0  0  0  0  0  0  0  0  0  0  # atno 17394 bound_to 11000
  140.0097  134.6709  155.9399 LP  0  0  0  0  0  0  0  0  0  0  0  0  # atno 17395 bound_to 11000

$$$$
