AV-unprocessed.smi:246|AV-procd|sdf|1883|dock1
  -GOLD-   2262020533D 1   1.00000     0.00000
 Structure written by MMmdl.
 57 60  0  0  0  0  0  0  0  0  1 V2000
  145.5204  132.1872  150.2770 C   0  0  0  0  0  0  0  0  0  0  0  0
  145.9233  132.4794  151.7293 C   0  0  0  0  0  0  0  0  0  0  0  0
  147.1359  133.2159  151.8057 O   0  0  0  0  0  0  0  0  0  0  0  0
  147.8116  133.1056  153.0500 C   0  0  0  0  0  0  0  0  0  0  0  0
  147.3260  134.2249  153.9749 C   0  0  0  0  0  0  0  0  0  0  0  0
  147.7606  133.9515  155.2985 O   0  0  0  0  0  0  0  0  0  0  0  0
  149.1201  134.2886  155.5301 C   0  0  2  0  0  0  0  0  0  0  0  0
  149.5035  134.0355  156.9892 C   0  0  0  0  0  0  0  0  0  0  0  0
  150.6872  134.9783  157.2229 C   0  0  0  0  0  0  0  0  0  0  0  0
  150.4972  136.0653  156.2725 N   0  0  0  0  0  0  0  0  0  0  0  0
  151.1023  137.2743  156.3919 C   0  0  0  0  0  0  0  0  0  0  0  0
  150.9649  138.1624  155.3721 N   0  0  0  0  0  0  0  0  0  0  0  0
  151.5307  139.3702  155.4421 C   0  0  0  0  0  0  0  0  0  0  0  0
  152.2657  139.8901  156.4251 N   0  0  0  0  0  0  0  0  0  0  0  0
  152.4144  139.0058  157.4521 C   0  0  0  0  0  0  0  0  0  0  0  0
  151.8715  137.6898  157.5198 C   0  0  0  0  0  0  0  0  0  0  0  0
  152.2408  137.0980  158.7237 N   0  0  0  0  0  0  0  0  0  0  0  0
  152.9581  138.0055  159.3266 C   0  0  0  0  0  0  0  0  0  0  0  0
  153.1163  139.1818  158.6319 N   0  0  0  0  0  0  0  0  0  0  0  0
  153.8626  140.3526  159.0660 C   0  0  0  0  0  0  0  0  0  0  0  0
  153.1381  141.1860  160.1464 C   0  0  1  0  0  0  0  0  0  0  0  0
  154.1008  141.7629  161.0079 O   0  0  0  0  0  0  0  0  0  0  0  0
  152.2462  142.3079  159.5763 C   0  0  2  0  0  0  0  0  0  0  0  0
  152.9947  143.3749  158.7753 C   0  0  0  0  0  0  0  0  0  0  0  0
  152.1126  144.6082  158.9064 C   0  0  0  0  0  0  0  0  0  0  0  0
  151.1513  144.2598  160.0456 C   0  0  0  0  0  0  0  0  0  0  0  0
  151.6869  143.0805  160.6267 O   0  0  0  0  0  0  0  0  0  0  0  0
  149.4050  135.7849  155.3561 C   0  0  0  0  0  0  0  0  0  0  0  0
  149.7821  133.7033  154.8890 H   0  0  0  0  0  0  0  0  0  0  0  0
  144.6490  131.5328  150.2442 H   0  0  0  0  0  0  0  0  0  0  0  0
  146.3285  131.6905  149.7397 H   0  0  0  0  0  0  0  0  0  0  0  0
  145.2649  133.0969  149.7347 H   0  0  0  0  0  0  0  0  0  0  0  0
  145.1216  132.9903  152.2647 H   0  0  0  0  0  0  0  0  0  0  0  0
  146.0845  131.5328  152.2455 H   0  0  0  0  0  0  0  0  0  0  0  0
  147.6466  132.1339  153.5157 H   0  0  0  0  0  0  0  0  0  0  0  0
  148.8846  133.2141  152.8864 H   0  0  0  0  0  0  0  0  0  0  0  0
  147.7500  135.1764  153.6505 H   0  0  0  0  0  0  0  0  0  0  0  0
  146.2404  134.3146  153.9187 H   0  0  0  0  0  0  0  0  0  0  0  0
  148.6777  134.3242  157.6413 H   0  0  0  0  0  0  0  0  0  0  0  0
  149.7432  132.9918  157.1936 H   0  0  0  0  0  0  0  0  0  0  0  0
  150.7141  135.3305  158.2548 H   0  0  0  0  0  0  0  0  0  0  0  0
  151.6312  134.4779  157.0037 H   0  0  0  0  0  0  0  0  0  0  0  0
  151.3707  140.0125  154.5886 H   0  0  0  0  0  0  0  0  0  0  0  0
  153.3986  137.8398  160.2991 H   0  0  0  0  0  0  0  0  0  0  0  0
  154.8324  140.0225  159.4396 H   0  0  0  0  0  0  0  0  0  0  0  0
  154.0700  140.9707  158.1917 H   0  0  0  0  0  0  0  0  0  0  0  0
  152.5253  140.5113  160.7453 H   0  0  0  0  0  0  0  0  0  0  0  0
  153.6488  142.1755  161.7280 H   0  0  0  0  0  0  0  0  0  0  0  0
  151.4384  141.8951  158.9689 H   0  0  0  0  0  0  0  0  0  0  0  0
  153.9676  143.5741  159.2269 H   0  0  0  0  0  0  0  0  0  0  0  0
  153.1595  143.0816  157.7380 H   0  0  0  0  0  0  0  0  0  0  0  0
  152.7113  145.4892  159.1408 H   0  0  0  0  0  0  0  0  0  0  0  0
  151.5623  144.8102  157.9866 H   0  0  0  0  0  0  0  0  0  0  0  0
  151.0653  145.0584  160.7827 H   0  0  0  0  0  0  0  0  0  0  0  0
  150.1546  144.0459  159.6565 H   0  0  0  0  0  0  0  0  0  0  0  0
  149.6678  136.0219  154.3250 H   0  0  0  0  0  0  0  0  0  0  0  0
  148.5377  136.3807  155.6435 H   0  0  0  0  0  0  0  0  0  0  0  0
  1  2  1  0  0  0  0
  1 30  1  0  0  0  0
  1 31  1  0  0  0  0
  1 32  1  0  0  0  0
  2  3  1  0  0  0  0
  2 33  1  0  0  0  0
  2 34  1  0  0  0  0
  3  4  1  0  0  0  0
  4  5  1  0  0  0  0
  4 35  1  0  0  0  0
  4 36  1  0  0  0  0
  5  6  1  0  0  0  0
  5 37  1  0  0  0  0
  5 38  1  0  0  0  0
  6  7  1  0  0  0  0
  7 29  1  0  0  0  0
  7 28  1  0  0  0  0
  7  8  1  0  0  0  0
  8  9  1  0  0  0  0
  8 39  1  0  0  0  0
  8 40  1  0  0  0  0
  9 10  1  0  0  0  0
  9 41  1  0  0  0  0
  9 42  1  0  0  0  0
 10 11  1  0  0  0  0
 10 28  1  0  0  0  0
 11 16  1  0  0  0  0
 11 12  2  0  0  0  0
 12 13  1  0  0  0  0
 13 14  2  0  0  0  0
 13 43  1  0  0  0  0
 14 15  1  0  0  0  0
 15 19  1  0  0  0  0
 15 16  2  0  0  0  0
 16 17  1  0  0  0  0
 17 18  2  0  0  0  0
 18 19  1  0  0  0  0
 18 44  1  0  0  0  0
 19 20  1  0  0  0  0
 20 21  1  0  0  0  0
 20 45  1  0  0  0  0
 20 46  1  0  0  0  0
 21 22  1  0  0  0  0
 21 23  1  0  0  0  0
 21 47  1  0  0  0  0
 22 48  1  0  0  0  0
 23 27  1  0  0  0  0
 23 24  1  0  0  0  0
 23 49  1  0  0  0  0
 24 25  1  0  0  0  0
 24 50  1  0  0  0  0
 24 51  1  0  0  0  0
 25 26  1  0  0  0  0
 25 52  1  0  0  0  0
 25 53  1  0  0  0  0
 26 27  1  0  0  0  0
 26 54  1  0  0  0  0
 26 55  1  0  0  0  0
 28 56  1  0  0  0  0
 28 57  1  0  0  0  0
M  END
> <s_m_source_file>
AV-unprocessed.smi

> <i_m_source_file_index>
246

> <i_lp_mmshare_version>
43012

> <i_f3d_flags>
0

> <s_epik_input>
W0NIM11bQ0gyXU9bQ0gyXVtDSDJdT1tDQEhdMVtDSDJdW0NIMl1OKFtDSDJdMSljKG5bY0hdbjIpYyhjMjMpbltjSF1uM1tDSDJdW0NASF0oW09IXSlbQ0BASF00W0NIMl1bQ0gyXVtDSDJdTzQ=

> <s_epik_cmdline>
J2VwaWtfcHl0aG9uJywgJy1waCcsICc3LjAnLCAnLXRuJywgJzgnLCAnLW1hJywgJzIwMCcsICctbWV0YWxfYmluZGluZycsICctaW1hZScsICc8aW5maWxlLm1hZT4nLCAnLW9tYWUnLCAnPG91dGZpbGUubWFlPic=

> <r_lp_tautomer_probability>
1

> <r_epik_Ionization_Penalty>
0.0024631

> <r_epik_Ionization_Penalty_Charging>
0

> <r_epik_Ionization_Penalty_Neutral>
0.0024631

> <r_epik_State_Penalty>
0.00162428

> <r_epik_Charging_Adjusted_Penalty>
0.00162428

> <i_epik_Tot_Q>
0

> <i_epik_Tot_abs_Q>
0

> <r_epik_Metal_State_Penalty>
-0

> <b_epik_Metal_Only>
0

> <s_lp_Force_Field>
OPLS_2005

> <r_lp_Energy>
48.0332

> <b_lp_Chiralities_Consistent>
1

> <s_lp_Variant>
AV-unprocessed.smi:246-4

> <Gold.Version>
5.8.1

> <Gold.Id.Protein>
6NUR|6NUR_protein|mol2

> <Gold.PLP.Fitness>
45.7642

> <Gold.PLP.PLP>
-42.6143

> <Gold.PLP.part.hbond>
-2.4135

> <Gold.PLP.part.metal>
0.0000

> <Gold.PLP.part.buried>
-3.7102

> <Gold.PLP.part.nonpolar>
-37.4927

> <Gold.PLP.part.repulsive>
0.4060

> <Gold.PLP.ligand.clash>
0.0000

> <Gold.PLP.ligand.torsion>
1.1514

> <Gold.PLP.Chemscore.Hbond>
1.5158

> <Gold.PLP.Chemscore.CHOScore>
0.0000

> <Gold.PLP.Chemscore.Metal>
0.0000

> <Gold.Chemscore.Hbonds>
donor molecule, donor type, donor heavy atom, donor atom, acceptor molecule, acceptor atom, score
      P1  H  6896  6908       L1    17  0.10
      P1  H  7997  8009       L1    14  0.51

> <Gold.PLP.Chemscore.Internal.Correction>
0.9052

> <Gold.Rescore>
     Score         DG    S(hbond)    S(metal)    S(lipo)     H(rot)  DE(clash)    DE(int)     intcor
     12.21     -15.56       1.73        0.00     104.66       3.10       1.31       2.05       ----

> <Gold.Chemscore.Fitness>
12.2085

> <Gold.Chemscore.DG>
-15.5632

> <Gold.Chemscore.ZeroCoef>
-5.4800

> <Gold.Chemscore.Hbond>
1.7307

> <Gold.Chemscore.Metal>
0.0000

> <Gold.Chemscore.Lipo>
104.6622

> <Gold.Chemscore.Internal_Hbond>
0.0000

> <Gold.Chemscore.DEClash>
1.3086

> <Gold.Chemscore.DEInternal>
2.0461

> <Gold.Chemscore.Rot>
3.1026

> <Gold.Chemscore.Internal.Correction>
   9.000000E+99

> <Gold.Chemscore.Hbonds>
donor molecule, donor type, donor heavy atom, donor atom, acceptor molecule, acceptor atom, score
      P1  H  6896  6908       L1    17  0.12
      P1  H  7997  8009       L1    14  0.04

> <Gold.Chemscore.Hbond.Weighted>
-5.7804

> <Gold.Chemscore.Metal.Weighted>
-0.0000

> <Gold.Chemscore.Lipo.Weighted>
-12.2455

> <Gold.Chemscore.Internal_Hbond.Weighted>
0.0000

> <Gold.Chemscore.DEClash.Weighted>
1.3086

> <Gold.Chemscore.DEInternal.Weighted>
2.0461

> <Gold.Chemscore.Rot.Weighted>
7.9426

> <Gold.Chemscore.Internal.Correction.Weighted>
   9.000000E+99

> <Gold.Protein.RotatedTorsions>
[ 6907 6896 6895 6894 ] final -118.43 input  -60.11 | X-H torsion
[ 7974 7965 7964 7962 ] final  -44.72 input  175.53 | X-H torsion
[ 8008 7997 7996 7995 ] final -157.89 input   59.86 | X-H torsion
[ 10167 10162 10161 10158 ] final   11.06 input  -65.29 | X-H torsion
[ 10718 10713 10712 10709 ] final -141.93 input   66.30 | X-H torsion
[ 10763 10752 10751 10750 ] final   47.62 input  -60.55 | X-H torsion
[ 11005 11000 10999 10996 ] final -161.58 input  -57.11 | X-H torsion

> <Gold.Protein.ActiveResidues>
 VAL166  LYS551  ARG553  GLY616  TRP617  ASP618  TYR619  PRO620  LYS621  CYS622 
 ASP623  PHE694  ASN695  SER759  ASP760  ASP761  ALA762  ILE779  LEU786  VAL792 
 PHE793  MET794  SER795  GLU796  ALA797  LYS798  CYS799  TRP800  GLU811  SER814 

> <Gold.Protein.RotatedAtoms>
  150.8219  133.8237  159.3134 H   0  0  0  0  0  0  0  0  0  0  0  0  # atno 6907 bound_to 6896
  151.5993  135.1046  160.0066 H   0  0  0  0  0  0  0  0  0  0  0  0  # atno 6908 bound_to 6896
  152.4308  133.7233  159.6602 H   0  0  0  0  0  0  0  0  0  0  0  0  # atno 6909 bound_to 6896
  145.9892  140.7199  142.9325 H   0  0  0  0  0  0  0  0  0  0  0  0  # atno 7974 bound_to 7965
  155.7392  140.0812  157.2253 H   0  0  0  0  0  0  0  0  0  0  0  0  # atno 8008 bound_to 7997
  154.4024  140.1581  156.2652 H   0  0  0  0  0  0  0  0  0  0  0  0  # atno 8009 bound_to 7997
  155.9036  140.3408  155.6048 H   0  0  0  0  0  0  0  0  0  0  0  0  # atno 8010 bound_to 7997
  140.6155  143.8316  150.7114 H   0  0  0  0  0  0  0  0  0  0  0  0  # atno 10167 bound_to 10162
  156.3399  130.7631  151.1766 H   0  0  0  0  0  0  0  0  0  0  0  0  # atno 10718 bound_to 10713
  152.9798  135.5970  154.3792 H   0  0  0  0  0  0  0  0  0  0  0  0  # atno 10763 bound_to 10752
  154.3458  135.2767  155.2400 H   0  0  0  0  0  0  0  0  0  0  0  0  # atno 10764 bound_to 10752
  154.4462  135.6001  153.6216 H   0  0  0  0  0  0  0  0  0  0  0  0  # atno 10765 bound_to 10752
  140.6188  134.4772  157.5222 H   0  0  0  0  0  0  0  0  0  0  0  0  # atno 11005 bound_to 11000
  144.6884  140.3041  143.7258 LP  0  0  0  0  0  0  0  0  0  0  0  0  # atno 17320 bound_to 7965
  145.7655  139.1839  143.2243 LP  0  0  0  0  0  0  0  0  0  0  0  0  # atno 17321 bound_to 7965
  140.1894  143.4048  152.1874 LP  0  0  0  0  0  0  0  0  0  0  0  0  # atno 17342 bound_to 10162
  139.5395  144.7243  151.4779 LP  0  0  0  0  0  0  0  0  0  0  0  0  # atno 17343 bound_to 10162
  157.7445  131.0457  150.4859 LP  0  0  0  0  0  0  0  0  0  0  0  0  # atno 17370 bound_to 10713
  156.5037  130.4123  149.6339 LP  0  0  0  0  0  0  0  0  0  0  0  0  # atno 17371 bound_to 10713
  139.9162  134.8242  156.1360 LP  0  0  0  0  0  0  0  0  0  0  0  0  # atno 17394 bound_to 11000
  141.0757  133.6777  156.2230 LP  0  0  0  0  0  0  0  0  0  0  0  0  # atno 17395 bound_to 11000

$$$$
