AV-unprocessed.smi:2093|AV-procd|sdf|8547|dock5
  -GOLD-   2272011273D 1   1.00000     0.00000
 Structure written by MMmdl.
 31 32  0  0  0  0  0  0  0  0  1 V2000
  144.4430  136.2590  153.2160 C   0  0  0  0  0  0  0  0  0  0  0  0
  145.2540  136.6019  151.9569 C   0  0  1  0  0  0  0  0  0  0  0  0
  146.5770  137.0718  152.3628 N   0  0  0  0  0  0  0  0  0  0  0  0
  146.8311  138.1521  153.1160 C   0  0  0  0  0  0  0  0  0  0  0  0
  145.9560  138.8823  153.5820 O   0  0  0  0  0  0  0  0  0  0  0  0
  148.1541  138.3219  153.2856 N   0  0  0  0  0  0  0  0  0  0  0  0
  148.8230  139.3407  154.0133 C   0  0  0  0  0  0  0  0  0  0  0  0
  149.9738  139.1662  154.6739 N   0  0  0  0  0  0  0  0  0  0  0  0
  150.4025  140.3396  155.2996 C   0  0  0  0  0  0  0  0  0  0  0  0
  149.5605  141.4056  155.1032 C   0  0  0  0  0  0  0  0  0  0  0  0
  148.1874  140.9760  154.1184 S   0  0  0  0  0  0  0  0  0  0  0  0
  145.4115  135.3955  151.0112 C   0  0  1  0  0  0  0  0  0  0  0  0
  146.2101  134.2255  151.5899 C   0  0  0  0  0  0  0  0  0  0  0  0
  145.6735  133.0135  150.8428 C   0  0  0  0  0  0  0  0  0  0  0  0
  144.4018  133.5257  150.1621 C   0  0  0  0  0  0  0  0  0  0  0  0
  144.1526  134.7913  150.7554 O   0  0  0  0  0  0  0  0  0  0  0  0
  143.4302  135.9448  152.9630 H   0  0  0  0  0  0  0  0  0  0  0  0
  144.3590  137.1242  153.8747 H   0  0  0  0  0  0  0  0  0  0  0  0
  144.9104  135.4530  153.7827 H   0  0  0  0  0  0  0  0  0  0  0  0
  144.7205  137.3889  151.4210 H   0  0  0  0  0  0  0  0  0  0  0  0
  147.3646  136.5383  152.0255 H   0  0  0  0  0  0  0  0  0  0  0  0
  148.7537  137.6442  152.8390 H   0  0  0  0  0  0  0  0  0  0  0  0
  151.3217  140.3264  155.8665 H   0  0  0  0  0  0  0  0  0  0  0  0
  149.6645  142.4133  155.4768 H   0  0  0  0  0  0  0  0  0  0  0  0
  145.8496  135.7092  150.0613 H   0  0  0  0  0  0  0  0  0  0  0  0
  147.2863  134.3523  151.4695 H   0  0  0  0  0  0  0  0  0  0  0  0
  146.0021  134.1163  152.6553 H   0  0  0  0  0  0  0  0  0  0  0  0
  146.3868  132.6471  150.1038 H   0  0  0  0  0  0  0  0  0  0  0  0
  145.4573  132.1981  151.5343 H   0  0  0  0  0  0  0  0  0  0  0  0
  144.5662  133.6578  149.0916 H   0  0  0  0  0  0  0  0  0  0  0  0
  143.5537  132.8537  150.2960 H   0  0  0  0  0  0  0  0  0  0  0  0
  1  2  1  0  0  0  0
  1 17  1  0  0  0  0
  1 18  1  0  0  0  0
  1 19  1  0  0  0  0
  2  3  1  0  0  0  0
  2 12  1  0  0  0  0
  2 20  1  0  0  0  0
  3  4  1  0  0  0  0
  3 21  1  0  0  0  0
  4  5  2  0  0  0  0
  4  6  1  0  0  0  0
  6  7  1  0  0  0  0
  6 22  1  0  0  0  0
  7 11  1  0  0  0  0
  7  8  2  0  0  0  0
  8  9  1  0  0  0  0
  9 10  2  0  0  0  0
  9 23  1  0  0  0  0
 10 11  1  0  0  0  0
 10 24  1  0  0  0  0
 12 16  1  0  0  0  0
 12 13  1  0  0  0  0
 12 25  1  0  0  0  0
 13 14  1  0  0  0  0
 13 26  1  0  0  0  0
 13 27  1  0  0  0  0
 14 15  1  0  0  0  0
 14 28  1  0  0  0  0
 14 29  1  0  0  0  0
 15 16  1  0  0  0  0
 15 30  1  0  0  0  0
 15 31  1  0  0  0  0
M  END
> <s_m_source_file>
AV-unprocessed.smi

> <i_m_source_file_index>
2093

> <i_lp_mmshare_version>
43012

> <i_f3d_flags>
0

> <s_epik_input>
TzFbQ0gyXVtDSDJdW0NIMl1bQ0BIXTFbQ0BIXShbQ0gzXSlbTkhdQyg9TylbTkhdYzJuW2NIXVtjSF1zMg==

> <s_epik_cmdline>
J2VwaWtfcHl0aG9uJywgJy1waCcsICc3LjAnLCAnLXRuJywgJzgnLCAnLW1hJywgJzIwMCcsICctbWV0YWxfYmluZGluZycsICctaW1hZScsICc8aW5maWxlLm1hZT4nLCAnLW9tYWUnLCAnPG91dGZpbGUubWFlPic=

> <r_lp_tautomer_probability>
0.999

> <r_epik_Ionization_Penalty>
0.000334433

> <r_epik_Ionization_Penalty_Charging>
0

> <r_epik_Ionization_Penalty_Neutral>
0.000334433

> <r_epik_State_Penalty>
0.000177984

> <r_epik_Charging_Adjusted_Penalty>
0.000177984

> <i_epik_Tot_Q>
0

> <i_epik_Tot_abs_Q>
0

> <r_epik_Metal_State_Penalty>
0.00767616

> <b_epik_Metal_Only>
0

> <s_lp_Force_Field>
OPLS_2005

> <r_lp_Energy>
16.8099

> <b_lp_Chiralities_Consistent>
1

> <s_lp_Variant>
AV-unprocessed.smi:2093-4

> <Gold.Version>
5.8.1

> <Gold.Id.Protein>
6NUR|6NUR_protein|mol2

> <Gold.PLP.Fitness>
34.4347

> <Gold.PLP.PLP>
-25.9833

> <Gold.PLP.part.hbond>
-2.8163

> <Gold.PLP.part.metal>
0.0000

> <Gold.PLP.part.buried>
-2.6947

> <Gold.PLP.part.nonpolar>
-22.7040

> <Gold.PLP.part.repulsive>
1.4610

> <Gold.PLP.ligand.clash>
0.0000

> <Gold.PLP.ligand.torsion>
0.2863

> <Gold.PLP.Chemscore.Hbond>
2.0000

> <Gold.PLP.Chemscore.CHOScore>
1.0000

> <Gold.PLP.Chemscore.Metal>
0.0000

> <Gold.Chemscore.Hbonds>
donor molecule, donor type, donor heavy atom, donor atom, acceptor molecule, acceptor atom, score
      L1  H     3    21       P1  7948  1.00
      L1  H     6    22       P1  7948  1.00
      L1  C    10    24       P1  8028  1.00

> <Gold.PLP.Chemscore.Internal.Correction>
0.0239

> <Gold.Rescore>
     Score         DG    S(hbond)    S(metal)    S(lipo)     H(rot)  DE(clash)    DE(int)     intcor
     13.88     -14.99       1.94        0.00      54.28       1.29       0.07       1.04       ----

> <Gold.Chemscore.Fitness>
13.8764

> <Gold.Chemscore.DG>
-14.9851

> <Gold.Chemscore.ZeroCoef>
-5.4800

> <Gold.Chemscore.Hbond>
1.9361

> <Gold.Chemscore.Metal>
0.0000

> <Gold.Chemscore.Lipo>
54.2790

> <Gold.Chemscore.Internal_Hbond>
0.0000

> <Gold.Chemscore.DEClash>
0.0653

> <Gold.Chemscore.DEInternal>
1.0434

> <Gold.Chemscore.Rot>
1.2938

> <Gold.Chemscore.Internal.Correction>
   9.000000E+99

> <Gold.Chemscore.Hbonds>
donor molecule, donor type, donor heavy atom, donor atom, acceptor molecule, acceptor atom, score
      L1  H     3    21       P1  7948  0.97
      L1  H     6    22       P1  7948  0.95

> <Gold.Chemscore.Hbond.Weighted>
-6.4667

> <Gold.Chemscore.Metal.Weighted>
-0.0000

> <Gold.Chemscore.Lipo.Weighted>
-6.3506

> <Gold.Chemscore.Internal_Hbond.Weighted>
0.0000

> <Gold.Chemscore.DEClash.Weighted>
0.0653

> <Gold.Chemscore.DEInternal.Weighted>
1.0434

> <Gold.Chemscore.Rot.Weighted>
3.3122

> <Gold.Chemscore.Internal.Correction.Weighted>
   9.000000E+99

> <Gold.Protein.RotatedTorsions>
[ 6907 6896 6895 6894 ] final  123.35 input  -60.11 | X-H torsion
[ 7974 7965 7964 7962 ] final  -60.08 input  175.53 | X-H torsion
[ 8008 7997 7996 7995 ] final   35.15 input   59.86 | X-H torsion
[ 10167 10162 10161 10158 ] final  -82.57 input  -65.29 | X-H torsion
[ 10718 10713 10712 10709 ] final   70.80 input   66.30 | X-H torsion
[ 10763 10752 10751 10750 ] final   47.50 input  -60.55 | X-H torsion
[ 11005 11000 10999 10996 ] final   68.70 input  -57.11 | X-H torsion

> <Gold.Protein.ActiveResidues>
 VAL166  LYS551  ARG553  GLY616  TRP617  ASP618  TYR619  PRO620  LYS621  CYS622 
 ASP623  PHE694  ASN695  SER759  ASP760  ASP761  ALA762  ILE779  LEU786  VAL792 
 PHE793  MET794  SER795  GLU796  ALA797  LYS798  CYS799  TRP800  GLU811  SER814 

> <Gold.Protein.RotatedAtoms>
  152.4168  133.7052  159.6446 H   0  0  0  0  0  0  0  0  0  0  0  0  # atno 6907 bound_to 6896
  150.8045  133.8525  159.3218 H   0  0  0  0  0  0  0  0  0  0  0  0  # atno 6908 bound_to 6896
  151.6252  135.1030  160.0161 H   0  0  0  0  0  0  0  0  0  0  0  0  # atno 6909 bound_to 6896
  145.8198  140.8547  143.0138 H   0  0  0  0  0  0  0  0  0  0  0  0  # atno 7974 bound_to 7965
  155.1665  140.3288  155.4401 H   0  0  0  0  0  0  0  0  0  0  0  0  # atno 8008 bound_to 7997
  156.2525  140.1951  156.6720 H   0  0  0  0  0  0  0  0  0  0  0  0  # atno 8009 bound_to 7997
  154.6368  140.0575  156.9784 H   0  0  0  0  0  0  0  0  0  0  0  0  # atno 8010 bound_to 7997
  140.4307  143.2549  151.8763 H   0  0  0  0  0  0  0  0  0  0  0  0  # atno 10167 bound_to 10162
  157.6419  130.9496  150.0701 H   0  0  0  0  0  0  0  0  0  0  0  0  # atno 10718 bound_to 10713
  152.9799  135.5974  154.3772 H   0  0  0  0  0  0  0  0  0  0  0  0  # atno 10763 bound_to 10752
  154.3440  135.2767  155.2409 H   0  0  0  0  0  0  0  0  0  0  0  0  # atno 10764 bound_to 10752
  154.4478  135.5997  153.6227 H   0  0  0  0  0  0  0  0  0  0  0  0  # atno 10765 bound_to 10752
  139.9696  134.6922  156.0474 H   0  0  0  0  0  0  0  0  0  0  0  0  # atno 11005 bound_to 11000
  144.6749  140.0517  143.7478 LP  0  0  0  0  0  0  0  0  0  0  0  0  # atno 17320 bound_to 7965
  145.9687  139.2854  143.1112 LP  0  0  0  0  0  0  0  0  0  0  0  0  # atno 17321 bound_to 7965
  139.4785  144.5337  151.8629 LP  0  0  0  0  0  0  0  0  0  0  0  0  # atno 17342 bound_to 10162
  140.4430  144.1960  150.5892 LP  0  0  0  0  0  0  0  0  0  0  0  0  # atno 17343 bound_to 10162
  156.1708  130.3646  149.9168 LP  0  0  0  0  0  0  0  0  0  0  0  0  # atno 17370 bound_to 10713
  156.7144  130.8983  151.3612 LP  0  0  0  0  0  0  0  0  0  0  0  0  # atno 17371 bound_to 10713
  141.1376  133.6571  156.3638 LP  0  0  0  0  0  0  0  0  0  0  0  0  # atno 17394 bound_to 11000
  140.5321  134.6202  157.5353 LP  0  0  0  0  0  0  0  0  0  0  0  0  # atno 17395 bound_to 11000

$$$$
