AV-unprocessed.smi:1677|AV-procd|sdf|6724|dock1
  -GOLD-   22720 7463D 1   1.00000     0.00000
 Structure written by MMmdl.
 36 37  0  0  0  0  0  0  0  0  1 V2000
  152.2384  139.1033  155.6851 C   0  0  0  0  0  0  0  0  0  0  0  0
  150.8840  139.8184  155.7830 C   0  0  2  0  0  0  0  0  0  0  0  0
  150.3902  140.2808  154.3961 C   0  0  0  0  0  0  0  0  0  0  0  0
  148.9790  140.6217  154.3905 N   0  0  0  0  0  0  0  0  0  0  0  0
  147.9667  139.9870  153.6832 C   0  0  0  0  0  0  0  0  0  0  0  0
  146.7978  140.6429  153.9966 C   0  0  0  0  0  0  0  0  0  0  0  0
  147.0661  141.6816  154.8852 N   0  0  0  0  0  0  0  0  0  0  0  0
  148.3778  141.6087  155.0693 C   0  0  0  0  0  0  0  0  0  0  0  0
  151.0103  140.9559  156.6935 N   0  0  0  0  0  0  0  0  0  0  0  0
  151.4661  140.9027  157.9556 C   0  0  0  0  0  0  0  0  0  0  0  0
  151.8729  139.8683  158.4857 O   0  0  0  0  0  0  0  0  0  0  0  0
  151.4347  142.2145  158.7493 C   0  0  2  0  0  0  0  0  0  0  0  0
  151.4626  143.4418  157.8095 C   0  0  0  0  0  0  0  0  0  0  0  0
  151.6949  144.7373  158.5668 C   0  0  0  0  0  0  0  0  0  0  0  0
  152.1599  144.7837  159.8270 C   0  0  0  0  0  0  0  0  0  0  0  0
  152.5093  143.5466  160.6354 C   0  0  0  0  0  0  0  0  0  0  0  0
  152.5983  142.2829  159.7590 C   0  0  0  0  0  0  0  0  0  0  0  0
  152.1736  138.2279  155.0384 H   0  0  0  0  0  0  0  0  0  0  0  0
  152.5739  138.7625  156.6653 H   0  0  0  0  0  0  0  0  0  0  0  0
  153.0077  139.7608  155.2783 H   0  0  0  0  0  0  0  0  0  0  0  0
  150.1695  139.0974  156.1846 H   0  0  0  0  0  0  0  0  0  0  0  0
  150.9630  141.1434  154.0519 H   0  0  0  0  0  0  0  0  0  0  0  0
  150.5444  139.4901  153.6608 H   0  0  0  0  0  0  0  0  0  0  0  0
  148.1559  139.1405  153.0400 H   0  0  0  0  0  0  0  0  0  0  0  0
  145.7924  140.4483  153.6539 H   0  0  0  0  0  0  0  0  0  0  0  0
  148.9127  142.2828  155.7223 H   0  0  0  0  0  0  0  0  0  0  0  0
  150.6992  141.8510  156.3451 H   0  0  0  0  0  0  0  0  0  0  0  0
  150.5033  142.2467  159.3181 H   0  0  0  0  0  0  0  0  0  0  0  0
  152.2478  143.3491  157.0580 H   0  0  0  0  0  0  0  0  0  0  0  0
  150.5163  143.5174  157.2728 H   0  0  0  0  0  0  0  0  0  0  0  0
  151.4809  145.6550  158.0392 H   0  0  0  0  0  0  0  0  0  0  0  0
  152.2922  145.7380  160.3156 H   0  0  0  0  0  0  0  0  0  0  0  0
  153.4564  143.7082  161.1507 H   0  0  0  0  0  0  0  0  0  0  0  0
  151.7466  143.4190  161.4043 H   0  0  0  0  0  0  0  0  0  0  0  0
  152.6151  141.3956  160.3941 H   0  0  0  0  0  0  0  0  0  0  0  0
  153.5469  142.2905  159.2195 H   0  0  0  0  0  0  0  0  0  0  0  0
  1  2  1  0  0  0  0
  1 18  1  0  0  0  0
  1 19  1  0  0  0  0
  1 20  1  0  0  0  0
  2  3  1  0  0  0  0
  2  9  1  0  0  0  0
  2 21  1  0  0  0  0
  3  4  1  0  0  0  0
  3 22  1  0  0  0  0
  3 23  1  0  0  0  0
  4  8  1  0  0  0  0
  4  5  1  0  0  0  0
  5  6  2  0  0  0  0
  5 24  1  0  0  0  0
  6  7  1  0  0  0  0
  6 25  1  0  0  0  0
  7  8  2  0  0  0  0
  8 26  1  0  0  0  0
  9 10  1  0  0  0  0
  9 27  1  0  0  0  0
 10 11  2  0  0  0  0
 10 12  1  0  0  0  0
 12 17  1  0  0  0  0
 12 13  1  0  0  0  0
 12 28  1  0  0  0  0
 13 14  1  0  0  0  0
 13 29  1  0  0  0  0
 13 30  1  0  0  0  0
 14 15  2  0  0  0  0
 14 31  1  0  0  0  0
 15 16  1  0  0  0  0
 15 32  1  0  0  0  0
 16 17  1  0  0  0  0
 16 33  1  0  0  0  0
 16 34  1  0  0  0  0
 17 35  1  0  0  0  0
 17 36  1  0  0  0  0
M  END
> <s_m_source_file>
AV-unprocessed.smi

> <i_m_source_file_index>
1677

> <i_lp_mmshare_version>
43012

> <i_f3d_flags>
0

> <s_epik_input>
W2NIXTFuW2NIXVtjSF1uMVtDSDJdW0NAQEhdKFtDSDNdKVtOSF1DKD1PKVtDQEBIXTJbQ0gyXVtDSF09W0NIXVtDSDJdW0NIMl0y

> <s_epik_cmdline>
J2VwaWtfcHl0aG9uJywgJy1waCcsICc3LjAnLCAnLXRuJywgJzgnLCAnLW1hJywgJzIwMCcsICctbWV0YWxfYmluZGluZycsICctaW1hZScsICc8aW5maWxlLm1hZT4nLCAnLW9tYWUnLCAnPG91dGZpbGUubWFlPic=

> <r_lp_tautomer_probability>
1

> <r_epik_Ionization_Penalty>
0.640435

> <r_epik_Ionization_Penalty_Charging>
0.640435

> <r_epik_Ionization_Penalty_Neutral>
2.11108e-08

> <r_epik_State_Penalty>
0.658069

> <r_epik_Charging_Adjusted_Penalty>
1.2985

> <i_epik_Tot_Q>
0

> <i_epik_Tot_abs_Q>
0

> <r_epik_Metal_State_Penalty>
0.311689

> <b_epik_Metal_Only>
0

> <s_lp_Force_Field>
OPLS_2005

> <r_lp_Energy>
9.8402

> <b_lp_Chiralities_Consistent>
1

> <s_lp_Variant>
AV-unprocessed.smi:1677-5

> <Gold.Version>
5.8.1

> <Gold.Id.Protein>
6NUR|6NUR_protein|mol2

> <Gold.PLP.Fitness>
42.6835

> <Gold.PLP.PLP>
-36.9869

> <Gold.PLP.part.hbond>
0.0000

> <Gold.PLP.part.metal>
0.0000

> <Gold.PLP.part.buried>
0.7927

> <Gold.PLP.part.nonpolar>
-37.9501

> <Gold.PLP.part.repulsive>
0.2116

> <Gold.PLP.ligand.clash>
0.0000

> <Gold.PLP.ligand.torsion>
0.8543

> <Gold.PLP.Chemscore.Hbond>
0.0000

> <Gold.PLP.Chemscore.CHOScore>
2.4452

> <Gold.PLP.Chemscore.Metal>
0.0000

> <Gold.Chemscore.Hbonds>
donor molecule, donor type, donor heavy atom, donor atom, acceptor molecule, acceptor atom, score
      L1  C     5    24       P1  7957  0.52
      L1  C     6    25       P1 10175  1.00
      L1  C     8    26       P1  8028  0.93

> <Gold.PLP.Chemscore.Internal.Correction>
0.0696

> <Gold.Rescore>
     Score         DG    S(hbond)    S(metal)    S(lipo)     H(rot)  DE(clash)    DE(int)     intcor
     11.77     -12.63       0.00        0.00      99.36       1.75       0.08       0.78       ----

> <Gold.Chemscore.Fitness>
11.7725

> <Gold.Chemscore.DG>
-12.6318

> <Gold.Chemscore.ZeroCoef>
-5.4800

> <Gold.Chemscore.Hbond>
0.0000

> <Gold.Chemscore.Metal>
0.0000

> <Gold.Chemscore.Lipo>
99.3616

> <Gold.Chemscore.Internal_Hbond>
0.0000

> <Gold.Chemscore.DEClash>
0.0780

> <Gold.Chemscore.DEInternal>
0.7813

> <Gold.Chemscore.Rot>
1.7475

> <Gold.Chemscore.Internal.Correction>
   9.000000E+99

> <Gold.Chemscore.Hbond.Weighted>
-0.0000

> <Gold.Chemscore.Metal.Weighted>
-0.0000

> <Gold.Chemscore.Lipo.Weighted>
-11.6253

> <Gold.Chemscore.Internal_Hbond.Weighted>
0.0000

> <Gold.Chemscore.DEClash.Weighted>
0.0780

> <Gold.Chemscore.DEInternal.Weighted>
0.7813

> <Gold.Chemscore.Rot.Weighted>
4.4735

> <Gold.Chemscore.Internal.Correction.Weighted>
   9.000000E+99

> <Gold.Protein.RotatedTorsions>
[ 6907 6896 6895 6894 ] final -136.38 input  -60.11 | X-H torsion
[ 7974 7965 7964 7962 ] final  140.59 input  175.53 | X-H torsion
[ 8008 7997 7996 7995 ] final  146.79 input   59.86 | X-H torsion
[ 10167 10162 10161 10158 ] final  -75.86 input  -65.29 | X-H torsion
[ 10718 10713 10712 10709 ] final  113.88 input   66.30 | X-H torsion
[ 10763 10752 10751 10750 ] final -138.92 input  -60.55 | X-H torsion
[ 11005 11000 10999 10996 ] final -174.68 input  -57.11 | X-H torsion

> <Gold.Protein.ActiveResidues>
 VAL166  LYS551  ARG553  GLY616  TRP617  ASP618  TYR619  PRO620  LYS621  CYS622 
 ASP623  PHE694  ASN695  SER759  ASP760  ASP761  ALA762  ILE779  LEU786  VAL792 
 PHE793  MET794  SER795  GLU796  ALA797  LYS798  CYS799  TRP800  GLU811  SER814 

> <Gold.Protein.RotatedAtoms>
  151.0093  133.5980  159.2684 H   0  0  0  0  0  0  0  0  0  0  0  0  # atno 6907 bound_to 6896
  151.3138  135.0800  159.9291 H   0  0  0  0  0  0  0  0  0  0  0  0  # atno 6908 bound_to 6896
  152.5295  133.9753  159.7835 H   0  0  0  0  0  0  0  0  0  0  0  0  # atno 6909 bound_to 6896
  144.9173  139.5214  143.5680 H   0  0  0  0  0  0  0  0  0  0  0  0  # atno 7974 bound_to 7965
  156.2845  140.2173  156.5434 H   0  0  0  0  0  0  0  0  0  0  0  0  # atno 8008 bound_to 7997
  154.7351  140.0492  157.0784 H   0  0  0  0  0  0  0  0  0  0  0  0  # atno 8009 bound_to 7997
  155.0303  140.3134  155.4764 H   0  0  0  0  0  0  0  0  0  0  0  0  # atno 8010 bound_to 7997
  140.4906  143.2381  151.7912 H   0  0  0  0  0  0  0  0  0  0  0  0  # atno 10167 bound_to 10162
  157.6313  131.0990  150.7105 H   0  0  0  0  0  0  0  0  0  0  0  0  # atno 10718 bound_to 10713
  154.8624  135.3598  154.5462 H   0  0  0  0  0  0  0  0  0  0  0  0  # atno 10763 bound_to 10752
  153.6082  135.7010  153.5362 H   0  0  0  0  0  0  0  0  0  0  0  0  # atno 10764 bound_to 10752
  153.3232  135.4145  155.1395 H   0  0  0  0  0  0  0  0  0  0  0  0  # atno 10765 bound_to 10752
  140.4718  134.6158  157.4885 H   0  0  0  0  0  0  0  0  0  0  0  0  # atno 11005 bound_to 11000
  146.3188  139.8025  142.8962 LP  0  0  0  0  0  0  0  0  0  0  0  0  # atno 17320 bound_to 7965
  145.3355  141.0276  143.3422 LP  0  0  0  0  0  0  0  0  0  0  0  0  # atno 17321 bound_to 7965
  139.4850  144.4653  151.9491 LP  0  0  0  0  0  0  0  0  0  0  0  0  # atno 17342 bound_to 10162
  140.3740  144.2819  150.5916 LP  0  0  0  0  0  0  0  0  0  0  0  0  # atno 17343 bound_to 10162
  156.7444  130.4749  149.5470 LP  0  0  0  0  0  0  0  0  0  0  0  0  # atno 17370 bound_to 10713
  156.1518  130.6315  151.0606 LP  0  0  0  0  0  0  0  0  0  0  0  0  # atno 17371 bound_to 10713
  139.9880  134.7030  155.9739 LP  0  0  0  0  0  0  0  0  0  0  0  0  # atno 17394 bound_to 11000
  141.1573  133.6541  156.4203 LP  0  0  0  0  0  0  0  0  0  0  0  0  # atno 17395 bound_to 11000

$$$$
