AV-unprocessed.smi:2891|AV-procd|sdf|11117|dock1
  -GOLD-   2272015583D 1   1.00000     0.00000
 Structure written by MMmdl.
 35 36  0  0  0  0  0  0  0  0  1 V2000
  152.4662  139.4610  159.6824 C   0  0  0  0  0  0  0  0  0  0  0  0
  153.2392  139.2127  158.5210 O   0  0  0  0  0  0  0  0  0  0  0  0
  152.9773  137.9383  157.9584 C   0  0  0  0  0  0  0  0  0  0  0  0
  153.1176  138.0298  156.4315 C   0  0  0  0  0  0  0  0  0  0  0  0
  151.9931  138.7609  155.8324 N   0  0  0  0  0  0  0  0  0  0  0  0
  151.7475  140.0611  156.3133 C   0  0  0  0  0  0  0  0  0  0  0  0
  150.7543  140.8372  155.8430 C   0  0  0  0  0  0  0  0  0  0  0  0
  150.6099  142.1180  156.3952 N   0  0  0  0  0  0  0  0  0  0  0  0
  150.9324  142.5562  157.6263 C   0  0  0  0  0  0  0  0  0  0  0  0
  151.4238  141.8791  158.5287 O   0  0  0  0  0  0  0  0  0  0  0  0
  150.6406  143.8574  157.7590 N   0  0  0  0  0  0  0  0  0  0  0  0
  150.8438  144.6374  158.9372 C   0  0  0  0  0  0  0  0  0  0  0  0
  152.1165  145.4518  159.0286 C   0  0  0  0  0  0  0  0  0  0  0  0
  151.9560  144.2189  159.8744 C   0  0  0  0  0  0  0  0  0  0  0  0
  149.9169  140.2679  154.7971 C   0  0  0  0  0  0  0  0  0  0  0  0
  150.1504  139.0278  154.3246 C   0  0  0  0  0  0  0  0  0  0  0  0
  151.2452  138.2001  154.8367 C   0  0  0  0  0  0  0  0  0  0  0  0
  151.4749  137.0733  154.3967 O   0  0  0  0  0  0  0  0  0  0  0  0
  152.7036  140.4487  160.0771 H   0  0  0  0  0  0  0  0  0  0  0  0
  152.6782  138.7276  160.4616 H   0  0  0  0  0  0  0  0  0  0  0  0
  151.3990  139.4355  159.4582 H   0  0  0  0  0  0  0  0  0  0  0  0
  153.6798  137.2045  158.3572 H   0  0  0  0  0  0  0  0  0  0  0  0
  151.9713  137.6130  158.2284 H   0  0  0  0  0  0  0  0  0  0  0  0
  154.0664  138.5034  156.1729 H   0  0  0  0  0  0  0  0  0  0  0  0
  153.1797  137.0254  156.0102 H   0  0  0  0  0  0  0  0  0  0  0  0
  152.4281  140.3892  157.0864 H   0  0  0  0  0  0  0  0  0  0  0  0
  150.2021  142.8006  155.7732 H   0  0  0  0  0  0  0  0  0  0  0  0
  150.2395  144.3352  156.9653 H   0  0  0  0  0  0  0  0  0  0  0  0
  149.9636  145.0759  159.4055 H   0  0  0  0  0  0  0  0  0  0  0  0
  152.8144  145.4021  158.1946 H   0  0  0  0  0  0  0  0  0  0  0  0
  152.0607  146.4156  159.5306 H   0  0  0  0  0  0  0  0  0  0  0  0
  151.7915  144.3593  160.9410 H   0  0  0  0  0  0  0  0  0  0  0  0
  152.5491  143.3465  159.6059 H   0  0  0  0  0  0  0  0  0  0  0  0
  149.0877  140.8103  154.3735 H   0  0  0  0  0  0  0  0  0  0  0  0
  149.5118  138.6302  153.5495 H   0  0  0  0  0  0  0  0  0  0  0  0
  1  2  1  0  0  0  0
  1 19  1  0  0  0  0
  1 20  1  0  0  0  0
  1 21  1  0  0  0  0
  2  3  1  0  0  0  0
  3  4  1  0  0  0  0
  3 22  1  0  0  0  0
  3 23  1  0  0  0  0
  4  5  1  0  0  0  0
  4 24  1  0  0  0  0
  4 25  1  0  0  0  0
  5 17  1  0  0  0  0
  5  6  1  0  0  0  0
  6  7  2  0  0  0  0
  6 26  1  0  0  0  0
  7  8  1  0  0  0  0
  7 15  1  0  0  0  0
  8  9  1  0  0  0  0
  8 27  1  0  0  0  0
  9 10  2  0  0  0  0
  9 11  1  0  0  0  0
 11 12  1  0  0  0  0
 11 28  1  0  0  0  0
 12 14  1  0  0  0  0
 12 13  1  0  0  0  0
 12 29  1  0  0  0  0
 13 14  1  0  0  0  0
 13 30  1  0  0  0  0
 13 31  1  0  0  0  0
 14 32  1  0  0  0  0
 14 33  1  0  0  0  0
 15 16  2  0  0  0  0
 15 34  1  0  0  0  0
 16 17  1  0  0  0  0
 16 35  1  0  0  0  0
 17 18  2  0  0  0  0
M  END
> <s_m_source_file>
AV-unprocessed.smi

> <i_m_source_file_index>
2891

> <i_lp_mmshare_version>
43012

> <i_f3d_flags>
0

> <s_epik_input>
W0NIM11PW0NIMl1bQ0gyXW4xW2NIXWMoW2NIXVtjSF1jMT1PKVtOSF1DKD1PKVtOSF1bQ0hdMltDSDJdW0NIMl0y

> <s_epik_cmdline>
J2VwaWtfcHl0aG9uJywgJy1waCcsICc3LjAnLCAnLXRuJywgJzgnLCAnLW1hJywgJzIwMCcsICctbWV0YWxfYmluZGluZycsICctaW1hZScsICc8aW5maWxlLm1hZT4nLCAnLW9tYWUnLCAnPG91dGZpbGUubWFlPic=

> <r_lp_tautomer_probability>
1

> <r_epik_Ionization_Penalty>
2.77726e-05

> <r_epik_Ionization_Penalty_Charging>
5.82689e-06

> <r_epik_Ionization_Penalty_Neutral>
2.19457e-05

> <r_epik_State_Penalty>
-0

> <r_epik_Charging_Adjusted_Penalty>
5.82689e-06

> <i_epik_Tot_Q>
0

> <i_epik_Tot_abs_Q>
0

> <r_epik_Metal_State_Penalty>
-0

> <b_epik_Metal_Only>
0

> <s_lp_Force_Field>
OPLS_2005

> <r_lp_Energy>
28.443

> <b_lp_Chiralities_Consistent>
1

> <s_lp_Variant>
AV-unprocessed.smi:2891-1

> <Gold.Version>
5.8.1

> <Gold.Id.Protein>
6NUR|6NUR_protein|mol2

> <Gold.PLP.Fitness>
45.8076

> <Gold.PLP.PLP>
-37.4189

> <Gold.PLP.part.hbond>
-3.4106

> <Gold.PLP.part.metal>
0.0000

> <Gold.PLP.part.buried>
-3.8520

> <Gold.PLP.part.nonpolar>
-31.1503

> <Gold.PLP.part.repulsive>
1.0822

> <Gold.PLP.ligand.clash>
0.0000

> <Gold.PLP.ligand.torsion>
0.8052

> <Gold.PLP.Chemscore.Hbond>
3.3172

> <Gold.PLP.Chemscore.CHOScore>
0.0000

> <Gold.PLP.Chemscore.Metal>
0.0000

> <Gold.Chemscore.Hbonds>
donor molecule, donor type, donor heavy atom, donor atom, acceptor molecule, acceptor atom, score
      L1  H     8    27       P1  8028  0.23
      L1  H    11    28       P1  8028  1.00
      P1  H  7997  8008       L1     2  0.65
      P1  H 10752 10763       L1    18  0.99

> <Gold.PLP.Chemscore.Internal.Correction>
0.0475

> <Gold.Rescore>
     Score         DG    S(hbond)    S(metal)    S(lipo)     H(rot)  DE(clash)    DE(int)     intcor
     14.43     -20.57       2.95        0.00      81.40       1.67       0.36       5.78       ----

> <Gold.Chemscore.Fitness>
14.4320

> <Gold.Chemscore.DG>
-20.5691

> <Gold.Chemscore.ZeroCoef>
-5.4800

> <Gold.Chemscore.Hbond>
2.9487

> <Gold.Chemscore.Metal>
0.0000

> <Gold.Chemscore.Lipo>
81.3953

> <Gold.Chemscore.Internal_Hbond>
0.0000

> <Gold.Chemscore.DEClash>
0.3582

> <Gold.Chemscore.DEInternal>
5.7789

> <Gold.Chemscore.Rot>
1.6730

> <Gold.Chemscore.Internal.Correction>
   9.000000E+99

> <Gold.Chemscore.Hbonds>
donor molecule, donor type, donor heavy atom, donor atom, acceptor molecule, acceptor atom, score
      L1  H     8    27       P1  8028  0.24
      L1  H    11    28       P1  8028  0.87
      P1  H  7997  8008       L1     2  0.19
      P1  H 10752 10763       L1    18  0.92

> <Gold.Chemscore.Hbond.Weighted>
-9.8487

> <Gold.Chemscore.Metal.Weighted>
-0.0000

> <Gold.Chemscore.Lipo.Weighted>
-9.5233

> <Gold.Chemscore.Internal_Hbond.Weighted>
0.0000

> <Gold.Chemscore.DEClash.Weighted>
0.3582

> <Gold.Chemscore.DEInternal.Weighted>
5.7789

> <Gold.Chemscore.Rot.Weighted>
4.2828

> <Gold.Chemscore.Internal.Correction.Weighted>
   9.000000E+99

> <Gold.Protein.RotatedTorsions>
[ 6907 6896 6895 6894 ] final   -1.56 input  -60.11 | X-H torsion
[ 7974 7965 7964 7962 ] final -125.81 input  175.53 | X-H torsion
[ 8008 7997 7996 7995 ] final  -88.93 input   59.86 | X-H torsion
[ 10167 10162 10161 10158 ] final  -31.37 input  -65.29 | X-H torsion
[ 10718 10713 10712 10709 ] final   73.97 input   66.30 | X-H torsion
[ 10763 10752 10751 10750 ] final   42.61 input  -60.55 | X-H torsion
[ 11005 11000 10999 10996 ] final -160.56 input  -57.11 | X-H torsion

> <Gold.Protein.ActiveResidues>
 VAL166  LYS551  ARG553  GLY616  TRP617  ASP618  TYR619  PRO620  LYS621  CYS622 
 ASP623  PHE694  ASN695  SER759  ASP760  ASP761  ALA762  ILE779  LEU786  VAL792 
 PHE793  MET794  SER795  GLU796  ALA797  LYS798  CYS799  TRP800  GLU811  SER814 

> <Gold.Protein.RotatedAtoms>
  151.5442  135.1068  159.9933 H   0  0  0  0  0  0  0  0  0  0  0  0  # atno 6907 bound_to 6896
  152.4521  133.7646  159.6776 H   0  0  0  0  0  0  0  0  0  0  0  0  # atno 6908 bound_to 6896
  150.8453  133.7804  159.3070 H   0  0  0  0  0  0  0  0  0  0  0  0  # atno 6909 bound_to 6896
  144.9938  140.7757  143.4538 H   0  0  0  0  0  0  0  0  0  0  0  0  # atno 7974 bound_to 7965
  154.6806  140.0548  157.0261 H   0  0  0  0  0  0  0  0  0  0  0  0  # atno 8008 bound_to 7997
  155.0958  140.3224  155.4542 H   0  0  0  0  0  0  0  0  0  0  0  0  # atno 8009 bound_to 7997
  156.2692  140.2040  156.6084 H   0  0  0  0  0  0  0  0  0  0  0  0  # atno 8010 bound_to 7997
  140.7237  143.3776  151.1661 H   0  0  0  0  0  0  0  0  0  0  0  0  # atno 10167 bound_to 10162
  157.6572  130.9655  150.1145 H   0  0  0  0  0  0  0  0  0  0  0  0  # atno 10718 bound_to 10713
  152.9879  135.6126  154.2978 H   0  0  0  0  0  0  0  0  0  0  0  0  # atno 10763 bound_to 10752
  154.2700  135.2780  155.2744 H   0  0  0  0  0  0  0  0  0  0  0  0  # atno 10764 bound_to 10752
  154.5131  135.5835  153.6677 H   0  0  0  0  0  0  0  0  0  0  0  0  # atno 10765 bound_to 10752
  140.6301  134.4660  157.5229 H   0  0  0  0  0  0  0  0  0  0  0  0  # atno 11005 bound_to 11000
  145.2249  139.2142  143.5073 LP  0  0  0  0  0  0  0  0  0  0  0  0  # atno 17320 bound_to 7965
  146.3437  140.2114  142.8590 LP  0  0  0  0  0  0  0  0  0  0  0  0  # atno 17321 bound_to 7965
  139.7359  143.9000  152.3034 LP  0  0  0  0  0  0  0  0  0  0  0  0  # atno 17342 bound_to 10162
  139.8805  144.7020  150.8884 LP  0  0  0  0  0  0  0  0  0  0  0  0  # atno 17343 bound_to 10162
  156.2033  130.3661  149.8761 LP  0  0  0  0  0  0  0  0  0  0  0  0  # atno 17370 bound_to 10713
  156.6659  130.8801  151.3555 LP  0  0  0  0  0  0  0  0  0  0  0  0  # atno 17371 bound_to 10713
  139.9119  134.8326  156.1498 LP  0  0  0  0  0  0  0  0  0  0  0  0  # atno 17394 bound_to 11000
  141.0681  133.6809  156.2086 LP  0  0  0  0  0  0  0  0  0  0  0  0  # atno 17395 bound_to 11000

$$$$
