AV-unprocessed.smi:3142|AV-procd|sdf|11971|dock9
  -GOLD-   2272017373D 1   1.00000     0.00000
 Structure written by MMmdl.
 36 38  0  0  0  0  0  0  0  0  1 V2000
  150.8611  138.5843  158.8721 C   0  0  0  0  0  0  0  0  0  0  0  0
  151.1539  139.8231  158.0038 C   0  0  1  0  0  0  0  0  0  0  0  0
  152.3266  140.6602  158.5361 C   0  0  0  0  0  0  0  0  0  0  0  0
  153.4098  140.1331  158.7920 O   0  0  0  0  0  0  0  0  0  0  0  0
  152.0918  141.9732  158.6886 N   0  0  0  0  0  0  0  0  0  0  0  0
  153.0574  142.9663  159.1456 C   0  0  0  0  0  0  0  0  0  0  0  0
  153.4178  142.7998  160.6130 C   0  0  0  0  0  0  0  0  0  0  0  0
  153.3114  141.4590  161.3011 C   0  0  0  0  0  0  0  0  0  0  0  0
  152.3584  142.5734  161.6660 C   0  0  0  0  0  0  0  0  0  0  0  0
  152.5649  144.3770  158.8804 C   0  0  0  0  0  0  0  0  0  0  0  0
  151.1603  144.7927  159.2459 C   0  0  0  0  0  0  0  0  0  0  0  0
  151.5596  144.6708  157.7922 C   0  0  0  0  0  0  0  0  0  0  0  0
  151.3921  139.4583  156.6143 N   0  0  0  0  0  0  0  0  0  0  0  0
  152.3988  138.6419  156.1080 C   0  0  0  0  0  0  0  0  0  0  0  0
  152.2360  138.6142  154.7417 C   0  0  0  0  0  0  0  0  0  0  0  0
  151.1522  139.4114  154.3830 N   0  0  0  0  0  0  0  0  0  0  0  0
  150.7077  139.8809  155.5414 C   0  0  0  0  0  0  0  0  0  0  0  0
  150.6396  138.8689  159.9012 H   0  0  0  0  0  0  0  0  0  0  0  0
  151.7027  137.8912  158.8941 H   0  0  0  0  0  0  0  0  0  0  0  0
  149.9963  138.0396  158.4918 H   0  0  0  0  0  0  0  0  0  0  0  0
  150.2632  140.4536  158.0303 H   0  0  0  0  0  0  0  0  0  0  0  0
  151.1724  142.3160  158.4512 H   0  0  0  0  0  0  0  0  0  0  0  0
  153.9738  142.8391  158.5652 H   0  0  0  0  0  0  0  0  0  0  0  0
  154.2627  143.4137  160.9200 H   0  0  0  0  0  0  0  0  0  0  0  0
  152.9050  140.6234  160.7352 H   0  0  0  0  0  0  0  0  0  0  0  0
  154.0851  141.2017  162.0214 H   0  0  0  0  0  0  0  0  0  0  0  0
  152.4969  143.0613  162.6287 H   0  0  0  0  0  0  0  0  0  0  0  0
  151.3254  142.4732  161.3391 H   0  0  0  0  0  0  0  0  0  0  0  0
  153.3308  145.1364  159.0281 H   0  0  0  0  0  0  0  0  0  0  0  0
  150.4949  144.0320  159.6494 H   0  0  0  0  0  0  0  0  0  0  0  0
  151.0232  145.7939  159.6495 H   0  0  0  0  0  0  0  0  0  0  0  0
  151.6883  145.5906  157.2255 H   0  0  0  0  0  0  0  0  0  0  0  0
  151.1507  143.8318  157.2329 H   0  0  0  0  0  0  0  0  0  0  0  0
  153.1283  138.1622  156.7438 H   0  0  0  0  0  0  0  0  0  0  0  0
  152.8154  138.0917  153.9950 H   0  0  0  0  0  0  0  0  0  0  0  0
  149.8633  140.5511  155.6102 H   0  0  0  0  0  0  0  0  0  0  0  0
  1  2  1  0  0  0  0
  1 18  1  0  0  0  0
  1 19  1  0  0  0  0
  1 20  1  0  0  0  0
  2  3  1  0  0  0  0
  2 13  1  0  0  0  0
  2 21  1  0  0  0  0
  3  4  2  0  0  0  0
  3  5  1  0  0  0  0
  5  6  1  0  0  0  0
  5 22  1  0  0  0  0
  6  7  1  0  0  0  0
  6 10  1  0  0  0  0
  6 23  1  0  0  0  0
  7  9  1  0  0  0  0
  7  8  1  0  0  0  0
  7 24  1  0  0  0  0
  8  9  1  0  0  0  0
  8 25  1  0  0  0  0
  8 26  1  0  0  0  0
  9 27  1  0  0  0  0
  9 28  1  0  0  0  0
 10 12  1  0  0  0  0
 10 11  1  0  0  0  0
 10 29  1  0  0  0  0
 11 12  1  0  0  0  0
 11 30  1  0  0  0  0
 11 31  1  0  0  0  0
 12 32  1  0  0  0  0
 12 33  1  0  0  0  0
 13 17  1  0  0  0  0
 13 14  1  0  0  0  0
 14 15  2  0  0  0  0
 14 34  1  0  0  0  0
 15 16  1  0  0  0  0
 15 35  1  0  0  0  0
 16 17  2  0  0  0  0
 17 36  1  0  0  0  0
M  END
> <s_m_source_file>
AV-unprocessed.smi

> <i_m_source_file_index>
3142

> <i_lp_mmshare_version>
43012

> <i_f3d_flags>
0

> <s_epik_input>
W2NIXTFuW2NIXVtjSF1uMVtDQEhdKFtDSDNdKUMoPU8pW05IXVtDSF0oW0NIXTJbQ0gyXVtDSDJdMilbQ0hdM1tDSDJdW0NIMl0z

> <s_epik_cmdline>
J2VwaWtfcHl0aG9uJywgJy1waCcsICc3LjAnLCAnLXRuJywgJzgnLCAnLW1hJywgJzIwMCcsICctbWV0YWxfYmluZGluZycsICctaW1hZScsICc8aW5maWxlLm1hZT4nLCAnLW9tYWUnLCAnPG91dGZpbGUubWFlPic=

> <r_lp_tautomer_probability>
1

> <r_epik_Ionization_Penalty>
0.32285

> <r_epik_Ionization_Penalty_Charging>
0.32285

> <r_epik_Ionization_Penalty_Neutral>
3.37967e-08

> <r_epik_State_Penalty>
0.317502

> <r_epik_Charging_Adjusted_Penalty>
0.640352

> <i_epik_Tot_Q>
0

> <i_epik_Tot_abs_Q>
0

> <r_epik_Metal_State_Penalty>
0.20415

> <b_epik_Metal_Only>
0

> <s_lp_Force_Field>
OPLS_2005

> <r_lp_Energy>
29.1263

> <b_lp_Chiralities_Consistent>
1

> <s_lp_Variant>
AV-unprocessed.smi:3142-2

> <Gold.Version>
5.8.1

> <Gold.Id.Protein>
6NUR|6NUR_protein|mol2

> <Gold.PLP.Fitness>
46.9571

> <Gold.PLP.PLP>
-41.7181

> <Gold.PLP.part.hbond>
-2.0000

> <Gold.PLP.part.metal>
0.0000

> <Gold.PLP.part.buried>
-4.6929

> <Gold.PLP.part.nonpolar>
-34.1683

> <Gold.PLP.part.repulsive>
0.2162

> <Gold.PLP.ligand.clash>
0.0000

> <Gold.PLP.ligand.torsion>
1.4884

> <Gold.PLP.Chemscore.Hbond>
2.0000

> <Gold.PLP.Chemscore.CHOScore>
0.0000

> <Gold.PLP.Chemscore.Metal>
0.0000

> <Gold.Chemscore.Hbonds>
donor molecule, donor type, donor heavy atom, donor atom, acceptor molecule, acceptor atom, score
      P1  H  7989  7998       L1    16  1.00
      P1  H  7997  8010       L1     4  0.82

> <Gold.PLP.Chemscore.Internal.Correction>
2.2158

> <Gold.Rescore>
     Score         DG    S(hbond)    S(metal)    S(lipo)     H(rot)  DE(clash)    DE(int)     intcor
     16.86     -18.88       1.59        0.00     109.58       1.85       0.16       1.87       ----

> <Gold.Chemscore.Fitness>
16.8560

> <Gold.Chemscore.DG>
-18.8836

> <Gold.Chemscore.ZeroCoef>
-5.4800

> <Gold.Chemscore.Hbond>
1.5928

> <Gold.Chemscore.Metal>
0.0000

> <Gold.Chemscore.Lipo>
109.5804

> <Gold.Chemscore.Internal_Hbond>
0.0000

> <Gold.Chemscore.DEClash>
0.1573

> <Gold.Chemscore.DEInternal>
1.8703

> <Gold.Chemscore.Rot>
1.8505

> <Gold.Chemscore.Internal.Correction>
   9.000000E+99

> <Gold.Chemscore.Hbonds>
donor molecule, donor type, donor heavy atom, donor atom, acceptor molecule, acceptor atom, score
      P1  H  7989  7998       L1    16  0.41
      P1  H  7997  8010       L1     4  0.64

> <Gold.Chemscore.Hbond.Weighted>
-5.3200

> <Gold.Chemscore.Metal.Weighted>
-0.0000

> <Gold.Chemscore.Lipo.Weighted>
-12.8209

> <Gold.Chemscore.Internal_Hbond.Weighted>
0.0000

> <Gold.Chemscore.DEClash.Weighted>
0.1573

> <Gold.Chemscore.DEInternal.Weighted>
1.8703

> <Gold.Chemscore.Rot.Weighted>
4.7373

> <Gold.Chemscore.Internal.Correction.Weighted>
   9.000000E+99

> <Gold.Protein.RotatedTorsions>
[ 6907 6896 6895 6894 ] final  101.31 input  -60.11 | X-H torsion
[ 7974 7965 7964 7962 ] final  132.63 input  175.53 | X-H torsion
[ 8008 7997 7996 7995 ] final   25.73 input   59.86 | X-H torsion
[ 10167 10162 10161 10158 ] final   26.62 input  -65.29 | X-H torsion
[ 10718 10713 10712 10709 ] final  110.78 input   66.30 | X-H torsion
[ 10763 10752 10751 10750 ] final  -62.98 input  -60.55 | X-H torsion
[ 11005 11000 10999 10996 ] final -100.10 input  -57.11 | X-H torsion

> <Gold.Protein.ActiveResidues>
 VAL166  LYS551  ARG553  GLY616  TRP617  ASP618  TYR619  PRO620  LYS621  CYS622 
 ASP623  PHE694  ASN695  SER759  ASP760  ASP761  ALA762  ILE779  LEU786  VAL792 
 PHE793  MET794  SER795  GLU796  ALA797  LYS798  CYS799  TRP800  GLU811  SER814 

> <Gold.Protein.RotatedAtoms>
  152.5352  134.0144  159.7952 H   0  0  0  0  0  0  0  0  0  0  0  0  # atno 6907 bound_to 6896
  151.0341  133.5756  159.2665 H   0  0  0  0  0  0  0  0  0  0  0  0  # atno 6908 bound_to 6896
  151.2750  135.0703  159.9202 H   0  0  0  0  0  0  0  0  0  0  0  0  # atno 6909 bound_to 6896
  144.9948  139.4370  143.5321 H   0  0  0  0  0  0  0  0  0  0  0  0  # atno 7974 bound_to 7965
  155.0163  140.3142  155.4810 H   0  0  0  0  0  0  0  0  0  0  0  0  # atno 8008 bound_to 7997
  156.2900  140.2205  156.5221 H   0  0  0  0  0  0  0  0  0  0  0  0  # atno 8009 bound_to 7997
  154.7490  140.0467  157.0865 H   0  0  0  0  0  0  0  0  0  0  0  0  # atno 8010 bound_to 7997
  140.5007  144.0319  150.6332 H   0  0  0  0  0  0  0  0  0  0  0  0  # atno 10167 bound_to 10162
  157.6477  131.0939  150.6653 H   0  0  0  0  0  0  0  0  0  0  0  0  # atno 10718 bound_to 10713
  154.3081  135.6221  153.5453 H   0  0  0  0  0  0  0  0  0  0  0  0  # atno 10763 bound_to 10752
  152.9832  135.5694  154.5208 H   0  0  0  0  0  0  0  0  0  0  0  0  # atno 10764 bound_to 10752
  154.4852  135.2865  155.1516 H   0  0  0  0  0  0  0  0  0  0  0  0  # atno 10765 bound_to 10752
  141.1283  133.8373  157.1058 H   0  0  0  0  0  0  0  0  0  0  0  0  # atno 11005 bound_to 11000
  146.3439  139.9302  142.8754 LP  0  0  0  0  0  0  0  0  0  0  0  0  # atno 17320 bound_to 7965
  145.2235  140.9944  143.4032 LP  0  0  0  0  0  0  0  0  0  0  0  0  # atno 17321 bound_to 7965
  140.3614  143.2906  152.0379 LP  0  0  0  0  0  0  0  0  0  0  0  0  # atno 17342 bound_to 10162
  139.4871  144.6300  151.7089 LP  0  0  0  0  0  0  0  0  0  0  0  0  # atno 17343 bound_to 10162
  156.6968  130.4611  149.5584 LP  0  0  0  0  0  0  0  0  0  0  0  0  # atno 17370 bound_to 10713
  156.1823  130.6507  151.0966 LP  0  0  0  0  0  0  0  0  0  0  0  0  # atno 17371 bound_to 10713
  140.0305  134.9903  157.0771 LP  0  0  0  0  0  0  0  0  0  0  0  0  # atno 17394 bound_to 11000
  140.4293  134.1798  155.7167 LP  0  0  0  0  0  0  0  0  0  0  0  0  # atno 17395 bound_to 11000

$$$$
