#       Name:                AV-unprocessed.smi:1743
#       Creating user name   scv26
#       Creation time:       Fri Mar 27 08:24:05 2020


#       File generated by GOLD software.
#

@<TRIPOS>MOLECULE
AV-unprocessed.smi:1743
    45    46     1
SMALL
NO_CHARGES


@<TRIPOS>ATOM
      1 ****        -7.1715   2.5590  -0.4119 C.3            1 S1                 0.0000
      2 ****        -6.6433   1.2373  -0.4246 O.3            1 S1                 0.0000
      3 ****        -5.2728   1.0790  -0.4042 C.ar           1 S1                 0.0000
      4 ****        -4.7456  -0.2277  -0.4055 C.ar           1 S1                 0.0000
      5 ****        -3.3482  -0.3989  -0.3834 C.ar           1 S1                 0.0000
      6 ****        -2.5196   0.7478  -0.3537 C.ar           1 S1                 0.0000
      7 ****        -1.0995   0.7046  -0.3540 N.am           1 S1                 0.0000
      8 ****        -0.2966  -0.2913   0.0582 C.2            1 S1                 0.0000
      9 ****        -0.6788  -1.3474   0.5617 O.2            1 S1                 0.0000
     10 ****         0.9939   0.0214  -0.1285 N.am           1 S1                 0.0000
     11 ****         2.1376  -0.8170   0.2220 C.3            1 S1                 0.0000
     12 ****         2.9179  -0.1779   1.3872 C.3            1 S1                 0.0000
     13 ****         4.1827  -0.9833   1.7272 C.3            1 S1                 0.0000
     14 ****         5.0791  -1.1591   0.4892 C.3            1 S1                 0.0000
     15 ****         6.1914  -1.9618   0.8233 O.3            1 S1                 0.0000
     16 ****         4.3020  -1.8122  -0.6667 C.3            1 S1                 0.0000
     17 ****         3.0416  -1.0027  -1.0113 C.3            1 S1                 0.0000
     18 ****        -3.1459   2.0113  -0.3700 C.ar           1 S1                 0.0000
     19 ****        -4.4845   2.1823  -0.3892 N.ar           1 S1                 0.0000
     20 ****        -8.2603   2.5121  -0.4323 H              1 S1                 0.0000
     21 ****        -6.8487   3.1275  -1.2853 H              1 S1                 0.0000
     22 ****        -6.8806   3.0952   0.4927 H              1 S1                 0.0000
     23 ****        -5.4018  -1.0851  -0.4277 H              1 S1                 0.0000
     24 ****        -2.9432  -1.3988  -0.4055 H              1 S1                 0.0000
     25 ****        -0.6399   1.5512  -0.6558 H              1 S1                 0.0000
     26 ****         1.2048   0.9159  -0.5461 H              1 S1                 0.0000
     27 ****         1.7994  -1.8050   0.5401 H              1 S1                 0.0000
     28 ****         3.2008   0.8433   1.1274 H              1 S1                 0.0000
     29 ****         2.2804  -0.1071   2.2693 H              1 S1                 0.0000
     30 ****         4.7357  -0.4828   2.5229 H              1 S1                 0.0000
     31 ****         3.8940  -1.9602   2.1182 H              1 S1                 0.0000
     32 ****         5.4514  -0.1844   0.1706 H              1 S1                 0.0000
     33 ****         6.7450  -2.0405   0.0616 H              1 S1                 0.0000
     34 ****         4.9385  -1.8966  -1.5481 H              1 S1                 0.0000
     35 ****         4.0147  -2.8288  -0.3935 H              1 S1                 0.0000
     36 ****         2.4893  -1.5047  -1.8067 H              1 S1                 0.0000
     37 ****         3.3356  -0.0289  -1.4058 H              1 S1                 0.0000
     38 ****        -2.5558   2.9161  -0.3623 H              1 S1                 0.0000
     39 ****        -6.9802   0.7920  -1.2542 LP             1 S1                 0.0000
     40 ****        -7.0075   0.7654   0.3783 LP             1 S1                 0.0000
     41 ****        -1.6562  -1.5149   0.6909 LP             1 S1                 0.0000
     42 ****        -0.0119  -2.0381   0.8416 LP             1 S1                 0.0000
     43 ****         5.8796  -2.8682   1.1085 LP             1 S1                 0.0000
     44 ****         6.7030  -1.5354   1.5692 LP             1 S1                 0.0000
     45 ****        -4.8846   3.0987  -0.3923 LP             1 S1                 0.0000
@<TRIPOS>BOND
    1    1    2 1     
    2    1   20 1     
    3    1   21 1     
    4    1   22 1     
    5    2    3 1     
    6    3   19 ar    
    7    3    4 ar    
    8    4    5 ar    
    9    4   23 1     
   10    5    6 ar    
   11    5   24 1     
   12    6    7 1     
   13    6   18 ar    
   14    7    8 am    
   15    7   25 1     
   16    8    9 2     
   17    8   10 am    
   18   10   11 1     
   19   10   26 1     
   20   11   17 1     
   21   11   12 1     
   22   11   27 1     
   23   12   13 1     
   24   12   28 1     
   25   12   29 1     
   26   13   14 1     
   27   13   30 1     
   28   13   31 1     
   29   14   15 1     
   30   14   16 1     
   31   14   32 1     
   32   15   33 1     
   33   16   17 1     
   34   16   34 1     
   35   16   35 1     
   36   17   36 1     
   37   17   37 1     
   38   18   19 ar    
   39   18   38 1     
   40    2   39 1     
   41    2   40 1     
   42    9   41 1     
   43    9   42 1     
   44   15   43 1     
   45   15   44 1     
   46   19   45 1     
@<TRIPOS>SUBSTRUCTURE
      1 S1             1
@<TRIPOS>SET
LONE_PAIRS      STATIC     ATOMS    <user>   **** ""
7 39 40 41 42 43 44 45
DONOR_HYDROGENS      STATIC     ATOMS    <user>   **** ""
3 25 26 33
ATOM$BLUE        STATIC     ATOMS    COLORGROUP SYSTEM
7 39 40 41 42 43 44 45
ATOM$RED        STATIC     ATOMS    COLORGROUP SYSTEM
3 25 26 33
