AV-unprocessed.smi:1046|AV-procd|sdf|4553|dock8
  -GOLD-   22720 2583D 1   1.00000     0.00000
 Structure written by MMmdl.
 54 56  0  0  0  0  0  0  0  0  3 V2000
  152.3095  143.9090  160.9341 C   0  0  0  0  0  0  0  0  0  0  0  0
  152.0416  143.0070  159.7412 C   0  0  0  0  0  0  0  0  0  0  0  0
  151.0408  143.3893  158.8193 C   0  0  0  0  0  0  0  0  0  0  0  0
  150.8158  142.5428  157.7401 C   0  0  0  0  0  0  0  0  0  0  0  0
  149.9124  142.6317  156.6788 N   0  3  0  0  0  0  0  0  0  0  0  0
  150.0606  141.5508  155.8633 C   0  0  0  0  0  0  0  0  0  0  0  0
  151.0544  140.7789  156.3828 N   0  0  0  0  0  0  0  0  0  0  0  0
  151.6126  139.5060  155.9086 C   0  0  0  0  0  0  0  0  0  0  0  0
  150.6641  138.7416  154.9623 C   0  0  1  0  0  0  0  0  0  0  0  0
  150.6050  139.4683  153.7519 O   0  0  0  0  0  0  0  0  0  0  0  0
  151.1356  137.3008  154.6654 C   0  0  0  0  0  0  0  0  0  0  0  0
  150.0160  136.3275  154.5991 N   0  3  0  0  0  0  0  0  0  0  0  0
  148.9667  136.5608  155.6282 C   0  0  0  0  0  0  0  0  0  0  0  0
  147.8240  135.5366  155.4735 C   0  0  0  0  0  0  0  0  0  0  0  0
  148.2785  134.1454  155.5387 N   0  0  0  0  0  0  0  0  0  0  0  0
  148.7185  133.7096  156.8683 C   0  0  0  0  0  0  0  0  0  0  0  0
  149.6351  132.4758  156.8782 C   0  0  0  0  0  0  0  0  0  0  0  0
  150.1766  132.3108  158.1703 O   0  0  0  0  0  0  0  0  0  0  0  0
  149.3014  133.9451  154.5129 C   0  0  0  0  0  0  0  0  0  0  0  0
  150.4901  134.9197  154.6406 C   0  0  0  0  0  0  0  0  0  0  0  0
  151.5476  141.3534  157.5591 C   0  0  0  0  0  0  0  0  0  0  0  0
  152.5349  140.9600  158.4589 C   0  0  0  0  0  0  0  0  0  0  0  0
  152.7772  141.8061  159.5646 C   0  0  0  0  0  0  0  0  0  0  0  0
  153.8461  141.4007  160.5653 C   0  0  0  0  0  0  0  0  0  0  0  0
  151.7466  144.8402  160.8641 H   0  0  0  0  0  0  0  0  0  0  0  0
  153.3670  144.1664  160.9959 H   0  0  0  0  0  0  0  0  0  0  0  0
  152.0189  143.4105  161.8592 H   0  0  0  0  0  0  0  0  0  0  0  0
  150.4734  144.2992  158.9513 H   0  0  0  0  0  0  0  0  0  0  0  0
  149.4939  141.3460  154.9663 H   0  0  0  0  0  0  0  0  0  0  0  0
  152.5670  139.7147  155.4224 H   0  0  0  0  0  0  0  0  0  0  0  0
  151.8399  138.9013  156.7880 H   0  0  0  0  0  0  0  0  0  0  0  0
  149.6660  138.7375  155.3979 H   0  0  0  0  0  0  0  0  0  0  0  0
  149.9426  139.0888  153.1950 H   0  0  0  0  0  0  0  0  0  0  0  0
  151.6794  137.3041  153.7192 H   0  0  0  0  0  0  0  0  0  0  0  0
  151.8457  136.9578  155.4185 H   0  0  0  0  0  0  0  0  0  0  0  0
  149.4020  136.5067  156.6268 H   0  0  0  0  0  0  0  0  0  0  0  0
  148.5551  137.5640  155.5248 H   0  0  0  0  0  0  0  0  0  0  0  0
  147.0529  135.7228  156.2200 H   0  0  0  0  0  0  0  0  0  0  0  0
  147.3370  135.7016  154.5113 H   0  0  0  0  0  0  0  0  0  0  0  0
  149.2667  134.5288  157.3359 H   0  0  0  0  0  0  0  0  0  0  0  0
  147.8610  133.5233  157.5141 H   0  0  0  0  0  0  0  0  0  0  0  0
  149.0920  131.5680  156.6170 H   0  0  0  0  0  0  0  0  0  0  0  0
  150.4489  132.5932  156.1621 H   0  0  0  0  0  0  0  0  0  0  0  0
  149.6053  131.7445  158.6670 H   0  0  0  0  0  0  0  0  0  0  0  0
  149.6610  132.9159  154.5434 H   0  0  0  0  0  0  0  0  0  0  0  0
  148.8470  134.0697  153.5289 H   0  0  0  0  0  0  0  0  0  0  0  0
  151.1838  134.7456  153.8172 H   0  0  0  0  0  0  0  0  0  0  0  0
  151.0464  134.7397  155.5615 H   0  0  0  0  0  0  0  0  0  0  0  0
  153.0924  140.0445  158.3261 H   0  0  0  0  0  0  0  0  0  0  0  0
  154.2552  140.4163  160.3352 H   0  0  0  0  0  0  0  0  0  0  0  0
  153.4353  141.3609  161.5744 H   0  0  0  0  0  0  0  0  0  0  0  0
  154.6692  142.1156  160.5537 H   0  0  0  0  0  0  0  0  0  0  0  0
  149.5787  136.4454  153.6964 H   0  0  0  0  0  0  0  0  0  0  0  0
  149.2387  143.3712  156.5238 H   0  0  0  0  0  0  0  0  0  0  0  0
  1  2  1  0  0  0  0
  1 25  1  0  0  0  0
  1 26  1  0  0  0  0
  1 27  1  0  0  0  0
  2 23  1  0  0  0  0
  2  3  2  0  0  0  0
  3  4  1  0  0  0  0
  3 28  1  0  0  0  0
  4 21  2  0  0  0  0
  4  5  1  0  0  0  0
  5  6  2  0  0  0  0
  5 54  1  0  0  0  0
  6  7  1  0  0  0  0
  6 29  1  0  0  0  0
  7  8  1  0  0  0  0
  7 21  1  0  0  0  0
  8  9  1  0  0  0  0
  8 30  1  0  0  0  0
  8 31  1  0  0  0  0
  9 10  1  0  0  0  0
  9 11  1  0  0  0  0
  9 32  1  0  0  0  0
 10 33  1  0  0  0  0
 11 12  1  0  0  0  0
 11 34  1  0  0  0  0
 11 35  1  0  0  0  0
 12 20  1  0  0  0  0
 12 13  1  0  0  0  0
 12 53  1  0  0  0  0
 13 14  1  0  0  0  0
 13 36  1  0  0  0  0
 13 37  1  0  0  0  0
 14 15  1  0  0  0  0
 14 38  1  0  0  0  0
 14 39  1  0  0  0  0
 15 16  1  0  0  0  0
 15 19  1  0  0  0  0
 16 17  1  0  0  0  0
 16 40  1  0  0  0  0
 16 41  1  0  0  0  0
 17 18  1  0  0  0  0
 17 42  1  0  0  0  0
 17 43  1  0  0  0  0
 18 44  1  0  0  0  0
 19 20  1  0  0  0  0
 19 45  1  0  0  0  0
 19 46  1  0  0  0  0
 20 47  1  0  0  0  0
 20 48  1  0  0  0  0
 21 22  1  0  0  0  0
 22 23  2  0  0  0  0
 22 49  1  0  0  0  0
 23 24  1  0  0  0  0
 24 50  1  0  0  0  0
 24 51  1  0  0  0  0
 24 52  1  0  0  0  0
M  CHG  1   5   1
M  CHG  1  12   1
M  END
> <s_m_source_file>
AV-unprocessed.smi

> <i_m_source_file_index>
1046

> <i_lp_mmshare_version>
43012

> <i_f3d_flags>
0

> <s_epik_input>
W0NIM11jKFtjSF0xKWMoW0NIM10pW2NIXWMoYzEyKW4oW2NIXW4yKVtDSDJdW0NASF0oW09IXSlbQ0gyXU4zW0NIMl1bQ0gyXU4oW0NIMl1bQ0gyXTMpW0NIMl1bQ0gyXVtPSF0=

> <s_epik_cmdline>
J2VwaWtfcHl0aG9uJywgJy1waCcsICc3LjAnLCAnLXRuJywgJzgnLCAnLW1hJywgJzIwMCcsICctbWV0YWxfYmluZGluZycsICctaW1hZScsICc8aW5maWxlLm1hZT4nLCAnLW9tYWUnLCAnPG91dGZpbGUubWFlPic=

> <r_epik_Ionization_Penalty>
1.22056

> <r_epik_Ionization_Penalty_Charging>
1.17959

> <r_epik_Ionization_Penalty_Neutral>
0.0409743

> <r_epik_State_Penalty>
1.27074

> <r_epik_Charging_Adjusted_Penalty>
2.45032

> <i_epik_Tot_Q>
2

> <i_epik_Tot_abs_Q>
2

> <r_epik_Metal_State_Penalty>
5.26922

> <b_epik_Metal_Only>
0

> <s_lp_Force_Field>
OPLS_2005

> <r_lp_Energy>
42.2252

> <b_lp_Chiralities_Consistent>
1

> <s_lp_Variant>
AV-unprocessed.smi:1046-6

> <Gold.Version>
5.8.1

> <Gold.Id.Protein>
6NUR|6NUR_protein|mol2

> <Gold.PLP.Fitness>
59.8481

> <Gold.PLP.PLP>
-43.8590

> <Gold.PLP.part.hbond>
-4.8228

> <Gold.PLP.part.metal>
0.0000

> <Gold.PLP.part.buried>
-3.9634

> <Gold.PLP.part.nonpolar>
-36.1897

> <Gold.PLP.part.repulsive>
0.1305

> <Gold.PLP.ligand.clash>
0.0000

> <Gold.PLP.ligand.torsion>
1.3045

> <Gold.PLP.Chemscore.Hbond>
6.1747

> <Gold.PLP.Chemscore.CHOScore>
0.0000

> <Gold.PLP.Chemscore.Metal>
0.0000

> <Gold.Chemscore.Hbonds>
donor molecule, donor type, donor heavy atom, donor atom, acceptor molecule, acceptor atom, score
      L1  H     5    54       P1  8028  1.86
      L1  H    10    33       P1  7957  0.15
      L1  H    12    53       P1  7948  2.00
      P1  H  6896  6909       L1    18  1.00
      P1  H  7989  7998       L1    10  1.00

> <Gold.PLP.Chemscore.Internal.Correction>
0.0738

> <Gold.Rescore>
     Score         DG    S(hbond)    S(metal)    S(lipo)     H(rot)  DE(clash)    DE(int)     intcor
     20.79     -23.57       3.88        0.00     115.87       3.29       0.55       2.23       ----

> <Gold.Chemscore.Fitness>
20.7911

> <Gold.Chemscore.DG>
-23.5709

> <Gold.Chemscore.ZeroCoef>
-5.4800

> <Gold.Chemscore.Hbond>
3.8791

> <Gold.Chemscore.Metal>
0.0000

> <Gold.Chemscore.Lipo>
115.8656

> <Gold.Chemscore.Internal_Hbond>
0.0000

> <Gold.Chemscore.DEClash>
0.5472

> <Gold.Chemscore.DEInternal>
2.2326

> <Gold.Chemscore.Rot>
3.2896

> <Gold.Chemscore.Internal.Correction>
   9.000000E+99

> <Gold.Chemscore.Hbonds>
donor molecule, donor type, donor heavy atom, donor atom, acceptor molecule, acceptor atom, score
      L1  H     5    54       P1  8028  0.89
      L1  H    10    33       P1  7957  0.14
      L1  H    12    53       P1  7948  0.65
      P1  H  6896  6909       L1    18  0.85
      P1  H  7989  7998       L1    10  0.93

> <Gold.Chemscore.Hbond.Weighted>
-12.9561

> <Gold.Chemscore.Metal.Weighted>
-0.0000

> <Gold.Chemscore.Lipo.Weighted>
-13.5563

> <Gold.Chemscore.Internal_Hbond.Weighted>
0.0000

> <Gold.Chemscore.DEClash.Weighted>
0.5472

> <Gold.Chemscore.DEInternal.Weighted>
2.2326

> <Gold.Chemscore.Rot.Weighted>
8.4215

> <Gold.Chemscore.Internal.Correction.Weighted>
   9.000000E+99

> <Gold.Protein.RotatedTorsions>
[ 6907 6896 6895 6894 ] final  -28.11 input  -60.11 | X-H torsion
[ 7974 7965 7964 7962 ] final -161.35 input  175.53 | X-H torsion
[ 8008 7997 7996 7995 ] final   41.77 input   59.86 | X-H torsion
[ 10167 10162 10161 10158 ] final    6.27 input  -65.29 | X-H torsion
[ 10718 10713 10712 10709 ] final   15.19 input   66.30 | X-H torsion
[ 10763 10752 10751 10750 ] final  160.16 input  -60.55 | X-H torsion
[ 11005 11000 10999 10996 ] final -118.59 input  -57.11 | X-H torsion

> <Gold.Protein.ActiveResidues>
 VAL166  LYS551  ARG553  GLY616  TRP617  ASP618  TYR619  PRO620  LYS621  CYS622 
 ASP623  PHE694  ASN695  SER759  ASP760  ASP761  ALA762  ILE779  LEU786  VAL792 
 PHE793  MET794  SER795  GLU796  ALA797  LYS798  CYS799  TRP800  GLU811  SER814 

> <Gold.Protein.RotatedAtoms>
  151.1375  135.0162  159.8610 H   0  0  0  0  0  0  0  0  0  0  0  0  # atno 6907 bound_to 6896
  152.5452  134.1538  159.8539 H   0  0  0  0  0  0  0  0  0  0  0  0  # atno 6908 bound_to 6896
  151.1610  133.4800  159.2627 H   0  0  0  0  0  0  0  0  0  0  0  0  # atno 6909 bound_to 6896
  144.7394  140.3410  143.6134 H   0  0  0  0  0  0  0  0  0  0  0  0  # atno 7974 bound_to 7965
  155.2751  140.3368  155.4262 H   0  0  0  0  0  0  0  0  0  0  0  0  # atno 8008 bound_to 7997
  156.2115  140.1772  156.7725 H   0  0  0  0  0  0  0  0  0  0  0  0  # atno 8009 bound_to 7997
  154.5693  140.0673  156.8925 H   0  0  0  0  0  0  0  0  0  0  0  0  # atno 8010 bound_to 7997
  140.6437  143.7714  150.7466 H   0  0  0  0  0  0  0  0  0  0  0  0  # atno 10167 bound_to 10162
  157.0499  130.6265  149.5766 H   0  0  0  0  0  0  0  0  0  0  0  0  # atno 10718 bound_to 10713
  154.2430  135.2774  155.2846 H   0  0  0  0  0  0  0  0  0  0  0  0  # atno 10763 bound_to 10752
  154.5529  135.5670  153.6941 H   0  0  0  0  0  0  0  0  0  0  0  0  # atno 10764 bound_to 10752
  152.9996  135.6279  154.2575 H   0  0  0  0  0  0  0  0  0  0  0  0  # atno 10765 bound_to 10752
  141.0275  134.0032  157.3193 H   0  0  0  0  0  0  0  0  0  0  0  0  # atno 11005 bound_to 11000
  145.7374  139.1754  143.2395 LP  0  0  0  0  0  0  0  0  0  0  0  0  # atno 17320 bound_to 7965
  146.1160  140.7369  142.9480 LP  0  0  0  0  0  0  0  0  0  0  0  0  # atno 17321 bound_to 7965
  140.1351  143.4491  152.2230 LP  0  0  0  0  0  0  0  0  0  0  0  0  # atno 17342 bound_to 10162
  139.5646  144.7427  151.4058 LP  0  0  0  0  0  0  0  0  0  0  0  0  # atno 17343 bound_to 10162
  156.0011  130.5090  150.7665 LP  0  0  0  0  0  0  0  0  0  0  0  0  # atno 17370 bound_to 10713
  157.5038  131.0920  151.0282 LP  0  0  0  0  0  0  0  0  0  0  0  0  # atno 17371 bound_to 10713
  139.9185  135.0199  156.7975 LP  0  0  0  0  0  0  0  0  0  0  0  0  # atno 17394 bound_to 11000
  140.6466  133.9770  155.7734 LP  0  0  0  0  0  0  0  0  0  0  0  0  # atno 17395 bound_to 11000

$$$$
