AV-unprocessed.smi:2955|AV-procd|sdf|11301|dock5
  -GOLD-   2272016193D 1   1.00000     0.00000
 Structure written by MMmdl.
 45 47  0  0  0  0  0  0  0  0  1 V2000
  151.8323  144.6027  158.9227 C   0  0  0  0  0  0  0  0  0  0  0  0
  152.4714  143.6324  159.8945 C   0  0  0  0  0  0  0  0  0  0  0  0
  152.2182  143.7360  161.2764 C   0  0  0  0  0  0  0  0  0  0  0  0
  152.8185  142.8296  162.1695 C   0  0  0  0  0  0  0  0  0  0  0  0
  153.6703  141.8174  161.6866 C   0  0  0  0  0  0  0  0  0  0  0  0
  153.9291  141.6997  160.2977 C   0  0  0  0  0  0  0  0  0  0  0  0
  154.7416  140.7363  159.7394 O   0  0  0  0  0  0  0  0  0  0  0  0
  155.2048  139.6815  160.5719 C   0  0  0  0  0  0  0  0  0  0  0  0
  154.0299  138.7775  160.9708 C   0  0  0  0  0  0  0  0  0  0  0  0
  154.4380  137.3895  161.1453 N   0  0  0  0  0  0  0  0  0  0  0  0
  154.9346  136.5138  160.2304 C   0  0  0  0  0  0  0  0  0  0  0  0
  155.1552  136.8702  158.7810 C   0  0  2  0  0  0  0  0  0  0  0  0
  153.8660  137.3503  158.0989 C   0  0  0  0  0  0  0  0  0  0  0  0
  155.6864  135.6989  158.0920 N   0  0  0  0  0  0  0  0  0  0  0  0
  155.0919  134.4995  158.0780 C   0  0  0  0  0  0  0  0  0  0  0  0
  154.0314  134.2680  158.6526 O   0  0  0  0  0  0  0  0  0  0  0  0
  155.2477  135.3051  160.7055 N   0  0  0  0  0  0  0  0  0  0  0  0
  154.8951  135.3937  162.0363 C   0  0  0  0  0  0  0  0  0  0  0  0
  154.9693  134.4349  163.0718 C   0  0  0  0  0  0  0  0  0  0  0  0
  154.5406  134.7586  164.3758 C   0  0  0  0  0  0  0  0  0  0  0  0
  154.0345  136.0429  164.6621 C   0  0  0  0  0  0  0  0  0  0  0  0
  153.9545  137.0130  163.6445 C   0  0  0  0  0  0  0  0  0  0  0  0
  154.3826  136.6844  162.3440 C   0  0  0  0  0  0  0  0  0  0  0  0
  153.3228  142.6168  159.4144 C   0  0  0  0  0  0  0  0  0  0  0  0
  151.3316  145.4177  159.4462 H   0  0  0  0  0  0  0  0  0  0  0  0
  151.0950  144.0879  158.3066 H   0  0  0  0  0  0  0  0  0  0  0  0
  152.5878  145.0350  158.2665 H   0  0  0  0  0  0  0  0  0  0  0  0
  151.5652  144.5081  161.6563 H   0  0  0  0  0  0  0  0  0  0  0  0
  152.6245  142.9097  163.2288 H   0  0  0  0  0  0  0  0  0  0  0  0
  154.1103  141.1416  162.4037 H   0  0  0  0  0  0  0  0  0  0  0  0
  155.9524  139.0911  160.0404 H   0  0  0  0  0  0  0  0  0  0  0  0
  155.6714  140.0831  161.4728 H   0  0  0  0  0  0  0  0  0  0  0  0
  153.5385  139.1415  161.8719 H   0  0  0  0  0  0  0  0  0  0  0  0
  153.2677  138.8121  160.1918 H   0  0  0  0  0  0  0  0  0  0  0  0
  155.8780  137.6791  158.6915 H   0  0  0  0  0  0  0  0  0  0  0  0
  153.4467  138.2104  158.6201 H   0  0  0  0  0  0  0  0  0  0  0  0
  153.1043  136.5701  158.0864 H   0  0  0  0  0  0  0  0  0  0  0  0
  154.0543  137.6470  157.0668 H   0  0  0  0  0  0  0  0  0  0  0  0
  156.5554  135.8112  157.5904 H   0  0  0  0  0  0  0  0  0  0  0  0
  155.6679  133.7619  157.4974 H   0  0  0  0  0  0  0  0  0  0  0  0
  155.3549  133.4483  162.8620 H   0  0  0  0  0  0  0  0  0  0  0  0
  154.6001  134.0182  165.1598 H   0  0  0  0  0  0  0  0  0  0  0  0
  153.7079  136.2832  165.6634 H   0  0  0  0  0  0  0  0  0  0  0  0
  153.5666  137.9970  163.8615 H   0  0  0  0  0  0  0  0  0  0  0  0
  153.5153  142.5409  158.3543 H   0  0  0  0  0  0  0  0  0  0  0  0
  1  2  1  0  0  0  0
  1 25  1  0  0  0  0
  1 26  1  0  0  0  0
  1 27  1  0  0  0  0
  2 24  1  0  0  0  0
  2  3  2  0  0  0  0
  3  4  1  0  0  0  0
  3 28  1  0  0  0  0
  4  5  2  0  0  0  0
  4 29  1  0  0  0  0
  5  6  1  0  0  0  0
  5 30  1  0  0  0  0
  6  7  1  0  0  0  0
  6 24  2  0  0  0  0
  7  8  1  0  0  0  0
  8  9  1  0  0  0  0
  8 31  1  0  0  0  0
  8 32  1  0  0  0  0
  9 10  1  0  0  0  0
  9 33  1  0  0  0  0
  9 34  1  0  0  0  0
 10 23  1  0  0  0  0
 10 11  1  0  0  0  0
 11 12  1  0  0  0  0
 11 17  2  0  0  0  0
 12 13  1  0  0  0  0
 12 14  1  0  0  0  0
 12 35  1  0  0  0  0
 13 36  1  0  0  0  0
 13 37  1  0  0  0  0
 13 38  1  0  0  0  0
 14 15  1  0  0  0  0
 14 39  1  0  0  0  0
 15 16  2  0  0  0  0
 15 40  1  0  0  0  0
 17 18  1  0  0  0  0
 18 23  2  0  0  0  0
 18 19  1  0  0  0  0
 19 20  2  0  0  0  0
 19 41  1  0  0  0  0
 20 21  1  0  0  0  0
 20 42  1  0  0  0  0
 21 22  2  0  0  0  0
 21 43  1  0  0  0  0
 22 23  1  0  0  0  0
 22 44  1  0  0  0  0
 24 45  1  0  0  0  0
M  END
> <s_m_source_file>
AV-unprocessed.smi

> <i_m_source_file_index>
2955

> <i_lp_mmshare_version>
43012

> <i_f3d_flags>
0

> <s_epik_input>
W0NIM11jMVtjSF1bY0hdW2NIXWMoW2NIXTEpT1tDSDJdW0NIMl1uKGMobjIpW0NASF0oW0NIM10pW05IXVtDSF09TyljKGMyMylbY0hdW2NIXVtjSF1bY0hdMw==

> <s_epik_cmdline>
J2VwaWtfcHl0aG9uJywgJy1waCcsICc3LjAnLCAnLXRuJywgJzgnLCAnLW1hJywgJzIwMCcsICctbWV0YWxfYmluZGluZycsICctaW1hZScsICc8aW5maWxlLm1hZT4nLCAnLW9tYWUnLCAnPG91dGZpbGUubWFlPic=

> <r_lp_tautomer_probability>
1

> <r_epik_Ionization_Penalty>
0.0917757

> <r_epik_Ionization_Penalty_Charging>
0

> <r_epik_Ionization_Penalty_Neutral>
0.0917757

> <r_epik_State_Penalty>
0.0820948

> <r_epik_Charging_Adjusted_Penalty>
0.0820948

> <i_epik_Tot_Q>
0

> <i_epik_Tot_abs_Q>
0

> <r_epik_Metal_State_Penalty>
0.0709956

> <b_epik_Metal_Only>
0

> <s_lp_Force_Field>
OPLS_2005

> <r_lp_Energy>
12.8811

> <b_lp_Chiralities_Consistent>
1

> <s_lp_Variant>
AV-unprocessed.smi:2955-1

> <Gold.Version>
5.8.1

> <Gold.Id.Protein>
6NUR|6NUR_protein|mol2

> <Gold.PLP.Fitness>
55.3093

> <Gold.PLP.PLP>
-53.1000

> <Gold.PLP.part.hbond>
-1.0000

> <Gold.PLP.part.metal>
0.0000

> <Gold.PLP.part.buried>
-4.9447

> <Gold.PLP.part.nonpolar>
-46.9033

> <Gold.PLP.part.repulsive>
0.0555

> <Gold.PLP.ligand.clash>
0.0000

> <Gold.PLP.ligand.torsion>
0.3707

> <Gold.PLP.Chemscore.Hbond>
0.9280

> <Gold.PLP.Chemscore.CHOScore>
0.0000

> <Gold.PLP.Chemscore.Metal>
0.0000

> <Gold.Chemscore.Hbonds>
donor molecule, donor type, donor heavy atom, donor atom, acceptor molecule, acceptor atom, score
      P1  H  6896  6908       L1    16  0.99

> <Gold.PLP.Chemscore.Internal.Correction>
0.1668

> <Gold.Rescore>
     Score         DG    S(hbond)    S(metal)    S(lipo)     H(rot)  DE(clash)    DE(int)     intcor
     15.70     -20.45       0.95        0.00     150.24       2.26       0.07       4.68       ----

> <Gold.Chemscore.Fitness>
15.7012

> <Gold.Chemscore.DG>
-20.4533

> <Gold.Chemscore.ZeroCoef>
-5.4800

> <Gold.Chemscore.Hbond>
0.9539

> <Gold.Chemscore.Metal>
0.0000

> <Gold.Chemscore.Lipo>
150.2387

> <Gold.Chemscore.Internal_Hbond>
0.0000

> <Gold.Chemscore.DEClash>
0.0727

> <Gold.Chemscore.DEInternal>
4.6793

> <Gold.Chemscore.Rot>
2.2619

> <Gold.Chemscore.Internal.Correction>
   9.000000E+99

> <Gold.Chemscore.Hbonds>
donor molecule, donor type, donor heavy atom, donor atom, acceptor molecule, acceptor atom, score
      P1  H  6896  6908       L1    16  0.94

> <Gold.Chemscore.Hbond.Weighted>
-3.1859

> <Gold.Chemscore.Metal.Weighted>
-0.0000

> <Gold.Chemscore.Lipo.Weighted>
-17.5779

> <Gold.Chemscore.Internal_Hbond.Weighted>
0.0000

> <Gold.Chemscore.DEClash.Weighted>
0.0727

> <Gold.Chemscore.DEInternal.Weighted>
4.6793

> <Gold.Chemscore.Rot.Weighted>
5.7906

> <Gold.Chemscore.Internal.Correction.Weighted>
   9.000000E+99

> <Gold.Protein.RotatedTorsions>
[ 6907 6896 6895 6894 ] final  -21.31 input  -60.11 | X-H torsion
[ 7974 7965 7964 7962 ] final  -70.39 input  175.53 | X-H torsion
[ 8008 7997 7996 7995 ] final  -30.36 input   59.86 | X-H torsion
[ 10167 10162 10161 10158 ] final -154.14 input  -65.29 | X-H torsion
[ 10718 10713 10712 10709 ] final  149.51 input   66.30 | X-H torsion
[ 10763 10752 10751 10750 ] final  159.51 input  -60.55 | X-H torsion
[ 11005 11000 10999 10996 ] final  -85.49 input  -57.11 | X-H torsion

> <Gold.Protein.ActiveResidues>
 VAL166  LYS551  ARG553  GLY616  TRP617  ASP618  TYR619  PRO620  LYS621  CYS622 
 ASP623  PHE694  ASN695  SER759  ASP760  ASP761  ALA762  ILE779  LEU786  VAL792 
 PHE793  MET794  SER795  GLU796  ALA797  LYS798  CYS799  TRP800  GLU811  SER814 

> <Gold.Protein.RotatedAtoms>
  151.2352  135.0569  159.9002 H   0  0  0  0  0  0  0  0  0  0  0  0  # atno 6907 bound_to 6896
  152.5400  134.0494  159.8113 H   0  0  0  0  0  0  0  0  0  0  0  0  # atno 6908 bound_to 6896
  151.0679  133.5441  159.2661 H   0  0  0  0  0  0  0  0  0  0  0  0  # atno 6909 bound_to 6896
  145.6915  140.9151  143.0779 H   0  0  0  0  0  0  0  0  0  0  0  0  # atno 7974 bound_to 7965
  154.4253  140.1793  156.1395 H   0  0  0  0  0  0  0  0  0  0  0  0  # atno 8008 bound_to 7997
  156.0003  140.3360  155.6814 H   0  0  0  0  0  0  0  0  0  0  0  0  # atno 8009 bound_to 7997
  155.6252  140.0664  157.2657 H   0  0  0  0  0  0  0  0  0  0  0  0  # atno 8010 bound_to 7997
  139.7038  143.9219  152.2440 H   0  0  0  0  0  0  0  0  0  0  0  0  # atno 10167 bound_to 10162
  157.2951  131.0860  151.1432 H   0  0  0  0  0  0  0  0  0  0  0  0  # atno 10718 bound_to 10713
  154.2329  135.2777  155.2883 H   0  0  0  0  0  0  0  0  0  0  0  0  # atno 10763 bound_to 10752
  154.5609  135.5647  153.7010 H   0  0  0  0  0  0  0  0  0  0  0  0  # atno 10764 bound_to 10752
  153.0016  135.6297  154.2471 H   0  0  0  0  0  0  0  0  0  0  0  0  # atno 10765 bound_to 10752
  141.1640  133.7402  156.9023 H   0  0  0  0  0  0  0  0  0  0  0  0  # atno 11005 bound_to 11000
  144.6995  139.8828  143.7448 LP  0  0  0  0  0  0  0  0  0  0  0  0  # atno 17320 bound_to 7965
  146.0877  139.3866  143.0425 LP  0  0  0  0  0  0  0  0  0  0  0  0  # atno 17321 bound_to 7965
  139.9069  144.6879  150.8604 LP  0  0  0  0  0  0  0  0  0  0  0  0  # atno 17342 bound_to 10162
  140.7716  143.3472  151.2088 LP  0  0  0  0  0  0  0  0  0  0  0  0  # atno 17343 bound_to 10162
  157.2813  130.6751  149.6067 LP  0  0  0  0  0  0  0  0  0  0  0  0  # atno 17370 bound_to 10713
  155.9669  130.4449  150.5479 LP  0  0  0  0  0  0  0  0  0  0  0  0  # atno 17371 bound_to 10713
  140.1574  134.9189  157.2671 LP  0  0  0  0  0  0  0  0  0  0  0  0  # atno 17394 bound_to 11000
  140.2651  134.3526  155.7393 LP  0  0  0  0  0  0  0  0  0  0  0  0  # atno 17395 bound_to 11000

$$$$
