AV-unprocessed.smi:160|AV-procd|sdf|1360|dock8
  -GOLD-   2262019 73D 1   1.00000     0.00000
 Structure written by MMmdl.
 28 29  0  0  0  0  0  0  0  0  2 V2000
  154.8836  135.5913  156.7699 N   0  5  0  0  0  0  0  0  0  0  0  0
  154.7212  136.8489  157.2350 C   0  0  0  0  0  0  0  0  0  0  0  0
  155.3576  137.3750  158.1475 O   0  0  0  0  0  0  0  0  0  0  0  0
  153.6433  137.6424  156.5352 C   0  0  0  0  0  0  0  0  0  0  0  0
  152.8833  137.0688  155.5530 N   0  0  0  0  0  0  0  0  0  0  0  0
  152.1114  138.1035  155.2501 C   0  0  0  0  0  0  0  0  0  0  0  0
  152.3667  139.2054  155.9610 N   0  0  0  0  0  0  0  0  0  0  0  0
  151.7131  140.5539  155.9023 C   0  0  1  0  0  0  0  0  0  0  0  0
  150.6908  140.5091  154.9512 O   0  0  0  0  0  0  0  0  0  0  0  0
  149.4274  140.4337  155.6041 C   0  0  2  0  0  0  0  0  0  0  0  0
  148.3216  140.9274  154.6584 C   0  0  0  0  0  0  0  0  0  0  0  0
  148.6136  142.2326  154.2072 O   0  0  0  0  0  0  0  0  0  0  0  0
  149.6568  141.3488  156.8084 C   0  0  1  0  0  0  0  0  0  0  0  0
  148.6901  141.1744  157.8279 O   0  0  0  0  0  0  0  0  0  0  0  0
  151.0782  140.9956  157.2434 C   0  0  1  0  0  0  0  0  0  0  0  0
  151.1094  140.0077  158.2626 O   0  0  0  0  0  0  0  0  0  0  0  0
  153.3742  138.9196  156.8232 N   0  0  0  0  0  0  0  0  0  0  0  0
  152.5039  141.2223  155.5601 H   0  0  0  0  0  0  0  0  0  0  0  0
  149.2350  139.4133  155.9422 H   0  0  0  0  0  0  0  0  0  0  0  0
  149.6367  142.3892  156.4799 H   0  0  0  0  0  0  0  0  0  0  0  0
  151.6010  141.8780  157.6131 H   0  0  0  0  0  0  0  0  0  0  0  0
  154.7997  134.8109  157.4325 H   0  0  0  0  0  0  0  0  0  0  0  0
  151.3454  138.0581  154.4902 H   0  0  0  0  0  0  0  0  0  0  0  0
  148.2652  140.2844  153.7797 H   0  0  0  0  0  0  0  0  0  0  0  0
  147.3446  140.9019  155.1416 H   0  0  0  0  0  0  0  0  0  0  0  0
  148.7003  142.7987  154.9584 H   0  0  0  0  0  0  0  0  0  0  0  0
  147.9661  141.7566  157.6567 H   0  0  0  0  0  0  0  0  0  0  0  0
  150.2220  139.8002  158.5116 H   0  0  0  0  0  0  0  0  0  0  0  0
  1  2  1  0  0  0  0
  1 22  1  0  0  0  0
  2  3  2  0  0  0  0
  2  4  1  0  0  0  0
  4 17  2  0  0  0  0
  4  5  1  0  0  0  0
  5  6  2  0  0  0  0
  6  7  1  0  0  0  0
  6 23  1  0  0  0  0
  7  8  1  0  0  0  0
  7 17  1  0  0  0  0
  8 18  1  0  0  0  0
  8 15  1  0  0  0  0
  8  9  1  0  0  0  0
  9 10  1  0  0  0  0
 10 19  1  0  0  0  0
 10 11  1  0  0  0  0
 10 13  1  0  0  0  0
 11 12  1  0  0  0  0
 11 24  1  0  0  0  0
 11 25  1  0  0  0  0
 12 26  1  0  0  0  0
 13 20  1  0  0  0  0
 13 14  1  0  0  0  0
 13 15  1  0  0  0  0
 14 27  1  0  0  0  0
 15 21  1  0  0  0  0
 15 16  1  0  0  0  0
 16 28  1  0  0  0  0
M  CHG  1   1  -1
M  END
> <s_m_source_file>
AV-unprocessed.smi

> <i_m_source_file_index>
160

> <i_lp_mmshare_version>
43012

> <i_f3d_flags>
0

> <s_epik_input>
W05IMl1DKD1PKWMxbltjSF1uKG4xKVtDQEBIXTJPW0NASF0oW0NIMl1bT0hdKVtDQEBIXShbT0hdKVtDQEhdMltPSF0=

> <s_epik_cmdline>
J2VwaWtfcHl0aG9uJywgJy1waCcsICc3LjAnLCAnLXRuJywgJzgnLCAnLW1hJywgJzIwMCcsICctbWV0YWxfYmluZGluZycsICctaW1hZScsICc8aW5maWxlLm1hZT4nLCAnLW9tYWUnLCAnPG91dGZpbGUubWFlPic=

> <r_lp_tautomer_probability>
1

> <r_epik_Ionization_Penalty>
6.6993

> <r_epik_Ionization_Penalty_Charging>
6.6993

> <r_epik_Ionization_Penalty_Neutral>
6.01698e-06

> <r_epik_State_Penalty>
6.69929

> <r_epik_Charging_Adjusted_Penalty>
13.3986

> <i_epik_Tot_Q>
-1

> <i_epik_Tot_abs_Q>
1

> <r_epik_Metal_State_Penalty>
2.62798

> <b_epik_Metal_Only>
1

> <s_epik_Chemistry_Notes>
This compound contains an acetal/aminal-like group ( X-CH(R)-Y where X, Y are N, S, or O) that may be acid/base labile, releasing an aldehyde.

> <s_lp_Force_Field>
OPLS_2005

> <r_lp_Energy>
50.1609

> <b_lp_Chiralities_Consistent>
1

> <s_lp_Variant>
AV-unprocessed.smi:160-18

> <Gold.Version>
5.8.1

> <Gold.Id.Protein>
6NUR|6NUR_protein|mol2

> <Gold.PLP.Fitness>
40.4167

> <Gold.PLP.PLP>
-23.4415

> <Gold.PLP.part.hbond>
-6.0000

> <Gold.PLP.part.metal>
0.0000

> <Gold.PLP.part.buried>
-4.5336

> <Gold.PLP.part.nonpolar>
-13.7384

> <Gold.PLP.part.repulsive>
0.0924

> <Gold.PLP.ligand.clash>
0.0000

> <Gold.PLP.ligand.torsion>
0.0153

> <Gold.PLP.Chemscore.Hbond>
5.6634

> <Gold.PLP.Chemscore.CHOScore>
0.0000

> <Gold.PLP.Chemscore.Metal>
0.0000

> <Gold.Chemscore.Hbonds>
donor molecule, donor type, donor heavy atom, donor atom, acceptor molecule, acceptor atom, score
      L1  H    12    26       P1  8028  0.92
      P1  H  7989  7998       L1     9  0.95
      P1  H  7997  8009       L1    17  1.00
      P1  H  8011  8017       L1    12  0.15
      P1  H 10752 10763       L1     5  0.29
      P1  H 10752 10764       L1     1  2.00

> <Gold.PLP.Chemscore.Internal.Correction>
0.0155

> <Gold.Rescore>
     Score         DG    S(hbond)    S(metal)    S(lipo)     H(rot)  DE(clash)    DE(int)     intcor
      9.58      -9.93       3.62        0.00      22.94       4.04       0.04       0.31       ----

> <Gold.Chemscore.Fitness>
9.5817

> <Gold.Chemscore.DG>
-9.9283

> <Gold.Chemscore.ZeroCoef>
-5.4800

> <Gold.Chemscore.Hbond>
3.6248

> <Gold.Chemscore.Metal>
0.0000

> <Gold.Chemscore.Lipo>
22.9443

> <Gold.Chemscore.Internal_Hbond>
0.0000

> <Gold.Chemscore.DEClash>
0.0354

> <Gold.Chemscore.DEInternal>
0.3112

> <Gold.Chemscore.Rot>
4.0403

> <Gold.Chemscore.Internal.Correction>
   9.000000E+99

> <Gold.Chemscore.Hbonds>
donor molecule, donor type, donor heavy atom, donor atom, acceptor molecule, acceptor atom, score
      L1  H    12    26       P1  8028  0.83
      P1  H  7989  7998       L1     9  0.21
      P1  H  7997  8009       L1    17  0.69
      P1  H  8011  8017       L1    12  0.15
      P1  H 10752 10763       L1     5  0.29
      P1  H 10752 10764       L1     1  0.86

> <Gold.Chemscore.Hbond.Weighted>
-12.1069

> <Gold.Chemscore.Metal.Weighted>
-0.0000

> <Gold.Chemscore.Lipo.Weighted>
-2.6845

> <Gold.Chemscore.Internal_Hbond.Weighted>
0.0000

> <Gold.Chemscore.DEClash.Weighted>
0.0354

> <Gold.Chemscore.DEInternal.Weighted>
0.3112

> <Gold.Chemscore.Rot.Weighted>
10.3431

> <Gold.Chemscore.Internal.Correction.Weighted>
   9.000000E+99

> <Gold.Protein.RotatedTorsions>
[ 6907 6896 6895 6894 ] final   35.14 input  -60.11 | X-H torsion
[ 7974 7965 7964 7962 ] final  -31.05 input  175.53 | X-H torsion
[ 8008 7997 7996 7995 ] final  170.01 input   59.86 | X-H torsion
[ 10167 10162 10161 10158 ] final  -71.00 input  -65.29 | X-H torsion
[ 10718 10713 10712 10709 ] final  -96.45 input   66.30 | X-H torsion
[ 10763 10752 10751 10750 ] final   49.46 input  -60.55 | X-H torsion
[ 11005 11000 10999 10996 ] final -140.92 input  -57.11 | X-H torsion

> <Gold.Protein.ActiveResidues>
 VAL166  LYS551  ARG553  GLY616  TRP617  ASP618  TYR619  PRO620  LYS621  CYS622 
 ASP623  PHE694  ASN695  SER759  ASP760  ASP761  ALA762  ILE779  LEU786  VAL792 
 PHE793  MET794  SER795  GLU796  ALA797  LYS798  CYS799  TRP800  GLU811  SER814 

> <Gold.Protein.RotatedAtoms>
  152.1121  134.9267  160.0566 H   0  0  0  0  0  0  0  0  0  0  0  0  # atno 6907 bound_to 6896
  152.0441  133.3985  159.4357 H   0  0  0  0  0  0  0  0  0  0  0  0  # atno 6908 bound_to 6896
  150.6844  134.3303  159.4868 H   0  0  0  0  0  0  0  0  0  0  0  0  # atno 6909 bound_to 6896
  146.1097  140.5618  142.8783 H   0  0  0  0  0  0  0  0  0  0  0  0  # atno 7974 bound_to 7965
  156.1405  140.1549  156.8928 H   0  0  0  0  0  0  0  0  0  0  0  0  # atno 8008 bound_to 7997
  154.4983  140.0832  156.7782 H   0  0  0  0  0  0  0  0  0  0  0  0  # atno 8009 bound_to 7997
  155.4088  140.3418  155.4264 H   0  0  0  0  0  0  0  0  0  0  0  0  # atno 8010 bound_to 7997
  140.5308  143.2322  151.7265 H   0  0  0  0  0  0  0  0  0  0  0  0  # atno 10167 bound_to 10162
  156.0062  130.5152  150.6228 H   0  0  0  0  0  0  0  0  0  0  0  0  # atno 10718 bound_to 10713
  152.9787  135.5911  154.4092 H   0  0  0  0  0  0  0  0  0  0  0  0  # atno 10763 bound_to 10752
  154.3729  135.2767  155.2258 H   0  0  0  0  0  0  0  0  0  0  0  0  # atno 10764 bound_to 10752
  154.4205  135.6060  153.6062 H   0  0  0  0  0  0  0  0  0  0  0  0  # atno 10765 bound_to 10752
  140.8375  134.2442  157.4826 H   0  0  0  0  0  0  0  0  0  0  0  0  # atno 11005 bound_to 11000
  144.7501  140.5168  143.6808 LP  0  0  0  0  0  0  0  0  0  0  0  0  # atno 17320 bound_to 7965
  145.5689  139.1482  143.3299 LP  0  0  0  0  0  0  0  0  0  0  0  0  # atno 17321 bound_to 7965
  139.4953  144.4117  152.0073 LP  0  0  0  0  0  0  0  0  0  0  0  0  # atno 17342 bound_to 10162
  140.3219  144.3418  150.6007 LP  0  0  0  0  0  0  0  0  0  0  0  0  # atno 17343 bound_to 10162
  157.4040  131.0814  151.1282 LP  0  0  0  0  0  0  0  0  0  0  0  0  # atno 17370 bound_to 10713
  157.1935  130.6362  149.5713 LP  0  0  0  0  0  0  0  0  0  0  0  0  # atno 17371 bound_to 10713
  139.8704  134.9618  156.4409 LP  0  0  0  0  0  0  0  0  0  0  0  0  # atno 17394 bound_to 11000
  140.8931  133.7833  155.9594 LP  0  0  0  0  0  0  0  0  0  0  0  0  # atno 17395 bound_to 11000

$$$$
