AV-unprocessed.smi:1884|AV-procd|sdf|7647|dock5
  -GOLD-   22720 9373D 1   1.00000     0.00000
 Structure written by MMmdl.
 40 42  0  0  0  0  0  0  0  0  1 V2000
  151.7801  138.3943  155.1090 C   0  0  0  0  0  0  0  0  0  0  0  0
  151.4516  139.4922  156.0702 C   0  0  0  0  0  0  0  0  0  0  0  0
  152.3271  139.9323  156.9741 N   0  0  0  0  0  0  0  0  0  0  0  0
  151.6185  140.9243  157.6243 C   0  0  0  0  0  0  0  0  0  0  0  0
  151.9937  141.7740  158.6894 C   0  0  0  0  0  0  0  0  0  0  0  0
  151.0851  142.7254  159.1978 C   0  0  0  0  0  0  0  0  0  0  0  0
  149.7909  142.8403  158.6502 C   0  0  0  0  0  0  0  0  0  0  0  0
  149.3968  142.0039  157.5883 C   0  0  0  0  0  0  0  0  0  0  0  0
  150.3077  141.0567  157.0837 C   0  0  0  0  0  0  0  0  0  0  0  0
  150.2414  140.1032  156.0723 N   0  0  0  0  0  0  0  0  0  0  0  0
  149.1012  139.8369  155.2064 C   0  0  0  0  0  0  0  0  0  0  0  0
  148.6137  141.0967  154.4618 C   0  0  1  0  0  0  0  0  0  0  0  0
  149.3148  141.2891  153.2492 O   0  0  0  0  0  0  0  0  0  0  0  0
  147.1028  141.0977  154.1763 C   0  0  0  0  0  0  0  0  0  0  0  0
  146.7931  142.0867  153.2018 O   0  0  0  0  0  0  0  0  0  0  0  0
  145.9100  143.0884  153.5423 C   0  0  0  0  0  0  0  0  0  0  0  0
  145.6251  144.0521  152.5533 C   0  0  0  0  0  0  0  0  0  0  0  0
  144.7344  145.1115  152.8127 C   0  0  0  0  0  0  0  0  0  0  0  0
  144.1146  145.2186  154.0732 C   0  0  0  0  0  0  0  0  0  0  0  0
  143.1947  146.3106  154.3444 C   0  0  0  0  0  0  0  0  0  0  0  0
  142.4623  147.1798  154.5606 N   0  0  0  0  0  0  0  0  0  0  0  0
  144.3907  144.2617  155.0698 C   0  0  0  0  0  0  0  0  0  0  0  0
  145.2819  143.2025  154.8082 C   0  0  0  0  0  0  0  0  0  0  0  0
  152.7778  138.0002  155.3056 H   0  0  0  0  0  0  0  0  0  0  0  0
  151.7552  138.7690  154.0856 H   0  0  0  0  0  0  0  0  0  0  0  0
  151.0650  137.5776  155.2056 H   0  0  0  0  0  0  0  0  0  0  0  0
  152.9825  141.6932  159.1161 H   0  0  0  0  0  0  0  0  0  0  0  0
  151.3823  143.3699  160.0119 H   0  0  0  0  0  0  0  0  0  0  0  0
  149.1006  143.5706  159.0462 H   0  0  0  0  0  0  0  0  0  0  0  0
  148.4051  142.0873  157.1685 H   0  0  0  0  0  0  0  0  0  0  0  0
  149.3858  139.0591  154.4968 H   0  0  0  0  0  0  0  0  0  0  0  0
  148.2932  139.4160  155.8050 H   0  0  0  0  0  0  0  0  0  0  0  0
  148.8326  141.9713  155.0747 H   0  0  0  0  0  0  0  0  0  0  0  0
  149.2977  140.4798  152.7614 H   0  0  0  0  0  0  0  0  0  0  0  0
  146.8193  140.1178  153.7887 H   0  0  0  0  0  0  0  0  0  0  0  0
  146.5434  141.2645  155.0985 H   0  0  0  0  0  0  0  0  0  0  0  0
  146.0961  143.9788  151.5839 H   0  0  0  0  0  0  0  0  0  0  0  0
  144.5313  145.8385  152.0391 H   0  0  0  0  0  0  0  0  0  0  0  0
  143.9212  144.3336  156.0404 H   0  0  0  0  0  0  0  0  0  0  0  0
  145.4667  142.4898  155.5973 H   0  0  0  0  0  0  0  0  0  0  0  0
  1  2  1  0  0  0  0
  1 24  1  0  0  0  0
  1 25  1  0  0  0  0
  1 26  1  0  0  0  0
  2 10  1  0  0  0  0
  2  3  2  0  0  0  0
  3  4  1  0  0  0  0
  4  9  2  0  0  0  0
  4  5  1  0  0  0  0
  5  6  2  0  0  0  0
  5 27  1  0  0  0  0
  6  7  1  0  0  0  0
  6 28  1  0  0  0  0
  7  8  2  0  0  0  0
  7 29  1  0  0  0  0
  8  9  1  0  0  0  0
  8 30  1  0  0  0  0
  9 10  1  0  0  0  0
 10 11  1  0  0  0  0
 11 12  1  0  0  0  0
 11 31  1  0  0  0  0
 11 32  1  0  0  0  0
 12 13  1  0  0  0  0
 12 14  1  0  0  0  0
 12 33  1  0  0  0  0
 13 34  1  0  0  0  0
 14 15  1  0  0  0  0
 14 35  1  0  0  0  0
 14 36  1  0  0  0  0
 15 16  1  0  0  0  0
 16 23  1  0  0  0  0
 16 17  2  0  0  0  0
 17 18  1  0  0  0  0
 17 37  1  0  0  0  0
 18 19  2  0  0  0  0
 18 38  1  0  0  0  0
 19 20  1  0  0  0  0
 19 22  1  0  0  0  0
 20 21  3  0  0  0  0
 22 23  2  0  0  0  0
 22 39  1  0  0  0  0
 23 40  1  0  0  0  0
M  END
> <s_m_source_file>
AV-unprocessed.smi

> <i_m_source_file_index>
1884

> <i_lp_mmshare_version>
43012

> <i_f3d_flags>
0

> <s_epik_input>
W2NIXTFbY0hdW2NIXVtjSF1jKGMxMiluKGMobjIpW0NIM10pW0NIMl1bQ0BIXShbT0hdKVtDSDJdT2MzW2NIXVtjSF1jKEMjTilbY0hdW2NIXTM=

> <s_epik_cmdline>
J2VwaWtfcHl0aG9uJywgJy1waCcsICc3LjAnLCAnLXRuJywgJzgnLCAnLW1hJywgJzIwMCcsICctbWV0YWxfYmluZGluZycsICctaW1hZScsICc8aW5maWxlLm1hZT4nLCAnLW9tYWUnLCAnPG91dGZpbGUubWFlPic=

> <r_epik_Ionization_Penalty>
0.110799

> <r_epik_Ionization_Penalty_Charging>
0

> <r_epik_Ionization_Penalty_Neutral>
0.110799

> <r_epik_State_Penalty>
0.100537

> <r_epik_Charging_Adjusted_Penalty>
0.100537

> <i_epik_Tot_Q>
0

> <i_epik_Tot_abs_Q>
0

> <r_epik_Metal_State_Penalty>
0.000109561

> <b_epik_Metal_Only>
0

> <s_lp_Force_Field>
OPLS_2005

> <r_lp_Energy>
15.8786

> <b_lp_Chiralities_Consistent>
1

> <s_lp_Variant>
AV-unprocessed.smi:1884-2

> <Gold.Version>
5.8.1

> <Gold.Id.Protein>
6NUR|6NUR_protein|mol2

> <Gold.PLP.Fitness>
51.3254

> <Gold.PLP.PLP>
-45.0042

> <Gold.PLP.part.hbond>
-3.5724

> <Gold.PLP.part.metal>
0.0000

> <Gold.PLP.part.buried>
-5.5229

> <Gold.PLP.part.nonpolar>
-35.9512

> <Gold.PLP.part.repulsive>
0.2168

> <Gold.PLP.ligand.clash>
0.0000

> <Gold.PLP.ligand.torsion>
0.9056

> <Gold.PLP.Chemscore.Hbond>
2.6953

> <Gold.PLP.Chemscore.CHOScore>
0.0000

> <Gold.PLP.Chemscore.Metal>
0.0000

> <Gold.Chemscore.Hbonds>
donor molecule, donor type, donor heavy atom, donor atom, acceptor molecule, acceptor atom, score
      L1  H    13    34       P1  7957  0.69
      P1  H  7989  7998       L1    13  0.01
      P1  H  7997  8009       L1     3  0.62
      P1  H  8011  8017       L1    13  0.99

> <Gold.PLP.Chemscore.Internal.Correction>
0.0466

> <Gold.Rescore>
     Score         DG    S(hbond)    S(metal)    S(lipo)     H(rot)  DE(clash)    DE(int)     intcor
     18.69     -19.89       2.36        0.00     106.28       2.31       0.21       0.99       ----

> <Gold.Chemscore.Fitness>
18.6874

> <Gold.Chemscore.DG>
-19.8899

> <Gold.Chemscore.ZeroCoef>
-5.4800

> <Gold.Chemscore.Hbond>
2.3621

> <Gold.Chemscore.Metal>
0.0000

> <Gold.Chemscore.Lipo>
106.2787

> <Gold.Chemscore.Internal_Hbond>
0.0000

> <Gold.Chemscore.DEClash>
0.2091

> <Gold.Chemscore.DEInternal>
0.9934

> <Gold.Chemscore.Rot>
2.3102

> <Gold.Chemscore.Internal.Correction>
   9.000000E+99

> <Gold.Chemscore.Hbonds>
donor molecule, donor type, donor heavy atom, donor atom, acceptor molecule, acceptor atom, score
      L1  H    13    34       P1  7957  0.70
      P1  H  7997  8009       L1     3  0.56
      P1  H  8011  8017       L1    13  0.63

> <Gold.Chemscore.Hbond.Weighted>
-7.8894

> <Gold.Chemscore.Metal.Weighted>
-0.0000

> <Gold.Chemscore.Lipo.Weighted>
-12.4346

> <Gold.Chemscore.Internal_Hbond.Weighted>
0.0000

> <Gold.Chemscore.DEClash.Weighted>
0.2091

> <Gold.Chemscore.DEInternal.Weighted>
0.9934

> <Gold.Chemscore.Rot.Weighted>
5.9141

> <Gold.Chemscore.Internal.Correction.Weighted>
   9.000000E+99

> <Gold.Protein.RotatedTorsions>
[ 6907 6896 6895 6894 ] final  -36.28 input  -60.11 | X-H torsion
[ 7974 7965 7964 7962 ] final  -66.49 input  175.53 | X-H torsion
[ 8008 7997 7996 7995 ] final -155.14 input   59.86 | X-H torsion
[ 10167 10162 10161 10158 ] final   -1.25 input  -65.29 | X-H torsion
[ 10718 10713 10712 10709 ] final  120.70 input   66.30 | X-H torsion
[ 10763 10752 10751 10750 ] final    9.56 input  -60.55 | X-H torsion
[ 11005 11000 10999 10996 ] final   -3.27 input  -57.11 | X-H torsion

> <Gold.Protein.ActiveResidues>
 VAL166  LYS551  ARG553  GLY616  TRP617  ASP618  TYR619  PRO620  LYS621  CYS622 
 ASP623  PHE694  ASN695  SER759  ASP760  ASP761  ALA762  ILE779  LEU786  VAL792 
 PHE793  MET794  SER795  GLU796  ALA797  LYS798  CYS799  TRP800  GLU811  SER814 

> <Gold.Protein.RotatedAtoms>
  151.0292  134.9526  159.8101 H   0  0  0  0  0  0  0  0  0  0  0  0  # atno 6907 bound_to 6896
  152.5342  134.2803  159.9015 H   0  0  0  0  0  0  0  0  0  0  0  0  # atno 6908 bound_to 6896
  151.2812  133.4166  159.2661 H   0  0  0  0  0  0  0  0  0  0  0  0  # atno 6909 bound_to 6896
  145.7411  140.8953  143.0529 H   0  0  0  0  0  0  0  0  0  0  0  0  # atno 7974 bound_to 7965
  155.6972  140.0762  157.2425 H   0  0  0  0  0  0  0  0  0  0  0  0  # atno 8008 bound_to 7997
  154.4079  140.1654  156.2204 H   0  0  0  0  0  0  0  0  0  0  0  0  # atno 8009 bound_to 7997
  155.9400  140.3385  155.6322 H   0  0  0  0  0  0  0  0  0  0  0  0  # atno 8010 bound_to 7997
  140.6802  143.6797  150.8115 H   0  0  0  0  0  0  0  0  0  0  0  0  # atno 10167 bound_to 10162
  157.5872  131.1068  150.8071 H   0  0  0  0  0  0  0  0  0  0  0  0  # atno 10718 bound_to 10713
  153.2127  135.6871  153.8094 H   0  0  0  0  0  0  0  0  0  0  0  0  # atno 10763 bound_to 10752
  153.7321  135.3251  155.3289 H   0  0  0  0  0  0  0  0  0  0  0  0  # atno 10764 bound_to 10752
  154.8230  135.4638  154.0942 H   0  0  0  0  0  0  0  0  0  0  0  0  # atno 10765 bound_to 10752
  140.6675  133.9266  155.8474 H   0  0  0  0  0  0  0  0  0  0  0  0  # atno 11005 bound_to 11000
  144.6870  139.9462  143.7476 LP  0  0  0  0  0  0  0  0  0  0  0  0  # atno 17320 bound_to 7965
  146.0447  139.3454  143.0676 LP  0  0  0  0  0  0  0  0  0  0  0  0  # atno 17321 bound_to 7965
  140.0497  143.5263  152.2680 LP  0  0  0  0  0  0  0  0  0  0  0  0  # atno 17342 bound_to 10162
  139.6120  144.7611  151.2931 LP  0  0  0  0  0  0  0  0  0  0  0  0  # atno 17343 bound_to 10162
  156.8502  130.5078  149.5312 LP  0  0  0  0  0  0  0  0  0  0  0  0  # atno 17370 bound_to 10713
  156.0922  130.5905  150.9753 LP  0  0  0  0  0  0  0  0  0  0  0  0  # atno 17371 bound_to 10713
  141.0418  134.0611  157.3893 LP  0  0  0  0  0  0  0  0  0  0  0  0  # atno 17394 bound_to 11000
  139.8992  135.0158  156.7186 LP  0  0  0  0  0  0  0  0  0  0  0  0  # atno 17395 bound_to 11000

$$$$
