AV-unprocessed.smi:1038|AV-procd|sdf|4521|dock6
  -GOLD-   22720 2533D 1   1.00000     0.00000
 Structure written by MMmdl.
 57 58  0  0  0  0  0  0  0  0  2 V2000
  149.2975  141.1557  155.2605 C   0  0  0  0  0  0  0  0  0  0  0  0
  150.5972  140.6223  155.4409 O   0  0  0  0  0  0  0  0  0  0  0  0
  151.0007  140.6197  156.8004 C   0  0  0  0  0  0  0  0  0  0  0  0
  150.9148  142.0431  157.3744 C   0  0  0  0  0  0  0  0  0  0  0  0
  151.7382  142.1970  158.5825 N   0  0  0  0  0  0  0  0  0  0  0  0
  152.8481  141.3386  158.7059 C   0  0  0  0  0  0  0  0  0  0  0  0
  153.6791  141.3807  159.7656 C   0  0  0  0  0  0  0  0  0  0  0  0
  154.8151  140.4587  159.8332 C   0  0  0  0  0  0  0  0  0  0  0  0
  155.1828  139.7300  158.9105 O   0  0  0  0  0  0  0  0  0  0  0  0
  155.4452  140.4665  161.0184 N   0  0  0  0  0  0  0  0  0  0  0  0
  156.6036  139.6448  161.3568 C   0  0  0  0  0  0  0  0  0  0  0  0
  156.2574  138.4718  162.3288 C   0  0  0  0  0  0  0  0  0  0  0  0
  157.4470  137.5533  162.4613 N   0  3  0  0  0  0  0  0  0  0  0  0
  158.6694  138.1572  163.0555 C   0  0  0  0  0  0  0  0  0  0  0  0
  157.8091  136.7970  161.2330 C   0  0  0  0  0  0  0  0  0  0  0  0
  155.8513  139.1056  163.7007 C   0  0  0  0  0  0  0  0  0  0  0  0
  155.5922  138.1603  164.8885 C   0  0  0  0  0  0  0  0  0  0  0  0
  154.4517  137.1556  164.6821 C   0  0  0  0  0  0  0  0  0  0  0  0
  154.8564  136.0045  163.7556 C   0  0  0  0  0  0  0  0  0  0  0  0
  154.6949  136.2898  162.2553 C   0  0  0  0  0  0  0  0  0  0  0  0
  155.0184  137.7152  161.7494 C   0  0  0  0  0  0  0  0  0  0  0  0
  153.3913  142.3640  160.7996 C   0  0  0  0  0  0  0  0  0  0  0  0
  152.3338  143.1908  160.6835 C   0  0  0  0  0  0  0  0  0  0  0  0
  151.4353  143.1379  159.5267 C   0  0  0  0  0  0  0  0  0  0  0  0
  150.4707  143.8949  159.4172 O   0  0  0  0  0  0  0  0  0  0  0  0
  149.0329  141.1272  154.2036 H   0  0  0  0  0  0  0  0  0  0  0  0
  149.2478  142.1937  155.5924 H   0  0  0  0  0  0  0  0  0  0  0  0
  148.5540  140.5765  155.8096 H   0  0  0  0  0  0  0  0  0  0  0  0
  150.3436  139.9604  157.3695 H   0  0  0  0  0  0  0  0  0  0  0  0
  152.0150  140.2290  156.8983 H   0  0  0  0  0  0  0  0  0  0  0  0
  151.1797  142.7728  156.6073 H   0  0  0  0  0  0  0  0  0  0  0  0
  149.8755  142.2648  157.6214 H   0  0  0  0  0  0  0  0  0  0  0  0
  152.9707  140.6524  157.8792 H   0  0  0  0  0  0  0  0  0  0  0  0
  155.0952  141.0850  161.7357 H   0  0  0  0  0  0  0  0  0  0  0  0
  157.0179  139.2687  160.4209 H   0  0  0  0  0  0  0  0  0  0  0  0
  157.3608  140.2973  161.7929 H   0  0  0  0  0  0  0  0  0  0  0  0
  159.0962  138.9225  162.4074 H   0  0  0  0  0  0  0  0  0  0  0  0
  159.4322  137.3907  163.1967 H   0  0  0  0  0  0  0  0  0  0  0  0
  158.4966  138.5974  164.0350 H   0  0  0  0  0  0  0  0  0  0  0  0
  158.2824  137.4409  160.4915 H   0  0  0  0  0  0  0  0  0  0  0  0
  156.9581  136.3110  160.7609 H   0  0  0  0  0  0  0  0  0  0  0  0
  158.5229  136.0101  161.4791 H   0  0  0  0  0  0  0  0  0  0  0  0
  156.6073  139.8295  164.0064 H   0  0  0  0  0  0  0  0  0  0  0  0
  154.9496  139.7054  163.5728 H   0  0  0  0  0  0  0  0  0  0  0  0
  156.5019  137.6311  165.1701 H   0  0  0  0  0  0  0  0  0  0  0  0
  155.3438  138.7779  165.7526 H   0  0  0  0  0  0  0  0  0  0  0  0
  154.2010  136.7326  165.6556 H   0  0  0  0  0  0  0  0  0  0  0  0
  153.5455  137.6491  164.3286 H   0  0  0  0  0  0  0  0  0  0  0  0
  155.8836  135.7068  163.9687 H   0  0  0  0  0  0  0  0  0  0  0  0
  154.2527  135.1287  163.9965 H   0  0  0  0  0  0  0  0  0  0  0  0
  155.2887  135.5581  161.7083 H   0  0  0  0  0  0  0  0  0  0  0  0
  153.6631  136.0733  161.9750 H   0  0  0  0  0  0  0  0  0  0  0  0
  154.1293  138.3276  161.9052 H   0  0  0  0  0  0  0  0  0  0  0  0
  155.1053  137.6532  160.6639 H   0  0  0  0  0  0  0  0  0  0  0  0
  154.0134  142.4573  161.6775 H   0  0  0  0  0  0  0  0  0  0  0  0
  152.1408  143.9135  161.4629 H   0  0  0  0  0  0  0  0  0  0  0  0
  157.1501  136.8525  163.1256 H   0  0  0  0  0  0  0  0  0  0  0  0
  1  2  1  0  0  0  0
  1 26  1  0  0  0  0
  1 27  1  0  0  0  0
  1 28  1  0  0  0  0
  2  3  1  0  0  0  0
  3  4  1  0  0  0  0
  3 29  1  0  0  0  0
  3 30  1  0  0  0  0
  4  5  1  0  0  0  0
  4 31  1  0  0  0  0
  4 32  1  0  0  0  0
  5 24  1  0  0  0  0
  5  6  1  0  0  0  0
  6  7  2  0  0  0  0
  6 33  1  0  0  0  0
  7  8  1  0  0  0  0
  7 22  1  0  0  0  0
  8  9  2  0  0  0  0
  8 10  1  0  0  0  0
 10 11  1  0  0  0  0
 10 34  1  0  0  0  0
 11 12  1  0  0  0  0
 11 35  1  0  0  0  0
 11 36  1  0  0  0  0
 12 21  1  0  0  0  0
 12 13  1  0  0  0  0
 12 16  1  0  0  0  0
 13 14  1  0  0  0  0
 13 15  1  0  0  0  0
 13 57  1  0  0  0  0
 14 37  1  0  0  0  0
 14 38  1  0  0  0  0
 14 39  1  0  0  0  0
 15 40  1  0  0  0  0
 15 41  1  0  0  0  0
 15 42  1  0  0  0  0
 16 17  1  0  0  0  0
 16 43  1  0  0  0  0
 16 44  1  0  0  0  0
 17 18  1  0  0  0  0
 17 45  1  0  0  0  0
 17 46  1  0  0  0  0
 18 19  1  0  0  0  0
 18 47  1  0  0  0  0
 18 48  1  0  0  0  0
 19 20  1  0  0  0  0
 19 49  1  0  0  0  0
 19 50  1  0  0  0  0
 20 21  1  0  0  0  0
 20 51  1  0  0  0  0
 20 52  1  0  0  0  0
 21 53  1  0  0  0  0
 21 54  1  0  0  0  0
 22 23  2  0  0  0  0
 22 55  1  0  0  0  0
 23 24  1  0  0  0  0
 23 56  1  0  0  0  0
 24 25  2  0  0  0  0
M  CHG  1  13   1
M  END
> <s_m_source_file>
AV-unprocessed.smi

> <i_m_source_file_index>
1038

> <i_lp_mmshare_version>
43012

> <i_f3d_flags>
0

> <s_epik_input>
W0NIM11PW0NIMl1bQ0gyXW4xW2NIXWMoW2NIXVtjSF1jMT1PKUMoPU8pW05IXVtDSDJdQzIoTihbQ0gzXSlbQ0gzXSlbQ0gyXVtDSDJdW0NIMl1bQ0gyXVtDSDJdW0NIMl0y

> <s_epik_cmdline>
J2VwaWtfcHl0aG9uJywgJy1waCcsICc3LjAnLCAnLXRuJywgJzgnLCAnLW1hJywgJzIwMCcsICctbWV0YWxfYmluZGluZycsICctaW1hZScsICc8aW5maWxlLm1hZT4nLCAnLW9tYWUnLCAnPG91dGZpbGUubWFlPic=

> <r_lp_tautomer_probability>
1

> <r_epik_Ionization_Penalty>
0.00379096

> <r_epik_Ionization_Penalty_Charging>
0.0037899

> <r_epik_Ionization_Penalty_Neutral>
1.06849e-06

> <r_epik_State_Penalty>
0.00270348

> <r_epik_Charging_Adjusted_Penalty>
0.00649338

> <i_epik_Tot_Q>
1

> <i_epik_Tot_abs_Q>
1

> <r_epik_Metal_State_Penalty>
-0

> <b_epik_Metal_Only>
0

> <s_lp_Force_Field>
OPLS_2005

> <r_lp_Energy>
50.9414

> <b_lp_Chiralities_Consistent>
1

> <s_lp_Variant>
AV-unprocessed.smi:1038-1

> <Gold.Version>
5.8.1

> <Gold.Id.Protein>
6NUR|6NUR_protein|mol2

> <Gold.PLP.Fitness>
50.1103

> <Gold.PLP.PLP>
-45.7274

> <Gold.PLP.part.hbond>
-2.1374

> <Gold.PLP.part.metal>
0.0000

> <Gold.PLP.part.buried>
-4.8986

> <Gold.PLP.part.nonpolar>
-38.2421

> <Gold.PLP.part.repulsive>
0.2012

> <Gold.PLP.ligand.clash>
0.0127

> <Gold.PLP.ligand.torsion>
0.6764

> <Gold.PLP.Chemscore.Hbond>
1.8320

> <Gold.PLP.Chemscore.CHOScore>
0.0000

> <Gold.PLP.Chemscore.Metal>
0.0000

> <Gold.Chemscore.Hbonds>
donor molecule, donor type, donor heavy atom, donor atom, acceptor molecule, acceptor atom, score
      P1  H  7989  7998       L1     2  0.50
      P1  H  7997  8008       L1     9  1.00

> <Gold.PLP.Chemscore.Internal.Correction>
0.2524

> <Gold.Rescore>
     Score         DG    S(hbond)    S(metal)    S(lipo)     H(rot)  DE(clash)    DE(int)     intcor
     19.01     -19.57       1.62        0.00     114.85       1.86       0.00       0.56       ----

> <Gold.Chemscore.Fitness>
19.0087

> <Gold.Chemscore.DG>
-19.5676

> <Gold.Chemscore.ZeroCoef>
-5.4800

> <Gold.Chemscore.Hbond>
1.6239

> <Gold.Chemscore.Metal>
0.0000

> <Gold.Chemscore.Lipo>
114.8540

> <Gold.Chemscore.Internal_Hbond>
0.0000

> <Gold.Chemscore.DEClash>
0.0000

> <Gold.Chemscore.DEInternal>
0.5589

> <Gold.Chemscore.Rot>
1.8649

> <Gold.Chemscore.Internal.Correction>
   9.000000E+99

> <Gold.Chemscore.Hbonds>
donor molecule, donor type, donor heavy atom, donor atom, acceptor molecule, acceptor atom, score
      P1  H  7989  7998       L1     2  0.28
      P1  H  7997  8008       L1     9  0.95

> <Gold.Chemscore.Hbond.Weighted>
-5.4238

> <Gold.Chemscore.Metal.Weighted>
-0.0000

> <Gold.Chemscore.Lipo.Weighted>
-13.4379

> <Gold.Chemscore.Internal_Hbond.Weighted>
0.0000

> <Gold.Chemscore.DEClash.Weighted>
0.0000

> <Gold.Chemscore.DEInternal.Weighted>
0.5589

> <Gold.Chemscore.Rot.Weighted>
4.7741

> <Gold.Chemscore.Internal.Correction.Weighted>
   9.000000E+99

> <Gold.Protein.RotatedTorsions>
[ 6907 6896 6895 6894 ] final  -83.79 input  -60.11 | X-H torsion
[ 7974 7965 7964 7962 ] final -103.36 input  175.53 | X-H torsion
[ 8008 7997 7996 7995 ] final -145.33 input   59.86 | X-H torsion
[ 10167 10162 10161 10158 ] final   30.24 input  -65.29 | X-H torsion
[ 10718 10713 10712 10709 ] final   26.18 input   66.30 | X-H torsion
[ 10763 10752 10751 10750 ] final  -46.71 input  -60.55 | X-H torsion
[ 11005 11000 10999 10996 ] final  153.93 input  -57.11 | X-H torsion

> <Gold.Protein.ActiveResidues>
 VAL166  LYS551  ARG553  GLY616  TRP617  ASP618  TYR619  PRO620  LYS621  CYS622 
 ASP623  PHE694  ASN695  SER759  ASP760  ASP761  ALA762  ILE779  LEU786  VAL792 
 PHE793  MET794  SER795  GLU796  ALA797  LYS798  CYS799  TRP800  GLU811  SER814 

> <Gold.Protein.RotatedAtoms>
  150.6882  134.3459  159.4887 H   0  0  0  0  0  0  0  0  0  0  0  0  # atno 6907 bound_to 6896
  152.1306  134.9135  160.0568 H   0  0  0  0  0  0  0  0  0  0  0  0  # atno 6908 bound_to 6896
  152.0306  133.3901  159.4333 H   0  0  0  0  0  0  0  0  0  0  0  0  # atno 6909 bound_to 6896
  145.2569  140.9256  143.3063 H   0  0  0  0  0  0  0  0  0  0  0  0  # atno 7974 bound_to 7965
  155.5414  140.0608  157.2869 H   0  0  0  0  0  0  0  0  0  0  0  0  # atno 8008 bound_to 7997
  154.4451  140.1918  156.0638 H   0  0  0  0  0  0  0  0  0  0  0  0  # atno 8009 bound_to 7997
  156.0582  140.3276  155.7434 H   0  0  0  0  0  0  0  0  0  0  0  0  # atno 8010 bound_to 7997
  140.4695  144.0784  150.6233 H   0  0  0  0  0  0  0  0  0  0  0  0  # atno 10167 bound_to 10162
  157.2033  130.6900  149.6197 H   0  0  0  0  0  0  0  0  0  0  0  0  # atno 10718 bound_to 10713
  154.0495  135.6633  153.4799 H   0  0  0  0  0  0  0  0  0  0  0  0  # atno 10763 bound_to 10752
  153.0469  135.5108  154.7765 H   0  0  0  0  0  0  0  0  0  0  0  0  # atno 10764 bound_to 10752
  154.6767  135.3038  154.9636 H   0  0  0  0  0  0  0  0  0  0  0  0  # atno 10765 bound_to 10752
  140.1443  134.8718  157.2372 H   0  0  0  0  0  0  0  0  0  0  0  0  # atno 11005 bound_to 11000
  144.9453  139.4143  143.6429 LP  0  0  0  0  0  0  0  0  0  0  0  0  # atno 17320 bound_to 7965
  146.3286  139.8434  142.8886 LP  0  0  0  0  0  0  0  0  0  0  0  0  # atno 17321 bound_to 7965
  140.3994  143.2711  151.9965 LP  0  0  0  0  0  0  0  0  0  0  0  0  # atno 17342 bound_to 10162
  139.4816  144.6010  151.7605 LP  0  0  0  0  0  0  0  0  0  0  0  0  # atno 17343 bound_to 10162
  155.9698  130.4575  150.5965 LP  0  0  0  0  0  0  0  0  0  0  0  0  # atno 17370 bound_to 10713
  157.3745  131.0771  151.1530 LP  0  0  0  0  0  0  0  0  0  0  0  0  # atno 17371 bound_to 10713
  140.2683  134.3490  155.7382 LP  0  0  0  0  0  0  0  0  0  0  0  0  # atno 17394 bound_to 11000
  141.2190  133.7409  156.9185 LP  0  0  0  0  0  0  0  0  0  0  0  0  # atno 17395 bound_to 11000

$$$$
