#       Name:                AV-unprocessed.smi:498
#       Creating user name   scv26
#       Creation time:       Thu Mar 26 23:17:51 2020


#       File generated by GOLD software.
#

@<TRIPOS>MOLECULE
AV-unprocessed.smi:498
    49    51     1
SMALL
NO_CHARGES


@<TRIPOS>ATOM
      1 ****        -2.9667   3.3885  -0.0739 C.3            1 S1                 0.0000
      2 ****        -2.4143   2.0641   0.4566 C.3            1 S1                 0.0000
      3 ****        -0.9982   2.1060   0.4092 O.3            1 S1                 0.0000
      4 ****        -0.4004   0.8871   0.8136 C.3            1 S1                 0.0000
      5 ****         1.1194   0.9969   0.6282 C.3            1 S1                 0.0000
      6 ****         1.7693  -0.3194   0.6616 N.pl3          1 S1                 0.0000
      7 ****         2.1314  -1.1559  -0.3560 C.2            1 S1                 0.0000
      8 ****         1.9519  -0.9301  -1.8247 C.3            1 S1                 0.0000
      9 ****         0.5447  -0.8130  -2.1913 N.am           1 S1                 0.0000
     10 ****        -0.0414   0.2806  -2.7047 C.2            1 S1                 0.0000
     11 ****         0.5733   1.2988  -3.0196 O.2            1 S1                 0.0000
     12 ****        -1.5101   0.2225  -2.8229 C.2            1 S1                 0.0000
     13 ****        -2.3947  -0.8079  -2.6401 C.2            1 S1                 0.0000
     14 ****        -3.6922  -0.2776  -2.8814 C.2            1 S1                 0.0000
     15 ****        -3.5076   1.0367  -3.2005 C.2            1 S1                 0.0000
     16 ****        -2.1853   1.3557  -3.1728 O.3            1 S1                 0.0000
     17 ****         2.6907  -2.2606   0.2148 N.pl3          1 S1                 1.0000
     18 ****         2.6812  -2.1331   1.6047 C.ar           1 S1                 0.0000
     19 ****         3.1324  -2.9915   2.6027 C.ar           1 S1                 0.0000
     20 ****         2.9660  -2.5568   3.9342 C.ar           1 S1                 0.0000
     21 ****         2.3714  -1.3133   4.2320 C.ar           1 S1                 0.0000
     22 ****         1.9183  -0.4511   3.2116 C.ar           1 S1                 0.0000
     23 ****         2.0882  -0.8884   1.8985 C.ar           1 S1                 0.0000
     24 ****        -4.0566   3.3902  -0.0576 H              1 S1                 0.0000
     25 ****        -2.6479   3.5601  -1.1025 H              1 S1                 0.0000
     26 ****        -2.6207   4.2275   0.5300 H              1 S1                 0.0000
     27 ****        -2.7508   1.8979   1.4809 H              1 S1                 0.0000
     28 ****        -2.7902   1.2408  -0.1524 H              1 S1                 0.0000
     29 ****        -0.6460   0.6663   1.8533 H              1 S1                 0.0000
     30 ****        -0.7934   0.0699   0.2072 H              1 S1                 0.0000
     31 ****         1.3512   1.4486  -0.3361 H              1 S1                 0.0000
     32 ****         1.5680   1.6440   1.3826 H              1 S1                 0.0000
     33 ****         2.5271  -0.0503  -2.1169 H              1 S1                 0.0000
     34 ****         2.3775  -1.7720  -2.3714 H              1 S1                 0.0000
     35 ****        -0.0483  -1.5988  -1.9677 H              1 S1                 0.0000
     36 ****        -2.1422  -1.8203  -2.3610 H              1 S1                 0.0000
     37 ****        -4.6400  -0.7925  -2.8286 H              1 S1                 0.0000
     38 ****        -4.1725   1.8472  -3.4607 H              1 S1                 0.0000
     39 ****         3.5874  -3.9451   2.3775 H              1 S1                 0.0000
     40 ****         3.2999  -3.1904   4.7433 H              1 S1                 0.0000
     41 ****         2.2598  -1.0139   5.2642 H              1 S1                 0.0000
     42 ****         1.4625   0.4988   3.4494 H              1 S1                 0.0000
     43 ****         3.0498  -3.0464  -0.3119 H              1 S1                 0.0000
     44 ****        -0.6795   2.8349   1.0150 LP             1 S1                 0.0000
     45 ****        -0.7155   2.3050  -0.5292 LP             1 S1                 0.0000
     46 ****         1.5648   1.3422  -2.8974 LP             1 S1                 0.0000
     47 ****         0.0813   2.0830  -3.3978 LP             1 S1                 0.0000
     48 ****        -1.8882   1.6680  -4.0751 LP             1 S1                 0.0000
     49 ****        -2.0197   2.0762  -2.4995 LP             1 S1                 0.0000
@<TRIPOS>BOND
    1    1    2 1     
    2    1   24 1     
    3    1   25 1     
    4    1   26 1     
    5    2    3 1     
    6    2   27 1     
    7    2   28 1     
    8    3    4 1     
    9    4    5 1     
   10    4   29 1     
   11    4   30 1     
   12    5    6 1     
   13    5   31 1     
   14    5   32 1     
   15    6   23 1     
   16    6    7 1     
   17    7    8 1     
   18    7   17 2     
   19    8    9 1     
   20    8   33 1     
   21    8   34 1     
   22    9   10 am    
   23    9   35 1     
   24   10   11 2     
   25   10   12 1     
   26   12   16 1     
   27   12   13 2     
   28   13   14 1     
   29   13   36 1     
   30   14   15 2     
   31   14   37 1     
   32   15   16 1     
   33   15   38 1     
   34   17   18 1     
   35   17   43 1     
   36   18   23 ar    
   37   18   19 ar    
   38   19   20 ar    
   39   19   39 1     
   40   20   21 ar    
   41   20   40 1     
   42   21   22 ar    
   43   21   41 1     
   44   22   23 ar    
   45   22   42 1     
   46    3   44 1     
   47    3   45 1     
   48   11   46 1     
   49   11   47 1     
   50   16   48 1     
   51   16   49 1     
@<TRIPOS>SUBSTRUCTURE
      1 S1             1
@<TRIPOS>SET
LONE_PAIRS      STATIC     ATOMS    <user>   **** ""
6 44 45 46 47 48 49
DONOR_HYDROGENS      STATIC     ATOMS    <user>   **** ""
2 35 43
ATOM$BLUE        STATIC     ATOMS    COLORGROUP SYSTEM
6 44 45 46 47 48 49
ATOM$RED        STATIC     ATOMS    COLORGROUP SYSTEM
2 35 43
