AV-unprocessed.smi:232|AV-procd|sdf|1771|dock6
  -GOLD-   2262020313D 1   1.00000     0.00000
 Structure written by MMmdl.
 52 55  0  0  0  0  0  0  0  0  1 V2000
  151.2105  140.8741  155.9063 C   0  0  0  0  0  0  0  0  0  0  0  0
  151.7409  140.3213  157.2357 C   0  0  0  0  0  0  0  0  0  0  0  0
  151.3109  141.1621  158.4537 C   0  0  2  0  0  0  0  0  0  0  0  0
  149.9697  141.8929  158.2157 C   0  0  0  0  0  0  0  0  0  0  0  0
  150.3003  143.3885  158.2539 C   0  0  0  0  0  0  0  0  0  0  0  0
  151.8174  143.4128  158.0815 C   0  0  1  0  0  0  0  0  0  0  0  0
  152.4924  144.7322  158.5033 C   0  0  0  0  0  0  0  0  0  0  0  0
  152.2935  142.2056  158.7550 N   0  0  0  0  0  0  0  0  0  0  0  0
  152.6471  142.3265  160.0590 C   0  0  0  0  0  0  0  0  0  0  0  0
  152.1156  143.3075  160.8369 N   0  0  0  0  0  0  0  0  0  0  0  0
  152.4919  143.4262  162.1139 C   0  0  0  0  0  0  0  0  0  0  0  0
  153.3688  142.6879  162.7982 N   0  0  0  0  0  0  0  0  0  0  0  0
  153.9029  141.7044  162.0186 C   0  0  0  0  0  0  0  0  0  0  0  0
  153.5993  141.4559  160.6514 C   0  0  0  0  0  0  0  0  0  0  0  0
  154.3382  140.3755  160.1862 N   0  0  0  0  0  0  0  0  0  0  0  0
  155.0428  140.0063  161.2214 C   0  0  0  0  0  0  0  0  0  0  0  0
  154.8452  140.7513  162.3621 N   0  0  0  0  0  0  0  0  0  0  0  0
  155.5001  140.5607  163.6444 C   0  0  0  0  0  0  0  0  0  0  0  0
  156.7268  139.6328  163.5452 C   0  0  1  0  0  0  0  0  0  0  0  0
  157.6765  140.2061  162.6671 O   0  0  0  0  0  0  0  0  0  0  0  0
  157.3928  139.4006  164.9138 C   0  0  2  0  0  0  0  0  0  0  0  0
  156.4155  139.1512  166.0647 C   0  0  0  0  0  0  0  0  0  0  0  0
  157.1795  139.6118  167.2969 C   0  0  0  0  0  0  0  0  0  0  0  0
  158.3593  140.4049  166.7294 C   0  0  0  0  0  0  0  0  0  0  0  0
  158.0601  140.5745  165.3514 O   0  0  0  0  0  0  0  0  0  0  0  0
  151.5595  140.2697  155.0691 H   0  0  0  0  0  0  0  0  0  0  0  0
  151.5499  141.8971  155.7427 H   0  0  0  0  0  0  0  0  0  0  0  0
  150.1204  140.8744  155.8812 H   0  0  0  0  0  0  0  0  0  0  0  0
  151.4195  139.2860  157.3554 H   0  0  0  0  0  0  0  0  0  0  0  0
  152.8300  140.2968  157.1862 H   0  0  0  0  0  0  0  0  0  0  0  0
  151.1966  140.4837  159.3011 H   0  0  0  0  0  0  0  0  0  0  0  0
  149.5362  141.6222  157.2521 H   0  0  0  0  0  0  0  0  0  0  0  0
  149.2365  141.6393  158.9821 H   0  0  0  0  0  0  0  0  0  0  0  0
  149.7818  143.9560  157.4809 H   0  0  0  0  0  0  0  0  0  0  0  0
  150.0199  143.8060  159.2218 H   0  0  0  0  0  0  0  0  0  0  0  0
  152.0373  143.2700  157.0226 H   0  0  0  0  0  0  0  0  0  0  0  0
  152.1273  145.5607  157.8962 H   0  0  0  0  0  0  0  0  0  0  0  0
  153.5736  144.6808  158.3713 H   0  0  0  0  0  0  0  0  0  0  0  0
  152.2903  144.9803  159.5460 H   0  0  0  0  0  0  0  0  0  0  0  0
  152.0258  144.2293  162.6656 H   0  0  0  0  0  0  0  0  0  0  0  0
  155.7333  139.1762  161.1809 H   0  0  0  0  0  0  0  0  0  0  0  0
  155.7857  141.5352  164.0431 H   0  0  0  0  0  0  0  0  0  0  0  0
  154.7676  140.1453  164.3373 H   0  0  0  0  0  0  0  0  0  0  0  0
  156.4194  138.6733  163.1270 H   0  0  0  0  0  0  0  0  0  0  0  0
  158.2596  140.7523  163.1718 H   0  0  0  0  0  0  0  0  0  0  0  0
  158.1158  138.5842  164.8552 H   0  0  0  0  0  0  0  0  0  0  0  0
  155.5217  139.7645  165.9415 H   0  0  0  0  0  0  0  0  0  0  0  0
  156.1001  138.1094  166.1276 H   0  0  0  0  0  0  0  0  0  0  0  0
  156.5479  140.2309  167.9348 H   0  0  0  0  0  0  0  0  0  0  0  0
  157.5320  138.7676  167.8905 H   0  0  0  0  0  0  0  0  0  0  0  0
  158.4952  141.3667  167.2239 H   0  0  0  0  0  0  0  0  0  0  0  0
  159.2856  139.8372  166.8276 H   0  0  0  0  0  0  0  0  0  0  0  0
  1  2  1  0  0  0  0
  1 26  1  0  0  0  0
  1 27  1  0  0  0  0
  1 28  1  0  0  0  0
  2  3  1  0  0  0  0
  2 29  1  0  0  0  0
  2 30  1  0  0  0  0
  3  8  1  0  0  0  0
  3  4  1  0  0  0  0
  3 31  1  0  0  0  0
  4  5  1  0  0  0  0
  4 32  1  0  0  0  0
  4 33  1  0  0  0  0
  5  6  1  0  0  0  0
  5 34  1  0  0  0  0
  5 35  1  0  0  0  0
  6  7  1  0  0  0  0
  6  8  1  0  0  0  0
  6 36  1  0  0  0  0
  7 37  1  0  0  0  0
  7 38  1  0  0  0  0
  7 39  1  0  0  0  0
  8  9  1  0  0  0  0
  9 14  1  0  0  0  0
  9 10  2  0  0  0  0
 10 11  1  0  0  0  0
 11 12  2  0  0  0  0
 11 40  1  0  0  0  0
 12 13  1  0  0  0  0
 13 17  1  0  0  0  0
 13 14  2  0  0  0  0
 14 15  1  0  0  0  0
 15 16  2  0  0  0  0
 16 17  1  0  0  0  0
 16 41  1  0  0  0  0
 17 18  1  0  0  0  0
 18 19  1  0  0  0  0
 18 42  1  0  0  0  0
 18 43  1  0  0  0  0
 19 20  1  0  0  0  0
 19 21  1  0  0  0  0
 19 44  1  0  0  0  0
 20 45  1  0  0  0  0
 21 25  1  0  0  0  0
 21 22  1  0  0  0  0
 21 46  1  0  0  0  0
 22 23  1  0  0  0  0
 22 47  1  0  0  0  0
 22 48  1  0  0  0  0
 23 24  1  0  0  0  0
 23 49  1  0  0  0  0
 23 50  1  0  0  0  0
 24 25  1  0  0  0  0
 24 51  1  0  0  0  0
 24 52  1  0  0  0  0
M  END
> <s_m_source_file>
AV-unprocessed.smi

> <i_m_source_file_index>
232

> <i_lp_mmshare_version>
43012

> <i_f3d_flags>
0

> <s_epik_input>
W0NIM11bQ0gyXVtDQEBIXTFbQ0gyXVtDSDJdW0NAQEhdKFtDSDNdKU4xYyhuW2NIXW4yKWMoYzIzKW5bY0hdbjNbQ0gyXVtDQEhdKFtPSF0pW0NAQEhdNFtDSDJdW0NIMl1bQ0gyXU80

> <s_epik_cmdline>
J2VwaWtfcHl0aG9uJywgJy1waCcsICc3LjAnLCAnLXRuJywgJzgnLCAnLW1hJywgJzIwMCcsICctbWV0YWxfYmluZGluZycsICctaW1hZScsICc8aW5maWxlLm1hZT4nLCAnLW9tYWUnLCAnPG91dGZpbGUubWFlPic=

> <r_lp_tautomer_probability>
1

> <r_epik_Ionization_Penalty>
0.00258048

> <r_epik_Ionization_Penalty_Charging>
0

> <r_epik_Ionization_Penalty_Neutral>
0.00258048

> <r_epik_State_Penalty>
0.00168551

> <r_epik_Charging_Adjusted_Penalty>
0.00168551

> <i_epik_Tot_Q>
0

> <i_epik_Tot_abs_Q>
0

> <r_epik_Metal_State_Penalty>
-0

> <b_epik_Metal_Only>
0

> <s_lp_Force_Field>
OPLS_2005

> <r_lp_Energy>
56.5001

> <b_lp_Chiralities_Consistent>
1

> <s_lp_Variant>
AV-unprocessed.smi:232-5

> <Gold.Version>
5.8.1

> <Gold.Id.Protein>
6NUR|6NUR_protein|mol2

> <Gold.PLP.Fitness>
42.4837

> <Gold.PLP.PLP>
-45.1897

> <Gold.PLP.part.hbond>
-1.0000

> <Gold.PLP.part.metal>
0.0000

> <Gold.PLP.part.buried>
-2.2906

> <Gold.PLP.part.nonpolar>
-40.4394

> <Gold.PLP.part.repulsive>
0.1618

> <Gold.PLP.ligand.clash>
0.0000

> <Gold.PLP.ligand.torsion>
1.3971

> <Gold.PLP.Chemscore.Hbond>
0.0000

> <Gold.PLP.Chemscore.CHOScore>
0.0000

> <Gold.PLP.Chemscore.Metal>
0.0000

> <Gold.PLP.Chemscore.Internal.Correction>
0.0881

> <Gold.Rescore>
     Score         DG    S(hbond)    S(metal)    S(lipo)     H(rot)  DE(clash)    DE(int)     intcor
      5.93      -9.67       0.00        0.00      88.91       2.43       0.22       3.53       ----

> <Gold.Chemscore.Fitness>
5.9258

> <Gold.Chemscore.DG>
-9.6723

> <Gold.Chemscore.ZeroCoef>
-5.4800

> <Gold.Chemscore.Hbond>
0.0000

> <Gold.Chemscore.Metal>
0.0000

> <Gold.Chemscore.Lipo>
88.9146

> <Gold.Chemscore.Internal_Hbond>
0.0000

> <Gold.Chemscore.DEClash>
0.2196

> <Gold.Chemscore.DEInternal>
3.5270

> <Gold.Chemscore.Rot>
2.4260

> <Gold.Chemscore.Internal.Correction>
   9.000000E+99

> <Gold.Chemscore.Hbond.Weighted>
-0.0000

> <Gold.Chemscore.Metal.Weighted>
-0.0000

> <Gold.Chemscore.Lipo.Weighted>
-10.4030

> <Gold.Chemscore.Internal_Hbond.Weighted>
0.0000

> <Gold.Chemscore.DEClash.Weighted>
0.2196

> <Gold.Chemscore.DEInternal.Weighted>
3.5270

> <Gold.Chemscore.Rot.Weighted>
6.2107

> <Gold.Chemscore.Internal.Correction.Weighted>
   9.000000E+99

> <Gold.Protein.RotatedTorsions>
[ 6907 6896 6895 6894 ] final  -10.20 input  -60.11 | X-H torsion
[ 7974 7965 7964 7962 ] final  142.10 input  175.53 | X-H torsion
[ 8008 7997 7996 7995 ] final  -94.40 input   59.86 | X-H torsion
[ 10167 10162 10161 10158 ] final  113.34 input  -65.29 | X-H torsion
[ 10718 10713 10712 10709 ] final -140.92 input   66.30 | X-H torsion
[ 10763 10752 10751 10750 ] final  -56.78 input  -60.55 | X-H torsion
[ 11005 11000 10999 10996 ] final  167.52 input  -57.11 | X-H torsion

> <Gold.Protein.ActiveResidues>
 VAL166  LYS551  ARG553  GLY616  TRP617  ASP618  TYR619  PRO620  LYS621  CYS622 
 ASP623  PHE694  ASN695  SER759  ASP760  ASP761  ALA762  ILE779  LEU786  VAL792 
 PHE793  MET794  SER795  GLU796  ALA797  LYS798  CYS799  TRP800  GLU811  SER814 

> <Gold.Protein.RotatedAtoms>
  151.4057  135.0977  159.9569 H   0  0  0  0  0  0  0  0  0  0  0  0  # atno 6907 bound_to 6896
  152.5036  133.8845  159.7373 H   0  0  0  0  0  0  0  0  0  0  0  0  # atno 6908 bound_to 6896
  150.9329  133.6689  159.2835 H   0  0  0  0  0  0  0  0  0  0  0  0  # atno 6909 bound_to 6896
  144.9037  139.5387  143.5741 H   0  0  0  0  0  0  0  0  0  0  0  0  # atno 7974 bound_to 7965
  154.7479  140.0489  157.0868 H   0  0  0  0  0  0  0  0  0  0  0  0  # atno 8008 bound_to 7997
  155.0095  140.3134  155.4816 H   0  0  0  0  0  0  0  0  0  0  0  0  # atno 8009 bound_to 7997
  156.2879  140.2187  156.5208 H   0  0  0  0  0  0  0  0  0  0  0  0  # atno 8010 bound_to 7997
  139.6468  144.7127  151.2126 H   0  0  0  0  0  0  0  0  0  0  0  0  # atno 10167 bound_to 10162
  156.3280  130.7570  151.1682 H   0  0  0  0  0  0  0  0  0  0  0  0  # atno 10718 bound_to 10713
  154.2121  135.6392  153.5118 H   0  0  0  0  0  0  0  0  0  0  0  0  # atno 10763 bound_to 10752
  152.9987  135.5476  154.6204 H   0  0  0  0  0  0  0  0  0  0  0  0  # atno 10764 bound_to 10752
  154.5643  135.2911  155.0863 H   0  0  0  0  0  0  0  0  0  0  0  0  # atno 10765 bound_to 10752
  140.2777  134.7776  157.3731 H   0  0  0  0  0  0  0  0  0  0  0  0  # atno 11005 bound_to 11000
  146.3122  139.7788  142.9011 LP  0  0  0  0  0  0  0  0  0  0  0  0  # atno 17320 bound_to 7965
  145.3572  141.0319  143.3305 LP  0  0  0  0  0  0  0  0  0  0  0  0  # atno 17321 bound_to 7965
  140.7518  143.6217  150.8507 LP  0  0  0  0  0  0  0  0  0  0  0  0  # atno 17342 bound_to 10162
  139.9861  143.5898  152.2926 LP  0  0  0  0  0  0  0  0  0  0  0  0  # atno 17343 bound_to 10162
  157.7425  131.0489  150.5020 LP  0  0  0  0  0  0  0  0  0  0  0  0  # atno 17370 bound_to 10713
  156.5182  130.4155  149.6264 LP  0  0  0  0  0  0  0  0  0  0  0  0  # atno 17371 bound_to 10713
  140.1313  134.5091  155.8103 LP  0  0  0  0  0  0  0  0  0  0  0  0  # atno 17394 bound_to 11000
  141.2168  133.6791  156.7044 LP  0  0  0  0  0  0  0  0  0  0  0  0  # atno 17395 bound_to 11000

$$$$
