AV-unprocessed.smi:1843|AV-procd|sdf|7502|dock3
  -GOLD-   22720 9203D 1   1.00000     0.00000
 Structure written by MMmdl.
 37 39  0  0  0  0  0  0  0  0  1 V2000
  144.7420  136.3431  153.2110 O   0  0  0  0  0  0  0  0  0  0  0  0
  145.8901  136.3629  152.7667 C   0  0  0  0  0  0  0  0  0  0  0  0
  146.7773  137.3571  152.9460 N   0  0  0  0  0  0  0  0  0  0  0  0
  146.6066  138.5694  153.6656 C   0  0  0  0  0  0  0  0  0  0  0  0
  146.0866  138.6367  154.8988 N   0  0  0  0  0  0  0  0  0  0  0  0
  146.0343  139.9418  155.3683 N   0  0  0  0  0  0  0  0  0  0  0  0
  146.5155  140.8208  154.4812 C   0  0  0  0  0  0  0  0  0  0  0  0
  146.5669  142.2860  154.7597 C   0  0  0  0  0  0  0  0  0  0  0  0
  145.3492  143.0446  155.2411 C   0  0  0  0  0  0  0  0  0  0  0  0
  145.8741  143.2711  153.8464 C   0  0  0  0  0  0  0  0  0  0  0  0
  147.0766  140.1110  152.9706 S   0  0  0  0  0  0  0  0  0  0  0  0
  146.4136  135.3728  152.0292 N   0  0  0  0  0  0  0  0  0  0  0  0
  145.7208  134.1407  151.6568 C   0  0  2  0  0  0  0  0  0  0  0  0
  146.6179  133.2692  150.7569 C   0  0  0  0  0  0  0  0  0  0  0  0
  145.9104  131.9603  150.3708 C   0  0  0  0  0  0  0  0  0  0  0  0
  144.5575  132.2337  149.6947 C   0  0  0  0  0  0  0  0  0  0  0  0
  143.6544  133.1173  150.5749 C   0  0  0  0  0  0  0  0  0  0  0  0
  144.3499  134.4268  150.9954 C   0  0  2  0  0  0  0  0  0  0  0  0
  144.5017  135.2552  149.8571 O   0  0  0  0  0  0  0  0  0  0  0  0
  147.6841  137.2307  152.5214 H   0  0  0  0  0  0  0  0  0  0  0  0
  147.5349  142.5653  155.1711 H   0  0  0  0  0  0  0  0  0  0  0  0
  144.4089  142.5051  155.3358 H   0  0  0  0  0  0  0  0  0  0  0  0
  145.5081  143.8347  155.9720 H   0  0  0  0  0  0  0  0  0  0  0  0
  146.3820  144.2122  153.6457 H   0  0  0  0  0  0  0  0  0  0  0  0
  145.2907  142.8705  153.0198 H   0  0  0  0  0  0  0  0  0  0  0  0
  147.3640  135.4723  151.7038 H   0  0  0  0  0  0  0  0  0  0  0  0
  145.5391  133.5721  152.5713 H   0  0  0  0  0  0  0  0  0  0  0  0
  146.8903  133.8171  149.8538 H   0  0  0  0  0  0  0  0  0  0  0  0
  147.5519  133.0399  151.2712 H   0  0  0  0  0  0  0  0  0  0  0  0
  146.5470  131.3766  149.7052 H   0  0  0  0  0  0  0  0  0  0  0  0
  145.7563  131.3521  151.2632 H   0  0  0  0  0  0  0  0  0  0  0  0
  144.7229  132.7198  148.7325 H   0  0  0  0  0  0  0  0  0  0  0  0
  144.0543  131.2910  149.4784 H   0  0  0  0  0  0  0  0  0  0  0  0
  142.7211  133.3348  150.0541 H   0  0  0  0  0  0  0  0  0  0  0  0
  143.3778  132.5589  151.4703 H   0  0  0  0  0  0  0  0  0  0  0  0
  143.7056  134.9568  151.6980 H   0  0  0  0  0  0  0  0  0  0  0  0
  145.2626  134.9649  149.3777 H   0  0  0  0  0  0  0  0  0  0  0  0
  1  2  2  0  0  0  0
  2  3  1  0  0  0  0
  2 12  1  0  0  0  0
  3  4  1  0  0  0  0
  3 20  1  0  0  0  0
  4 11  1  0  0  0  0
  4  5  2  0  0  0  0
  5  6  1  0  0  0  0
  6  7  2  0  0  0  0
  7  8  1  0  0  0  0
  7 11  1  0  0  0  0
  8 10  1  0  0  0  0
  8  9  1  0  0  0  0
  8 21  1  0  0  0  0
  9 10  1  0  0  0  0
  9 22  1  0  0  0  0
  9 23  1  0  0  0  0
 10 24  1  0  0  0  0
 10 25  1  0  0  0  0
 12 13  1  0  0  0  0
 12 26  1  0  0  0  0
 13 18  1  0  0  0  0
 13 14  1  0  0  0  0
 13 27  1  0  0  0  0
 14 15  1  0  0  0  0
 14 28  1  0  0  0  0
 14 29  1  0  0  0  0
 15 16  1  0  0  0  0
 15 30  1  0  0  0  0
 15 31  1  0  0  0  0
 16 17  1  0  0  0  0
 16 32  1  0  0  0  0
 16 33  1  0  0  0  0
 17 18  1  0  0  0  0
 17 34  1  0  0  0  0
 17 35  1  0  0  0  0
 18 19  1  0  0  0  0
 18 36  1  0  0  0  0
 19 37  1  0  0  0  0
M  END
> <s_m_source_file>
AV-unprocessed.smi

> <i_m_source_file_index>
1843

> <i_lp_mmshare_version>
43012

> <i_f3d_flags>
0

> <s_epik_input>
W09IXVtDQEBIXTFbQ0gyXVtDSDJdW0NIMl1bQ0gyXVtDQEhdMVtOSF1DKD1PKVtOSF1jMm5uYyhzMilbQ0hdM1tDSDJdW0NIMl0z

> <s_epik_cmdline>
J2VwaWtfcHl0aG9uJywgJy1waCcsICc3LjAnLCAnLXRuJywgJzgnLCAnLW1hJywgJzIwMCcsICctbWV0YWxfYmluZGluZycsICctaW1hZScsICc8aW5maWxlLm1hZT4nLCAnLW9tYWUnLCAnPG91dGZpbGUubWFlPic=

> <r_lp_tautomer_probability>
1

> <r_epik_Ionization_Penalty>
0.000257313

> <r_epik_Ionization_Penalty_Charging>
0

> <r_epik_Ionization_Penalty_Neutral>
0.000257313

> <r_epik_State_Penalty>
-0

> <r_epik_Charging_Adjusted_Penalty>
0

> <i_epik_Tot_Q>
0

> <i_epik_Tot_abs_Q>
0

> <r_epik_Metal_State_Penalty>
0.147479

> <b_epik_Metal_Only>
0

> <s_lp_Force_Field>
OPLS_2005

> <r_lp_Energy>
10.7354

> <b_lp_Chiralities_Consistent>
1

> <s_lp_Variant>
AV-unprocessed.smi:1843-3

> <Gold.Version>
5.8.1

> <Gold.Id.Protein>
6NUR|6NUR_protein|mol2

> <Gold.PLP.Fitness>
42.0097

> <Gold.PLP.PLP>
-34.1657

> <Gold.PLP.part.hbond>
-3.0000

> <Gold.PLP.part.metal>
0.0000

> <Gold.PLP.part.buried>
-3.5160

> <Gold.PLP.part.nonpolar>
-28.5986

> <Gold.PLP.part.repulsive>
0.3214

> <Gold.PLP.ligand.clash>
0.0000

> <Gold.PLP.ligand.torsion>
0.5181

> <Gold.PLP.Chemscore.Hbond>
2.9120

> <Gold.PLP.Chemscore.CHOScore>
0.0000

> <Gold.PLP.Chemscore.Metal>
0.0000

> <Gold.Chemscore.Hbonds>
donor molecule, donor type, donor heavy atom, donor atom, acceptor molecule, acceptor atom, score
      L1  H     3    20       P1  7948  1.00
      L1  H    12    26       P1  7948  1.00
      L1  H    19    37       P1  7921  0.93

> <Gold.PLP.Chemscore.Internal.Correction>
0.1443

> <Gold.Rescore>
     Score         DG    S(hbond)    S(metal)    S(lipo)     H(rot)  DE(clash)    DE(int)     intcor
     17.66     -19.74       2.79        0.00      80.36       1.74       0.35       1.73       ----

> <Gold.Chemscore.Fitness>
17.6571

> <Gold.Chemscore.DG>
-19.7441

> <Gold.Chemscore.ZeroCoef>
-5.4800

> <Gold.Chemscore.Hbond>
2.7897

> <Gold.Chemscore.Metal>
0.0000

> <Gold.Chemscore.Lipo>
80.3598

> <Gold.Chemscore.Internal_Hbond>
0.0000

> <Gold.Chemscore.DEClash>
0.3530

> <Gold.Chemscore.DEInternal>
1.7340

> <Gold.Chemscore.Rot>
1.7404

> <Gold.Chemscore.Internal.Correction>
   9.000000E+99

> <Gold.Chemscore.Hbonds>
donor molecule, donor type, donor heavy atom, donor atom, acceptor molecule, acceptor atom, score
      L1  H     3    20       P1  7948  0.97
      L1  H    12    26       P1  7948  0.94
      L1  H    19    37       P1  7921  0.90

> <Gold.Chemscore.Hbond.Weighted>
-9.3175

> <Gold.Chemscore.Metal.Weighted>
-0.0000

> <Gold.Chemscore.Lipo.Weighted>
-9.4021

> <Gold.Chemscore.Internal_Hbond.Weighted>
0.0000

> <Gold.Chemscore.DEClash.Weighted>
0.3530

> <Gold.Chemscore.DEInternal.Weighted>
1.7340

> <Gold.Chemscore.Rot.Weighted>
4.4555

> <Gold.Chemscore.Internal.Correction.Weighted>
   9.000000E+99

> <Gold.Protein.RotatedTorsions>
[ 6907 6896 6895 6894 ] final   75.56 input  -60.11 | X-H torsion
[ 7974 7965 7964 7962 ] final -156.43 input  175.53 | X-H torsion
[ 8008 7997 7996 7995 ] final -161.40 input   59.86 | X-H torsion
[ 10167 10162 10161 10158 ] final  -20.71 input  -65.29 | X-H torsion
[ 10718 10713 10712 10709 ] final   78.52 input   66.30 | X-H torsion
[ 10763 10752 10751 10750 ] final -102.57 input  -60.55 | X-H torsion
[ 11005 11000 10999 10996 ] final   28.85 input  -57.11 | X-H torsion

> <Gold.Protein.ActiveResidues>
 VAL166  LYS551  ARG553  GLY616  TRP617  ASP618  TYR619  PRO620  LYS621  CYS622 
 ASP623  PHE694  ASN695  SER759  ASP760  ASP761  ALA762  ILE779  LEU786  VAL792 
 PHE793  MET794  SER795  GLU796  ALA797  LYS798  CYS799  TRP800  GLU811  SER814 

> <Gold.Protein.RotatedAtoms>
  152.5032  134.4101  159.9445 H   0  0  0  0  0  0  0  0  0  0  0  0  # atno 6907 bound_to 6896
  151.4069  133.3733  159.2747 H   0  0  0  0  0  0  0  0  0  0  0  0  # atno 6908 bound_to 6896
  150.9320  134.8756  159.7616 H   0  0  0  0  0  0  0  0  0  0  0  0  # atno 6909 bound_to 6896
  144.7593  140.4110  143.5988 H   0  0  0  0  0  0  0  0  0  0  0  0  # atno 7974 bound_to 7965
  155.7916  140.0879  157.2005 H   0  0  0  0  0  0  0  0  0  0  0  0  # atno 8008 bound_to 7997
  154.3985  140.1489  156.3228 H   0  0  0  0  0  0  0  0  0  0  0  0  # atno 8009 bound_to 7997
  155.8553  140.3433  155.5722 H   0  0  0  0  0  0  0  0  0  0  0  0  # atno 8010 bound_to 7997
  140.7278  143.4696  151.0265 H   0  0  0  0  0  0  0  0  0  0  0  0  # atno 10167 bound_to 10162
  157.6747  130.9872  150.1799 H   0  0  0  0  0  0  0  0  0  0  0  0  # atno 10718 bound_to 10713
  154.7743  135.4856  153.9713 H   0  0  0  0  0  0  0  0  0  0  0  0  # atno 10763 bound_to 10752
  153.1409  135.6772  153.9037 H   0  0  0  0  0  0  0  0  0  0  0  0  # atno 10764 bound_to 10752
  153.8711  135.3143  155.3420 H   0  0  0  0  0  0  0  0  0  0  0  0  # atno 10765 bound_to 10752
  140.3112  134.2647  155.7734 H   0  0  0  0  0  0  0  0  0  0  0  0  # atno 11005 bound_to 11000
  145.6672  139.1592  143.2775 LP  0  0  0  0  0  0  0  0  0  0  0  0  # atno 17320 bound_to 7965
  146.1639  140.6747  142.9264 LP  0  0  0  0  0  0  0  0  0  0  0  0  # atno 17321 bound_to 7965
  139.8387  143.7593  152.3180 LP  0  0  0  0  0  0  0  0  0  0  0  0  # atno 17342 bound_to 10162
  139.7734  144.7469  151.0192 LP  0  0  0  0  0  0  0  0  0  0  0  0  # atno 17343 bound_to 10162
  156.2534  130.3703  149.8208 LP  0  0  0  0  0  0  0  0  0  0  0  0  # atno 17370 bound_to 10713
  156.5974  130.8532  151.3423 LP  0  0  0  0  0  0  0  0  0  0  0  0  # atno 17371 bound_to 10713
  141.2107  133.7710  156.9911 LP  0  0  0  0  0  0  0  0  0  0  0  0  # atno 17394 bound_to 11000
  140.1023  134.9528  157.1941 LP  0  0  0  0  0  0  0  0  0  0  0  0  # atno 17395 bound_to 11000

$$$$
