#       Name:                AV-unprocessed.smi:73
#       Creating user name   scv26
#       Creation time:       Thu Mar 26 17:09:41 2020


#       File generated by GOLD software.
#

@<TRIPOS>MOLECULE
AV-unprocessed.smi:73
    42    43     1
SMALL
NO_CHARGES


@<TRIPOS>ATOM
      1 ****        -2.0734   1.8516   0.3940 C.3            1 S1                 0.0000
      2 ****        -0.6322   1.4669   0.0289 C.3            1 S1                 0.0000
      3 ****        -0.2798   0.0290  -0.0195 N.3            1 S1                 0.0000
      4 ****         1.1910  -0.0827  -0.0238 C.3            1 S1                 0.0000
      5 ****         1.8476   0.3830   1.2378 C.2            1 S1                 0.0000
      6 ****         1.7159  -0.1382   2.4600 N.2            1 S1                 0.0000
      7 ****         2.5018   0.6372   3.2835 N.2            1 S1                 0.0000
      8 ****         3.0484   1.5660   2.4952 C.2            1 S1                 0.0000
      9 ****         3.9844   2.6553   2.8930 C.3            1 S1                 0.0000
     10 ****         2.6776   1.4571   1.1933 O.3            1 S1                 0.0000
     11 ****        -0.8762  -0.6548  -1.1952 C.3            1 S1                 0.0000
     12 ****        -2.4164  -0.8420  -1.1082 C.3            1 S1                 0.0000
     13 ****        -2.7319  -2.2645  -1.3152 N.4            1 S1                 1.0000
     14 ****        -1.5892  -2.8603  -2.0031 C.3            1 S1                 0.0000
     15 ****        -0.3877  -2.1071  -1.4437 C.3            1 S1                 0.0000
     16 ****         0.6628  -2.1565  -2.3890 O.3            1 S1                 0.0000
     17 ****        -0.0851  -2.5843  -0.5101 H              1 S1                 0.0000
     18 ****        -2.1259   2.9129   0.6376 H              1 S1                 0.0000
     19 ****        -2.4243   1.3017   1.2678 H              1 S1                 0.0000
     20 ****        -2.7674   1.6923  -0.4296 H              1 S1                 0.0000
     21 ****        -0.3615   1.9448  -0.9139 H              1 S1                 0.0000
     22 ****        -0.0213   1.9633   0.7820 H              1 S1                 0.0000
     23 ****         1.5077  -1.1165  -0.1415 H              1 S1                 0.0000
     24 ****         1.6097   0.4657  -0.8691 H              1 S1                 0.0000
     25 ****         3.8720   2.8813   3.9535 H              1 S1                 0.0000
     26 ****         3.7767   3.5589   2.3194 H              1 S1                 0.0000
     27 ****         5.0133   2.3484   2.7057 H              1 S1                 0.0000
     28 ****        -0.6632  -0.0712  -2.0928 H              1 S1                 0.0000
     29 ****        -2.8275  -0.5814  -0.1347 H              1 S1                 0.0000
     30 ****        -2.9197  -0.2425  -1.8673 H              1 S1                 0.0000
     31 ****        -2.8177  -2.7035  -0.4094 H              1 S1                 0.0000
     32 ****        -1.5315  -3.9374  -1.8436 H              1 S1                 0.0000
     33 ****        -1.7028  -2.6776  -3.0733 H              1 S1                 0.0000
     34 ****         1.4139  -1.7080  -2.0312 H              1 S1                 0.0000
     35 ****        -3.5880  -2.3853  -1.8375 H              1 S1                 0.0000
     36 ****        -0.6574  -0.4298   0.7848 LP             1 S1                 0.0000
     37 ****         1.1616  -0.9279   2.7230 LP             1 S1                 0.0000
     38 ****         2.6354   0.5272   4.2684 LP             1 S1                 0.0000
     39 ****         2.1980   2.2768   0.8802 LP             1 S1                 0.0000
     40 ****         3.4656   1.2857   0.6020 LP             1 S1                 0.0000
     41 ****         0.3751  -1.7085  -3.2355 LP             1 S1                 0.0000
     42 ****         0.8992  -3.1093  -2.5798 LP             1 S1                 0.0000
@<TRIPOS>BOND
    1    1    2 1     
    2    1   18 1     
    3    1   19 1     
    4    1   20 1     
    5    2    3 1     
    6    2   21 1     
    7    2   22 1     
    8    3    4 1     
    9    3   11 1     
   10    4    5 1     
   11    4   23 1     
   12    4   24 1     
   13    5   10 1     
   14    5    6 2     
   15    6    7 1     
   16    7    8 2     
   17    8    9 1     
   18    8   10 1     
   19    9   25 1     
   20    9   26 1     
   21    9   27 1     
   22   11   15 1     
   23   11   12 1     
   24   11   28 1     
   25   12   13 1     
   26   12   29 1     
   27   12   30 1     
   28   13   14 1     
   29   13   31 1     
   30   13   35 1     
   31   14   15 1     
   32   14   32 1     
   33   14   33 1     
   34   15   17 1     
   35   15   16 1     
   36   16   34 1     
   37    3   36 1     
   38    6   37 1     
   39    7   38 1     
   40   10   39 1     
   41   10   40 1     
   42   16   41 1     
   43   16   42 1     
@<TRIPOS>SUBSTRUCTURE
      1 S1             1
@<TRIPOS>SET
LONE_PAIRS      STATIC     ATOMS    <user>   **** ""
7 36 37 38 39 40 41 42
DONOR_HYDROGENS      STATIC     ATOMS    <user>   **** ""
3 31 35 34
ATOM$BLUE        STATIC     ATOMS    COLORGROUP SYSTEM
7 36 37 38 39 40 41 42
ATOM$RED        STATIC     ATOMS    COLORGROUP SYSTEM
3 31 35 34
