#       Name:                AV-unprocessed.smi:1492
#       Creating user name   scv26
#       Creation time:       Fri Mar 27 06:15:54 2020


#       File generated by GOLD software.
#

@<TRIPOS>MOLECULE
AV-unprocessed.smi:1492
    60    61     1
SMALL
NO_CHARGES


@<TRIPOS>ATOM
      1 ****        -0.5465  -2.6526  -3.7984 C.3            1 S1                 0.0000
      2 ****        -1.1516  -2.2661  -2.4364 C.3            1 S1                 0.0000
      3 ****        -0.3308  -1.2627  -1.5656 C.3            1 S1                 0.0000
      4 ****        -0.0955   0.0302  -2.3919 C.3            1 S1                 0.0000
      5 ****         1.0783  -1.8761  -1.2852 C.3            1 S1                 0.0000
      6 ****         1.8285  -1.1075  -0.2953 N.am           1 S1                 0.0000
      7 ****         2.7931  -0.2108  -0.5464 C.2            1 S1                 0.0000
      8 ****         3.2866  -0.0292  -1.6592 O.2            1 S1                 0.0000
      9 ****         3.2398   0.6372   0.6446 C.3            1 S1                 0.0000
     10 ****         2.1046   1.3451   1.3870 C.2            1 S1                 0.0000
     11 ****         1.5566   2.5211   0.9668 C.2            1 S1                 0.0000
     12 ****         2.0322   3.2576  -0.2733 C.3            1 S1                 0.0000
     13 ****         0.4982   3.1221   1.6690 N.2            1 S1                 0.0000
     14 ****         0.0411   2.5593   2.7217 C.2            1 S1                 0.0000
     15 ****        -1.1069   3.2153   3.4590 C.3            1 S1                 0.0000
     16 ****         0.5254   1.3758   3.2320 N.pl3          1 S1                -1.0000
     17 ****         1.5410   0.7233   2.5991 C.2            1 S1                 0.0000
     18 ****         1.9758  -0.3545   3.0031 O.2            1 S1                 0.0000
     19 ****        -1.0241  -0.9279  -0.2861 N.3            1 S1                 0.0000
     20 ****        -2.2872  -0.1939  -0.4223 C.3            1 S1                 0.0000
     21 ****        -2.8465   0.2433   0.9422 C.3            1 S1                 0.0000
     22 ****        -3.0197  -0.8960   1.7763 O.3            1 S1                 0.0000
     23 ****        -1.8036  -1.6043   1.9833 C.3            1 S1                 0.0000
     24 ****        -1.2319  -2.0568   0.6290 C.3            1 S1                 0.0000
     25 ****        -1.2077  -3.3435  -4.3214 H              1 S1                 0.0000
     26 ****         0.4157  -3.1524  -3.6923 H              1 S1                 0.0000
     27 ****        -0.4126  -1.7873  -4.4469 H              1 S1                 0.0000
     28 ****        -2.1447  -1.8621  -2.6299 H              1 S1                 0.0000
     29 ****        -1.3127  -3.1908  -1.8829 H              1 S1                 0.0000
     30 ****         0.6291  -0.1194  -3.1925 H              1 S1                 0.0000
     31 ****         0.2864   0.8390  -1.7681 H              1 S1                 0.0000
     32 ****        -1.0107   0.3871  -2.8646 H              1 S1                 0.0000
     33 ****         0.9873  -2.8960  -0.9115 H              1 S1                 0.0000
     34 ****         1.6611  -1.9649  -2.2028 H              1 S1                 0.0000
     35 ****         1.5018  -1.1751   0.6585 H              1 S1                 0.0000
     36 ****         3.8175   0.0097   1.3240 H              1 S1                 0.0000
     37 ****         3.9472   1.3870   0.2899 H              1 S1                 0.0000
     38 ****         1.9736   2.6138  -1.1507 H              1 S1                 0.0000
     39 ****         3.0646   3.5845  -0.1501 H              1 S1                 0.0000
     40 ****         1.4214   4.1401  -0.4666 H              1 S1                 0.0000
     41 ****        -2.0179   3.1568   2.8629 H              1 S1                 0.0000
     42 ****        -0.8850   4.2658   3.6490 H              1 S1                 0.0000
     43 ****        -1.2932   2.7283   4.4174 H              1 S1                 0.0000
     44 ****        -2.1556   0.7019  -1.0269 H              1 S1                 0.0000
     45 ****        -3.0320  -0.8106  -0.9250 H              1 S1                 0.0000
     46 ****        -2.1765   0.9573   1.4224 H              1 S1                 0.0000
     47 ****        -3.8075   0.7419   0.8159 H              1 S1                 0.0000
     48 ****        -1.0902  -0.9725   2.5132 H              1 S1                 0.0000
     49 ****        -1.9985  -2.4678   2.6192 H              1 S1                 0.0000
     50 ****        -1.9179  -2.7792   0.1870 H              1 S1                 0.0000
     51 ****        -0.2985  -2.5832   0.8198 H              1 S1                 0.0000
     52 ****         2.9697  -0.5670  -2.4405 LP             1 S1                 0.0000
     53 ****         4.0044   0.6561  -1.7820 LP             1 S1                 0.0000
     54 ****         0.1055   3.9837   1.3475 LP             1 S1                 0.0000
     55 ****         0.1314   0.9944   4.0682 LP             1 S1                 0.0000
     56 ****         2.7146  -0.8125   2.5088 LP             1 S1                 0.0000
     57 ****         1.5903  -0.7724   3.8258 LP             1 S1                 0.0000
     58 ****        -0.3510  -0.3113   0.1221 LP             1 S1                 0.0000
     59 ****        -3.6810  -1.5112   1.3470 LP             1 S1                 0.0000
     60 ****        -3.3713  -0.5950   2.6627 LP             1 S1                 0.0000
@<TRIPOS>BOND
    1    1    2 1     
    2    1   25 1     
    3    1   26 1     
    4    1   27 1     
    5    2    3 1     
    6    2   28 1     
    7    2   29 1     
    8    3    4 1     
    9    3    5 1     
   10    3   19 1     
   11    4   30 1     
   12    4   31 1     
   13    4   32 1     
   14    5    6 1     
   15    5   33 1     
   16    5   34 1     
   17    6    7 am    
   18    6   35 1     
   19    7    8 2     
   20    7    9 1     
   21    9   10 1     
   22    9   36 1     
   23    9   37 1     
   24   10   17 1     
   25   10   11 2     
   26   11   12 1     
   27   11   13 1     
   28   12   38 1     
   29   12   39 1     
   30   12   40 1     
   31   13   14 2     
   32   14   15 1     
   33   14   16 1     
   34   15   41 1     
   35   15   42 1     
   36   15   43 1     
   37   16   17 1     
   38   17   18 2     
   39   19   24 1     
   40   19   20 1     
   41   20   21 1     
   42   20   44 1     
   43   20   45 1     
   44   21   22 1     
   45   21   46 1     
   46   21   47 1     
   47   22   23 1     
   48   23   24 1     
   49   23   48 1     
   50   23   49 1     
   51   24   50 1     
   52   24   51 1     
   53    8   52 1     
   54    8   53 1     
   55   13   54 1     
   56   16   55 1     
   57   18   56 1     
   58   18   57 1     
   59   19   58 1     
   60   22   59 1     
   61   22   60 1     
@<TRIPOS>SUBSTRUCTURE
      1 S1             1
@<TRIPOS>SET
LONE_PAIRS      STATIC     ATOMS    <user>   **** ""
9 52 53 54 55 56 57 58 59 60
DONOR_HYDROGENS      STATIC     ATOMS    <user>   **** ""
1 35
ATOM$BLUE        STATIC     ATOMS    COLORGROUP SYSTEM
9 52 53 54 55 56 57 58 59 60
ATOM$RED        STATIC     ATOMS    COLORGROUP SYSTEM
1 35
