#       Name:                AV-unprocessed.smi:2963
#       Creating user name   scv26
#       Creation time:       Fri Mar 27 16:22:24 2020


#       File generated by GOLD software.
#

@<TRIPOS>MOLECULE
AV-unprocessed.smi:2963
    48    50     1
SMALL
NO_CHARGES


@<TRIPOS>ATOM
      1 ****        -2.4960   0.4592  -1.4384 C.3            1 S1                 0.0000
      2 ****        -1.6292   1.3583  -0.7650 O.3            1 S1                 0.0000
      3 ****        -2.2650   2.0913   0.2732 C.3            1 S1                 0.0000
      4 ****        -2.2894   1.3122   1.6005 C.3            1 S1                 0.0000
      5 ****        -0.9488   0.9776   2.0604 N.pl3          1 S1                 0.0000
      6 ****        -0.2834  -0.1978   1.9406 C.2            1 S1                 0.0000
      7 ****        -0.9953  -1.6054   1.1587 S.3            1 S1                 0.0000
      8 ****         0.1847  -1.7375  -0.2184 C.3            1 S1                 0.0000
      9 ****        -0.2935  -2.6171  -1.3846 C.2            1 S1                 0.0000
     10 ****        -1.3863  -3.1820  -1.2903 O.2            1 S1                 0.0000
     11 ****         0.5184  -2.7183  -2.4707 N.am           1 S1                 0.0000
     12 ****         1.8183  -2.0521  -2.5713 C.3            1 S1                 0.0000
     13 ****         2.3502  -2.4670  -3.9386 C.3            1 S1                 0.0000
     14 ****         1.2823  -3.2974  -4.4375 N.am           1 S1                 0.0000
     15 ****         0.2560  -3.4285  -3.5937 C.2            1 S1                 0.0000
     16 ****        -0.7470  -4.0983  -3.8434 O.2            1 S1                 0.0000
     17 ****         0.9501  -0.2191   2.4463 N.2            1 S1                 0.0000
     18 ****         1.0982   1.0604   2.9434 C.ar           1 S1                 0.0000
     19 ****         2.1890   1.6691   3.6044 C.ar           1 S1                 0.0000
     20 ****         2.1087   3.0127   4.0256 C.ar           1 S1                 0.0000
     21 ****         0.9397   3.7654   3.7913 C.ar           1 S1                 0.0000
     22 ****        -0.1589   3.1777   3.1349 C.ar           1 S1                 0.0000
     23 ****        -0.0737   1.8359   2.7179 C.ar           1 S1                 0.0000
     24 ****        -1.9384  -0.0792  -2.2047 H              1 S1                 0.0000
     25 ****        -3.3093   0.9934  -1.9309 H              1 S1                 0.0000
     26 ****        -2.9255  -0.2767  -0.7587 H              1 S1                 0.0000
     27 ****        -1.7016   3.0140   0.4145 H              1 S1                 0.0000
     28 ****        -3.2715   2.3945  -0.0194 H              1 S1                 0.0000
     29 ****        -2.7708   1.9162   2.3704 H              1 S1                 0.0000
     30 ****        -2.8901   0.4077   1.5141 H              1 S1                 0.0000
     31 ****         0.3715  -0.7309  -0.5938 H              1 S1                 0.0000
     32 ****         1.1266  -2.1226   0.1731 H              1 S1                 0.0000
     33 ****         1.7097  -0.9679  -2.5134 H              1 S1                 0.0000
     34 ****         2.4925  -2.3786  -1.7780 H              1 S1                 0.0000
     35 ****         2.5113  -1.6112  -4.5953 H              1 S1                 0.0000
     36 ****         3.2761  -3.0384  -3.8629 H              1 S1                 0.0000
     37 ****         1.3194  -3.7361  -5.3462 H              1 S1                 0.0000
     38 ****         3.0890   1.1015   3.7880 H              1 S1                 0.0000
     39 ****         2.9484   3.4681   4.5298 H              1 S1                 0.0000
     40 ****         0.8870   4.7944   4.1158 H              1 S1                 0.0000
     41 ****        -1.0553   3.7516   2.9526 H              1 S1                 0.0000
     42 ****        -1.2656   2.0073  -1.4333 LP             1 S1                 0.0000
     43 ****        -0.8769   0.8336  -0.3666 LP             1 S1                 0.0000
     44 ****        -1.9413  -3.0628  -0.4671 LP             1 S1                 0.0000
     45 ****        -1.7169  -3.7590  -2.0371 LP             1 S1                 0.0000
     46 ****        -1.4865  -4.1601  -3.1732 LP             1 S1                 0.0000
     47 ****        -0.8217  -4.5803  -4.7164 LP             1 S1                 0.0000
     48 ****         1.6054  -0.9743   2.4617 LP             1 S1                 0.0000
@<TRIPOS>BOND
    1    1    2 1     
    2    1   24 1     
    3    1   25 1     
    4    1   26 1     
    5    2    3 1     
    6    3    4 1     
    7    3   27 1     
    8    3   28 1     
    9    4    5 1     
   10    4   29 1     
   11    4   30 1     
   12    5   23 1     
   13    5    6 1     
   14    6    7 1     
   15    6   17 2     
   16    7    8 1     
   17    8    9 1     
   18    8   31 1     
   19    8   32 1     
   20    9   10 2     
   21    9   11 am    
   22   11   15 am    
   23   11   12 1     
   24   12   13 1     
   25   12   33 1     
   26   12   34 1     
   27   13   14 1     
   28   13   35 1     
   29   13   36 1     
   30   14   15 am    
   31   14   37 1     
   32   15   16 2     
   33   17   18 1     
   34   18   23 ar    
   35   18   19 ar    
   36   19   20 ar    
   37   19   38 1     
   38   20   21 ar    
   39   20   39 1     
   40   21   22 ar    
   41   21   40 1     
   42   22   23 ar    
   43   22   41 1     
   44    2   42 1     
   45    2   43 1     
   46   10   44 1     
   47   10   45 1     
   48   16   46 1     
   49   16   47 1     
   50   17   48 1     
@<TRIPOS>SUBSTRUCTURE
      1 S1             1
@<TRIPOS>SET
LONE_PAIRS      STATIC     ATOMS    <user>   **** ""
7 42 43 44 45 46 47 48
DONOR_HYDROGENS      STATIC     ATOMS    <user>   **** ""
1 37
ATOM$BLUE        STATIC     ATOMS    COLORGROUP SYSTEM
7 42 43 44 45 46 47 48
ATOM$RED        STATIC     ATOMS    COLORGROUP SYSTEM
1 37
