AV-unprocessed.smi:3149|AV-procd|sdf|12000|dock1
  -GOLD-   2272017403D 1   1.00000     0.00000
 Structure written by MMmdl.
 38 39  0  0  0  0  0  0  0  0  2 V2000
  146.5609  138.6773  151.5967 C   0  0  0  0  0  0  0  0  0  0  0  0
  146.2367  137.9923  152.9370 C   0  0  1  0  0  0  0  0  0  0  0  0
  146.5577  136.5496  152.8202 N   0  3  0  0  0  0  0  0  0  0  0  0
  145.6629  135.7637  151.9435 C   0  0  0  0  0  0  0  0  0  0  0  0
  146.0630  134.2841  151.9104 C   0  0  0  0  0  0  0  0  0  0  0  0
  147.0422  133.9000  152.5487 O   0  0  0  0  0  0  0  0  0  0  0  0
  145.2606  133.4006  151.1842 N   0  0  0  0  0  0  0  0  0  0  0  0
  145.8321  132.3368  150.3717 C   0  0  0  0  0  0  0  0  0  0  0  0
  144.5993  132.5029  149.4781 C   0  0  0  0  0  0  0  0  0  0  0  0
  144.3919  133.8788  150.1189 C   0  0  0  0  0  0  0  0  0  0  0  0
  146.9871  138.6262  154.1403 C   0  0  2  0  0  0  0  0  0  0  0  0
  146.6634  137.9429  155.4827 C   0  0  0  0  0  0  0  0  0  0  0  0
  146.7411  140.0592  154.2438 N   0  0  0  0  0  0  0  0  0  0  0  0
  147.0930  141.0537  153.3543 C   0  0  0  0  0  0  0  0  0  0  0  0
  146.6570  142.2389  153.8732 C   0  0  0  0  0  0  0  0  0  0  0  0
  146.0447  141.8658  155.1016 C   0  0  0  0  0  0  0  0  0  0  0  0
  146.0975  140.5622  155.3216 N   0  0  0  0  0  0  0  0  0  0  0  0
  146.2413  139.7196  151.5843 H   0  0  0  0  0  0  0  0  0  0  0  0
  146.0502  138.1802  150.7711 H   0  0  0  0  0  0  0  0  0  0  0  0
  147.6310  138.6541  151.3877 H   0  0  0  0  0  0  0  0  0  0  0  0
  145.1641  138.1106  153.0998 H   0  0  0  0  0  0  0  0  0  0  0  0
  147.4958  136.4590  152.4561 H   0  0  0  0  0  0  0  0  0  0  0  0
  144.6516  135.8281  152.3456 H   0  0  0  0  0  0  0  0  0  0  0  0
  145.6297  136.2100  150.9503 H   0  0  0  0  0  0  0  0  0  0  0  0
  146.7636  132.6184  149.8763 H   0  0  0  0  0  0  0  0  0  0  0  0
  145.8968  131.3741  150.8799 H   0  0  0  0  0  0  0  0  0  0  0  0
  144.8204  132.5348  148.4108 H   0  0  0  0  0  0  0  0  0  0  0  0
  143.8005  131.7946  149.7057 H   0  0  0  0  0  0  0  0  0  0  0  0
  143.3694  134.0830  150.4381 H   0  0  0  0  0  0  0  0  0  0  0  0
  144.8221  134.6937  149.5327 H   0  0  0  0  0  0  0  0  0  0  0  0
  148.0578  138.5085  153.9648 H   0  0  0  0  0  0  0  0  0  0  0  0
  146.9861  136.9021  155.4912 H   0  0  0  0  0  0  0  0  0  0  0  0
  145.5938  137.9622  155.6944 H   0  0  0  0  0  0  0  0  0  0  0  0
  147.1732  138.4420  156.3076 H   0  0  0  0  0  0  0  0  0  0  0  0
  147.6177  140.8388  152.4350 H   0  0  0  0  0  0  0  0  0  0  0  0
  146.7607  143.2236  153.4417 H   0  0  0  0  0  0  0  0  0  0  0  0
  145.5668  142.4987  155.8349 H   0  0  0  0  0  0  0  0  0  0  0  0
  146.5357  136.1498  153.7471 H   0  0  0  0  0  0  0  0  0  0  0  0
  1  2  1  0  0  0  0
  1 18  1  0  0  0  0
  1 19  1  0  0  0  0
  1 20  1  0  0  0  0
  2  3  1  0  0  0  0
  2 11  1  0  0  0  0
  2 21  1  0  0  0  0
  3  4  1  0  0  0  0
  3 22  1  0  0  0  0
  3 38  1  0  0  0  0
  4  5  1  0  0  0  0
  4 23  1  0  0  0  0
  4 24  1  0  0  0  0
  5  6  2  0  0  0  0
  5  7  1  0  0  0  0
  7 10  1  0  0  0  0
  7  8  1  0  0  0  0
  8  9  1  0  0  0  0
  8 25  1  0  0  0  0
  8 26  1  0  0  0  0
  9 10  1  0  0  0  0
  9 27  1  0  0  0  0
  9 28  1  0  0  0  0
 10 29  1  0  0  0  0
 10 30  1  0  0  0  0
 11 12  1  0  0  0  0
 11 13  1  0  0  0  0
 11 31  1  0  0  0  0
 12 32  1  0  0  0  0
 12 33  1  0  0  0  0
 12 34  1  0  0  0  0
 13 17  1  0  0  0  0
 13 14  1  0  0  0  0
 14 15  2  0  0  0  0
 14 35  1  0  0  0  0
 15 16  1  0  0  0  0
 15 36  1  0  0  0  0
 16 17  2  0  0  0  0
 16 37  1  0  0  0  0
M  CHG  1   3   1
M  END
> <s_m_source_file>
AV-unprocessed.smi

> <i_m_source_file_index>
3149

> <i_lp_mmshare_version>
43012

> <i_f3d_flags>
0

> <s_epik_input>
bjFbY0hdW2NIXVtjSF1uMVtDQEBIXShbQ0gzXSlbQ0BIXShbQ0gzXSlbTkhdW0NIMl1DKD1PKU4yW0NIMl1bQ0gyXVtDSDJdMg==

> <s_epik_cmdline>
J2VwaWtfcHl0aG9uJywgJy1waCcsICc3LjAnLCAnLXRuJywgJzgnLCAnLW1hJywgJzIwMCcsICctbWV0YWxfYmluZGluZycsICctaW1hZScsICc8aW5maWxlLm1hZT4nLCAnLW9tYWUnLCAnPG91dGZpbGUubWFlPic=

> <r_lp_tautomer_probability>
1

> <r_epik_Ionization_Penalty>
0.141739

> <r_epik_Ionization_Penalty_Charging>
0.141731

> <r_epik_Ionization_Penalty_Neutral>
8.82171e-06

> <r_epik_State_Penalty>
0.131043

> <r_epik_Charging_Adjusted_Penalty>
0.272773

> <i_epik_Tot_Q>
1

> <i_epik_Tot_abs_Q>
1

> <r_epik_Metal_State_Penalty>
0.131384

> <b_epik_Metal_Only>
0

> <s_lp_Force_Field>
OPLS_2005

> <r_lp_Energy>
23.3154

> <b_lp_Chiralities_Consistent>
1

> <s_lp_Variant>
AV-unprocessed.smi:3149-2

> <Gold.Version>
5.8.1

> <Gold.Id.Protein>
6NUR|6NUR_protein|mol2

> <Gold.PLP.Fitness>
39.3540

> <Gold.PLP.PLP>
-30.6891

> <Gold.PLP.part.hbond>
-1.0000

> <Gold.PLP.part.metal>
0.0000

> <Gold.PLP.part.buried>
-5.2187

> <Gold.PLP.part.nonpolar>
-25.5986

> <Gold.PLP.part.repulsive>
0.5938

> <Gold.PLP.ligand.clash>
0.0000

> <Gold.PLP.ligand.torsion>
0.6469

> <Gold.PLP.Chemscore.Hbond>
2.0000

> <Gold.PLP.Chemscore.CHOScore>
1.0000

> <Gold.PLP.Chemscore.Metal>
0.0000

> <Gold.Chemscore.Hbonds>
donor molecule, donor type, donor heavy atom, donor atom, acceptor molecule, acceptor atom, score
      L1  H     3    22       P1  7948  2.00
      L1  C    14    35       P1  7957  1.00

> <Gold.PLP.Chemscore.Internal.Correction>
0.9587

> <Gold.Rescore>
     Score         DG    S(hbond)    S(metal)    S(lipo)     H(rot)  DE(clash)    DE(int)     intcor
     11.50     -12.36       1.00        0.00      70.90       1.85       0.02       0.84       ----

> <Gold.Chemscore.Fitness>
11.5028

> <Gold.Chemscore.DG>
-12.3605

> <Gold.Chemscore.ZeroCoef>
-5.4800

> <Gold.Chemscore.Hbond>
0.9975

> <Gold.Chemscore.Metal>
0.0000

> <Gold.Chemscore.Lipo>
70.9047

> <Gold.Chemscore.Internal_Hbond>
0.0000

> <Gold.Chemscore.DEClash>
0.0207

> <Gold.Chemscore.DEInternal>
0.8370

> <Gold.Chemscore.Rot>
1.8544

> <Gold.Chemscore.Internal.Correction>
   9.000000E+99

> <Gold.Chemscore.Hbonds>
donor molecule, donor type, donor heavy atom, donor atom, acceptor molecule, acceptor atom, score
      L1  H     3    22       P1  7948  0.98

> <Gold.Chemscore.Hbond.Weighted>
-3.3318

> <Gold.Chemscore.Metal.Weighted>
-0.0000

> <Gold.Chemscore.Lipo.Weighted>
-8.2959

> <Gold.Chemscore.Internal_Hbond.Weighted>
0.0000

> <Gold.Chemscore.DEClash.Weighted>
0.0207

> <Gold.Chemscore.DEInternal.Weighted>
0.8370

> <Gold.Chemscore.Rot.Weighted>
4.7472

> <Gold.Chemscore.Internal.Correction.Weighted>
   9.000000E+99

> <Gold.Protein.RotatedTorsions>
[ 6907 6896 6895 6894 ] final    3.85 input  -60.11 | X-H torsion
[ 7974 7965 7964 7962 ] final  -51.26 input  175.53 | X-H torsion
[ 8008 7997 7996 7995 ] final  122.31 input   59.86 | X-H torsion
[ 10167 10162 10161 10158 ] final   43.60 input  -65.29 | X-H torsion
[ 10718 10713 10712 10709 ] final  168.41 input   66.30 | X-H torsion
[ 10763 10752 10751 10750 ] final  148.78 input  -60.55 | X-H torsion
[ 11005 11000 10999 10996 ] final   54.54 input  -57.11 | X-H torsion

> <Gold.Protein.ActiveResidues>
 VAL166  LYS551  ARG553  GLY616  TRP617  ASP618  TYR619  PRO620  LYS621  CYS622 
 ASP623  PHE694  ASN695  SER759  ASP760  ASP761  ALA762  ILE779  LEU786  VAL792 
 PHE793  MET794  SER795  GLU796  ALA797  LYS798  CYS799  TRP800  GLU811  SER814 

> <Gold.Protein.RotatedAtoms>
  151.6318  135.1022  160.0122 H   0  0  0  0  0  0  0  0  0  0  0  0  # atno 6907 bound_to 6896
  152.4102  133.6948  159.6400 H   0  0  0  0  0  0  0  0  0  0  0  0  # atno 6908 bound_to 6896
  150.7993  133.8554  159.3258 H   0  0  0  0  0  0  0  0  0  0  0  0  # atno 6909 bound_to 6896
  145.9208  140.7835  142.9648 H   0  0  0  0  0  0  0  0  0  0  0  0  # atno 7974 bound_to 7965
  156.2722  140.2789  156.1446 H   0  0  0  0  0  0  0  0  0  0  0  0  # atno 8008 bound_to 7997
  155.0917  140.0388  157.2688 H   0  0  0  0  0  0  0  0  0  0  0  0  # atno 8009 bound_to 7997
  154.6884  140.2624  155.6843 H   0  0  0  0  0  0  0  0  0  0  0  0  # atno 8010 bound_to 7997
  140.3427  144.2450  150.6154 H   0  0  0  0  0  0  0  0  0  0  0  0  # atno 10167 bound_to 10162
  157.0375  131.0277  151.2724 H   0  0  0  0  0  0  0  0  0  0  0  0  # atno 10718 bound_to 10713
  154.0603  135.2874  155.3326 H   0  0  0  0  0  0  0  0  0  0  0  0  # atno 10763 bound_to 10752
  154.6812  135.5262  153.8269 H   0  0  0  0  0  0  0  0  0  0  0  0  # atno 10764 bound_to 10752
  153.0525  135.6582  154.0792 H   0  0  0  0  0  0  0  0  0  0  0  0  # atno 10765 bound_to 10752
  140.0678  134.5512  155.9080 H   0  0  0  0  0  0  0  0  0  0  0  0  # atno 11005 bound_to 11000
  144.6753  140.1973  143.7390 LP  0  0  0  0  0  0  0  0  0  0  0  0  # atno 17320 bound_to 7965
  145.8552  139.2195  143.1749 LP  0  0  0  0  0  0  0  0  0  0  0  0  # atno 17321 bound_to 7965
  140.5293  143.2247  151.8264 LP  0  0  0  0  0  0  0  0  0  0  0  0  # atno 17342 bound_to 10162
  139.4838  144.4740  151.9390 LP  0  0  0  0  0  0  0  0  0  0  0  0  # atno 17343 bound_to 10162
  157.5130  130.7950  149.7726 LP  0  0  0  0  0  0  0  0  0  0  0  0  # atno 17370 bound_to 10713
  156.0049  130.3861  150.2468 LP  0  0  0  0  0  0  0  0  0  0  0  0  # atno 17371 bound_to 10713
  141.2000  133.6610  156.5872 LP  0  0  0  0  0  0  0  0  0  0  0  0  # atno 17394 bound_to 11000
  140.3673  134.7636  157.4574 LP  0  0  0  0  0  0  0  0  0  0  0  0  # atno 17395 bound_to 11000

$$$$
