#       Name:                AV-unprocessed.smi:2881
#       Creating user name   scv26
#       Creation time:       Fri Mar 27 15:53:54 2020


#       File generated by GOLD software.
#

@<TRIPOS>MOLECULE
AV-unprocessed.smi:2881
    45    47     1
SMALL
NO_CHARGES


@<TRIPOS>ATOM
      1 ****        -3.2570   4.2918  -2.2566 C.3            1 S1                 0.0000
      2 ****        -3.0818   2.8880  -1.7571 C.2            1 S1                 0.0000
      3 ****        -2.5209   1.7727  -2.4456 C.2            1 S1                 0.0000
      4 ****        -2.5953   0.7464  -1.5456 C.2            1 S1                 0.0000
      5 ****        -2.1726  -0.6849  -1.6421 C.3            1 S1                 0.0000
      6 ****        -0.6557  -0.8173  -1.5068 C.2            1 S1                 0.0000
      7 ****         0.0320  -1.0721  -2.4952 O.2            1 S1                 0.0000
      8 ****        -0.1477  -0.6429  -0.2774 N.am           1 S1                 0.0000
      9 ****         1.2735  -0.6885   0.0565 C.3            1 S1                 0.0000
     10 ****         1.8687  -2.1194   0.0654 C.3            1 S1                 0.0000
     11 ****         1.0261  -3.0780   0.9341 C.3            1 S1                 0.0000
     12 ****         1.3029  -2.5693   2.3610 C.3            1 S1                 0.0000
     13 ****         2.2856  -1.4055   2.1243 C.3            1 S1                 0.0000
     14 ****         3.0975  -1.9307   0.9458 C.3            1 S1                 0.0000
     15 ****         1.5249  -0.2074   1.5100 C.3            1 S1                 0.0000
     16 ****         2.3163   1.1121   1.5893 C.3            1 S1                 0.0000
     17 ****         1.5242   2.1810   1.1155 O.3            1 S1                 0.0000
     18 ****        -3.1772   1.2720  -0.4139 N.pl3          1 S1                 0.0000
     19 ****        -3.4785   2.5784  -0.5317 N.2            1 S1                 0.0000
     20 ****        -3.3725   0.7588   0.4339 H              1 S1                 0.0000
     21 ****        -2.7552   4.4344  -3.2139 H              1 S1                 0.0000
     22 ****        -2.8411   5.0149  -1.5546 H              1 S1                 0.0000
     23 ****        -4.3118   4.5292  -2.3960 H              1 S1                 0.0000
     24 ****        -2.1198   1.7333  -3.4476 H              1 S1                 0.0000
     25 ****        -2.4897  -1.1003  -2.5993 H              1 S1                 0.0000
     26 ****        -2.6580  -1.2812  -0.8683 H              1 S1                 0.0000
     27 ****        -0.7856  -0.4328   0.4764 H              1 S1                 0.0000
     28 ****         1.8299  -0.0680  -0.6492 H              1 S1                 0.0000
     29 ****         2.0797  -2.5093  -0.9310 H              1 S1                 0.0000
     30 ****        -0.0347  -3.0739   0.6843 H              1 S1                 0.0000
     31 ****         1.3808  -4.1035   0.8231 H              1 S1                 0.0000
     32 ****         0.3947  -2.2511   2.8742 H              1 S1                 0.0000
     33 ****         1.7665  -3.3530   2.9614 H              1 S1                 0.0000
     34 ****         2.8700  -1.1510   3.0090 H              1 S1                 0.0000
     35 ****         3.6230  -2.8626   1.1630 H              1 S1                 0.0000
     36 ****         3.8100  -1.2078   0.5460 H              1 S1                 0.0000
     37 ****         0.5866  -0.0691   2.0509 H              1 S1                 0.0000
     38 ****         2.5957   1.3248   2.6214 H              1 S1                 0.0000
     39 ****         3.2381   1.0620   1.0095 H              1 S1                 0.0000
     40 ****         2.0270   2.9789   1.1767 H              1 S1                 0.0000
     41 ****        -0.4014  -1.1928  -3.3883 LP             1 S1                 0.0000
     42 ****         1.0242  -1.1584  -2.4052 LP             1 S1                 0.0000
     43 ****         0.6974   2.2603   1.6723 LP             1 S1                 0.0000
     44 ****         1.2698   2.0153   0.1627 LP             1 S1                 0.0000
     45 ****        -3.9032   3.1765   0.1480 LP             1 S1                 0.0000
@<TRIPOS>BOND
    1    1   21 1     
    2    1   22 1     
    3    1   23 1     
    4    1    2 1     
    5    2   19 2     
    6    2    3 1     
    7    3    4 2     
    8    3   24 1     
    9    4   18 1     
   10    4    5 1     
   11    5    6 1     
   12    5   25 1     
   13    5   26 1     
   14    6    7 2     
   15    6    8 am    
   16    8    9 1     
   17    8   27 1     
   18    9   15 1     
   19    9   10 1     
   20    9   28 1     
   21   10   14 1     
   22   10   11 1     
   23   10   29 1     
   24   11   12 1     
   25   11   30 1     
   26   11   31 1     
   27   12   13 1     
   28   12   32 1     
   29   12   33 1     
   30   13   14 1     
   31   13   15 1     
   32   13   34 1     
   33   14   35 1     
   34   14   36 1     
   35   15   16 1     
   36   15   37 1     
   37   16   17 1     
   38   16   38 1     
   39   16   39 1     
   40   17   40 1     
   41   18   19 1     
   42   18   20 1     
   43    7   41 1     
   44    7   42 1     
   45   17   43 1     
   46   17   44 1     
   47   19   45 1     
@<TRIPOS>SUBSTRUCTURE
      1 S1             1
@<TRIPOS>SET
LONE_PAIRS      STATIC     ATOMS    <user>   **** ""
5 41 42 43 44 45
DONOR_HYDROGENS      STATIC     ATOMS    <user>   **** ""
3 27 40 20
ATOM$BLUE        STATIC     ATOMS    COLORGROUP SYSTEM
5 41 42 43 44 45
ATOM$RED        STATIC     ATOMS    COLORGROUP SYSTEM
3 27 40 20
