AV-unprocessed.smi:3130|AV-procd|sdf|11926|dock7
  -GOLD-   2272017313D 1   1.00000     0.00000
 Structure written by MMmdl.
 40 40  0  0  0  0  0  0  0  0  2 V2000
  150.9731  142.4043  158.2500 C   0  0  0  0  0  0  0  0  0  0  0  0
  150.6425  141.6745  156.9802 C   0  0  0  0  0  0  0  0  0  0  0  0
  151.4597  140.7591  156.2576 C   0  0  0  0  0  0  0  0  0  0  0  0
  150.8701  140.2930  155.1684 N   0  0  0  0  0  0  0  0  0  0  0  0
  149.6592  140.8888  155.1590 N   0  0  0  0  0  0  0  0  0  0  0  0
  148.7297  140.6138  154.0802 C   0  0  0  0  0  0  0  0  0  0  0  0
  148.3974  139.1179  153.9771 C   0  0  0  0  0  0  0  0  0  0  0  0
  148.2006  138.7143  152.5714 N   0  3  0  0  0  0  0  0  0  0  0  0
  146.7894  138.7145  152.1391 C   0  0  0  0  0  0  0  0  0  0  0  0
  145.8858  138.0712  153.2048 C   0  0  0  0  0  0  0  0  0  0  0  0
  145.2354  136.7706  152.7243 C   0  0  0  0  0  0  0  0  0  0  0  0
  144.0170  136.6157  152.8081 O   0  0  0  0  0  0  0  0  0  0  0  0
  146.0646  135.8402  152.2256 N   0  0  0  0  0  0  0  0  0  0  0  0
  145.6635  134.5303  151.7195 C   0  0  0  0  0  0  0  0  0  0  0  0
  146.9154  133.7122  151.3758 C   0  0  0  0  0  0  0  0  0  0  0  0
  144.7355  134.6826  150.5038 C   0  0  0  0  0  0  0  0  0  0  0  0
  149.4962  141.7302  156.2391 C   0  0  0  0  0  0  0  0  0  0  0  0
  151.9160  142.0656  158.6800 H   0  0  0  0  0  0  0  0  0  0  0  0
  150.2041  142.2600  159.0093 H   0  0  0  0  0  0  0  0  0  0  0  0
  151.0638  143.4778  158.0829 H   0  0  0  0  0  0  0  0  0  0  0  0
  152.4598  140.4236  156.4902 H   0  0  0  0  0  0  0  0  0  0  0  0
  147.8214  141.1936  154.2501 H   0  0  0  0  0  0  0  0  0  0  0  0
  149.1672  140.9751  153.1483 H   0  0  0  0  0  0  0  0  0  0  0  0
  149.2038  138.5231  154.4083 H   0  0  0  0  0  0  0  0  0  0  0  0
  147.4924  138.8958  154.5444 H   0  0  0  0  0  0  0  0  0  0  0  0
  148.7196  139.3476  151.9798 H   0  0  0  0  0  0  0  0  0  0  0  0
  146.4808  139.7438  151.9492 H   0  0  0  0  0  0  0  0  0  0  0  0
  146.7045  138.1711  151.1965 H   0  0  0  0  0  0  0  0  0  0  0  0
  146.4681  137.8707  154.1057 H   0  0  0  0  0  0  0  0  0  0  0  0
  145.0934  138.7635  153.4912 H   0  0  0  0  0  0  0  0  0  0  0  0
  147.0515  136.0515  152.1970 H   0  0  0  0  0  0  0  0  0  0  0  0
  145.1236  133.9966  152.5038 H   0  0  0  0  0  0  0  0  0  0  0  0
  146.6481  132.7170  151.0195 H   0  0  0  0  0  0  0  0  0  0  0  0
  147.5556  133.5865  152.2497 H   0  0  0  0  0  0  0  0  0  0  0  0
  147.5054  134.1961  150.5967 H   0  0  0  0  0  0  0  0  0  0  0  0
  144.4299  133.7082  150.1213 H   0  0  0  0  0  0  0  0  0  0  0  0
  145.2284  135.2182  149.6919 H   0  0  0  0  0  0  0  0  0  0  0  0
  143.8286  135.2303  150.7625 H   0  0  0  0  0  0  0  0  0  0  0  0
  148.5883  142.2954  156.3904 H   0  0  0  0  0  0  0  0  0  0  0  0
  148.5715  137.7824  152.4514 H   0  0  0  0  0  0  0  0  0  0  0  0
  1  2  1  0  0  0  0
  1 18  1  0  0  0  0
  1 19  1  0  0  0  0
  1 20  1  0  0  0  0
  2 17  2  0  0  0  0
  2  3  1  0  0  0  0
  3  4  2  0  0  0  0
  3 21  1  0  0  0  0
  4  5  1  0  0  0  0
  5  6  1  0  0  0  0
  5 17  1  0  0  0  0
  6  7  1  0  0  0  0
  6 22  1  0  0  0  0
  6 23  1  0  0  0  0
  7  8  1  0  0  0  0
  7 24  1  0  0  0  0
  7 25  1  0  0  0  0
  8  9  1  0  0  0  0
  8 26  1  0  0  0  0
  8 40  1  0  0  0  0
  9 10  1  0  0  0  0
  9 27  1  0  0  0  0
  9 28  1  0  0  0  0
 10 11  1  0  0  0  0
 10 29  1  0  0  0  0
 10 30  1  0  0  0  0
 11 12  2  0  0  0  0
 11 13  1  0  0  0  0
 13 14  1  0  0  0  0
 13 31  1  0  0  0  0
 14 15  1  0  0  0  0
 14 16  1  0  0  0  0
 14 32  1  0  0  0  0
 15 33  1  0  0  0  0
 15 34  1  0  0  0  0
 15 35  1  0  0  0  0
 16 36  1  0  0  0  0
 16 37  1  0  0  0  0
 16 38  1  0  0  0  0
 17 39  1  0  0  0  0
M  CHG  1   8   1
M  END
> <s_m_source_file>
AV-unprocessed.smi

> <i_m_source_file_index>
3130

> <i_lp_mmshare_version>
43012

> <i_f3d_flags>
0

> <s_epik_input>
W0NIM11jMVtjSF1ubihbY0hdMSlbQ0gyXVtDSDJdW05IXVtDSDJdW0NIMl1DKD1PKVtOSF1bQ0hdKFtDSDNdKVtDSDNd

> <s_epik_cmdline>
J2VwaWtfcHl0aG9uJywgJy1waCcsICc3LjAnLCAnLXRuJywgJzgnLCAnLW1hJywgJzIwMCcsICctbWV0YWxfYmluZGluZycsICctaW1hZScsICc8aW5maWxlLm1hZT4nLCAnLW9tYWUnLCAnPG91dGZpbGUubWFlPic=

> <r_lp_tautomer_probability>
1

> <r_epik_Ionization_Penalty>
0.00578341

> <r_epik_Ionization_Penalty_Charging>
0.00577767

> <r_epik_Ionization_Penalty_Neutral>
5.73237e-06

> <r_epik_State_Penalty>
-0

> <r_epik_Charging_Adjusted_Penalty>
0.00577767

> <i_epik_Tot_Q>
1

> <i_epik_Tot_abs_Q>
1

> <r_epik_Metal_State_Penalty>
-0

> <b_epik_Metal_Only>
0

> <s_lp_Force_Field>
OPLS_2005

> <r_lp_Energy>
3.33075

> <b_lp_Chiralities_Consistent>
1

> <s_lp_Variant>
AV-unprocessed.smi:3130-1

> <Gold.Version>
5.8.1

> <Gold.Id.Protein>
6NUR|6NUR_protein|mol2

> <Gold.PLP.Fitness>
46.4731

> <Gold.PLP.PLP>
-32.1956

> <Gold.PLP.part.hbond>
-3.5107

> <Gold.PLP.part.metal>
0.0000

> <Gold.PLP.part.buried>
-1.4042

> <Gold.PLP.part.nonpolar>
-25.9743

> <Gold.PLP.part.repulsive>
0.2701

> <Gold.PLP.ligand.clash>
0.0000

> <Gold.PLP.ligand.torsion>
0.9811

> <Gold.PLP.Chemscore.Hbond>
4.6338

> <Gold.PLP.Chemscore.CHOScore>
0.7361

> <Gold.PLP.Chemscore.Metal>
0.0000

> <Gold.Chemscore.Hbonds>
donor molecule, donor type, donor heavy atom, donor atom, acceptor molecule, acceptor atom, score
      L1  H     8    26       P1  7957  0.62
      L1  H     8    40       P1  7948  2.00
      L1  H    13    31       P1  7948  1.00
      P1  H  7989  7998       L1     4  1.00
      L1  C    17    39       P1  8028  0.61

> <Gold.PLP.Chemscore.Internal.Correction>
0.1303

> <Gold.Rescore>
     Score         DG    S(hbond)    S(metal)    S(lipo)     H(rot)  DE(clash)    DE(int)     intcor
     18.94     -19.89       3.73        0.00      65.96       2.26       0.01       0.93       ----

> <Gold.Chemscore.Fitness>
18.9443

> <Gold.Chemscore.DG>
-19.8873

> <Gold.Chemscore.ZeroCoef>
-5.4800

> <Gold.Chemscore.Hbond>
3.7346

> <Gold.Chemscore.Metal>
0.0000

> <Gold.Chemscore.Lipo>
65.9599

> <Gold.Chemscore.Internal_Hbond>
0.0000

> <Gold.Chemscore.DEClash>
0.0105

> <Gold.Chemscore.DEInternal>
0.9326

> <Gold.Chemscore.Rot>
2.2591

> <Gold.Chemscore.Internal.Correction>
   9.000000E+99

> <Gold.Chemscore.Hbonds>
donor molecule, donor type, donor heavy atom, donor atom, acceptor molecule, acceptor atom, score
      L1  H     8    26       P1  7957  0.60
      L1  H     8    40       P1  7948  1.00
      L1  H    13    31       P1  7948  1.00
      P1  H  7989  7998       L1     4  0.31

> <Gold.Chemscore.Hbond.Weighted>
-12.4734

> <Gold.Chemscore.Metal.Weighted>
-0.0000

> <Gold.Chemscore.Lipo.Weighted>
-7.7173

> <Gold.Chemscore.Internal_Hbond.Weighted>
0.0000

> <Gold.Chemscore.DEClash.Weighted>
0.0105

> <Gold.Chemscore.DEInternal.Weighted>
0.9326

> <Gold.Chemscore.Rot.Weighted>
5.7834

> <Gold.Chemscore.Internal.Correction.Weighted>
   9.000000E+99

> <Gold.Protein.RotatedTorsions>
[ 6907 6896 6895 6894 ] final  -10.83 input  -60.11 | X-H torsion
[ 7974 7965 7964 7962 ] final  -45.64 input  175.53 | X-H torsion
[ 8008 7997 7996 7995 ] final   18.89 input   59.86 | X-H torsion
[ 10167 10162 10161 10158 ] final  -83.42 input  -65.29 | X-H torsion
[ 10718 10713 10712 10709 ] final -142.68 input   66.30 | X-H torsion
[ 10763 10752 10751 10750 ] final  -73.90 input  -60.55 | X-H torsion
[ 11005 11000 10999 10996 ] final  -38.76 input  -57.11 | X-H torsion

> <Gold.Protein.ActiveResidues>
 VAL166  LYS551  ARG553  GLY616  TRP617  ASP618  TYR619  PRO620  LYS621  CYS622 
 ASP623  PHE694  ASN695  SER759  ASP760  ASP761  ALA762  ILE779  LEU786  VAL792 
 PHE793  MET794  SER795  GLU796  ALA797  LYS798  CYS799  TRP800  GLU811  SER814 

> <Gold.Protein.RotatedAtoms>
  151.3957  135.0963  159.9540 H   0  0  0  0  0  0  0  0  0  0  0  0  # atno 6907 bound_to 6896
  152.5066  133.8936  159.7416 H   0  0  0  0  0  0  0  0  0  0  0  0  # atno 6908 bound_to 6896
  150.9399  133.6612  159.2821 H   0  0  0  0  0  0  0  0  0  0  0  0  # atno 6909 bound_to 6896
  145.9800  140.7294  142.9368 H   0  0  0  0  0  0  0  0  0  0  0  0  # atno 7974 bound_to 7965
  154.9126  140.3016  155.5258 H   0  0  0  0  0  0  0  0  0  0  0  0  # atno 8008 bound_to 7997
  156.3014  140.2386  156.4103 H   0  0  0  0  0  0  0  0  0  0  0  0  # atno 8009 bound_to 7997
  154.8410  140.0414  157.1530 H   0  0  0  0  0  0  0  0  0  0  0  0  # atno 8010 bound_to 7997
  140.4228  143.2578  151.8867 H   0  0  0  0  0  0  0  0  0  0  0  0  # atno 10167 bound_to 10162
  156.3488  130.7677  151.1826 H   0  0  0  0  0  0  0  0  0  0  0  0  # atno 10718 bound_to 10713
  154.4658  135.5882  153.6287 H   0  0  0  0  0  0  0  0  0  0  0  0  # atno 10763 bound_to 10752
  152.9828  135.6055  154.3429 H   0  0  0  0  0  0  0  0  0  0  0  0  # atno 10764 bound_to 10752
  154.3306  135.2842  155.2453 H   0  0  0  0  0  0  0  0  0  0  0  0  # atno 10765 bound_to 10752
  141.0052  133.6935  156.2097 H   0  0  0  0  0  0  0  0  0  0  0  0  # atno 11005 bound_to 11000
  144.6859  140.2892  143.7280 LP  0  0  0  0  0  0  0  0  0  0  0  0  # atno 17320 bound_to 7965
  145.7783  139.1882  143.2172 LP  0  0  0  0  0  0  0  0  0  0  0  0  # atno 17321 bound_to 7965
  139.4783  144.5419  151.8515 LP  0  0  0  0  0  0  0  0  0  0  0  0  # atno 17342 bound_to 10162
  140.4515  144.1849  150.5898 LP  0  0  0  0  0  0  0  0  0  0  0  0  # atno 17343 bound_to 10162
  157.7458  131.0433  150.4739 LP  0  0  0  0  0  0  0  0  0  0  0  0  # atno 17370 bound_to 10713
  156.4931  130.4100  149.6395 LP  0  0  0  0  0  0  0  0  0  0  0  0  # atno 17371 bound_to 10713
  140.6824  134.4752  157.5589 LP  0  0  0  0  0  0  0  0  0  0  0  0  # atno 17394 bound_to 11000
  139.9059  134.8449  156.1707 LP  0  0  0  0  0  0  0  0  0  0  0  0  # atno 17395 bound_to 11000

$$$$
