AV-unprocessed.smi:2572|AV-procd|sdf|10111|dock7
  -GOLD-   2272014133D 1   1.00000     0.00000
 Structure written by MMmdl.
 38 39  0  0  0  0  0  0  0  0  1 V2000
  155.1842  138.8176  164.9085 C   0  0  0  0  0  0  0  0  0  0  0  0
  154.9005  137.4392  164.6767 O   0  0  0  0  0  0  0  0  0  0  0  0
  154.5425  137.0828  163.3882 C   0  0  0  0  0  0  0  0  0  0  0  0
  154.5379  135.6783  163.0382 C   0  0  0  0  0  0  0  0  0  0  0  0
  154.1951  135.3172  161.7829 C   0  0  0  0  0  0  0  0  0  0  0  0
  153.8282  136.3057  160.7690 C   0  0  0  0  0  0  0  0  0  0  0  0
  153.5173  136.0036  159.6173 O   0  0  0  0  0  0  0  0  0  0  0  0
  153.8642  137.5952  161.2190 N   0  0  0  0  0  0  0  0  0  0  0  0
  153.5407  138.7208  160.3347 C   0  0  0  0  0  0  0  0  0  0  0  0
  154.7550  139.6513  160.1209 C   0  0  1  0  0  0  0  0  0  0  0  0
  155.5739  139.0994  159.1085 O   0  0  0  0  0  0  0  0  0  0  0  0
  154.3238  141.0577  159.6641 C   0  0  0  0  0  0  0  0  0  0  0  0
  153.4737  141.8069  160.7039 C   0  0  0  0  0  0  0  0  0  0  0  0
  152.8952  143.0945  160.1486 C   0  0  0  0  0  0  0  0  0  0  0  0
  152.2952  144.0343  161.0129 C   0  0  0  0  0  0  0  0  0  0  0  0
  151.7611  145.2307  160.4953 C   0  0  0  0  0  0  0  0  0  0  0  0
  151.8275  145.4926  159.1131 C   0  0  0  0  0  0  0  0  0  0  0  0
  152.4283  144.5576  158.2479 C   0  0  0  0  0  0  0  0  0  0  0  0
  152.9604  143.3599  158.7644 C   0  0  0  0  0  0  0  0  0  0  0  0
  154.2165  137.9726  162.5043 N   0  0  0  0  0  0  0  0  0  0  0  0
  155.4485  138.9549  165.9569 H   0  0  0  0  0  0  0  0  0  0  0  0
  154.3186  139.4508  164.7052 H   0  0  0  0  0  0  0  0  0  0  0  0
  156.0297  139.1640  164.3113 H   0  0  0  0  0  0  0  0  0  0  0  0
  154.8072  134.9389  163.7779 H   0  0  0  0  0  0  0  0  0  0  0  0
  154.1912  134.2701  161.5181 H   0  0  0  0  0  0  0  0  0  0  0  0
  153.1228  138.3935  159.3806 H   0  0  0  0  0  0  0  0  0  0  0  0
  152.7338  139.2831  160.8085 H   0  0  0  0  0  0  0  0  0  0  0  0
  155.3316  139.7370  161.0431 H   0  0  0  0  0  0  0  0  0  0  0  0
  155.1895  138.2862  158.8195 H   0  0  0  0  0  0  0  0  0  0  0  0
  155.2014  141.6507  159.4017 H   0  0  0  0  0  0  0  0  0  0  0  0
  153.7365  140.9649  158.7495 H   0  0  0  0  0  0  0  0  0  0  0  0
  152.6547  141.1718  161.0439 H   0  0  0  0  0  0  0  0  0  0  0  0
  154.0697  142.0369  161.5879 H   0  0  0  0  0  0  0  0  0  0  0  0
  152.2436  143.8414  162.0746 H   0  0  0  0  0  0  0  0  0  0  0  0
  151.3009  145.9478  161.1588 H   0  0  0  0  0  0  0  0  0  0  0  0
  151.4182  146.4101  158.7168 H   0  0  0  0  0  0  0  0  0  0  0  0
  152.4812  144.7590  157.1880 H   0  0  0  0  0  0  0  0  0  0  0  0
  153.4206  142.6468  158.0961 H   0  0  0  0  0  0  0  0  0  0  0  0
  1  2  1  0  0  0  0
  1 21  1  0  0  0  0
  1 22  1  0  0  0  0
  1 23  1  0  0  0  0
  2  3  1  0  0  0  0
  3 20  2  0  0  0  0
  3  4  1  0  0  0  0
  4  5  2  0  0  0  0
  4 24  1  0  0  0  0
  5  6  1  0  0  0  0
  5 25  1  0  0  0  0
  6  7  2  0  0  0  0
  6  8  1  0  0  0  0
  8  9  1  0  0  0  0
  8 20  1  0  0  0  0
  9 10  1  0  0  0  0
  9 26  1  0  0  0  0
  9 27  1  0  0  0  0
 10 11  1  0  0  0  0
 10 12  1  0  0  0  0
 10 28  1  0  0  0  0
 11 29  1  0  0  0  0
 12 13  1  0  0  0  0
 12 30  1  0  0  0  0
 12 31  1  0  0  0  0
 13 14  1  0  0  0  0
 13 32  1  0  0  0  0
 13 33  1  0  0  0  0
 14 19  1  0  0  0  0
 14 15  2  0  0  0  0
 15 16  1  0  0  0  0
 15 34  1  0  0  0  0
 16 17  2  0  0  0  0
 16 35  1  0  0  0  0
 17 18  1  0  0  0  0
 17 36  1  0  0  0  0
 18 19  2  0  0  0  0
 18 37  1  0  0  0  0
 19 38  1  0  0  0  0
M  END
> <s_m_source_file>
AV-unprocessed.smi

> <i_m_source_file_index>
2572

> <i_lp_mmshare_version>
43012

> <i_f3d_flags>
0

> <s_epik_input>
W0NIM11PYzFbY0hdW2NIXWMoPU8pbihuMSlbQ0gyXVtDQEhdKFtPSF0pW0NIMl1bQ0gyXWMyW2NIXVtjSF1bY0hdW2NIXVtjSF0y

> <s_epik_cmdline>
J2VwaWtfcHl0aG9uJywgJy1waCcsICc3LjAnLCAnLXRuJywgJzgnLCAnLW1hJywgJzIwMCcsICctbWV0YWxfYmluZGluZycsICctaW1hZScsICc8aW5maWxlLm1hZT4nLCAnLW9tYWUnLCAnPG91dGZpbGUubWFlPic=

> <r_lp_tautomer_probability>
1

> <r_epik_Ionization_Penalty>
8.48543e-06

> <r_epik_Ionization_Penalty_Charging>
6.90219e-06

> <r_epik_Ionization_Penalty_Neutral>
1.58323e-06

> <r_epik_State_Penalty>
-0

> <r_epik_Charging_Adjusted_Penalty>
6.90219e-06

> <i_epik_Tot_Q>
0

> <i_epik_Tot_abs_Q>
0

> <r_epik_Metal_State_Penalty>
-0

> <b_epik_Metal_Only>
0

> <s_lp_Force_Field>
OPLS_2005

> <r_lp_Energy>
30.5458

> <b_lp_Chiralities_Consistent>
1

> <s_lp_Variant>
AV-unprocessed.smi:2572-2

> <Gold.Version>
5.8.1

> <Gold.Id.Protein>
6NUR|6NUR_protein|mol2

> <Gold.PLP.Fitness>
52.7992

> <Gold.PLP.PLP>
-47.9934

> <Gold.PLP.part.hbond>
-2.0000

> <Gold.PLP.part.metal>
0.0000

> <Gold.PLP.part.buried>
-5.4209

> <Gold.PLP.part.nonpolar>
-40.8105

> <Gold.PLP.part.repulsive>
0.0730

> <Gold.PLP.ligand.clash>
0.0000

> <Gold.PLP.ligand.torsion>
0.5326

> <Gold.PLP.Chemscore.Hbond>
1.9440

> <Gold.PLP.Chemscore.CHOScore>
0.0000

> <Gold.PLP.Chemscore.Metal>
0.0000

> <Gold.Chemscore.Hbonds>
donor molecule, donor type, donor heavy atom, donor atom, acceptor molecule, acceptor atom, score
      P1  H  6896  6907       L1     7  0.82
      P1  H  7997  8009       L1    11  0.90

> <Gold.PLP.Chemscore.Internal.Correction>
0.0389

> <Gold.Rescore>
     Score         DG    S(hbond)    S(metal)    S(lipo)     H(rot)  DE(clash)    DE(int)     intcor
     19.23     -19.71       1.88        0.00     123.18       2.52       0.00       0.48       ----

> <Gold.Chemscore.Fitness>
19.2297

> <Gold.Chemscore.DG>
-19.7109

> <Gold.Chemscore.ZeroCoef>
-5.4800

> <Gold.Chemscore.Hbond>
1.8782

> <Gold.Chemscore.Metal>
0.0000

> <Gold.Chemscore.Lipo>
123.1800

> <Gold.Chemscore.Internal_Hbond>
0.0000

> <Gold.Chemscore.DEClash>
0.0000

> <Gold.Chemscore.DEInternal>
0.4812

> <Gold.Chemscore.Rot>
2.5212

> <Gold.Chemscore.Internal.Correction>
   9.000000E+99

> <Gold.Chemscore.Hbonds>
donor molecule, donor type, donor heavy atom, donor atom, acceptor molecule, acceptor atom, score
      P1  H  6896  6907       L1     7  0.14
      P1  H  7997  8009       L1    11  0.16

> <Gold.Chemscore.Hbond.Weighted>
-6.2731

> <Gold.Chemscore.Metal.Weighted>
-0.0000

> <Gold.Chemscore.Lipo.Weighted>
-14.4121

> <Gold.Chemscore.Internal_Hbond.Weighted>
0.0000

> <Gold.Chemscore.DEClash.Weighted>
0.0000

> <Gold.Chemscore.DEInternal.Weighted>
0.4812

> <Gold.Chemscore.Rot.Weighted>
6.4543

> <Gold.Chemscore.Internal.Correction.Weighted>
   9.000000E+99

> <Gold.Protein.RotatedTorsions>
[ 6907 6896 6895 6894 ] final   29.32 input  -60.11 | X-H torsion
[ 7974 7965 7964 7962 ] final  -35.42 input  175.53 | X-H torsion
[ 8008 7997 7996 7995 ] final   87.93 input   59.86 | X-H torsion
[ 10167 10162 10161 10158 ] final -127.92 input  -65.29 | X-H torsion
[ 10718 10713 10712 10709 ] final  110.49 input   66.30 | X-H torsion
[ 10763 10752 10751 10750 ] final -126.69 input  -60.55 | X-H torsion
[ 11005 11000 10999 10996 ] final -170.35 input  -57.11 | X-H torsion

> <Gold.Protein.ActiveResidues>
 VAL166  LYS551  ARG553  GLY616  TRP617  ASP618  TYR619  PRO620  LYS621  CYS622 
 ASP623  PHE694  ASN695  SER759  ASP760  ASP761  ALA762  ILE779  LEU786  VAL792 
 PHE793  MET794  SER795  GLU796  ALA797  LYS798  CYS799  TRP800  GLU811  SER814 

> <Gold.Protein.RotatedAtoms>
  152.0299  134.9774  160.0572 H   0  0  0  0  0  0  0  0  0  0  0  0  # atno 6907 bound_to 6896
  152.1255  133.4373  159.4704 H   0  0  0  0  0  0  0  0  0  0  0  0  # atno 6908 bound_to 6896
  150.6852  134.2402  159.4513 H   0  0  0  0  0  0  0  0  0  0  0  0  # atno 6909 bound_to 6896
  146.0747  140.6157  142.8936 H   0  0  0  0  0  0  0  0  0  0  0  0  # atno 7974 bound_to 7965
  155.9815  140.3377  155.6668 H   0  0  0  0  0  0  0  0  0  0  0  0  # atno 8008 bound_to 7997
  155.6542  140.0709  157.2594 H   0  0  0  0  0  0  0  0  0  0  0  0  # atno 8009 bound_to 7997
  154.4193  140.1720  156.1694 H   0  0  0  0  0  0  0  0  0  0  0  0  # atno 8010 bound_to 7997
  139.9558  143.6005  152.2461 H   0  0  0  0  0  0  0  0  0  0  0  0  # atno 10167 bound_to 10162
  157.6491  131.0933  150.6610 H   0  0  0  0  0  0  0  0  0  0  0  0  # atno 10718 bound_to 10713
  154.8747  135.3987  154.3473 H   0  0  0  0  0  0  0  0  0  0  0  0  # atno 10763 bound_to 10752
  153.4263  135.7024  153.6265 H   0  0  0  0  0  0  0  0  0  0  0  0  # atno 10764 bound_to 10752
  153.4906  135.3749  155.2459 H   0  0  0  0  0  0  0  0  0  0  0  0  # atno 10765 bound_to 10752
  140.5205  134.5714  157.5046 H   0  0  0  0  0  0  0  0  0  0  0  0  # atno 11005 bound_to 11000
  144.7254  140.4508  143.6977 LP  0  0  0  0  0  0  0  0  0  0  0  0  # atno 17320 bound_to 7965
  145.6327  139.1538  143.2960 LP  0  0  0  0  0  0  0  0  0  0  0  0  # atno 17321 bound_to 7965
  139.6593  144.7662  151.1994 LP  0  0  0  0  0  0  0  0  0  0  0  0  # atno 17342 bound_to 10162
  140.7569  143.6036  150.8675 LP  0  0  0  0  0  0  0  0  0  0  0  0  # atno 17343 bound_to 10162
  156.6923  130.4599  149.5596 LP  0  0  0  0  0  0  0  0  0  0  0  0  # atno 17370 bound_to 10713
  156.1853  130.6525  151.0999 LP  0  0  0  0  0  0  0  0  0  0  0  0  # atno 17371 bound_to 10713
  139.9608  134.7455  156.0240 LP  0  0  0  0  0  0  0  0  0  0  0  0  # atno 17394 bound_to 11000
  141.1337  133.6580  156.3534 LP  0  0  0  0  0  0  0  0  0  0  0  0  # atno 17395 bound_to 11000

$$$$
