AV-unprocessed.smi:592|AV-procd|sdf|3010|dock2
  -GOLD-   2262023513D 1   1.00000     0.00000
 Structure written by MMmdl.
 27 28  0  0  0  0  0  0  0  0  1 V2000
  151.8331  141.4690  157.1132 O   0  0  0  0  0  0  0  0  0  0  0  0
  151.2415  142.5205  156.8694 C   0  0  0  0  0  0  0  0  0  0  0  0
  151.7070  143.8244  157.5553 C   0  0  0  0  0  0  0  0  0  0  0  0
  151.9594  143.6757  158.9991 N   0  0  0  0  0  0  0  0  0  0  0  0
  152.8320  142.6412  159.3921 C   0  0  0  0  0  0  0  0  0  0  0  0
  153.1325  142.4166  160.6809 C   0  0  0  0  0  0  0  0  0  0  0  0
  152.5333  143.2691  161.6799 C   0  0  0  0  0  0  0  0  0  0  0  0
  151.7017  144.2651  161.3150 C   0  0  0  0  0  0  0  0  0  0  0  0
  151.3752  144.5181  159.9066 C   0  0  0  0  0  0  0  0  0  0  0  0
  150.6232  145.4314  159.5647 O   0  0  0  0  0  0  0  0  0  0  0  0
  150.2061  142.5058  156.0016 N   0  0  0  0  0  0  0  0  0  0  0  0
  149.6487  141.4383  155.2929 C   0  0  0  0  0  0  0  0  0  0  0  0
  150.2554  140.3841  154.8717 N   0  0  0  0  0  0  0  0  0  0  0  0
  149.3134  139.4886  154.2138 C   0  0  0  0  0  0  0  0  0  0  0  0
  147.9735  140.2091  153.9152 C   0  0  0  0  0  0  0  0  0  0  0  0
  147.9198  141.6812  154.9427 S   0  0  0  0  0  0  0  0  0  0  0  0
  152.6100  144.1910  157.0643 H   0  0  0  0  0  0  0  0  0  0  0  0
  150.9498  144.5932  157.3957 H   0  0  0  0  0  0  0  0  0  0  0  0
  153.2428  142.0540  158.5836 H   0  0  0  0  0  0  0  0  0  0  0  0
  153.8075  141.6218  160.9626 H   0  0  0  0  0  0  0  0  0  0  0  0
  152.7535  143.1079  162.7250 H   0  0  0  0  0  0  0  0  0  0  0  0
  151.2629  144.8930  162.0763 H   0  0  0  0  0  0  0  0  0  0  0  0
  149.7727  143.4062  155.8571 H   0  0  0  0  0  0  0  0  0  0  0  0
  149.7453  139.0985  153.2915 H   0  0  0  0  0  0  0  0  0  0  0  0
  149.1328  138.6279  154.8590 H   0  0  0  0  0  0  0  0  0  0  0  0
  147.9372  140.5208  152.8709 H   0  0  0  0  0  0  0  0  0  0  0  0
  147.1118  139.5682  154.1034 H   0  0  0  0  0  0  0  0  0  0  0  0
  1  2  2  0  0  0  0
  2  3  1  0  0  0  0
  2 11  1  0  0  0  0
  3  4  1  0  0  0  0
  3 17  1  0  0  0  0
  3 18  1  0  0  0  0
  4  9  1  0  0  0  0
  4  5  1  0  0  0  0
  5  6  2  0  0  0  0
  5 19  1  0  0  0  0
  6  7  1  0  0  0  0
  6 20  1  0  0  0  0
  7  8  2  0  0  0  0
  7 21  1  0  0  0  0
  8  9  1  0  0  0  0
  8 22  1  0  0  0  0
  9 10  2  0  0  0  0
 11 12  1  0  0  0  0
 11 23  1  0  0  0  0
 12 16  1  0  0  0  0
 12 13  2  0  0  0  0
 13 14  1  0  0  0  0
 14 15  1  0  0  0  0
 14 24  1  0  0  0  0
 14 25  1  0  0  0  0
 15 16  1  0  0  0  0
 15 26  1  0  0  0  0
 15 27  1  0  0  0  0
M  END
> <s_m_source_file>
AV-unprocessed.smi

> <i_m_source_file_index>
592

> <i_lp_mmshare_version>
43012

> <i_f3d_flags>
0

> <s_epik_input>
UzFbQ0gyXVtDSDJdTj1DMVtOSF1DKD1PKVtDSDJdbjJbY0hdW2NIXVtjSF1bY0hdYzI9Tw==

> <s_epik_cmdline>
J2VwaWtfcHl0aG9uJywgJy1waCcsICc3LjAnLCAnLXRuJywgJzgnLCAnLW1hJywgJzIwMCcsICctbWV0YWxfYmluZGluZycsICctaW1hZScsICc8aW5maWxlLm1hZT4nLCAnLW9tYWUnLCAnPG91dGZpbGUubWFlPic=

> <r_lp_tautomer_probability>
1

> <r_epik_Ionization_Penalty>
0.0449927

> <r_epik_Ionization_Penalty_Charging>
2.12211e-07

> <r_epik_Ionization_Penalty_Neutral>
0.0449925

> <r_epik_State_Penalty>
0.0415249

> <r_epik_Charging_Adjusted_Penalty>
0.0415251

> <i_epik_Tot_Q>
0

> <i_epik_Tot_abs_Q>
0

> <r_epik_Metal_State_Penalty>
0.0415666

> <b_epik_Metal_Only>
0

> <s_epik_Chemistry_Notes>
This compound has an imine and may undergo hydrolysis.

> <s_lp_Force_Field>
OPLS_2005

> <r_lp_Energy>
28.1841

> <b_lp_Chiralities_Consistent>
1

> <s_lp_Variant>
AV-unprocessed.smi:592-1

> <Gold.Version>
5.8.1

> <Gold.Id.Protein>
6NUR|6NUR_protein|mol2

> <Gold.PLP.Fitness>
44.0024

> <Gold.PLP.PLP>
-38.8232

> <Gold.PLP.part.hbond>
-2.3221

> <Gold.PLP.part.metal>
0.0000

> <Gold.PLP.part.buried>
-1.7180

> <Gold.PLP.part.nonpolar>
-34.8815

> <Gold.PLP.part.repulsive>
0.4281

> <Gold.PLP.ligand.clash>
0.0000

> <Gold.PLP.ligand.torsion>
0.4122

> <Gold.PLP.Chemscore.Hbond>
2.0000

> <Gold.PLP.Chemscore.CHOScore>
0.0000

> <Gold.PLP.Chemscore.Metal>
0.0000

> <Gold.Chemscore.Hbonds>
donor molecule, donor type, donor heavy atom, donor atom, acceptor molecule, acceptor atom, score
      L1  H    11    23       P1  8028  1.00
      P1  H  7989  7998       L1    13  1.00

> <Gold.PLP.Chemscore.Internal.Correction>
0.0036

> <Gold.Rescore>
     Score         DG    S(hbond)    S(metal)    S(lipo)     H(rot)  DE(clash)    DE(int)     intcor
     14.56     -17.24       1.89        0.00      75.66       1.33       0.96       1.72       ----

> <Gold.Chemscore.Fitness>
14.5585

> <Gold.Chemscore.DG>
-17.2420

> <Gold.Chemscore.ZeroCoef>
-5.4800

> <Gold.Chemscore.Hbond>
1.8911

> <Gold.Chemscore.Metal>
0.0000

> <Gold.Chemscore.Lipo>
75.6646

> <Gold.Chemscore.Internal_Hbond>
0.0000

> <Gold.Chemscore.DEClash>
0.9617

> <Gold.Chemscore.DEInternal>
1.7219

> <Gold.Chemscore.Rot>
1.3309

> <Gold.Chemscore.Internal.Correction>
   9.000000E+99

> <Gold.Chemscore.Hbonds>
donor molecule, donor type, donor heavy atom, donor atom, acceptor molecule, acceptor atom, score
      L1  H    11    23       P1  8028  0.98
      P1  H  7989  7998       L1    13  0.38

> <Gold.Chemscore.Hbond.Weighted>
-6.3164

> <Gold.Chemscore.Metal.Weighted>
-0.0000

> <Gold.Chemscore.Lipo.Weighted>
-8.8528

> <Gold.Chemscore.Internal_Hbond.Weighted>
0.0000

> <Gold.Chemscore.DEClash.Weighted>
0.9617

> <Gold.Chemscore.DEInternal.Weighted>
1.7219

> <Gold.Chemscore.Rot.Weighted>
3.4071

> <Gold.Chemscore.Internal.Correction.Weighted>
   9.000000E+99

> <Gold.Protein.RotatedTorsions>
[ 6907 6896 6895 6894 ] final   53.97 input  -60.11 | X-H torsion
[ 7974 7965 7964 7962 ] final -139.48 input  175.53 | X-H torsion
[ 8008 7997 7996 7995 ] final  -61.75 input   59.86 | X-H torsion
[ 10167 10162 10161 10158 ] final   76.61 input  -65.29 | X-H torsion
[ 10718 10713 10712 10709 ] final   12.02 input   66.30 | X-H torsion
[ 10763 10752 10751 10750 ] final -120.56 input  -60.55 | X-H torsion
[ 11005 11000 10999 10996 ] final  177.00 input  -57.11 | X-H torsion

> <Gold.Protein.ActiveResidues>
 VAL166  LYS551  ARG553  GLY616  TRP617  ASP618  TYR619  PRO620  LYS621  CYS622 
 ASP623  PHE694  ASN695  SER759  ASP760  ASP761  ALA762  ILE779  LEU786  VAL792 
 PHE793  MET794  SER795  GLU796  ALA797  LYS798  CYS799  TRP800  GLU811  SER814 

> <Gold.Protein.RotatedAtoms>
  152.3391  134.7158  160.0268 H   0  0  0  0  0  0  0  0  0  0  0  0  # atno 6907 bound_to 6896
  151.7549  133.3324  159.3410 H   0  0  0  0  0  0  0  0  0  0  0  0  # atno 6908 bound_to 6896
  150.7469  134.6091  159.6121 H   0  0  0  0  0  0  0  0  0  0  0  0  # atno 6909 bound_to 6896
  144.8674  140.6314  143.5289 H   0  0  0  0  0  0  0  0  0  0  0  0  # atno 7974 bound_to 7965
  154.4464  140.1011  156.6480 H   0  0  0  0  0  0  0  0  0  0  0  0  # atno 8008 bound_to 7997
  155.5429  140.3484  155.4432 H   0  0  0  0  0  0  0  0  0  0  0  0  # atno 8009 bound_to 7997
  156.0584  140.1320  156.9959 H   0  0  0  0  0  0  0  0  0  0  0  0  # atno 8010 bound_to 7997
  139.9904  144.5761  150.7823 H   0  0  0  0  0  0  0  0  0  0  0  0  # atno 10167 bound_to 10162
  157.0041  130.6091  149.5700 H   0  0  0  0  0  0  0  0  0  0  0  0  # atno 10718 bound_to 10713
  154.8647  135.4199  154.2479 H   0  0  0  0  0  0  0  0  0  0  0  0  # atno 10763 bound_to 10752
  153.3431  135.6994  153.6856 H   0  0  0  0  0  0  0  0  0  0  0  0  # atno 10764 bound_to 10752
  153.5826  135.3570  155.2853 H   0  0  0  0  0  0  0  0  0  0  0  0  # atno 10765 bound_to 10752
  140.3793  134.6960  157.4441 H   0  0  0  0  0  0  0  0  0  0  0  0  # atno 11005 bound_to 11000
  145.4196  139.1566  143.4081 LP  0  0  0  0  0  0  0  0  0  0  0  0  # atno 17320 bound_to 7965
  146.2905  140.4305  142.8741 LP  0  0  0  0  0  0  0  0  0  0  0  0  # atno 17321 bound_to 7965
  140.7457  143.2879  151.3412 LP  0  0  0  0  0  0  0  0  0  0  0  0  # atno 17342 bound_to 10162
  139.6344  144.0659  152.2503 LP  0  0  0  0  0  0  0  0  0  0  0  0  # atno 17343 bound_to 10162
  156.0160  130.5254  150.8136 LP  0  0  0  0  0  0  0  0  0  0  0  0  # atno 17370 bound_to 10713
  157.5369  131.0939  150.9880 LP  0  0  0  0  0  0  0  0  0  0  0  0  # atno 17371 bound_to 10713
  140.0491  134.6157  155.8884 LP  0  0  0  0  0  0  0  0  0  0  0  0  # atno 17394 bound_to 11000
  141.1929  133.6577  156.5521 LP  0  0  0  0  0  0  0  0  0  0  0  0  # atno 17395 bound_to 11000

$$$$
