#       Name:                AV-unprocessed.smi:101
#       Creating user name   scv26
#       Creation time:       Thu Mar 26 17:46:41 2020


#       File generated by GOLD software.
#

@<TRIPOS>MOLECULE
AV-unprocessed.smi:101
    56    58     1
SMALL
NO_CHARGES


@<TRIPOS>ATOM
      1 ****        -4.2513   0.0383   1.8483 C.3            1 S1                 0.0000
      2 ****        -3.5910   0.7944   0.7086 C.2            1 S1                 0.0000
      3 ****        -2.9150   0.1663  -0.2785 C.2            1 S1                 0.0000
      4 ****        -2.3089   0.8534  -1.3208 N.am           1 S1                 0.0000
      5 ****        -1.4707   0.1418  -2.3787 C.3            1 S1                 0.0000
      6 ****        -0.1686   0.0398  -1.8957 O.3            1 S1                 0.0000
      7 ****        -0.0308  -1.2036  -1.2225 C.3            1 S1                 0.0000
      8 ****         1.4503  -1.5476  -1.0092 C.3            1 S1                 0.0000
      9 ****         1.9657  -0.7234   0.0231 O.3            1 S1                 0.0000
     10 ****         3.2521  -0.8370   0.4018 C.2            1 S1                 0.0000
     11 ****         4.0407  -1.6446  -0.0937 O.2            1 S1                 0.0000
     12 ****         3.6225   0.1167   1.4870 C.ar           1 S1                 0.0000
     13 ****         4.9416   0.1078   1.9978 C.ar           1 S1                 0.0000
     14 ****         5.3203   0.9976   3.0217 C.ar           1 S1                 0.0000
     15 ****         4.3845   1.9070   3.5477 C.ar           1 S1                 0.0000
     16 ****         3.0692   1.9259   3.0481 C.ar           1 S1                 0.0000
     17 ****         2.6885   1.0370   2.0240 C.ar           1 S1                 0.0000
     18 ****        -0.8356  -2.1707  -2.1101 C.3            1 S1                 0.0000
     19 ****        -0.0056  -2.7725  -3.0917 O.3            1 S1                 0.0000
     20 ****        -1.9435  -1.2893  -2.7135 C.3            1 S1                 0.0000
     21 ****        -2.1204  -1.4821  -4.1053 O.3            1 S1                 0.0000
     22 ****        -2.3102   2.2760  -1.2936 C.2            1 S1                 0.0000
     23 ****        -1.6794   2.8788  -2.1620 O.2            1 S1                 0.0000
     24 ****        -3.0079   2.9184  -0.3140 N.pl3          1 S1                -1.0000
     25 ****        -3.6674   2.2580   0.6789 C.2            1 S1                 0.0000
     26 ****        -4.3121   2.8501   1.5437 O.2            1 S1                 0.0000
     27 ****        -4.0863  -1.0359   1.7607 H              1 S1                 0.0000
     28 ****        -5.3270   0.2162   1.8498 H              1 S1                 0.0000
     29 ****        -3.8466   0.3643   2.8070 H              1 S1                 0.0000
     30 ****        -2.8398  -0.9082  -0.2251 H              1 S1                 0.0000
     31 ****        -1.4989   0.7793  -3.2631 H              1 S1                 0.0000
     32 ****        -0.5166  -1.1353  -0.2487 H              1 S1                 0.0000
     33 ****         1.5489  -2.5921  -0.7103 H              1 S1                 0.0000
     34 ****         2.0183  -1.4089  -1.9302 H              1 S1                 0.0000
     35 ****         5.6777  -0.5812   1.6096 H              1 S1                 0.0000
     36 ****         6.3305   0.9817   3.4035 H              1 S1                 0.0000
     37 ****         4.6751   2.5891   4.3331 H              1 S1                 0.0000
     38 ****         2.3496   2.6241   3.4500 H              1 S1                 0.0000
     39 ****         1.6711   1.0794   1.6628 H              1 S1                 0.0000
     40 ****        -1.2629  -2.9748  -1.5101 H              1 S1                 0.0000
     41 ****         0.6637  -3.2749  -2.6534 H              1 S1                 0.0000
     42 ****        -2.9116  -1.4981  -2.2624 H              1 S1                 0.0000
     43 ****        -2.7632  -0.8618  -4.4132 H              1 S1                 0.0000
     44 ****         0.0144   0.7894  -1.2596 LP             1 S1                 0.0000
     45 ****         0.4777   0.0839  -2.6575 LP             1 S1                 0.0000
     46 ****         3.7349  -2.2616  -0.8188 LP             1 S1                 0.0000
     47 ****         4.9863  -1.6827   0.2294 LP             1 S1                 0.0000
     48 ****         0.4195  -2.0633  -3.6542 LP             1 S1                 0.0000
     49 ****        -0.5531  -3.3750  -3.6725 LP             1 S1                 0.0000
     50 ****        -2.4396  -2.4136  -4.2793 LP             1 S1                 0.0000
     51 ****        -1.2528  -1.3330  -4.5798 LP             1 S1                 0.0000
     52 ****        -1.1823   2.3686  -2.8639 LP             1 S1                 0.0000
     53 ****        -1.6640   3.8787  -2.1656 LP             1 S1                 0.0000
     54 ****        -3.0369   3.9179  -0.3247 LP             1 S1                 0.0000
     55 ****        -4.7796   2.3330   2.2606 LP             1 S1                 0.0000
     56 ****        -4.3685   3.8484   1.5295 LP             1 S1                 0.0000
@<TRIPOS>BOND
    1    1    2 1     
    2    1   27 1     
    3    1   28 1     
    4    1   29 1     
    5    2   25 1     
    6    2    3 2     
    7    3    4 1     
    8    3   30 1     
    9    4    5 1     
   10    4   22 am    
   11    5   20 1     
   12    5    6 1     
   13    5   31 1     
   14    6    7 1     
   15    7    8 1     
   16    7   18 1     
   17    7   32 1     
   18    8    9 1     
   19    8   33 1     
   20    8   34 1     
   21    9   10 1     
   22   10   11 2     
   23   10   12 1     
   24   12   17 ar    
   25   12   13 ar    
   26   13   14 ar    
   27   13   35 1     
   28   14   15 ar    
   29   14   36 1     
   30   15   16 ar    
   31   15   37 1     
   32   16   17 ar    
   33   16   38 1     
   34   17   39 1     
   35   18   19 1     
   36   18   20 1     
   37   18   40 1     
   38   19   41 1     
   39   20   21 1     
   40   20   42 1     
   41   21   43 1     
   42   22   23 2     
   43   22   24 1     
   44   24   25 1     
   45   25   26 2     
   46    6   44 1     
   47    6   45 1     
   48   11   46 1     
   49   11   47 1     
   50   19   48 1     
   51   19   49 1     
   52   21   50 1     
   53   21   51 1     
   54   23   52 1     
   55   23   53 1     
   56   24   54 1     
   57   26   55 1     
   58   26   56 1     
@<TRIPOS>SUBSTRUCTURE
      1 S1             1
@<TRIPOS>SET
LONE_PAIRS      STATIC     ATOMS    <user>   **** ""
13 44 45 46 47 48 49 50 51 52 53 54 55 56
DONOR_HYDROGENS      STATIC     ATOMS    <user>   **** ""
2 41 43
ATOM$BLUE        STATIC     ATOMS    COLORGROUP SYSTEM
13 44 45 46 47 48 49 50 51 52 53 54 55 56
ATOM$RED        STATIC     ATOMS    COLORGROUP SYSTEM
2 41 43
