AV-unprocessed.smi:105|AV-procd|sdf|1010|dock7
  -GOLD-   2262018 03D 1   1.00000     0.00000
 Structure written by MMmdl.
 42 45  0  0  0  0  0  0  0  0  1 V2000
  152.5182  144.8780  159.2285 C   0  0  0  0  0  0  0  0  0  0  0  0
  152.7192  143.7738  160.0794 C   0  0  0  0  0  0  0  0  0  0  0  0
  152.4741  142.4686  159.6098 C   0  0  0  0  0  0  0  0  0  0  0  0
  152.0290  142.2642  158.2871 C   0  0  0  0  0  0  0  0  0  0  0  0
  151.7559  140.8614  157.7861 C   0  0  0  0  0  0  0  0  0  0  0  0
  151.3997  140.8272  156.3745 N   0  0  0  0  0  0  0  0  0  0  0  0
  150.9786  139.6747  155.8109 C   0  0  0  0  0  0  0  0  0  0  0  0
  150.6985  139.6061  154.4827 N   0  0  0  0  0  0  0  0  0  0  0  0
  150.2807  138.4552  153.9455 C   0  0  0  0  0  0  0  0  0  0  0  0
  150.0788  137.2786  154.5438 N   0  0  0  0  0  0  0  0  0  0  0  0
  150.3589  137.3466  155.8773 C   0  0  0  0  0  0  0  0  0  0  0  0
  150.8119  138.4963  156.5837 C   0  0  0  0  0  0  0  0  0  0  0  0
  150.9949  138.1912  157.9262 N   0  0  0  0  0  0  0  0  0  0  0  0
  150.6661  136.9305  158.0102 C   0  0  0  0  0  0  0  0  0  0  0  0
  150.2726  136.3434  156.8269 N   0  0  0  0  0  0  0  0  0  0  0  0
  149.8517  134.9669  156.6330 C   0  0  1  0  0  0  0  0  0  0  0  0
  149.4166  134.7063  155.1773 C   0  0  0  0  0  0  0  0  0  0  0  0
  149.0125  133.2326  155.0502 C   0  0  0  0  0  0  0  0  0  0  0  0
  150.1792  132.3456  155.4959 C   0  0  0  0  0  0  0  0  0  0  0  0
  150.6307  132.7521  156.9086 C   0  0  0  0  0  0  0  0  0  0  0  0
  150.9402  134.1433  156.9366 O   0  0  0  0  0  0  0  0  0  0  0  0
  151.8273  143.3719  157.4376 C   0  0  0  0  0  0  0  0  0  0  0  0
  152.0723  144.6770  157.9078 C   0  0  0  0  0  0  0  0  0  0  0  0
  152.7053  145.8789  159.5889 H   0  0  0  0  0  0  0  0  0  0  0  0
  153.0605  143.9286  161.0924 H   0  0  0  0  0  0  0  0  0  0  0  0
  152.6277  141.6250  160.2670 H   0  0  0  0  0  0  0  0  0  0  0  0
  152.6394  140.2436  157.9542 H   0  0  0  0  0  0  0  0  0  0  0  0
  150.9465  140.4291  158.3759 H   0  0  0  0  0  0  0  0  0  0  0  0
  151.5061  141.6923  155.8643 H   0  0  0  0  0  0  0  0  0  0  0  0
  150.0790  138.4810  152.8848 H   0  0  0  0  0  0  0  0  0  0  0  0
  150.6996  136.3893  158.9448 H   0  0  0  0  0  0  0  0  0  0  0  0
  149.0410  134.7588  157.3338 H   0  0  0  0  0  0  0  0  0  0  0  0
  148.5805  135.3611  154.9290 H   0  0  0  0  0  0  0  0  0  0  0  0
  150.2405  134.9437  154.5029 H   0  0  0  0  0  0  0  0  0  0  0  0
  148.1338  133.0314  155.6643 H   0  0  0  0  0  0  0  0  0  0  0  0
  148.7356  133.0047  154.0205 H   0  0  0  0  0  0  0  0  0  0  0  0
  149.8882  131.2949  155.4776 H   0  0  0  0  0  0  0  0  0  0  0  0
  151.0115  132.4546  154.7994 H   0  0  0  0  0  0  0  0  0  0  0  0
  149.8576  132.5264  157.6449 H   0  0  0  0  0  0  0  0  0  0  0  0
  151.5175  132.1874  157.1963 H   0  0  0  0  0  0  0  0  0  0  0  0
  151.4827  143.2241  156.4245 H   0  0  0  0  0  0  0  0  0  0  0  0
  151.9171  145.5240  157.2557 H   0  0  0  0  0  0  0  0  0  0  0  0
  1 23  1  0  0  0  0
  1  2  2  0  0  0  0
  1 24  1  0  0  0  0
  2  3  1  0  0  0  0
  2 25  1  0  0  0  0
  3  4  2  0  0  0  0
  3 26  1  0  0  0  0
  4  5  1  0  0  0  0
  4 22  1  0  0  0  0
  5  6  1  0  0  0  0
  5 27  1  0  0  0  0
  5 28  1  0  0  0  0
  6  7  1  0  0  0  0
  6 29  1  0  0  0  0
  7 12  1  0  0  0  0
  7  8  2  0  0  0  0
  8  9  1  0  0  0  0
  9 10  2  0  0  0  0
  9 30  1  0  0  0  0
 10 11  1  0  0  0  0
 11 15  1  0  0  0  0
 11 12  2  0  0  0  0
 12 13  1  0  0  0  0
 13 14  2  0  0  0  0
 14 15  1  0  0  0  0
 14 31  1  0  0  0  0
 15 16  1  0  0  0  0
 16 21  1  0  0  0  0
 16 17  1  0  0  0  0
 16 32  1  0  0  0  0
 17 18  1  0  0  0  0
 17 33  1  0  0  0  0
 17 34  1  0  0  0  0
 18 19  1  0  0  0  0
 18 35  1  0  0  0  0
 18 36  1  0  0  0  0
 19 20  1  0  0  0  0
 19 37  1  0  0  0  0
 19 38  1  0  0  0  0
 20 21  1  0  0  0  0
 20 39  1  0  0  0  0
 20 40  1  0  0  0  0
 22 23  2  0  0  0  0
 22 41  1  0  0  0  0
 23 42  1  0  0  0  0
M  END
> <s_m_source_file>
AV-unprocessed.smi

> <i_m_source_file_index>
105

> <i_lp_mmshare_version>
43012

> <i_f3d_flags>
0

> <s_epik_input>
W2NIXTFbY0hdW2NIXVtjSF1bY0hdYzFbQ0gyXVtOSF1jKG5bY0hdbjIpYyhjMjMpbltjSF1uM1tDQEBIXTRbQ0gyXVtDSDJdW0NIMl1bQ0gyXU80

> <s_epik_cmdline>
J2VwaWtfcHl0aG9uJywgJy1waCcsICc3LjAnLCAnLXRuJywgJzgnLCAnLW1hJywgJzIwMCcsICctbWV0YWxfYmluZGluZycsICctaW1hZScsICc8aW5maWxlLm1hZT4nLCAnLW9tYWUnLCAnPG91dGZpbGUubWFlPic=

> <r_lp_tautomer_probability>
1

> <r_epik_Ionization_Penalty>
0.000653933

> <r_epik_Ionization_Penalty_Charging>
0

> <r_epik_Ionization_Penalty_Neutral>
0.000653933

> <r_epik_State_Penalty>
-0

> <r_epik_Charging_Adjusted_Penalty>
0

> <i_epik_Tot_Q>
0

> <i_epik_Tot_abs_Q>
0

> <r_epik_Metal_State_Penalty>
-0

> <b_epik_Metal_Only>
0

> <s_epik_Chemistry_Notes>
This compound contains an acetal/aminal-like group ( X-CH(R)-Y where X, Y are N, S, or O) that may be acid/base labile, releasing an aldehyde.

> <s_lp_Force_Field>
OPLS_2005

> <r_lp_Energy>
23.9687

> <b_lp_Chiralities_Consistent>
1

> <s_lp_Variant>
AV-unprocessed.smi:105-2

> <Gold.Version>
5.8.1

> <Gold.Id.Protein>
6NUR|6NUR_protein|mol2

> <Gold.PLP.Fitness>
47.8378

> <Gold.PLP.PLP>
-41.2718

> <Gold.PLP.part.hbond>
-1.8651

> <Gold.PLP.part.metal>
0.0000

> <Gold.PLP.part.buried>
-6.8991

> <Gold.PLP.part.nonpolar>
-33.6413

> <Gold.PLP.part.repulsive>
0.7847

> <Gold.PLP.ligand.clash>
0.6988

> <Gold.PLP.ligand.torsion>
0.0717

> <Gold.PLP.Chemscore.Hbond>
1.0000

> <Gold.PLP.Chemscore.CHOScore>
1.4648

> <Gold.PLP.Chemscore.Metal>
0.0000

> <Gold.Chemscore.Hbonds>
donor molecule, donor type, donor heavy atom, donor atom, acceptor molecule, acceptor atom, score
      P1  H  7989  7998       L1     8  1.00
      L1  C     9    30       P1  7948  0.49
      L1  C     9    30       P1  7957  1.00

> <Gold.PLP.Chemscore.Internal.Correction>
0.0138

> <Gold.Rescore>
     Score         DG    S(hbond)    S(metal)    S(lipo)     H(rot)  DE(clash)    DE(int)     intcor
     13.41     -16.36       0.91        0.00     101.16       1.55       0.02       2.93       ----

> <Gold.Chemscore.Fitness>
13.4111

> <Gold.Chemscore.DG>
-16.3617

> <Gold.Chemscore.ZeroCoef>
-5.4800

> <Gold.Chemscore.Hbond>
0.9059

> <Gold.Chemscore.Metal>
0.0000

> <Gold.Chemscore.Lipo>
101.1625

> <Gold.Chemscore.Internal_Hbond>
0.0000

> <Gold.Chemscore.DEClash>
0.0159

> <Gold.Chemscore.DEInternal>
2.9346

> <Gold.Chemscore.Rot>
1.5547

> <Gold.Chemscore.Internal.Correction>
   9.000000E+99

> <Gold.Chemscore.Hbonds>
donor molecule, donor type, donor heavy atom, donor atom, acceptor molecule, acceptor atom, score
      P1  H  7989  7998       L1     8  0.84

> <Gold.Chemscore.Hbond.Weighted>
-3.0256

> <Gold.Chemscore.Metal.Weighted>
-0.0000

> <Gold.Chemscore.Lipo.Weighted>
-11.8360

> <Gold.Chemscore.Internal_Hbond.Weighted>
0.0000

> <Gold.Chemscore.DEClash.Weighted>
0.0159

> <Gold.Chemscore.DEInternal.Weighted>
2.9346

> <Gold.Chemscore.Rot.Weighted>
3.9800

> <Gold.Chemscore.Internal.Correction.Weighted>
   9.000000E+99

> <Gold.Protein.RotatedTorsions>
[ 6907 6896 6895 6894 ] final  175.27 input  -60.11 | X-H torsion
[ 7974 7965 7964 7962 ] final   96.34 input  175.53 | X-H torsion
[ 8008 7997 7996 7995 ] final  -14.67 input   59.86 | X-H torsion
[ 10167 10162 10161 10158 ] final  -46.94 input  -65.29 | X-H torsion
[ 10718 10713 10712 10709 ] final  -31.35 input   66.30 | X-H torsion
[ 10763 10752 10751 10750 ] final  102.12 input  -60.55 | X-H torsion
[ 11005 11000 10999 10996 ] final  -68.18 input  -57.11 | X-H torsion

> <Gold.Protein.ActiveResidues>
 VAL166  LYS551  ARG553  GLY616  TRP617  ASP618  TYR619  PRO620  LYS621  CYS622 
 ASP623  PHE694  ASN695  SER759  ASP760  ASP761  ALA762  ILE779  LEU786  VAL792 
 PHE793  MET794  SER795  GLU796  ALA797  LYS798  CYS799  TRP800  GLU811  SER814 

> <Gold.Protein.RotatedAtoms>
  151.7389  133.3321  159.3360 H   0  0  0  0  0  0  0  0  0  0  0  0  # atno 6907 bound_to 6896
  150.7581  134.6296  159.6188 H   0  0  0  0  0  0  0  0  0  0  0  0  # atno 6908 bound_to 6896
  152.3543  134.6963  160.0278 H   0  0  0  0  0  0  0  0  0  0  0  0  # atno 6909 bound_to 6896
  145.4401  139.2302  143.3097 H   0  0  0  0  0  0  0  0  0  0  0  0  # atno 7974 bound_to 7965
  154.5191  140.2216  155.9009 H   0  0  0  0  0  0  0  0  0  0  0  0  # atno 8008 bound_to 7997
  156.1642  140.3136  155.8824 H   0  0  0  0  0  0  0  0  0  0  0  0  # atno 8009 bound_to 7997
  155.3691  140.0465  157.3036 H   0  0  0  0  0  0  0  0  0  0  0  0  # atno 8010 bound_to 7997
  140.6796  143.2807  151.3855 H   0  0  0  0  0  0  0  0  0  0  0  0  # atno 10167 bound_to 10162
  156.3884  130.4368  149.7414 H   0  0  0  0  0  0  0  0  0  0  0  0  # atno 10718 bound_to 10713
  153.3354  135.4021  155.1529 H   0  0  0  0  0  0  0  0  0  0  0  0  # atno 10763 bound_to 10752
  154.8632  135.3620  154.5415 H   0  0  0  0  0  0  0  0  0  0  0  0  # atno 10764 bound_to 10752
  153.5856  135.7075  153.5504 H   0  0  0  0  0  0  0  0  0  0  0  0  # atno 10765 bound_to 10752
  141.1526  133.6735  156.6406 H   0  0  0  0  0  0  0  0  0  0  0  0  # atno 11005 bound_to 11000
  146.2561  140.5148  142.8873 LP  0  0  0  0  0  0  0  0  0  0  0  0  # atno 17320 bound_to 7965
  144.8127  140.6414  143.6404 LP  0  0  0  0  0  0  0  0  0  0  0  0  # atno 17321 bound_to 7965
  139.6110  144.1099  152.2298 LP  0  0  0  0  0  0  0  0  0  0  0  0  # atno 17342 bound_to 10162
  140.0513  144.5930  150.7334 LP  0  0  0  0  0  0  0  0  0  0  0  0  # atno 17343 bound_to 10162
  156.4477  130.7891  151.2913 LP  0  0  0  0  0  0  0  0  0  0  0  0  # atno 17370 bound_to 10713
  157.7497  131.0105  150.3309 LP  0  0  0  0  0  0  0  0  0  0  0  0  # atno 17371 bound_to 10713
  140.3396  134.7860  157.4388 LP  0  0  0  0  0  0  0  0  0  0  0  0  # atno 17394 bound_to 11000
  140.0949  134.5551  155.8408 LP  0  0  0  0  0  0  0  0  0  0  0  0  # atno 17395 bound_to 11000

$$$$
