AV-unprocessed.smi:83|AV-procd|sdf|804|dock2
  -GOLD-   2262017193D 1   1.00000     0.00000
 Structure written by MMmdl.
 56 59  0  0  0  0  0  0  0  0  1 V2000
  151.7621  143.6558  159.4280 C   0  0  0  0  0  0  0  0  0  0  0  0
  151.7314  142.1290  159.3366 C   0  0  0  0  0  0  0  0  0  0  0  0
  151.8871  141.4675  160.3625 O   0  0  0  0  0  0  0  0  0  0  0  0
  151.5364  141.5592  158.1301 N   0  0  0  0  0  0  0  0  0  0  0  0
  151.4946  140.1161  157.9087 C   0  0  0  0  0  0  0  0  0  0  0  0
  151.3196  139.9400  156.3969 C   0  0  0  0  0  0  0  0  0  0  0  0
  150.6408  141.2311  155.9401 C   0  0  1  0  0  0  0  0  0  0  0  0
  149.1038  141.1008  156.0806 C   0  0  0  0  0  0  0  0  0  0  0  0
  148.4278  140.6040  154.8807 N   0  0  0  0  0  0  0  0  0  0  0  0
  148.1517  141.5754  153.8239 C   0  0  0  0  0  0  0  0  0  0  0  0
  147.7167  139.4372  154.9029 C   0  0  0  0  0  0  0  0  0  0  0  0
  147.6174  138.7693  156.0851 N   0  0  0  0  0  0  0  0  0  0  0  0
  146.9792  137.5998  156.1657 C   0  0  0  0  0  0  0  0  0  0  0  0
  146.3721  136.9149  155.1979 N   0  0  0  0  0  0  0  0  0  0  0  0
  146.4468  137.5754  154.0087 C   0  0  0  0  0  0  0  0  0  0  0  0
  147.0820  138.8310  153.7719 C   0  0  0  0  0  0  0  0  0  0  0  0
  146.9242  139.1722  152.4314 N   0  0  0  0  0  0  0  0  0  0  0  0
  146.2652  138.1771  151.9079 C   0  0  0  0  0  0  0  0  0  0  0  0
  145.9399  137.1724  152.7860 N   0  0  0  0  0  0  0  0  0  0  0  0
  145.2167  135.9528  152.4737 C   0  0  0  0  0  0  0  0  0  0  0  0
  145.7971  135.2222  151.2472 C   0  0  2  0  0  0  0  0  0  0  0  0
  145.4276  135.9181  150.0719 O   0  0  0  0  0  0  0  0  0  0  0  0
  145.2982  133.7691  151.1457 C   0  0  1  0  0  0  0  0  0  0  0  0
  143.9000  133.6204  150.5460 C   0  0  0  0  0  0  0  0  0  0  0  0
  143.9208  132.1836  150.0773 C   0  0  0  0  0  0  0  0  0  0  0  0
  145.3580  132.0239  149.5861 C   0  0  0  0  0  0  0  0  0  0  0  0
  146.1250  133.0188  150.2605 O   0  0  0  0  0  0  0  0  0  0  0  0
  151.2860  142.2654  156.8764 C   0  0  0  0  0  0  0  0  0  0  0  0
  152.4957  144.0706  158.7367 H   0  0  0  0  0  0  0  0  0  0  0  0
  152.0313  143.9752  160.4350 H   0  0  0  0  0  0  0  0  0  0  0  0
  150.7844  144.0761  159.1946 H   0  0  0  0  0  0  0  0  0  0  0  0
  152.3994  139.6235  158.2673 H   0  0  0  0  0  0  0  0  0  0  0  0
  150.6429  139.6961  158.4457 H   0  0  0  0  0  0  0  0  0  0  0  0
  152.3005  139.8611  155.9262 H   0  0  0  0  0  0  0  0  0  0  0  0
  150.7608  139.0398  156.1389 H   0  0  0  0  0  0  0  0  0  0  0  0
  150.8873  141.4477  154.9001 H   0  0  0  0  0  0  0  0  0  0  0  0
  148.8971  140.3844  156.8762 H   0  0  0  0  0  0  0  0  0  0  0  0
  148.6706  142.0248  156.4478 H   0  0  0  0  0  0  0  0  0  0  0  0
  148.2191  141.1098  152.8399 H   0  0  0  0  0  0  0  0  0  0  0  0
  148.8703  142.3949  153.8488 H   0  0  0  0  0  0  0  0  0  0  0  0
  147.1543  142.0007  153.9417 H   0  0  0  0  0  0  0  0  0  0  0  0
  146.9587  137.1449  157.1451 H   0  0  0  0  0  0  0  0  0  0  0  0
  145.9975  138.1484  150.8617 H   0  0  0  0  0  0  0  0  0  0  0  0
  145.2537  135.3073  153.3520 H   0  0  0  0  0  0  0  0  0  0  0  0
  144.1657  136.1967  152.3137 H   0  0  0  0  0  0  0  0  0  0  0  0
  146.8862  135.2246  151.3095 H   0  0  0  0  0  0  0  0  0  0  0  0
  145.5108  135.3302  149.3366 H   0  0  0  0  0  0  0  0  0  0  0  0
  145.3261  133.2860  152.1242 H   0  0  0  0  0  0  0  0  0  0  0  0
  143.1042  133.8224  151.2636 H   0  0  0  0  0  0  0  0  0  0  0  0
  143.7722  134.2899  149.6943 H   0  0  0  0  0  0  0  0  0  0  0  0
  143.7360  131.5161  150.9198 H   0  0  0  0  0  0  0  0  0  0  0  0
  143.1800  131.9726  149.3057 H   0  0  0  0  0  0  0  0  0  0  0  0
  145.7473  131.0252  149.7848 H   0  0  0  0  0  0  0  0  0  0  0  0
  145.4231  132.2048  148.5128 H   0  0  0  0  0  0  0  0  0  0  0  0
  150.6877  143.1648  156.9975 H   0  0  0  0  0  0  0  0  0  0  0  0
  152.2484  142.5816  156.4716 H   0  0  0  0  0  0  0  0  0  0  0  0
  1  2  1  0  0  0  0
  1 29  1  0  0  0  0
  1 30  1  0  0  0  0
  1 31  1  0  0  0  0
  2  3  2  0  0  0  0
  2  4  1  0  0  0  0
  4 28  1  0  0  0  0
  4  5  1  0  0  0  0
  5  6  1  0  0  0  0
  5 32  1  0  0  0  0
  5 33  1  0  0  0  0
  6  7  1  0  0  0  0
  6 34  1  0  0  0  0
  6 35  1  0  0  0  0
  7  8  1  0  0  0  0
  7 28  1  0  0  0  0
  7 36  1  0  0  0  0
  8  9  1  0  0  0  0
  8 37  1  0  0  0  0
  8 38  1  0  0  0  0
  9 10  1  0  0  0  0
  9 11  1  0  0  0  0
 10 39  1  0  0  0  0
 10 40  1  0  0  0  0
 10 41  1  0  0  0  0
 11 16  1  0  0  0  0
 11 12  2  0  0  0  0
 12 13  1  0  0  0  0
 13 14  2  0  0  0  0
 13 42  1  0  0  0  0
 14 15  1  0  0  0  0
 15 19  1  0  0  0  0
 15 16  2  0  0  0  0
 16 17  1  0  0  0  0
 17 18  2  0  0  0  0
 18 19  1  0  0  0  0
 18 43  1  0  0  0  0
 19 20  1  0  0  0  0
 20 21  1  0  0  0  0
 20 44  1  0  0  0  0
 20 45  1  0  0  0  0
 21 22  1  0  0  0  0
 21 23  1  0  0  0  0
 21 46  1  0  0  0  0
 22 47  1  0  0  0  0
 23 27  1  0  0  0  0
 23 24  1  0  0  0  0
 23 48  1  0  0  0  0
 24 25  1  0  0  0  0
 24 49  1  0  0  0  0
 24 50  1  0  0  0  0
 25 26  1  0  0  0  0
 25 51  1  0  0  0  0
 25 52  1  0  0  0  0
 26 27  1  0  0  0  0
 26 53  1  0  0  0  0
 26 54  1  0  0  0  0
 28 55  1  0  0  0  0
 28 56  1  0  0  0  0
M  END
> <s_m_source_file>
AV-unprocessed.smi

> <i_m_source_file_index>
83

> <i_lp_mmshare_version>
43012

> <i_f3d_flags>
0

> <s_epik_input>
W0NIM11DKD1PKU4xW0NIMl1bQ0gyXVtDQEhdKFtDSDJdMSlbQ0gyXU4oW0NIM10pYyhuW2NIXW4yKWMoYzIzKW5bY0hdbjNbQ0gyXVtDQEhdKFtPSF0pW0NAQEhdNFtDSDJdW0NIMl1bQ0gyXU80

> <s_epik_cmdline>
J2VwaWtfcHl0aG9uJywgJy1waCcsICc3LjAnLCAnLXRuJywgJzgnLCAnLW1hJywgJzIwMCcsICctbWV0YWxfYmluZGluZycsICctaW1hZScsICc8aW5maWxlLm1hZT4nLCAnLW9tYWUnLCAnPG91dGZpbGUubWFlPic=

> <r_lp_tautomer_probability>
1

> <r_epik_Ionization_Penalty>
0.00109752

> <r_epik_Ionization_Penalty_Charging>
0

> <r_epik_Ionization_Penalty_Neutral>
0.00109752

> <r_epik_State_Penalty>
0.000634803

> <r_epik_Charging_Adjusted_Penalty>
0.000634803

> <i_epik_Tot_Q>
0

> <i_epik_Tot_abs_Q>
0

> <r_epik_Metal_State_Penalty>
-0

> <b_epik_Metal_Only>
0

> <s_lp_Force_Field>
OPLS_2005

> <r_lp_Energy>
53.0153

> <b_lp_Chiralities_Consistent>
1

> <s_lp_Variant>
AV-unprocessed.smi:83-5

> <Gold.Version>
5.8.1

> <Gold.Id.Protein>
6NUR|6NUR_protein|mol2

> <Gold.PLP.Fitness>
51.6808

> <Gold.PLP.PLP>
-47.4463

> <Gold.PLP.part.hbond>
-2.3708

> <Gold.PLP.part.metal>
0.0000

> <Gold.PLP.part.buried>
-6.2676

> <Gold.PLP.part.nonpolar>
-39.2546

> <Gold.PLP.part.repulsive>
0.9733

> <Gold.PLP.ligand.clash>
0.0000

> <Gold.PLP.ligand.torsion>
1.1357

> <Gold.PLP.Chemscore.Hbond>
1.0000

> <Gold.PLP.Chemscore.CHOScore>
1.0000

> <Gold.PLP.Chemscore.Metal>
0.0000

> <Gold.Chemscore.Hbonds>
donor molecule, donor type, donor heavy atom, donor atom, acceptor molecule, acceptor atom, score
      L1  H    22    47       P1  7921  1.00
      L1  C    18    43       P1 10171  1.00

> <Gold.PLP.Chemscore.Internal.Correction>
0.5058

> <Gold.Rescore>
     Score         DG    S(hbond)    S(metal)    S(lipo)     H(rot)  DE(clash)    DE(int)     intcor
     11.29     -13.66       0.99        0.00      98.82       2.62       0.45       1.92       ----

> <Gold.Chemscore.Fitness>
11.2912

> <Gold.Chemscore.DG>
-13.6600

> <Gold.Chemscore.ZeroCoef>
-5.4800

> <Gold.Chemscore.Hbond>
0.9918

> <Gold.Chemscore.Metal>
0.0000

> <Gold.Chemscore.Lipo>
98.8227

> <Gold.Chemscore.Internal_Hbond>
0.0000

> <Gold.Chemscore.DEClash>
0.4506

> <Gold.Chemscore.DEInternal>
1.9182

> <Gold.Chemscore.Rot>
2.6152

> <Gold.Chemscore.Internal.Correction>
   9.000000E+99

> <Gold.Chemscore.Hbonds>
donor molecule, donor type, donor heavy atom, donor atom, acceptor molecule, acceptor atom, score
      L1  H    22    47       P1  7921  0.98

> <Gold.Chemscore.Hbond.Weighted>
-3.3126

> <Gold.Chemscore.Metal.Weighted>
-0.0000

> <Gold.Chemscore.Lipo.Weighted>
-11.5623

> <Gold.Chemscore.Internal_Hbond.Weighted>
0.0000

> <Gold.Chemscore.DEClash.Weighted>
0.4506

> <Gold.Chemscore.DEInternal.Weighted>
1.9182

> <Gold.Chemscore.Rot.Weighted>
6.6949

> <Gold.Chemscore.Internal.Correction.Weighted>
   9.000000E+99

> <Gold.Protein.RotatedTorsions>
[ 6907 6896 6895 6894 ] final   24.97 input  -60.11 | X-H torsion
[ 7974 7965 7964 7962 ] final  124.75 input  175.53 | X-H torsion
[ 8008 7997 7996 7995 ] final -146.70 input   59.86 | X-H torsion
[ 10167 10162 10161 10158 ] final  -81.55 input  -65.29 | X-H torsion
[ 10718 10713 10712 10709 ] final   70.41 input   66.30 | X-H torsion
[ 10763 10752 10751 10750 ] final  -76.50 input  -60.55 | X-H torsion
[ 11005 11000 10999 10996 ] final  170.06 input  -57.11 | X-H torsion

> <Gold.Protein.ActiveResidues>
 VAL166  LYS551  ARG553  GLY616  TRP617  ASP618  TYR619  PRO620  LYS621  CYS622 
 ASP623  PHE694  ASN695  SER759  ASP760  ASP761  ALA762  ILE779  LEU786  VAL792 
 PHE793  MET794  SER795  GLU796  ALA797  LYS798  CYS799  TRP800  GLU811  SER814 

> <Gold.Protein.RotatedAtoms>
  151.9656  135.0102  160.0549 H   0  0  0  0  0  0  0  0  0  0  0  0  # atno 6907 bound_to 6896
  152.1830  133.4715  159.4976 H   0  0  0  0  0  0  0  0  0  0  0  0  # atno 6908 bound_to 6896
  150.6921  134.1727  159.4261 H   0  0  0  0  0  0  0  0  0  0  0  0  # atno 6909 bound_to 6896
  145.0808  139.3659  143.4910 H   0  0  0  0  0  0  0  0  0  0  0  0  # atno 7974 bound_to 7965
  155.5636  140.0627  157.2823 H   0  0  0  0  0  0  0  0  0  0  0  0  # atno 8008 bound_to 7997
  154.4382  140.1881  156.0853 H   0  0  0  0  0  0  0  0  0  0  0  0  # atno 8009 bound_to 7997
  156.0428  140.3293  155.7267 H   0  0  0  0  0  0  0  0  0  0  0  0  # atno 8010 bound_to 7997
  140.4402  143.2517  151.8637 H   0  0  0  0  0  0  0  0  0  0  0  0  # atno 10167 bound_to 10162
  157.6398  130.9476  150.0647 H   0  0  0  0  0  0  0  0  0  0  0  0  # atno 10718 bound_to 10713
  154.5006  135.5795  153.6528 H   0  0  0  0  0  0  0  0  0  0  0  0  # atno 10763 bound_to 10752
  152.9878  135.6135  154.3007 H   0  0  0  0  0  0  0  0  0  0  0  0  # atno 10764 bound_to 10752
  154.2914  135.2848  155.2632 H   0  0  0  0  0  0  0  0  0  0  0  0  # atno 10765 bound_to 10752
  140.3043  134.7569  157.3941 H   0  0  0  0  0  0  0  0  0  0  0  0  # atno 11005 bound_to 11000
  146.3531  140.0597  142.8630 LP  0  0  0  0  0  0  0  0  0  0  0  0  # atno 17320 bound_to 7965
  145.1180  140.9445  143.4617 LP  0  0  0  0  0  0  0  0  0  0  0  0  # atno 17321 bound_to 7965
  139.4789  144.5238  151.8764 LP  0  0  0  0  0  0  0  0  0  0  0  0  # atno 17342 bound_to 10162
  140.4327  144.2093  150.5888 LP  0  0  0  0  0  0  0  0  0  0  0  0  # atno 17343 bound_to 10162
  156.1669  130.3645  149.9220 LP  0  0  0  0  0  0  0  0  0  0  0  0  # atno 17370 bound_to 10713
  156.7204  130.9005  151.3617 LP  0  0  0  0  0  0  0  0  0  0  0  0  # atno 17371 bound_to 10713
  140.1081  134.5382  155.8291 LP  0  0  0  0  0  0  0  0  0  0  0  0  # atno 17394 bound_to 11000
  141.2121  133.6716  156.6637 LP  0  0  0  0  0  0  0  0  0  0  0  0  # atno 17395 bound_to 11000

$$$$
