AV-unprocessed.smi:1046|AV-procd|sdf|4555|dock5
  -GOLD-   22720 2593D 1   1.00000     0.00000
 Structure written by MMmdl.
 54 56  0  0  0  0  0  0  0  0  3 V2000
  153.3689  141.6206  161.8026 C   0  0  0  0  0  0  0  0  0  0  0  0
  152.7475  141.6084  160.4171 C   0  0  0  0  0  0  0  0  0  0  0  0
  153.0838  140.5674  159.5226 C   0  0  0  0  0  0  0  0  0  0  0  0
  152.5326  140.5224  158.2236 C   0  0  0  0  0  0  0  0  0  0  0  0
  152.7202  139.6116  157.1983 N   0  0  0  0  0  0  0  0  0  0  0  0
  151.9410  140.1145  156.2458 C   0  0  0  0  0  0  0  0  0  0  0  0
  151.2555  141.2367  156.5390 N   0  0  0  0  0  0  0  0  0  0  0  0
  150.3402  141.9561  155.6722 C   0  0  0  0  0  0  0  0  0  0  0  0
  148.9989  141.2190  155.4861 C   0  0  1  0  0  0  0  0  0  0  0  0
  148.0826  141.7445  156.4244 O   0  0  0  0  0  0  0  0  0  0  0  0
  148.4037  141.3750  154.0687 C   0  0  0  0  0  0  0  0  0  0  0  0
  147.6593  140.1695  153.6218 N   0  3  2  0  0  0  0  0  0  0  0  0
  147.2456  140.2214  152.1961 C   0  0  0  0  0  0  0  0  0  0  0  0
  146.5521  138.9145  151.7723 C   0  0  0  0  0  0  0  0  0  0  0  0
  145.3939  138.6106  152.6482 N   0  3  1  0  0  0  0  0  0  0  0  0
  144.6494  137.4049  152.2013 C   0  0  0  0  0  0  0  0  0  0  0  0
  143.2866  137.2555  152.8997 C   0  0  0  0  0  0  0  0  0  0  0  0
  142.4586  138.3546  152.5833 O   0  0  0  0  0  0  0  0  0  0  0  0
  145.8055  138.5610  154.0743 C   0  0  0  0  0  0  0  0  0  0  0  0
  146.5008  139.8673  154.4977 C   0  0  0  0  0  0  0  0  0  0  0  0
  151.6249  141.5533  157.8419 C   0  0  0  0  0  0  0  0  0  0  0  0
  151.2818  142.5940  158.7230 C   0  0  0  0  0  0  0  0  0  0  0  0
  151.8436  142.6250  160.0165 C   0  0  0  0  0  0  0  0  0  0  0  0
  151.4709  143.7555  160.9594 C   0  0  0  0  0  0  0  0  0  0  0  0
  154.0673  140.7934  161.9334 H   0  0  0  0  0  0  0  0  0  0  0  0
  152.5975  141.5316  162.5677 H   0  0  0  0  0  0  0  0  0  0  0  0
  153.9169  142.5484  161.9681 H   0  0  0  0  0  0  0  0  0  0  0  0
  153.7734  139.7939  159.8274 H   0  0  0  0  0  0  0  0  0  0  0  0
  151.8557  139.6332  155.2824 H   0  0  0  0  0  0  0  0  0  0  0  0
  150.1753  142.9462  156.0995 H   0  0  0  0  0  0  0  0  0  0  0  0
  150.8262  142.1090  154.7072 H   0  0  0  0  0  0  0  0  0  0  0  0
  149.1515  140.1666  155.7210 H   0  0  0  0  0  0  0  0  0  0  0  0
  148.3030  142.6498  156.5876 H   0  0  0  0  0  0  0  0  0  0  0  0
  147.7366  142.2385  154.0718 H   0  0  0  0  0  0  0  0  0  0  0  0
  149.1812  141.5959  153.3362 H   0  0  0  0  0  0  0  0  0  0  0  0
  146.5729  141.0667  152.0420 H   0  0  0  0  0  0  0  0  0  0  0  0
  148.1091  140.3861  151.5528 H   0  0  0  0  0  0  0  0  0  0  0  0
  146.2181  139.0049  150.7378 H   0  0  0  0  0  0  0  0  0  0  0  0
  147.2613  138.0857  151.8056 H   0  0  0  0  0  0  0  0  0  0  0  0
  144.4763  137.4573  151.1250 H   0  0  0  0  0  0  0  0  0  0  0  0
  145.2601  136.5163  152.3678 H   0  0  0  0  0  0  0  0  0  0  0  0
  142.7939  136.3466  152.5535 H   0  0  0  0  0  0  0  0  0  0  0  0
  143.3839  137.1661  153.9811 H   0  0  0  0  0  0  0  0  0  0  0  0
  142.9258  139.1527  152.7834 H   0  0  0  0  0  0  0  0  0  0  0  0
  144.9394  138.3980  154.7148 H   0  0  0  0  0  0  0  0  0  0  0  0
  146.4772  137.7152  154.2306 H   0  0  0  0  0  0  0  0  0  0  0  0
  146.8341  139.7772  155.5323 H   0  0  0  0  0  0  0  0  0  0  0  0
  145.7930  140.6974  154.4631 H   0  0  0  0  0  0  0  0  0  0  0  0
  150.5959  143.3650  158.4050 H   0  0  0  0  0  0  0  0  0  0  0  0
  150.7371  144.4243  160.5088 H   0  0  0  0  0  0  0  0  0  0  0  0
  152.3513  144.3468  161.2124 H   0  0  0  0  0  0  0  0  0  0  0  0
  151.0421  143.3610  161.8808 H   0  0  0  0  0  0  0  0  0  0  0  0
  148.3004  139.3945  153.7202 H   0  0  0  0  0  0  0  0  0  0  0  0
  144.7522  139.3851  152.5492 H   0  0  0  0  0  0  0  0  0  0  0  0
  1  2  1  0  0  0  0
  1 25  1  0  0  0  0
  1 26  1  0  0  0  0
  1 27  1  0  0  0  0
  2 23  1  0  0  0  0
  2  3  2  0  0  0  0
  3  4  1  0  0  0  0
  3 28  1  0  0  0  0
  4 21  2  0  0  0  0
  4  5  1  0  0  0  0
  5  6  2  0  0  0  0
  6  7  1  0  0  0  0
  6 29  1  0  0  0  0
  7  8  1  0  0  0  0
  7 21  1  0  0  0  0
  8  9  1  0  0  0  0
  8 30  1  0  0  0  0
  8 31  1  0  0  0  0
  9 10  1  0  0  0  0
  9 11  1  0  0  0  0
  9 32  1  0  0  0  0
 10 33  1  0  0  0  0
 11 12  1  0  0  0  0
 11 34  1  0  0  0  0
 11 35  1  0  0  0  0
 12 20  1  0  0  0  0
 12 13  1  0  0  0  0
 12 53  1  0  0  0  0
 13 14  1  0  0  0  0
 13 36  1  0  0  0  0
 13 37  1  0  0  0  0
 14 15  1  0  0  0  0
 14 38  1  0  0  0  0
 14 39  1  0  0  0  0
 15 16  1  0  0  0  0
 15 19  1  0  0  0  0
 15 54  1  0  0  0  0
 16 17  1  0  0  0  0
 16 40  1  0  0  0  0
 16 41  1  0  0  0  0
 17 18  1  0  0  0  0
 17 42  1  0  0  0  0
 17 43  1  0  0  0  0
 18 44  1  0  0  0  0
 19 20  1  0  0  0  0
 19 45  1  0  0  0  0
 19 46  1  0  0  0  0
 20 47  1  0  0  0  0
 20 48  1  0  0  0  0
 21 22  1  0  0  0  0
 22 23  2  0  0  0  0
 22 49  1  0  0  0  0
 23 24  1  0  0  0  0
 24 50  1  0  0  0  0
 24 51  1  0  0  0  0
 24 52  1  0  0  0  0
M  CHG  1  12   1
M  CHG  1  15   1
M  END
> <s_m_source_file>
AV-unprocessed.smi

> <i_m_source_file_index>
1046

> <i_lp_mmshare_version>
43012

> <i_f3d_flags>
0

> <s_epik_input>
W0NIM11jKFtjSF0xKWMoW0NIM10pW2NIXWMoYzEyKW4oW2NIXW4yKVtDSDJdW0NASF0oW09IXSlbQ0gyXU4zW0NIMl1bQ0gyXU4oW0NIMl1bQ0gyXTMpW0NIMl1bQ0gyXVtPSF0=

> <s_epik_cmdline>
J2VwaWtfcHl0aG9uJywgJy1waCcsICc3LjAnLCAnLXRuJywgJzgnLCAnLW1hJywgJzIwMCcsICctbWV0YWxfYmluZGluZycsICctaW1hZScsICc8aW5maWxlLm1hZT4nLCAnLW9tYWUnLCAnPG91dGZpbGUubWFlPic=

> <r_epik_Ionization_Penalty>
3.17398

> <r_epik_Ionization_Penalty_Charging>
3.09061

> <r_epik_Ionization_Penalty_Neutral>
0.0833726

> <r_epik_State_Penalty>
2.17606

> <r_epik_Charging_Adjusted_Penalty>
5.26667

> <i_epik_Tot_Q>
2

> <i_epik_Tot_abs_Q>
2

> <r_epik_Metal_State_Penalty>
2.08587

> <b_epik_Metal_Only>
0

> <s_lp_Force_Field>
OPLS_2005

> <r_lp_Energy>
27.7872

> <b_lp_Chiralities_Consistent>
1

> <s_lp_Variant>
AV-unprocessed.smi:1046-8

> <Gold.Version>
5.8.1

> <Gold.Id.Protein>
6NUR|6NUR_protein|mol2

> <Gold.PLP.Fitness>
60.3651

> <Gold.PLP.PLP>
-47.5205

> <Gold.PLP.part.hbond>
-4.0642

> <Gold.PLP.part.metal>
0.0000

> <Gold.PLP.part.buried>
-1.7252

> <Gold.PLP.part.nonpolar>
-41.7842

> <Gold.PLP.part.repulsive>
0.0378

> <Gold.PLP.ligand.clash>
0.0000

> <Gold.PLP.ligand.torsion>
1.1380

> <Gold.PLP.Chemscore.Hbond>
5.0000

> <Gold.PLP.Chemscore.CHOScore>
0.0000

> <Gold.PLP.Chemscore.Metal>
0.0000

> <Gold.Chemscore.Hbonds>
donor molecule, donor type, donor heavy atom, donor atom, acceptor molecule, acceptor atom, score
      L1  H    10    33       P1  8028  0.23
      L1  H    15    54       P1 10175  1.95
      L1  H    18    44       P1 10175  0.89
      P1  H  7997  8010       L1     5  0.80

> <Gold.PLP.Chemscore.Internal.Correction>
0.1207

> <Gold.Rescore>
     Score         DG    S(hbond)    S(metal)    S(lipo)     H(rot)  DE(clash)    DE(int)     intcor
     19.77     -21.58       2.97        0.00     124.60       3.28       0.58       1.23       ----

> <Gold.Chemscore.Fitness>
19.7693

> <Gold.Chemscore.DG>
-21.5790

> <Gold.Chemscore.ZeroCoef>
-5.4800

> <Gold.Chemscore.Hbond>
2.9715

> <Gold.Chemscore.Metal>
0.0000

> <Gold.Chemscore.Lipo>
124.5984

> <Gold.Chemscore.Internal_Hbond>
0.0000

> <Gold.Chemscore.DEClash>
0.5835

> <Gold.Chemscore.DEInternal>
1.2262

> <Gold.Chemscore.Rot>
3.2828

> <Gold.Chemscore.Internal.Correction>
   9.000000E+99

> <Gold.Chemscore.Hbonds>
donor molecule, donor type, donor heavy atom, donor atom, acceptor molecule, acceptor atom, score
      L1  H    10    33       P1  8028  0.18
      L1  H    15    54       P1 10175  0.91
      L1  H    18    44       P1 10175  0.84
      P1  H  7997  8010       L1     5  0.09

> <Gold.Chemscore.Hbond.Weighted>
-9.9249

> <Gold.Chemscore.Metal.Weighted>
-0.0000

> <Gold.Chemscore.Lipo.Weighted>
-14.5780

> <Gold.Chemscore.Internal_Hbond.Weighted>
0.0000

> <Gold.Chemscore.DEClash.Weighted>
0.5835

> <Gold.Chemscore.DEInternal.Weighted>
1.2262

> <Gold.Chemscore.Rot.Weighted>
8.4039

> <Gold.Chemscore.Internal.Correction.Weighted>
   9.000000E+99

> <Gold.Protein.RotatedTorsions>
[ 6907 6896 6895 6894 ] final -165.20 input  -60.11 | X-H torsion
[ 7974 7965 7964 7962 ] final   -9.87 input  175.53 | X-H torsion
[ 8008 7997 7996 7995 ] final   43.53 input   59.86 | X-H torsion
[ 10167 10162 10161 10158 ] final  -89.28 input  -65.29 | X-H torsion
[ 10718 10713 10712 10709 ] final   83.46 input   66.30 | X-H torsion
[ 10763 10752 10751 10750 ] final  140.86 input  -60.55 | X-H torsion
[ 11005 11000 10999 10996 ] final  156.21 input  -57.11 | X-H torsion

> <Gold.Protein.ActiveResidues>
 VAL166  LYS551  ARG553  GLY616  TRP617  ASP618  TYR619  PRO620  LYS621  CYS622 
 ASP623  PHE694  ASN695  SER759  ASP760  ASP761  ALA762  ILE779  LEU786  VAL792 
 PHE793  MET794  SER795  GLU796  ALA797  LYS798  CYS799  TRP800  GLU811  SER814 

> <Gold.Protein.RotatedAtoms>
  151.4239  133.3690  159.2759 H   0  0  0  0  0  0  0  0  0  0  0  0  # atno 6907 bound_to 6896
  150.9273  134.8691  159.7539 H   0  0  0  0  0  0  0  0  0  0  0  0  # atno 6908 bound_to 6896
  152.5011  134.4182  159.9523 H   0  0  0  0  0  0  0  0  0  0  0  0  # atno 6909 bound_to 6896
  146.2238  140.2680  142.8355 H   0  0  0  0  0  0  0  0  0  0  0  0  # atno 7974 bound_to 7965
  155.3043  140.3387  155.4246 H   0  0  0  0  0  0  0  0  0  0  0  0  # atno 8008 bound_to 7997
  156.1986  140.1724  156.7985 H   0  0  0  0  0  0  0  0  0  0  0  0  # atno 8009 bound_to 7997
  154.5530  140.0702  156.8682 H   0  0  0  0  0  0  0  0  0  0  0  0  # atno 8010 bound_to 7997
  140.3664  143.2816  151.9554 H   0  0  0  0  0  0  0  0  0  0  0  0  # atno 10167 bound_to 10162
  157.6879  131.0091  150.2526 H   0  0  0  0  0  0  0  0  0  0  0  0  # atno 10718 bound_to 10713
  153.9298  135.2991  155.3446 H   0  0  0  0  0  0  0  0  0  0  0  0  # atno 10763 bound_to 10752
  154.7533  135.4970  153.9331 H   0  0  0  0  0  0  0  0  0  0  0  0  # atno 10764 bound_to 10752
  153.1098  135.6756  153.9626 H   0  0  0  0  0  0  0  0  0  0  0  0  # atno 10765 bound_to 10752
  140.1653  134.8581  157.2625 H   0  0  0  0  0  0  0  0  0  0  0  0  # atno 11005 bound_to 11000
  144.9289  140.7953  143.5701 LP  0  0  0  0  0  0  0  0  0  0  0  0  # atno 17320 bound_to 7965
  145.2622  139.1987  143.4886 LP  0  0  0  0  0  0  0  0  0  0  0  0  # atno 17321 bound_to 7965
  139.4808  144.5947  151.7711 LP  0  0  0  0  0  0  0  0  0  0  0  0  # atno 17342 bound_to 10162
  140.5077  144.1073  150.5987 LP  0  0  0  0  0  0  0  0  0  0  0  0  # atno 17343 bound_to 10162
  156.3120  130.3773  149.7653 LP  0  0  0  0  0  0  0  0  0  0  0  0  # atno 17370 bound_to 10713
  156.5250  130.8232  151.3217 LP  0  0  0  0  0  0  0  0  0  0  0  0  # atno 17371 bound_to 10713
  140.2441  134.3761  155.7468 LP  0  0  0  0  0  0  0  0  0  0  0  0  # atno 17394 bound_to 11000
  141.2213  133.7281  156.8834 LP  0  0  0  0  0  0  0  0  0  0  0  0  # atno 17395 bound_to 11000

$$$$
