#       Name:                AV-unprocessed.smi:1401
#       Creating user name   scv26
#       Creation time:       Fri Mar 27 05:32:04 2020


#       File generated by GOLD software.
#

@<TRIPOS>MOLECULE
AV-unprocessed.smi:1401
    54    56     1
SMALL
NO_CHARGES


@<TRIPOS>ATOM
      1 ****        -4.8337   2.4530   1.8426 C.3            1 S1                 0.0000
      2 ****        -4.2826   1.0523   1.8425 C.2            1 S1                 0.0000
      3 ****        -2.9963   0.9361   1.7960 N.2            1 S1                 0.0000
      4 ****        -2.3850  -0.3028   1.7938 N.am           1 S1                 0.0000
      5 ****        -0.9176  -0.2458   1.7171 C.3            1 S1                 0.0000
      6 ****        -0.3645  -0.4915   0.3052 C.2            1 S1                 0.0000
      7 ****        -1.1043  -0.4619  -0.6795 O.2            1 S1                 0.0000
      8 ****         0.9555  -0.7216   0.2289 N.am           1 S1                 0.0000
      9 ****         1.7078  -0.9819  -0.9978 C.3            1 S1                 0.0000
     10 ****         1.8348  -2.5048  -1.1805 C.3            1 S1                 0.0000
     11 ****         3.0796  -0.2657  -0.9278 C.3            1 S1                 0.0000
     12 ****         2.9722   1.2628  -0.6935 C.3            1 S1                 0.0000
     13 ****         3.8060   1.8593  -1.8407 C.3            1 S1                 0.0000
     14 ****         5.2961   1.5477  -1.6130 C.3            1 S1                 0.0000
     15 ****         5.3747   0.0395  -1.9140 C.3            1 S1                 0.0000
     16 ****         3.9111  -0.3206  -2.2352 C.3            1 S1                 0.0000
     17 ****         3.4544   0.9244  -2.9893 C.3            1 S1                 0.0000
     18 ****        -3.0459  -1.4950   1.8542 C.2            1 S1                 0.0000
     19 ****        -2.4590  -2.5782   1.8636 O.2            1 S1                 0.0000
     20 ****        -4.5030  -1.3559   1.9032 C.2            1 S1                 0.0000
     21 ****        -5.2345  -2.5800   1.9654 C.1            1 S1                 0.0000
     22 ****        -5.8447  -3.5623   2.0227 N.1            1 S1                 0.0000
     23 ****        -5.1153  -0.1455   1.8919 C.2            1 S1                 0.0000
     24 ****        -6.6245   0.0486   1.9431 C.3            1 S1                 0.0000
     25 ****        -5.5242   2.5998   2.6735 H              1 S1                 0.0000
     26 ****        -5.3704   2.6562   0.9155 H              1 S1                 0.0000
     27 ****        -4.0442   3.2002   1.9378 H              1 S1                 0.0000
     28 ****        -0.5607   0.7290   2.0547 H              1 S1                 0.0000
     29 ****        -0.4801  -0.9704   2.4065 H              1 S1                 0.0000
     30 ****         1.4829  -0.7216   1.0899 H              1 S1                 0.0000
     31 ****         1.1577  -0.5824  -1.8513 H              1 S1                 0.0000
     32 ****         2.3124  -2.7632  -2.1247 H              1 S1                 0.0000
     33 ****         0.8539  -2.9814  -1.1803 H              1 S1                 0.0000
     34 ****         2.4201  -2.9534  -0.3772 H              1 S1                 0.0000
     35 ****         3.6519  -0.7167  -0.1152 H              1 S1                 0.0000
     36 ****         1.9408   1.6095  -0.7723 H              1 S1                 0.0000
     37 ****         3.3441   1.5589   0.2880 H              1 S1                 0.0000
     38 ****         3.6025   2.9142  -2.0265 H              1 S1                 0.0000
     39 ****         5.9231   2.1100  -2.3061 H              1 S1                 0.0000
     40 ****         5.6172   1.7882  -0.5989 H              1 S1                 0.0000
     41 ****         6.0150  -0.1443  -2.7777 H              1 S1                 0.0000
     42 ****         5.7738  -0.5341  -1.0768 H              1 S1                 0.0000
     43 ****         3.8217  -1.2494  -2.7969 H              1 S1                 0.0000
     44 ****         2.3918   0.9220  -3.2372 H              1 S1                 0.0000
     45 ****         4.0312   1.1178  -3.8955 H              1 S1                 0.0000
     46 ****        -7.1625  -0.8854   1.7834 H              1 S1                 0.0000
     47 ****        -6.9563   0.7450   1.1725 H              1 S1                 0.0000
     48 ****        -6.9216   0.4423   2.9156 H              1 S1                 0.0000
     49 ****        -2.4315   1.7605   1.7609 LP             1 S1                 0.0000
     50 ****        -2.0803  -0.2759  -0.5662 LP             1 S1                 0.0000
     51 ****        -0.7288  -0.6239  -1.5920 LP             1 S1                 0.0000
     52 ****        -1.4601  -2.6060   1.8262 LP             1 S1                 0.0000
     53 ****        -2.9816  -3.4296   1.9087 LP             1 S1                 0.0000
     54 ****        -6.3718  -4.4107   2.0722 LP             1 S1                 0.0000
@<TRIPOS>BOND
    1    1    2 1     
    2    1   25 1     
    3    1   26 1     
    4    1   27 1     
    5    2   23 1     
    6    2    3 2     
    7    3    4 1     
    8    4    5 1     
    9    4   18 am    
   10    5    6 1     
   11    5   28 1     
   12    5   29 1     
   13    6    7 2     
   14    6    8 am    
   15    8    9 1     
   16    8   30 1     
   17    9   10 1     
   18    9   11 1     
   19    9   31 1     
   20   10   32 1     
   21   10   33 1     
   22   10   34 1     
   23   11   16 1     
   24   11   12 1     
   25   11   35 1     
   26   12   13 1     
   27   12   36 1     
   28   12   37 1     
   29   13   17 1     
   30   13   14 1     
   31   13   38 1     
   32   14   15 1     
   33   14   39 1     
   34   14   40 1     
   35   15   16 1     
   36   15   41 1     
   37   15   42 1     
   38   16   17 1     
   39   16   43 1     
   40   17   44 1     
   41   17   45 1     
   42   18   19 2     
   43   18   20 1     
   44   20   21 1     
   45   20   23 2     
   46   21   22 3     
   47   23   24 1     
   48   24   46 1     
   49   24   47 1     
   50   24   48 1     
   51    3   49 1     
   52    7   50 1     
   53    7   51 1     
   54   19   52 1     
   55   19   53 1     
   56   22   54 1     
@<TRIPOS>SUBSTRUCTURE
      1 S1             1
@<TRIPOS>SET
LONE_PAIRS      STATIC     ATOMS    <user>   **** ""
6 49 50 51 52 53 54
DONOR_HYDROGENS      STATIC     ATOMS    <user>   **** ""
1 30
ATOM$BLUE        STATIC     ATOMS    COLORGROUP SYSTEM
6 49 50 51 52 53 54
ATOM$RED        STATIC     ATOMS    COLORGROUP SYSTEM
1 30
