#       Name:                AV-unprocessed.smi:1114
#       Creating user name   scv26
#       Creation time:       Fri Mar 27 03:34:50 2020


#       File generated by GOLD software.
#

@<TRIPOS>MOLECULE
AV-unprocessed.smi:1114
    58    60     1
SMALL
NO_CHARGES


@<TRIPOS>ATOM
      1 ****        -6.3244  -4.5197  -2.1331 C.3            1 S1                 0.0000
      2 ****        -6.1548  -4.3994  -0.6169 C.2            1 S1                 0.0000
      3 ****        -6.3564  -5.4022   0.0684 O.2            1 S1                 0.0000
      4 ****        -5.7898  -3.2088  -0.0832 N.am           1 S1                 0.0000
      5 ****        -5.5393  -3.0243   1.3512 C.3            1 S1                 0.0000
      6 ****        -4.0320  -2.8003   1.5700 C.3            1 S1                 0.0000
      7 ****        -3.5103  -1.6131   0.7321 C.3            1 S1                 0.0000
      8 ****        -2.0548  -1.5473   0.8300 N.am           1 S1                 0.0000
      9 ****        -1.3125  -0.4532   0.6062 C.2            1 S1                 0.0000
     10 ****        -1.7866   0.6355   0.2823 O.2            1 S1                 0.0000
     11 ****        -0.0057  -0.7018   0.8006 N.am           1 S1                 0.0000
     12 ****         1.0927   0.1834   0.6299 C.ar           1 S1                 0.0000
     13 ****         2.2998  -0.1232   1.2910 C.ar           1 S1                 0.0000
     14 ****         3.4206   0.7178   1.1329 C.ar           1 S1                 0.0000
     15 ****         3.3340   1.8601   0.2977 C.ar           1 S1                 0.0000
     16 ****         4.4011   2.7595   0.0775 N.3            1 S1                 0.0000
     17 ****         5.6052   2.6050   0.8963 C.3            1 S1                 0.0000
     18 ****         6.4891   3.8629   0.8402 C.3            1 S1                 0.0000
     19 ****         6.8027   4.2556  -0.6099 C.3            1 S1                 0.0000
     20 ****         5.4955   4.4339  -1.3943 C.3            1 S1                 0.0000
     21 ****         4.6228   3.1700  -1.3127 C.3            1 S1                 0.0000
     22 ****         2.1555   2.1047  -0.3248 N.pl3          1 S1                 1.0000
     23 ****         1.0569   1.3298  -0.1979 C.ar           1 S1                 0.0000
     24 ****        -3.9583  -1.7275  -0.7437 C.3            1 S1                 0.0000
     25 ****        -5.4699  -1.9971  -0.8480 C.3            1 S1                 0.0000
     26 ****        -5.3976  -4.2654  -2.6483 H              1 S1                 0.0000
     27 ****        -7.1195  -3.8624  -2.4859 H              1 S1                 0.0000
     28 ****        -6.5897  -5.5404  -2.4106 H              1 S1                 0.0000
     29 ****        -6.1032  -2.1617   1.7088 H              1 S1                 0.0000
     30 ****        -5.8783  -3.8693   1.9518 H              1 S1                 0.0000
     31 ****        -3.8321  -2.6286   2.6283 H              1 S1                 0.0000
     32 ****        -3.4950  -3.7105   1.2978 H              1 S1                 0.0000
     33 ****        -3.9360  -0.6996   1.1519 H              1 S1                 0.0000
     34 ****        -1.5813  -2.3989   1.0942 H              1 S1                 0.0000
     35 ****         0.2247  -1.6197   1.1521 H              1 S1                 0.0000
     36 ****         2.3705  -0.9977   1.9215 H              1 S1                 0.0000
     37 ****         4.3331   0.4597   1.6483 H              1 S1                 0.0000
     38 ****         5.3340   2.4213   1.9363 H              1 S1                 0.0000
     39 ****         6.1662   1.7373   0.5466 H              1 S1                 0.0000
     40 ****         5.9794   4.6891   1.3383 H              1 S1                 0.0000
     41 ****         7.4146   3.6935   1.3915 H              1 S1                 0.0000
     42 ****         7.3865   5.1762  -0.6341 H              1 S1                 0.0000
     43 ****         7.4138   3.4831  -1.0785 H              1 S1                 0.0000
     44 ****         4.9428   5.2854  -0.9946 H              1 S1                 0.0000
     45 ****         5.7137   4.6685  -2.4364 H              1 S1                 0.0000
     46 ****         5.1080   2.3493  -1.8426 H              1 S1                 0.0000
     47 ****         3.6840   3.3653  -1.8303 H              1 S1                 0.0000
     48 ****         0.2038   1.6543  -0.7743 H              1 S1                 0.0000
     49 ****        -3.7095  -0.8147  -1.2859 H              1 S1                 0.0000
     50 ****        -3.4158  -2.5364  -1.2354 H              1 S1                 0.0000
     51 ****        -5.7647  -2.0492  -1.8950 H              1 S1                 0.0000
     52 ****        -6.0260  -1.1554  -0.4326 H              1 S1                 0.0000
     53 ****         2.0927   2.9256  -0.9272 H              1 S1                 0.0000
     54 ****        -6.6223  -6.2614  -0.3687 LP             1 S1                 0.0000
     55 ****        -6.2542  -5.3575   1.0622 LP             1 S1                 0.0000
     56 ****        -2.7754   0.7377   0.1731 LP             1 S1                 0.0000
     57 ****        -1.1830   1.4178   0.1284 LP             1 S1                 0.0000
     58 ****         4.0126   3.5823   0.4924 LP             1 S1                 0.0000
@<TRIPOS>BOND
    1    1    2 1     
    2    1   26 1     
    3    1   27 1     
    4    1   28 1     
    5    2    3 2     
    6    2    4 am    
    7    4   25 1     
    8    4    5 1     
    9    5    6 1     
   10    5   29 1     
   11    5   30 1     
   12    6    7 1     
   13    6   31 1     
   14    6   32 1     
   15    7    8 1     
   16    7   24 1     
   17    7   33 1     
   18    8    9 am    
   19    8   34 1     
   20    9   10 2     
   21    9   11 am    
   22   11   12 1     
   23   11   35 1     
   24   12   23 ar    
   25   12   13 ar    
   26   13   14 ar    
   27   13   36 1     
   28   14   15 ar    
   29   14   37 1     
   30   15   16 1     
   31   15   22 ar    
   32   16   21 1     
   33   16   17 1     
   34   17   18 1     
   35   17   38 1     
   36   17   39 1     
   37   18   19 1     
   38   18   40 1     
   39   18   41 1     
   40   19   20 1     
   41   19   42 1     
   42   19   43 1     
   43   20   21 1     
   44   20   44 1     
   45   20   45 1     
   46   21   46 1     
   47   21   47 1     
   48   22   23 ar    
   49   22   53 1     
   50   23   48 1     
   51   24   25 1     
   52   24   49 1     
   53   24   50 1     
   54   25   51 1     
   55   25   52 1     
   56    3   54 1     
   57    3   55 1     
   58   10   56 1     
   59   10   57 1     
   60   16   58 1     
@<TRIPOS>SUBSTRUCTURE
      1 S1             1
@<TRIPOS>SET
LONE_PAIRS      STATIC     ATOMS    <user>   **** ""
5 54 55 56 57 58
DONOR_HYDROGENS      STATIC     ATOMS    <user>   **** ""
3 34 35 53
ATOM$BLUE        STATIC     ATOMS    COLORGROUP SYSTEM
5 54 55 56 57 58
ATOM$RED        STATIC     ATOMS    COLORGROUP SYSTEM
3 34 35 53
