AV-unprocessed.smi:946|AV-procd|sdf|4235|dock10
  -GOLD-   22720 2143D 1   1.00000     0.00000
 Structure written by MMmdl.
 42 43  0  0  0  0  0  0  0  0  1 V2000
  150.6050  138.6892  154.0714 C   0  0  0  0  0  0  0  0  0  0  0  0
  150.5804  140.0118  154.8515 C   0  0  1  0  0  0  0  0  0  0  0  0
  149.2210  140.2982  155.1682 O   0  0  0  0  0  0  0  0  0  0  0  0
  148.5803  141.2401  154.3151 C   0  0  0  0  0  0  0  0  0  0  0  0
  147.1868  141.5465  154.8797 C   0  0  2  0  0  0  0  0  0  0  0  0
  146.4496  142.6155  154.0495 C   0  0  0  0  0  0  0  0  0  0  0  0
  145.0988  142.9569  154.6891 C   0  0  0  0  0  0  0  0  0  0  0  0
  145.3043  143.3380  156.1590 C   0  0  0  0  0  0  0  0  0  0  0  0
  146.1117  142.2510  156.8862 C   0  0  0  0  0  0  0  0  0  0  0  0
  147.3466  142.0309  156.2117 O   0  0  0  0  0  0  0  0  0  0  0  0
  151.4162  139.9151  156.1377 C   0  0  0  0  0  0  0  0  0  0  0  0
  151.9548  138.8483  156.4351 O   0  0  0  0  0  0  0  0  0  0  0  0
  151.4896  141.0410  156.8722 N   0  0  0  0  0  0  0  0  0  0  0  0
  152.1607  141.2431  158.1068 C   0  0  0  0  0  0  0  0  0  0  0  0
  151.7770  142.4029  158.8154 C   0  0  0  0  0  0  0  0  0  0  0  0
  152.3823  142.6886  160.0538 C   0  0  0  0  0  0  0  0  0  0  0  0
  153.3544  141.8052  160.5554 C   0  0  0  0  0  0  0  0  0  0  0  0
  153.6816  140.6659  159.7896 C   0  0  0  0  0  0  0  0  0  0  0  0
  154.7174  139.6556  160.2627 C   0  0  0  0  0  0  0  0  0  0  0  0
  154.8301  138.6736  159.3677 F   0  0  0  0  0  0  0  0  0  0  0  0
  155.9159  140.2175  160.4258 F   0  0  0  0  0  0  0  0  0  0  0  0
  154.3351  139.1338  161.4285 F   0  0  0  0  0  0  0  0  0  0  0  0
  153.0992  140.3978  158.5990 N   0  0  0  0  0  0  0  0  0  0  0  0
  151.6235  138.4075  153.8014 H   0  0  0  0  0  0  0  0  0  0  0  0
  150.0324  138.7751  153.1478 H   0  0  0  0  0  0  0  0  0  0  0  0
  150.1732  137.8718  154.6505 H   0  0  0  0  0  0  0  0  0  0  0  0
  150.9761  140.7979  154.2054 H   0  0  0  0  0  0  0  0  0  0  0  0
  149.1556  142.1613  154.2154 H   0  0  0  0  0  0  0  0  0  0  0  0
  148.4873  140.8037  153.3196 H   0  0  0  0  0  0  0  0  0  0  0  0
  146.5981  140.6272  154.8893 H   0  0  0  0  0  0  0  0  0  0  0  0
  147.0605  143.5170  153.9836 H   0  0  0  0  0  0  0  0  0  0  0  0
  146.2983  142.2649  153.0282 H   0  0  0  0  0  0  0  0  0  0  0  0
  144.6155  143.7709  154.1483 H   0  0  0  0  0  0  0  0  0  0  0  0
  144.4329  142.0956  154.6220 H   0  0  0  0  0  0  0  0  0  0  0  0
  145.8369  144.2879  156.2199 H   0  0  0  0  0  0  0  0  0  0  0  0
  144.3417  143.4861  156.6494 H   0  0  0  0  0  0  0  0  0  0  0  0
  146.3202  142.5613  157.9101 H   0  0  0  0  0  0  0  0  0  0  0  0
  145.5470  141.3192  156.9453 H   0  0  0  0  0  0  0  0  0  0  0  0
  151.0098  141.8475  156.5007 H   0  0  0  0  0  0  0  0  0  0  0  0
  151.0269  143.0710  158.4173 H   0  0  0  0  0  0  0  0  0  0  0  0
  152.1034  143.5711  160.6101 H   0  0  0  0  0  0  0  0  0  0  0  0
  153.8302  142.0034  161.5044 H   0  0  0  0  0  0  0  0  0  0  0  0
  1  2  1  0  0  0  0
  1 24  1  0  0  0  0
  1 25  1  0  0  0  0
  1 26  1  0  0  0  0
  2  3  1  0  0  0  0
  2 11  1  0  0  0  0
  2 27  1  0  0  0  0
  3  4  1  0  0  0  0
  4  5  1  0  0  0  0
  4 28  1  0  0  0  0
  4 29  1  0  0  0  0
  5 10  1  0  0  0  0
  5  6  1  0  0  0  0
  5 30  1  0  0  0  0
  6  7  1  0  0  0  0
  6 31  1  0  0  0  0
  6 32  1  0  0  0  0
  7  8  1  0  0  0  0
  7 33  1  0  0  0  0
  7 34  1  0  0  0  0
  8  9  1  0  0  0  0
  8 35  1  0  0  0  0
  8 36  1  0  0  0  0
  9 10  1  0  0  0  0
  9 37  1  0  0  0  0
  9 38  1  0  0  0  0
 11 12  2  0  0  0  0
 11 13  1  0  0  0  0
 13 14  1  0  0  0  0
 13 39  1  0  0  0  0
 14 23  1  0  0  0  0
 14 15  2  0  0  0  0
 15 16  1  0  0  0  0
 15 40  1  0  0  0  0
 16 17  2  0  0  0  0
 16 41  1  0  0  0  0
 17 18  1  0  0  0  0
 17 42  1  0  0  0  0
 18 19  1  0  0  0  0
 18 23  2  0  0  0  0
 19 20  1  0  0  0  0
 19 21  1  0  0  0  0
 19 22  1  0  0  0  0
M  END
> <s_m_source_file>
AV-unprocessed.smi

> <i_m_source_file_index>
946

> <i_lp_mmshare_version>
43012

> <i_f3d_flags>
0

> <s_epik_input>
TzFbQ0gyXVtDSDJdW0NIMl1bQ0gyXVtDQEhdMVtDSDJdT1tDQEBIXShbQ0gzXSlDKD1PKVtOSF1jMltjSF1bY0hdW2NIXWMobjIpQyhGKShGKUY=

> <s_epik_cmdline>
J2VwaWtfcHl0aG9uJywgJy1waCcsICc3LjAnLCAnLXRuJywgJzgnLCAnLW1hJywgJzIwMCcsICctbWV0YWxfYmluZGluZycsICctaW1hZScsICc8aW5maWxlLm1hZT4nLCAnLW9tYWUnLCAnPG91dGZpbGUubWFlPic=

> <r_lp_tautomer_probability>
1

> <r_epik_Ionization_Penalty>
1.32683e-06

> <r_epik_Ionization_Penalty_Charging>
0

> <r_epik_Ionization_Penalty_Neutral>
1.32683e-06

> <r_epik_State_Penalty>
-0

> <r_epik_Charging_Adjusted_Penalty>
0

> <i_epik_Tot_Q>
0

> <i_epik_Tot_abs_Q>
0

> <r_epik_Metal_State_Penalty>
-0

> <b_epik_Metal_Only>
0

> <s_lp_Force_Field>
OPLS_2005

> <r_lp_Energy>
15.913

> <b_lp_Chiralities_Consistent>
1

> <s_lp_Variant>
AV-unprocessed.smi:946-2

> <Gold.Version>
5.8.1

> <Gold.Id.Protein>
6NUR|6NUR_protein|mol2

> <Gold.PLP.Fitness>
42.1322

> <Gold.PLP.PLP>
-41.6197

> <Gold.PLP.part.hbond>
-0.9764

> <Gold.PLP.part.metal>
0.0000

> <Gold.PLP.part.buried>
-3.8747

> <Gold.PLP.part.nonpolar>
-37.1401

> <Gold.PLP.part.repulsive>
1.0213

> <Gold.PLP.ligand.clash>
0.0000

> <Gold.PLP.ligand.torsion>
0.6517

> <Gold.PLP.Chemscore.Hbond>
0.5863

> <Gold.PLP.Chemscore.CHOScore>
0.0000

> <Gold.PLP.Chemscore.Metal>
0.0000

> <Gold.Chemscore.Hbonds>
donor molecule, donor type, donor heavy atom, donor atom, acceptor molecule, acceptor atom, score
      P1  H  7997  8008       L1    23  0.52

> <Gold.PLP.Chemscore.Internal.Correction>
0.0570

> <Gold.Rescore>
     Score         DG    S(hbond)    S(metal)    S(lipo)     H(rot)  DE(clash)    DE(int)     intcor
     10.74     -12.68       0.40        0.00      88.54       1.76       0.15       1.79       ----

> <Gold.Chemscore.Fitness>
10.7418

> <Gold.Chemscore.DG>
-12.6807

> <Gold.Chemscore.ZeroCoef>
-5.4800

> <Gold.Chemscore.Hbond>
0.4002

> <Gold.Chemscore.Metal>
0.0000

> <Gold.Chemscore.Lipo>
88.5353

> <Gold.Chemscore.Internal_Hbond>
0.0000

> <Gold.Chemscore.DEClash>
0.1496

> <Gold.Chemscore.DEInternal>
1.7893

> <Gold.Chemscore.Rot>
1.7557

> <Gold.Chemscore.Internal.Correction>
   9.000000E+99

> <Gold.Chemscore.Hbonds>
donor molecule, donor type, donor heavy atom, donor atom, acceptor molecule, acceptor atom, score
      P1  H  7997  8008       L1    23  0.26

> <Gold.Chemscore.Hbond.Weighted>
-1.3367

> <Gold.Chemscore.Metal.Weighted>
-0.0000

> <Gold.Chemscore.Lipo.Weighted>
-10.3586

> <Gold.Chemscore.Internal_Hbond.Weighted>
0.0000

> <Gold.Chemscore.DEClash.Weighted>
0.1496

> <Gold.Chemscore.DEInternal.Weighted>
1.7893

> <Gold.Chemscore.Rot.Weighted>
4.4946

> <Gold.Chemscore.Internal.Correction.Weighted>
   9.000000E+99

> <Gold.Protein.RotatedTorsions>
[ 6907 6896 6895 6894 ] final  -44.58 input  -60.11 | X-H torsion
[ 7974 7965 7964 7962 ] final  147.28 input  175.53 | X-H torsion
[ 8008 7997 7996 7995 ] final  -87.27 input   59.86 | X-H torsion
[ 10167 10162 10161 10158 ] final  -82.65 input  -65.29 | X-H torsion
[ 10718 10713 10712 10709 ] final -122.93 input   66.30 | X-H torsion
[ 10763 10752 10751 10750 ] final  -12.18 input  -60.55 | X-H torsion
[ 11005 11000 10999 10996 ] final   59.33 input  -57.11 | X-H torsion

> <Gold.Protein.ActiveResidues>
 VAL166  LYS551  ARG553  GLY616  TRP617  ASP618  TYR619  PRO620  LYS621  CYS622 
 ASP623  PHE694  ASN695  SER759  ASP760  ASP761  ALA762  ILE779  LEU786  VAL792 
 PHE793  MET794  SER795  GLU796  ALA797  LYS798  CYS799  TRP800  GLU811  SER814 

> <Gold.Protein.RotatedAtoms>
  150.9313  134.8728  159.7552 H   0  0  0  0  0  0  0  0  0  0  0  0  # atno 6907 bound_to 6896
  152.5039  134.4075  159.9447 H   0  0  0  0  0  0  0  0  0  0  0  0  # atno 6908 bound_to 6896
  151.4102  133.3690  159.2778 H   0  0  0  0  0  0  0  0  0  0  0  0  # atno 6909 bound_to 6896
  144.8604  139.6009  143.5933 H   0  0  0  0  0  0  0  0  0  0  0  0  # atno 7974 bound_to 7965
  154.6613  140.0568  157.0065 H   0  0  0  0  0  0  0  0  0  0  0  0  # atno 8008 bound_to 7997
  155.1224  140.3249  155.4475 H   0  0  0  0  0  0  0  0  0  0  0  0  # atno 8009 bound_to 7997
  156.2619  140.1995  156.6346 H   0  0  0  0  0  0  0  0  0  0  0  0  # atno 8010 bound_to 7997
  140.4300  143.2552  151.8773 H   0  0  0  0  0  0  0  0  0  0  0  0  # atno 10167 bound_to 10162
  156.1459  130.6500  150.9842 H   0  0  0  0  0  0  0  0  0  0  0  0  # atno 10718 bound_to 10713
  153.4946  135.7017  153.5865 H   0  0  0  0  0  0  0  0  0  0  0  0  # atno 10763 bound_to 10752
  153.4023  135.3869  155.1995 H   0  0  0  0  0  0  0  0  0  0  0  0  # atno 10764 bound_to 10752
  154.8714  135.3884  154.4410 H   0  0  0  0  0  0  0  0  0  0  0  0  # atno 10765 bound_to 10752
  140.0312  134.6009  155.9504 H   0  0  0  0  0  0  0  0  0  0  0  0  # atno 11005 bound_to 11000
  146.2856  139.6995  142.9198 LP  0  0  0  0  0  0  0  0  0  0  0  0  # atno 17320 bound_to 7965
  145.4323  141.0416  143.2904 LP  0  0  0  0  0  0  0  0  0  0  0  0  # atno 17321 bound_to 7965
  139.4784  144.5345  151.8618 LP  0  0  0  0  0  0  0  0  0  0  0  0  # atno 17342 bound_to 10162
  140.4438  144.1949  150.5893 LP  0  0  0  0  0  0  0  0  0  0  0  0  # atno 17343 bound_to 10162
  157.6616  131.0879  150.7824 LP  0  0  0  0  0  0  0  0  0  0  0  0  # atno 17370 bound_to 10713
  156.7896  130.4886  149.5387 LP  0  0  0  0  0  0  0  0  0  0  0  0  # atno 17371 bound_to 10713
  141.1832  133.6550  156.5107 LP  0  0  0  0  0  0  0  0  0  0  0  0  # atno 17394 bound_to 11000
  140.4222  134.7177  157.4896 LP  0  0  0  0  0  0  0  0  0  0  0  0  # atno 17395 bound_to 11000

$$$$
