AV-unprocessed.smi:2450|AV-procd|sdf|9668|dock8
  -GOLD-   2272013303D 1   1.00000     0.00000
 Structure written by MMmdl.
 42 43  0  0  0  0  0  0  0  0  2 V2000
  153.0776  142.3586  159.6275 C   0  0  0  0  0  0  0  0  0  0  0  0
  152.1527  142.3163  158.4023 C   0  0  0  0  0  0  0  0  0  0  0  0
  150.9898  143.3244  158.4673 C   0  0  1  0  0  0  0  0  0  0  0  0
  151.5028  144.7709  158.5564 C   0  0  0  0  0  0  0  0  0  0  0  0
  150.1206  143.1670  157.3027 N   0  0  0  0  0  0  0  0  0  0  0  0
  149.7605  141.9978  156.7541 C   0  0  0  0  0  0  0  0  0  0  0  0
  150.1058  140.9030  157.1971 O   0  0  0  0  0  0  0  0  0  0  0  0
  148.9708  142.1887  155.6838 N   0  0  0  0  0  0  0  0  0  0  0  0
  148.3757  141.2165  154.8286 C   0  0  0  0  0  0  0  0  0  0  0  0
  149.0432  140.0326  154.4209 C   0  0  0  0  0  0  0  0  0  0  0  0
  148.3948  139.1254  153.5599 C   0  0  0  0  0  0  0  0  0  0  0  0
  147.0946  139.4178  153.1094 C   0  0  0  0  0  0  0  0  0  0  0  0
  146.4925  140.5600  153.5008 N   0  3  0  0  0  0  0  0  0  0  0  0
  147.0718  141.4650  154.3277 C   0  0  0  0  0  0  0  0  0  0  0  0
  146.3568  142.6244  154.6745 N   0  0  0  0  0  0  0  0  0  0  0  0
  145.8881  143.4336  153.5618 C   0  0  0  0  0  0  0  0  0  0  0  0
  144.8416  144.3786  154.1582 C   0  0  0  0  0  0  0  0  0  0  0  0
  144.3900  143.6993  155.4571 C   0  0  0  0  0  0  0  0  0  0  0  0
  145.2010  142.4029  155.5265 C   0  0  0  0  0  0  0  0  0  0  0  0
  153.9082  141.6625  159.5084 H   0  0  0  0  0  0  0  0  0  0  0  0
  152.5493  142.0852  160.5411 H   0  0  0  0  0  0  0  0  0  0  0  0
  153.4977  143.3548  159.7681 H   0  0  0  0  0  0  0  0  0  0  0  0
  152.7488  142.5168  157.5112 H   0  0  0  0  0  0  0  0  0  0  0  0
  151.7605  141.3056  158.2816 H   0  0  0  0  0  0  0  0  0  0  0  0
  150.4137  143.1105  159.3698 H   0  0  0  0  0  0  0  0  0  0  0  0
  152.1437  144.9055  159.4283 H   0  0  0  0  0  0  0  0  0  0  0  0
  150.6791  145.4799  158.6458 H   0  0  0  0  0  0  0  0  0  0  0  0
  152.0821  145.0426  157.6734 H   0  0  0  0  0  0  0  0  0  0  0  0
  149.7825  144.0169  156.8758 H   0  0  0  0  0  0  0  0  0  0  0  0
  148.7095  143.1456  155.4956 H   0  0  0  0  0  0  0  0  0  0  0  0
  150.0489  139.8060  154.7393 H   0  0  0  0  0  0  0  0  0  0  0  0
  148.8924  138.2193  153.2460 H   0  0  0  0  0  0  0  0  0  0  0  0
  146.5247  138.7811  152.4478 H   0  0  0  0  0  0  0  0  0  0  0  0
  146.7103  143.9838  153.1032 H   0  0  0  0  0  0  0  0  0  0  0  0
  145.4321  142.8074  152.7937 H   0  0  0  0  0  0  0  0  0  0  0  0
  145.2887  145.3479  154.3824 H   0  0  0  0  0  0  0  0  0  0  0  0
  144.0146  144.5467  153.4675 H   0  0  0  0  0  0  0  0  0  0  0  0
  144.6228  144.3380  156.3100 H   0  0  0  0  0  0  0  0  0  0  0  0
  143.3176  143.5027  155.4728 H   0  0  0  0  0  0  0  0  0  0  0  0
  144.6065  141.5673  155.1543 H   0  0  0  0  0  0  0  0  0  0  0  0
  145.5035  142.1726  156.5485 H   0  0  0  0  0  0  0  0  0  0  0  0
  145.5519  140.7518  153.1555 H   0  0  0  0  0  0  0  0  0  0  0  0
  1  2  1  0  0  0  0
  1 20  1  0  0  0  0
  1 21  1  0  0  0  0
  1 22  1  0  0  0  0
  2  3  1  0  0  0  0
  2 23  1  0  0  0  0
  2 24  1  0  0  0  0
  3  4  1  0  0  0  0
  3  5  1  0  0  0  0
  3 25  1  0  0  0  0
  4 26  1  0  0  0  0
  4 27  1  0  0  0  0
  4 28  1  0  0  0  0
  5  6  1  0  0  0  0
  5 29  1  0  0  0  0
  6  7  2  0  0  0  0
  6  8  1  0  0  0  0
  8  9  1  0  0  0  0
  8 30  1  0  0  0  0
  9 14  1  0  0  0  0
  9 10  2  0  0  0  0
 10 11  1  0  0  0  0
 10 31  1  0  0  0  0
 11 12  2  0  0  0  0
 11 32  1  0  0  0  0
 12 13  1  0  0  0  0
 12 33  1  0  0  0  0
 13 14  2  0  0  0  0
 13 42  1  0  0  0  0
 14 15  1  0  0  0  0
 15 19  1  0  0  0  0
 15 16  1  0  0  0  0
 16 17  1  0  0  0  0
 16 34  1  0  0  0  0
 16 35  1  0  0  0  0
 17 18  1  0  0  0  0
 17 36  1  0  0  0  0
 17 37  1  0  0  0  0
 18 19  1  0  0  0  0
 18 38  1  0  0  0  0
 18 39  1  0  0  0  0
 19 40  1  0  0  0  0
 19 41  1  0  0  0  0
M  CHG  1  13   1
M  END
> <s_m_source_file>
AV-unprocessed.smi

> <i_m_source_file_index>
2450

> <i_lp_mmshare_version>
43012

> <i_f3d_flags>
0

> <s_epik_input>
W0NIM11bQ0gyXVtDQEhdKFtDSDNdKVtOSF1DKD1PKVtOSF1jMVtjSF1bY0hdW2NIXW5jMU4yW0NIMl1bQ0gyXVtDSDJdW0NIMl0y

> <s_epik_cmdline>
J2VwaWtfcHl0aG9uJywgJy1waCcsICc3LjAnLCAnLXRuJywgJzgnLCAnLW1hJywgJzIwMCcsICctbWV0YWxfYmluZGluZycsICctaW1hZScsICc8aW5maWxlLm1hZT4nLCAnLW9tYWUnLCAnPG91dGZpbGUubWFlPic=

> <r_lp_tautomer_probability>
0.999994

> <r_epik_Ionization_Penalty>
1.08838

> <r_epik_Ionization_Penalty_Charging>
1.08836

> <r_epik_Ionization_Penalty_Neutral>
2.1796e-05

> <r_epik_State_Penalty>
1.14442

> <r_epik_Charging_Adjusted_Penalty>
2.23278

> <i_epik_Tot_Q>
1

> <i_epik_Tot_abs_Q>
1

> <r_epik_Metal_State_Penalty>
1.23344

> <b_epik_Metal_Only>
0

> <s_lp_Force_Field>
OPLS_2005

> <r_lp_Energy>
41.1125

> <b_lp_Chiralities_Consistent>
1

> <s_lp_Variant>
AV-unprocessed.smi:2450-4

> <Gold.Version>
5.8.1

> <Gold.Id.Protein>
6NUR|6NUR_protein|mol2

> <Gold.PLP.Fitness>
47.2847

> <Gold.PLP.PLP>
-36.5162

> <Gold.PLP.part.hbond>
-3.0000

> <Gold.PLP.part.metal>
0.0000

> <Gold.PLP.part.buried>
-3.1175

> <Gold.PLP.part.nonpolar>
-30.0693

> <Gold.PLP.part.repulsive>
0.3753

> <Gold.PLP.ligand.clash>
0.0000

> <Gold.PLP.ligand.torsion>
0.6261

> <Gold.PLP.Chemscore.Hbond>
3.9920

> <Gold.PLP.Chemscore.CHOScore>
0.0000

> <Gold.PLP.Chemscore.Metal>
0.0000

> <Gold.Chemscore.Hbonds>
donor molecule, donor type, donor heavy atom, donor atom, acceptor molecule, acceptor atom, score
      L1  H     5    29       P1  8028  0.98
      L1  H     8    30       P1  8028  1.00
      L1  H    13    42       P1 10175  2.00

> <Gold.PLP.Chemscore.Internal.Correction>
0.0447

> <Gold.Rescore>
     Score         DG    S(hbond)    S(metal)    S(lipo)     H(rot)  DE(clash)    DE(int)     intcor
     20.15     -22.29       2.89        0.00      90.50       1.34       0.02       2.12       ----

> <Gold.Chemscore.Fitness>
20.1484

> <Gold.Chemscore.DG>
-22.2914

> <Gold.Chemscore.ZeroCoef>
-5.4800

> <Gold.Chemscore.Hbond>
2.8895

> <Gold.Chemscore.Metal>
0.0000

> <Gold.Chemscore.Lipo>
90.5047

> <Gold.Chemscore.Internal_Hbond>
0.0000

> <Gold.Chemscore.DEClash>
0.0197

> <Gold.Chemscore.DEInternal>
2.1233

> <Gold.Chemscore.Rot>
1.3393

> <Gold.Chemscore.Internal.Correction>
   9.000000E+99

> <Gold.Chemscore.Hbonds>
donor molecule, donor type, donor heavy atom, donor atom, acceptor molecule, acceptor atom, score
      L1  H     5    29       P1  8028  0.86
      L1  H     8    30       P1  8028  0.95
      L1  H    13    42       P1 10175  0.67

> <Gold.Chemscore.Hbond.Weighted>
-9.6509

> <Gold.Chemscore.Metal.Weighted>
-0.0000

> <Gold.Chemscore.Lipo.Weighted>
-10.5891

> <Gold.Chemscore.Internal_Hbond.Weighted>
0.0000

> <Gold.Chemscore.DEClash.Weighted>
0.0197

> <Gold.Chemscore.DEInternal.Weighted>
2.1233

> <Gold.Chemscore.Rot.Weighted>
3.4285

> <Gold.Chemscore.Internal.Correction.Weighted>
   9.000000E+99

> <Gold.Protein.RotatedTorsions>
[ 6907 6896 6895 6894 ] final    5.82 input  -60.11 | X-H torsion
[ 7974 7965 7964 7962 ] final   73.59 input  175.53 | X-H torsion
[ 8008 7997 7996 7995 ] final   14.25 input   59.86 | X-H torsion
[ 10167 10162 10161 10158 ] final  -96.53 input  -65.29 | X-H torsion
[ 10718 10713 10712 10709 ] final  124.74 input   66.30 | X-H torsion
[ 10763 10752 10751 10750 ] final  -45.00 input  -60.55 | X-H torsion
[ 11005 11000 10999 10996 ] final    1.81 input  -57.11 | X-H torsion

> <Gold.Protein.ActiveResidues>
 VAL166  LYS551  ARG553  GLY616  TRP617  ASP618  TYR619  PRO620  LYS621  CYS622 
 ASP623  PHE694  ASN695  SER759  ASP760  ASP761  ALA762  ILE779  LEU786  VAL792 
 PHE793  MET794  SER795  GLU796  ALA797  LYS798  CYS799  TRP800  GLU811  SER814 

> <Gold.Protein.RotatedAtoms>
  151.6637  135.0986  160.0184 H   0  0  0  0  0  0  0  0  0  0  0  0  # atno 6907 bound_to 6896
  152.3931  133.6704  159.6263 H   0  0  0  0  0  0  0  0  0  0  0  0  # atno 6908 bound_to 6896
  150.7843  133.8836  159.3334 H   0  0  0  0  0  0  0  0  0  0  0  0  # atno 6909 bound_to 6896
  145.7390  139.2713  143.1497 H   0  0  0  0  0  0  0  0  0  0  0  0  # atno 7974 bound_to 7965
  154.8458  140.2922  155.5630 H   0  0  0  0  0  0  0  0  0  0  0  0  # atno 8008 bound_to 7997
  156.3014  140.2505  156.3340 H   0  0  0  0  0  0  0  0  0  0  0  0  # atno 8009 bound_to 7997
  154.9075  140.0389  157.1917 H   0  0  0  0  0  0  0  0  0  0  0  0  # atno 8010 bound_to 7997
  140.2929  143.3210  152.0327 H   0  0  0  0  0  0  0  0  0  0  0  0  # atno 10167 bound_to 10162
  157.5560  131.1092  150.8620 H   0  0  0  0  0  0  0  0  0  0  0  0  # atno 10718 bound_to 10713
  154.0213  135.6669  153.4773 H   0  0  0  0  0  0  0  0  0  0  0  0  # atno 10763 bound_to 10752
  153.0579  135.5045  154.8020 H   0  0  0  0  0  0  0  0  0  0  0  0  # atno 10764 bound_to 10752
  154.6935  135.3066  154.9409 H   0  0  0  0  0  0  0  0  0  0  0  0  # atno 10765 bound_to 10752
  140.6113  133.9745  155.8179 H   0  0  0  0  0  0  0  0  0  0  0  0  # atno 11005 bound_to 11000
  146.0466  140.8112  142.9802 LP  0  0  0  0  0  0  0  0  0  0  0  0  # atno 17320 bound_to 7965
  144.6875  140.2990  143.7266 LP  0  0  0  0  0  0  0  0  0  0  0  0  # atno 17321 bound_to 7965
  139.4933  144.6512  151.6671 LP  0  0  0  0  0  0  0  0  0  0  0  0  # atno 17342 bound_to 10162
  140.5717  144.0097  150.6220 LP  0  0  0  0  0  0  0  0  0  0  0  0  # atno 17343 bound_to 10162
  156.9131  130.5288  149.5280 LP  0  0  0  0  0  0  0  0  0  0  0  0  # atno 17370 bound_to 10713
  156.0619  130.5670  150.9210 LP  0  0  0  0  0  0  0  0  0  0  0  0  # atno 17371 bound_to 10713
  141.0806  134.0068  157.3392 LP  0  0  0  0  0  0  0  0  0  0  0  0  # atno 17394 bound_to 11000
  139.9191  135.0199  156.7995 LP  0  0  0  0  0  0  0  0  0  0  0  0  # atno 17395 bound_to 11000

$$$$
