AV-unprocessed.smi:1722|AV-procd|sdf|6944|dock1
  -GOLD-   22720 8153D 1   1.00000     0.00000
 Structure written by MMmdl.
 38 39  0  0  0  0  0  0  0  0  2 V2000
  154.7388  140.6788  161.3221 O   0  0  0  0  0  0  0  0  0  0  0  0
  154.3558  139.7517  160.6094 C   0  0  0  0  0  0  0  0  0  0  0  0
  154.8928  138.3448  160.8664 C   0  0  0  0  0  0  0  0  0  0  0  0
  154.2465  137.8105  162.0145 O   0  0  0  0  0  0  0  0  0  0  0  0
  154.7218  136.5352  162.4221 C   0  0  0  0  0  0  0  0  0  0  0  0
  154.5893  135.5923  161.2129 C   0  0  0  0  0  0  0  0  0  0  0  0
  154.9985  134.1546  161.5708 C   0  0  0  0  0  0  0  0  0  0  0  0
  154.1862  133.6272  162.7641 C   0  0  0  0  0  0  0  0  0  0  0  0
  154.3128  134.5627  163.9769 C   0  0  0  0  0  0  0  0  0  0  0  0
  153.9055  136.0012  163.6180 C   0  0  0  0  0  0  0  0  0  0  0  0
  153.5029  139.8650  159.5722 N   0  0  0  0  0  0  0  0  0  0  0  0
  152.8049  140.9927  159.1082 C   0  0  0  0  0  0  0  0  0  0  0  0
  152.5695  142.1152  159.8423 C   0  0  0  0  0  0  0  0  0  0  0  0
  151.8193  143.2487  159.3161 C   0  0  0  0  0  0  0  0  0  0  0  0
  151.4702  144.4808  160.1322 C   0  0  0  0  0  0  0  0  0  0  0  0
  151.9731  144.3691  161.3607 F   0  0  0  0  0  0  0  0  0  0  0  0
  151.9733  145.5829  159.5759 F   0  0  0  0  0  0  0  0  0  0  0  0
  150.1493  144.6277  160.2357 F   0  0  0  0  0  0  0  0  0  0  0  0
  151.3675  143.0260  158.0298 C   0  0  0  0  0  0  0  0  0  0  0  0
  151.5626  141.9521  157.2333 N   0  5  0  0  0  0  0  0  0  0  0  0
  152.2726  140.9013  157.7329 C   0  0  0  0  0  0  0  0  0  0  0  0
  152.4782  139.8871  157.0651 O   0  0  0  0  0  0  0  0  0  0  0  0
  154.6944  137.7236  159.9918 H   0  0  0  0  0  0  0  0  0  0  0  0
  155.9729  138.3880  161.0081 H   0  0  0  0  0  0  0  0  0  0  0  0
  155.7775  136.6002  162.6926 H   0  0  0  0  0  0  0  0  0  0  0  0
  153.5588  135.5974  160.8548 H   0  0  0  0  0  0  0  0  0  0  0  0
  155.2035  135.9573  160.3889 H   0  0  0  0  0  0  0  0  0  0  0  0
  154.8577  133.5023  160.7083 H   0  0  0  0  0  0  0  0  0  0  0  0
  156.0621  134.1258  161.8104 H   0  0  0  0  0  0  0  0  0  0  0  0
  153.1369  133.5368  162.4806 H   0  0  0  0  0  0  0  0  0  0  0  0
  154.5222  132.6247  163.0299 H   0  0  0  0  0  0  0  0  0  0  0  0
  153.6946  134.1949  164.7960 H   0  0  0  0  0  0  0  0  0  0  0  0
  155.3418  134.5547  164.3386 H   0  0  0  0  0  0  0  0  0  0  0  0
  154.0381  136.6393  164.4910 H   0  0  0  0  0  0  0  0  0  0  0  0
  152.8423  136.0273  163.3753 H   0  0  0  0  0  0  0  0  0  0  0  0
  153.3492  139.0280  159.0285 H   0  0  0  0  0  0  0  0  0  0  0  0
  152.9190  142.1936  160.8586 H   0  0  0  0  0  0  0  0  0  0  0  0
  150.7516  143.8302  157.5735 H   0  0  0  0  0  0  0  0  0  0  0  0
  1  2  2  0  0  0  0
  2  3  1  0  0  0  0
  2 11  1  0  0  0  0
  3  4  1  0  0  0  0
  3 23  1  0  0  0  0
  3 24  1  0  0  0  0
  4  5  1  0  0  0  0
  5 10  1  0  0  0  0
  5  6  1  0  0  0  0
  5 25  1  0  0  0  0
  6  7  1  0  0  0  0
  6 26  1  0  0  0  0
  6 27  1  0  0  0  0
  7  8  1  0  0  0  0
  7 28  1  0  0  0  0
  7 29  1  0  0  0  0
  8  9  1  0  0  0  0
  8 30  1  0  0  0  0
  8 31  1  0  0  0  0
  9 10  1  0  0  0  0
  9 32  1  0  0  0  0
  9 33  1  0  0  0  0
 10 34  1  0  0  0  0
 10 35  1  0  0  0  0
 11 12  1  0  0  0  0
 11 36  1  0  0  0  0
 12 21  1  0  0  0  0
 12 13  2  0  0  0  0
 13 14  1  0  0  0  0
 13 37  1  0  0  0  0
 14 15  1  0  0  0  0
 14 19  2  0  0  0  0
 15 16  1  0  0  0  0
 15 17  1  0  0  0  0
 15 18  1  0  0  0  0
 19 20  1  0  0  0  0
 19 38  1  0  0  0  0
 20 21  1  0  0  0  0
 21 22  2  0  0  0  0
M  CHG  1  20  -1
M  END
> <s_m_source_file>
AV-unprocessed.smi

> <i_m_source_file_index>
1722

> <i_lp_mmshare_version>
43012

> <i_f3d_flags>
0

> <s_epik_input>
Tz1jMVtuSF1bY0hdYyhDKEYpKEYpRilbY0hdYzFbTkhdQyg9TylbQ0gyXU9bQ0hdMltDSDJdW0NIMl1bQ0gyXVtDSDJdW0NIMl0y

> <s_epik_cmdline>
J2VwaWtfcHl0aG9uJywgJy1waCcsICc3LjAnLCAnLXRuJywgJzgnLCAnLW1hJywgJzIwMCcsICctbWV0YWxfYmluZGluZycsICctaW1hZScsICc8aW5maWxlLm1hZT4nLCAnLW9tYWUnLCAnPG91dGZpbGUubWFlPic=

> <r_epik_Ionization_Penalty>
2.55378

> <r_epik_Ionization_Penalty_Charging>
0.0617094

> <r_epik_Ionization_Penalty_Neutral>
2.49207

> <r_epik_State_Penalty>
2.65647

> <r_epik_Charging_Adjusted_Penalty>
2.71818

> <i_epik_Tot_Q>
-1

> <i_epik_Tot_abs_Q>
1

> <r_epik_Metal_State_Penalty>
0.516461

> <b_epik_Metal_Only>
0

> <s_lp_Force_Field>
OPLS_2005

> <r_lp_Energy>
27.5399

> <b_lp_Chiralities_Consistent>
1

> <s_lp_Variant>
AV-unprocessed.smi:1722-2

> <Gold.Version>
5.8.1

> <Gold.Id.Protein>
6NUR|6NUR_protein|mol2

> <Gold.PLP.Fitness>
47.3338

> <Gold.PLP.PLP>
-44.8390

> <Gold.PLP.part.hbond>
-1.9892

> <Gold.PLP.part.metal>
0.0000

> <Gold.PLP.part.buried>
-3.3209

> <Gold.PLP.part.nonpolar>
-40.0159

> <Gold.PLP.part.repulsive>
0.1161

> <Gold.PLP.ligand.clash>
0.0000

> <Gold.PLP.ligand.torsion>
0.3134

> <Gold.PLP.Chemscore.Hbond>
1.0000

> <Gold.PLP.Chemscore.CHOScore>
0.0000

> <Gold.PLP.Chemscore.Metal>
0.0000

> <Gold.Chemscore.Hbonds>
donor molecule, donor type, donor heavy atom, donor atom, acceptor molecule, acceptor atom, score
      P1  H  7997  8009       L1    22  1.00

> <Gold.PLP.Chemscore.Internal.Correction>
0.1217

> <Gold.Rescore>
     Score         DG    S(hbond)    S(metal)    S(lipo)     H(rot)  DE(clash)    DE(int)     intcor
     14.16     -16.29       0.92        0.00     100.52       1.57       0.76       1.36       ----

> <Gold.Chemscore.Fitness>
14.1591

> <Gold.Chemscore.DG>
-16.2862

> <Gold.Chemscore.ZeroCoef>
-5.4800

> <Gold.Chemscore.Hbond>
0.9190

> <Gold.Chemscore.Metal>
0.0000

> <Gold.Chemscore.Lipo>
100.5150

> <Gold.Chemscore.Internal_Hbond>
0.0000

> <Gold.Chemscore.DEClash>
0.7621

> <Gold.Chemscore.DEInternal>
1.3650

> <Gold.Chemscore.Rot>
1.5717

> <Gold.Chemscore.Internal.Correction>
   9.000000E+99

> <Gold.Chemscore.Hbonds>
donor molecule, donor type, donor heavy atom, donor atom, acceptor molecule, acceptor atom, score
      P1  H  7997  8009       L1    22  0.30

> <Gold.Chemscore.Hbond.Weighted>
-3.0696

> <Gold.Chemscore.Metal.Weighted>
-0.0000

> <Gold.Chemscore.Lipo.Weighted>
-11.7603

> <Gold.Chemscore.Internal_Hbond.Weighted>
0.0000

> <Gold.Chemscore.DEClash.Weighted>
0.7621

> <Gold.Chemscore.DEInternal.Weighted>
1.3650

> <Gold.Chemscore.Rot.Weighted>
4.0237

> <Gold.Chemscore.Internal.Correction.Weighted>
   9.000000E+99

> <Gold.Protein.RotatedTorsions>
[ 6907 6896 6895 6894 ] final  173.77 input  -60.11 | X-H torsion
[ 7974 7965 7964 7962 ] final   55.39 input  175.53 | X-H torsion
[ 8008 7997 7996 7995 ] final  178.49 input   59.86 | X-H torsion
[ 10167 10162 10161 10158 ] final  -94.82 input  -65.29 | X-H torsion
[ 10718 10713 10712 10709 ] final  138.89 input   66.30 | X-H torsion
[ 10763 10752 10751 10750 ] final  132.39 input  -60.55 | X-H torsion
[ 11005 11000 10999 10996 ] final  -21.64 input  -57.11 | X-H torsion

> <Gold.Protein.ActiveResidues>
 VAL166  LYS551  ARG553  GLY616  TRP617  ASP618  TYR619  PRO620  LYS621  CYS622 
 ASP623  PHE694  ASN695  SER759  ASP760  ASP761  ALA762  ILE779  LEU786  VAL792 
 PHE793  MET794  SER795  GLU796  ALA797  LYS798  CYS799  TRP800  GLU811  SER814 

> <Gold.Protein.RotatedAtoms>
  151.7630  133.3335  159.3422 H   0  0  0  0  0  0  0  0  0  0  0  0  # atno 6907 bound_to 6896
  150.7490  134.6088  159.6084 H   0  0  0  0  0  0  0  0  0  0  0  0  # atno 6908 bound_to 6896
  152.3392  134.7159  160.0320 H   0  0  0  0  0  0  0  0  0  0  0  0  # atno 6909 bound_to 6896
  145.9509  139.3971  143.0307 H   0  0  0  0  0  0  0  0  0  0  0  0  # atno 7974 bound_to 7965
  156.0541  140.1332  157.0017 H   0  0  0  0  0  0  0  0  0  0  0  0  # atno 8008 bound_to 7997
  154.4449  140.1005  156.6490 H   0  0  0  0  0  0  0  0  0  0  0  0  # atno 8009 bound_to 7997
  155.5478  140.3462  155.4464 H   0  0  0  0  0  0  0  0  0  0  0  0  # atno 8010 bound_to 7997
  140.3105  143.3108  152.0153 H   0  0  0  0  0  0  0  0  0  0  0  0  # atno 10167 bound_to 10162
  157.4204  131.1038  151.0360 H   0  0  0  0  0  0  0  0  0  0  0  0  # atno 10718 bound_to 10713
  153.7899  135.3156  155.3377 H   0  0  0  0  0  0  0  0  0  0  0  0  # atno 10763 bound_to 10752
  154.8129  135.4655  154.0569 H   0  0  0  0  0  0  0  0  0  0  0  0  # atno 10764 bound_to 10752
  153.1884  135.6904  153.8472 H   0  0  0  0  0  0  0  0  0  0  0  0  # atno 10765 bound_to 10752
  140.8581  133.7808  156.0042 H   0  0  0  0  0  0  0  0  0  0  0  0  # atno 11005 bound_to 11000
  145.8173  140.9697  143.0917 LP  0  0  0  0  0  0  0  0  0  0  0  0  # atno 17320 bound_to 7965
  144.6795  139.9996  143.7484 LP  0  0  0  0  0  0  0  0  0  0  0  0  # atno 17321 bound_to 7965
  139.4895  144.6388  151.6920 LP  0  0  0  0  0  0  0  0  0  0  0  0  # atno 17342 bound_to 10162
  140.5572  144.0328  150.6153 LP  0  0  0  0  0  0  0  0  0  0  0  0  # atno 17343 bound_to 10162
  157.1292  130.6095  149.5525 LP  0  0  0  0  0  0  0  0  0  0  0  0  # atno 17370 bound_to 10713
  155.9879  130.4920  150.7144 LP  0  0  0  0  0  0  0  0  0  0  0  0  # atno 17371 bound_to 10713
  140.8714  134.2721  157.5189 LP  0  0  0  0  0  0  0  0  0  0  0  0  # atno 17394 bound_to 11000
  139.8706  134.9569  156.4252 LP  0  0  0  0  0  0  0  0  0  0  0  0  # atno 17395 bound_to 11000

$$$$
