AV-unprocessed.smi:1842|AV-procd|sdf|7498|dock2
  -GOLD-   22720 9203D 1   1.00000     0.00000
 Structure written by MMmdl.
 39 40  0  0  0  0  0  0  0  0  2 V2000
  151.0112  139.6327  154.5666 O   0  0  0  0  0  0  0  0  0  0  0  0
  150.5714  140.1998  155.5664 C   0  0  0  0  0  0  0  0  0  0  0  0
  151.4901  141.0752  156.4241 C   0  0  0  0  0  0  0  0  0  0  0  0
  150.7601  142.2460  157.1140 C   0  0  0  0  0  0  0  0  0  0  0  0
  151.6827  143.2358  157.8558 C   0  0  0  0  0  0  0  0  0  0  0  0
  152.2648  142.6706  159.1544 C   0  0  0  0  0  0  0  0  0  0  0  0
  152.6901  143.8941  159.9759 C   0  0  0  0  0  0  0  0  0  0  0  0
  151.9203  145.0919  159.3985 C   0  0  0  0  0  0  0  0  0  0  0  0
  150.9954  144.5233  158.3185 C   0  0  0  0  0  0  0  0  0  0  0  0
  149.2973  140.0938  155.9733 N   0  0  0  0  0  0  0  0  0  0  0  0
  148.2574  139.3250  155.2959 C   0  0  0  0  0  0  0  0  0  0  0  0
  148.1630  139.6448  153.7915 C   0  0  0  0  0  0  0  0  0  0  0  0
  147.0957  138.8959  153.1218 N   0  0  0  0  0  0  0  0  0  0  0  0
  146.2528  137.9701  153.6808 C   0  0  0  0  0  0  0  0  0  0  0  0
  145.4262  137.5377  152.6757 C   0  0  0  0  0  0  0  0  0  0  0  0
  145.7987  138.2179  151.5471 N   0  3  0  0  0  0  0  0  0  0  0  0
  146.8129  139.0450  151.8209 C   0  0  0  0  0  0  0  0  0  0  0  0
  151.9993  140.4637  157.1704 H   0  0  0  0  0  0  0  0  0  0  0  0
  152.2715  141.4716  155.7753 H   0  0  0  0  0  0  0  0  0  0  0  0
  150.1836  142.7856  156.3618 H   0  0  0  0  0  0  0  0  0  0  0  0
  150.0248  141.8497  157.8158 H   0  0  0  0  0  0  0  0  0  0  0  0
  152.5203  143.5076  157.2114 H   0  0  0  0  0  0  0  0  0  0  0  0
  151.4952  142.1220  159.6994 H   0  0  0  0  0  0  0  0  0  0  0  0
  153.0918  141.9828  158.9748 H   0  0  0  0  0  0  0  0  0  0  0  0
  152.4752  143.7487  161.0351 H   0  0  0  0  0  0  0  0  0  0  0  0
  153.7637  144.0625  159.8815 H   0  0  0  0  0  0  0  0  0  0  0  0
  151.3619  145.6309  160.1645 H   0  0  0  0  0  0  0  0  0  0  0  0
  152.6232  145.7960  158.9510 H   0  0  0  0  0  0  0  0  0  0  0  0
  150.8319  145.2286  157.5030 H   0  0  0  0  0  0  0  0  0  0  0  0
  150.0236  144.2902  158.7560 H   0  0  0  0  0  0  0  0  0  0  0  0
  149.0228  140.6011  156.8024 H   0  0  0  0  0  0  0  0  0  0  0  0
  148.4680  138.2648  155.4390 H   0  0  0  0  0  0  0  0  0  0  0  0
  147.2963  139.5132  155.7772 H   0  0  0  0  0  0  0  0  0  0  0  0
  147.9556  140.7059  153.6491 H   0  0  0  0  0  0  0  0  0  0  0  0
  149.1058  139.4404  153.2821 H   0  0  0  0  0  0  0  0  0  0  0  0
  146.3029  137.6948  154.7244 H   0  0  0  0  0  0  0  0  0  0  0  0
  144.6218  136.8163  152.6791 H   0  0  0  0  0  0  0  0  0  0  0  0
  147.3084  139.7010  151.1271 H   0  0  0  0  0  0  0  0  0  0  0  0
  145.3696  138.1133  150.6362 H   0  0  0  0  0  0  0  0  0  0  0  0
  1  2  2  0  0  0  0
  2  3  1  0  0  0  0
  2 10  1  0  0  0  0
  3  4  1  0  0  0  0
  3 18  1  0  0  0  0
  3 19  1  0  0  0  0
  4  5  1  0  0  0  0
  4 20  1  0  0  0  0
  4 21  1  0  0  0  0
  5  9  1  0  0  0  0
  5  6  1  0  0  0  0
  5 22  1  0  0  0  0
  6  7  1  0  0  0  0
  6 23  1  0  0  0  0
  6 24  1  0  0  0  0
  7  8  1  0  0  0  0
  7 25  1  0  0  0  0
  7 26  1  0  0  0  0
  8  9  1  0  0  0  0
  8 27  1  0  0  0  0
  8 28  1  0  0  0  0
  9 29  1  0  0  0  0
  9 30  1  0  0  0  0
 10 11  1  0  0  0  0
 10 31  1  0  0  0  0
 11 12  1  0  0  0  0
 11 32  1  0  0  0  0
 11 33  1  0  0  0  0
 12 13  1  0  0  0  0
 12 34  1  0  0  0  0
 12 35  1  0  0  0  0
 13 17  1  0  0  0  0
 13 14  1  0  0  0  0
 14 15  2  0  0  0  0
 14 36  1  0  0  0  0
 15 16  1  0  0  0  0
 15 37  1  0  0  0  0
 16 17  2  0  0  0  0
 16 39  1  0  0  0  0
 17 38  1  0  0  0  0
M  CHG  1  16   1
M  END
> <s_m_source_file>
AV-unprocessed.smi

> <i_m_source_file_index>
1842

> <i_lp_mmshare_version>
43012

> <i_f3d_flags>
0

> <s_epik_input>
W0NIMl0xW0NIMl1bQ0gyXVtDSDJdW0NIXTFbQ0gyXVtDSDJdQyg9TylbTkhdW0NIMl1bQ0gyXW4yW2NIXVtjSF1uW2NIXTI=

> <s_epik_cmdline>
J2VwaWtfcHl0aG9uJywgJy1waCcsICc3LjAnLCAnLXRuJywgJzgnLCAnLW1hJywgJzIwMCcsICctbWV0YWxfYmluZGluZycsICctaW1hZScsICc8aW5maWxlLm1hZT4nLCAnLW9tYWUnLCAnPG91dGZpbGUubWFlPic=

> <r_lp_tautomer_probability>
1

> <r_epik_Ionization_Penalty>
0.269886

> <r_epik_Ionization_Penalty_Charging>
0

> <r_epik_Ionization_Penalty_Neutral>
0.269886

> <r_epik_State_Penalty>
0.261983

> <r_epik_Charging_Adjusted_Penalty>
0.261983

> <i_epik_Tot_Q>
1

> <i_epik_Tot_abs_Q>
1

> <r_epik_Metal_State_Penalty>
0.546964

> <b_epik_Metal_Only>
0

> <s_lp_Force_Field>
OPLS_2005

> <r_lp_Energy>
23.3455

> <b_lp_Chiralities_Consistent>
1

> <s_lp_Variant>
AV-unprocessed.smi:1842-1

> <Gold.Version>
5.8.1

> <Gold.Id.Protein>
6NUR|6NUR_protein|mol2

> <Gold.PLP.Fitness>
44.1742

> <Gold.PLP.PLP>
-37.0368

> <Gold.PLP.part.hbond>
-2.5146

> <Gold.PLP.part.metal>
0.0000

> <Gold.PLP.part.buried>
-3.3266

> <Gold.PLP.part.nonpolar>
-32.2192

> <Gold.PLP.part.repulsive>
0.1918

> <Gold.PLP.ligand.clash>
0.0000

> <Gold.PLP.ligand.torsion>
0.4986

> <Gold.PLP.Chemscore.Hbond>
1.8000

> <Gold.PLP.Chemscore.CHOScore>
0.8696

> <Gold.PLP.Chemscore.Metal>
0.0000

> <Gold.Chemscore.Hbonds>
donor molecule, donor type, donor heavy atom, donor atom, acceptor molecule, acceptor atom, score
      L1  H    16    39       P1 10171  0.78
      P1  H  7989  7998       L1     1  1.00
      L1  C    17    38       P1  7957  0.87

> <Gold.PLP.Chemscore.Internal.Correction>
0.1260

> <Gold.Rescore>
     Score         DG    S(hbond)    S(metal)    S(lipo)     H(rot)  DE(clash)    DE(int)     intcor
     14.85     -16.63       1.95        0.00      88.73       2.25       0.13       1.65       ----

> <Gold.Chemscore.Fitness>
14.8499

> <Gold.Chemscore.DG>
-16.6260

> <Gold.Chemscore.ZeroCoef>
-5.4800

> <Gold.Chemscore.Hbond>
1.9525

> <Gold.Chemscore.Metal>
0.0000

> <Gold.Chemscore.Lipo>
88.7259

> <Gold.Chemscore.Internal_Hbond>
0.0000

> <Gold.Chemscore.DEClash>
0.1285

> <Gold.Chemscore.DEInternal>
1.6476

> <Gold.Chemscore.Rot>
2.2485

> <Gold.Chemscore.Internal.Correction>
   9.000000E+99

> <Gold.Chemscore.Hbonds>
donor molecule, donor type, donor heavy atom, donor atom, acceptor molecule, acceptor atom, score
      L1  H    16    39       P1 10171  0.78
      P1  H  7989  7998       L1     1  0.65

> <Gold.Chemscore.Hbond.Weighted>
-6.5213

> <Gold.Chemscore.Metal.Weighted>
-0.0000

> <Gold.Chemscore.Lipo.Weighted>
-10.3809

> <Gold.Chemscore.Internal_Hbond.Weighted>
0.0000

> <Gold.Chemscore.DEClash.Weighted>
0.1285

> <Gold.Chemscore.DEInternal.Weighted>
1.6476

> <Gold.Chemscore.Rot.Weighted>
5.7562

> <Gold.Chemscore.Internal.Correction.Weighted>
   9.000000E+99

> <Gold.Protein.RotatedTorsions>
[ 6907 6896 6895 6894 ] final  173.13 input  -60.11 | X-H torsion
[ 7974 7965 7964 7962 ] final   79.24 input  175.53 | X-H torsion
[ 8008 7997 7996 7995 ] final   63.64 input   59.86 | X-H torsion
[ 10167 10162 10161 10158 ] final -136.57 input  -65.29 | X-H torsion
[ 10718 10713 10712 10709 ] final    1.60 input   66.30 | X-H torsion
[ 10763 10752 10751 10750 ] final   15.30 input  -60.55 | X-H torsion
[ 11005 11000 10999 10996 ] final   34.89 input  -57.11 | X-H torsion

> <Gold.Protein.ActiveResidues>
 VAL166  LYS551  ARG553  GLY616  TRP617  ASP618  TYR619  PRO620  LYS621  CYS622 
 ASP623  PHE694  ASN695  SER759  ASP760  ASP761  ALA762  ILE779  LEU786  VAL792 
 PHE793  MET794  SER795  GLU796  ALA797  LYS798  CYS799  TRP800  GLU811  SER814 

> <Gold.Protein.RotatedAtoms>
  151.7732  133.3343  159.3450 H   0  0  0  0  0  0  0  0  0  0  0  0  # atno 6907 bound_to 6896
  150.7454  134.5999  159.6041 H   0  0  0  0  0  0  0  0  0  0  0  0  # atno 6908 bound_to 6896
  152.3327  134.7240  160.0336 H   0  0  0  0  0  0  0  0  0  0  0  0  # atno 6909 bound_to 6896
  145.6667  139.2486  143.1891 H   0  0  0  0  0  0  0  0  0  0  0  0  # atno 7974 bound_to 7965
  155.6334  140.3496  155.4690 H   0  0  0  0  0  0  0  0  0  0  0  0  # atno 8008 bound_to 7997
  155.9985  140.1208  157.0594 H   0  0  0  0  0  0  0  0  0  0  0  0  # atno 8009 bound_to 7997
  154.4241  140.1105  156.5650 H   0  0  0  0  0  0  0  0  0  0  0  0  # atno 8010 bound_to 7997
  139.8664  143.7012  152.2645 H   0  0  0  0  0  0  0  0  0  0  0  0  # atno 10167 bound_to 10162
  156.8506  130.5552  149.5670 H   0  0  0  0  0  0  0  0  0  0  0  0  # atno 10718 bound_to 10713
  153.1538  135.6783  153.8842 H   0  0  0  0  0  0  0  0  0  0  0  0  # atno 10763 bound_to 10752
  153.8260  135.3124  155.3416 H   0  0  0  0  0  0  0  0  0  0  0  0  # atno 10764 bound_to 10752
  154.7882  135.4850  154.0081 H   0  0  0  0  0  0  0  0  0  0  0  0  # atno 10765 bound_to 10752
  140.2482  134.3334  155.7900 H   0  0  0  0  0  0  0  0  0  0  0  0  # atno 11005 bound_to 11000
  146.1079  140.7464  142.9517 LP  0  0  0  0  0  0  0  0  0  0  0  0  # atno 17320 bound_to 7965
  144.7070  140.3892  143.7110 LP  0  0  0  0  0  0  0  0  0  0  0  0  # atno 17321 bound_to 7965
  139.7325  144.7579  151.0780 LP  0  0  0  0  0  0  0  0  0  0  0  0  # atno 17342 bound_to 10162
  140.7767  143.5071  150.9699 LP  0  0  0  0  0  0  0  0  0  0  0  0  # atno 17343 bound_to 10162
  156.0830  130.5836  150.9598 LP  0  0  0  0  0  0  0  0  0  0  0  0  # atno 17370 bound_to 10713
  157.6306  131.0921  150.8449 LP  0  0  0  0  0  0  0  0  0  0  0  0  # atno 17371 bound_to 10713
  141.2204  133.7338  156.8995 LP  0  0  0  0  0  0  0  0  0  0  0  0  # atno 17394 bound_to 11000
  140.1584  134.9182  157.2684 LP  0  0  0  0  0  0  0  0  0  0  0  0  # atno 17395 bound_to 11000

$$$$
