AV-unprocessed.smi:651|AV-procd|sdf|3191|dock4
  -GOLD-   22720 0113D 1   1.00000     0.00000
 Structure written by MMmdl.
 39 40  0  0  0  0  0  0  0  0  2 V2000
  151.5338  145.1442  159.2127 C   0  0  0  0  0  0  0  0  0  0  0  0
  151.5791  143.7408  158.6462 C   0  0  0  0  0  0  0  0  0  0  0  0
  152.3186  142.7048  159.2559 C   0  0  0  0  0  0  0  0  0  0  0  0
  152.3106  141.4191  158.6759 C   0  0  0  0  0  0  0  0  0  0  0  0
  151.5639  141.1940  157.4982 C   0  0  0  0  0  0  0  0  0  0  0  0
  151.5280  139.8191  156.8536 C   0  0  0  0  0  0  0  0  0  0  0  0
  150.4150  139.7546  155.8076 C   0  0  0  0  0  0  0  0  0  0  0  0
  150.6990  139.8182  154.6123 O   0  0  0  0  0  0  0  0  0  0  0  0
  149.1596  139.6445  156.2762 N   0  0  0  0  0  0  0  0  0  0  0  0
  147.9154  139.6118  155.5008 C   0  0  1  0  0  0  0  0  0  0  0  0
  147.5334  140.9719  154.8798 C   0  0  0  0  0  0  0  0  0  0  0  0
  147.5547  140.7628  153.3652 C   0  0  0  0  0  0  0  0  0  0  0  0
  147.2281  139.2830  153.1759 C   0  0  0  0  0  0  0  0  0  0  0  0
  147.9312  138.5757  154.3450 C   0  0  2  0  0  0  0  0  0  0  0  0
  147.2720  137.2406  154.7226 C   0  0  0  0  0  0  0  0  0  0  0  0
  147.2837  136.2750  153.8004 N   0  0  0  0  0  0  0  0  0  0  0  0
  146.7601  137.0797  155.8291 O   0  0  0  0  0  0  0  0  0  0  0  0
  150.8470  142.2706  156.9308 C   0  0  0  0  0  0  0  0  0  0  0  0
  150.8784  143.4866  157.5184 N   0  3  0  0  0  0  0  0  0  0  0  0
  152.2781  145.2738  159.9988 H   0  0  0  0  0  0  0  0  0  0  0  0
  150.5501  145.3495  159.6362 H   0  0  0  0  0  0  0  0  0  0  0  0
  151.7335  145.8792  158.4325 H   0  0  0  0  0  0  0  0  0  0  0  0
  152.8842  142.8895  160.1578 H   0  0  0  0  0  0  0  0  0  0  0  0
  152.8706  140.6164  159.1335 H   0  0  0  0  0  0  0  0  0  0  0  0
  152.4898  139.6133  156.3816 H   0  0  0  0  0  0  0  0  0  0  0  0
  151.3753  139.0464  157.6087 H   0  0  0  0  0  0  0  0  0  0  0  0
  149.0487  139.5929  157.2786 H   0  0  0  0  0  0  0  0  0  0  0  0
  147.1359  139.3600  156.2218 H   0  0  0  0  0  0  0  0  0  0  0  0
  146.5215  141.2356  155.1899 H   0  0  0  0  0  0  0  0  0  0  0  0
  148.1817  141.7931  155.1873 H   0  0  0  0  0  0  0  0  0  0  0  0
  146.8561  141.4165  152.8424 H   0  0  0  0  0  0  0  0  0  0  0  0
  148.5531  140.9693  152.9782 H   0  0  0  0  0  0  0  0  0  0  0  0
  146.1469  139.1426  153.2214 H   0  0  0  0  0  0  0  0  0  0  0  0
  147.5675  138.9142  152.2073 H   0  0  0  0  0  0  0  0  0  0  0  0
  148.9585  138.3833  154.0320 H   0  0  0  0  0  0  0  0  0  0  0  0
  146.8669  135.3780  154.0030 H   0  0  0  0  0  0  0  0  0  0  0  0
  147.7148  136.4455  152.9033 H   0  0  0  0  0  0  0  0  0  0  0  0
  150.2476  142.1942  156.0352 H   0  0  0  0  0  0  0  0  0  0  0  0
  150.3476  144.2466  157.0920 H   0  0  0  0  0  0  0  0  0  0  0  0
  1  2  1  0  0  0  0
  1 20  1  0  0  0  0
  1 21  1  0  0  0  0
  1 22  1  0  0  0  0
  2 19  1  0  0  0  0
  2  3  2  0  0  0  0
  3  4  1  0  0  0  0
  3 23  1  0  0  0  0
  4  5  2  0  0  0  0
  4 24  1  0  0  0  0
  5  6  1  0  0  0  0
  5 18  1  0  0  0  0
  6  7  1  0  0  0  0
  6 25  1  0  0  0  0
  6 26  1  0  0  0  0
  7  8  2  0  0  0  0
  7  9  1  0  0  0  0
  9 10  1  0  0  0  0
  9 27  1  0  0  0  0
 10 14  1  0  0  0  0
 10 11  1  0  0  0  0
 10 28  1  0  0  0  0
 11 12  1  0  0  0  0
 11 29  1  0  0  0  0
 11 30  1  0  0  0  0
 12 13  1  0  0  0  0
 12 31  1  0  0  0  0
 12 32  1  0  0  0  0
 13 14  1  0  0  0  0
 13 33  1  0  0  0  0
 13 34  1  0  0  0  0
 14 15  1  0  0  0  0
 14 35  1  0  0  0  0
 15 16  1  0  0  0  0
 15 17  2  0  0  0  0
 16 36  1  0  0  0  0
 16 37  1  0  0  0  0
 18 19  2  0  0  0  0
 18 38  1  0  0  0  0
 19 39  1  0  0  0  0
M  CHG  1  19   1
M  END
> <s_m_source_file>
AV-unprocessed.smi

> <i_m_source_file_index>
651

> <i_lp_mmshare_version>
43012

> <i_f3d_flags>
0

> <s_epik_input>
W0NIM11jMVtjSF1bY0hdYyhbY0hdbjEpW0NIMl1DKD1PKVtOSF1bQ0BASF0yW0NIMl1bQ0gyXVtDSDJdW0NASF0yQyg9TylbTkgyXQ==

> <s_epik_cmdline>
J2VwaWtfcHl0aG9uJywgJy1waCcsICc3LjAnLCAnLXRuJywgJzgnLCAnLW1hJywgJzIwMCcsICctbWV0YWxfYmluZGluZycsICctaW1hZScsICc8aW5maWxlLm1hZT4nLCAnLW9tYWUnLCAnPG91dGZpbGUubWFlPic=

> <r_epik_Ionization_Penalty>
2.14971

> <r_epik_Ionization_Penalty_Charging>
2.14971

> <r_epik_Ionization_Penalty_Neutral>
1.65229e-07

> <r_epik_State_Penalty>
2.28946

> <r_epik_Charging_Adjusted_Penalty>
4.43917

> <i_epik_Tot_Q>
1

> <i_epik_Tot_abs_Q>
1

> <r_epik_Metal_State_Penalty>
2.30508

> <b_epik_Metal_Only>
0

> <s_lp_Force_Field>
OPLS_2005

> <r_lp_Energy>
21.472

> <b_lp_Chiralities_Consistent>
1

> <s_lp_Variant>
AV-unprocessed.smi:651-8

> <Gold.Version>
5.8.1

> <Gold.Id.Protein>
6NUR|6NUR_protein|mol2

> <Gold.PLP.Fitness>
42.6768

> <Gold.PLP.PLP>
-32.0514

> <Gold.PLP.part.hbond>
-3.0000

> <Gold.PLP.part.metal>
0.0000

> <Gold.PLP.part.buried>
-4.5792

> <Gold.PLP.part.nonpolar>
-24.9923

> <Gold.PLP.part.repulsive>
0.1292

> <Gold.PLP.ligand.clash>
0.0000

> <Gold.PLP.ligand.torsion>
0.4781

> <Gold.PLP.Chemscore.Hbond>
3.8560

> <Gold.PLP.Chemscore.CHOScore>
0.0000

> <Gold.PLP.Chemscore.Metal>
0.0000

> <Gold.Chemscore.Hbonds>
donor molecule, donor type, donor heavy atom, donor atom, acceptor molecule, acceptor atom, score
      L1  H    16    37       P1  7948  1.00
      L1  H    19    39       P1  8028  1.66
      P1  H  7989  7998       L1     8  1.00

> <Gold.PLP.Chemscore.Internal.Correction>
0.0137

> <Gold.Rescore>
     Score         DG    S(hbond)    S(metal)    S(lipo)     H(rot)  DE(clash)    DE(int)     intcor
     19.48     -20.62       2.92        0.00      90.60       2.04       0.12       1.03       ----

> <Gold.Chemscore.Fitness>
19.4758

> <Gold.Chemscore.DG>
-20.6193

> <Gold.Chemscore.ZeroCoef>
-5.4800

> <Gold.Chemscore.Hbond>
2.9216

> <Gold.Chemscore.Metal>
0.0000

> <Gold.Chemscore.Lipo>
90.5969

> <Gold.Chemscore.Internal_Hbond>
0.0000

> <Gold.Chemscore.DEClash>
0.1172

> <Gold.Chemscore.DEInternal>
1.0263

> <Gold.Chemscore.Rot>
2.0386

> <Gold.Chemscore.Internal.Correction>
   9.000000E+99

> <Gold.Chemscore.Hbonds>
donor molecule, donor type, donor heavy atom, donor atom, acceptor molecule, acceptor atom, score
      L1  H    16    37       P1  7948  0.95
      L1  H    19    39       P1  8028  0.69
      P1  H  7989  7998       L1     8  1.00

> <Gold.Chemscore.Hbond.Weighted>
-9.7582

> <Gold.Chemscore.Metal.Weighted>
-0.0000

> <Gold.Chemscore.Lipo.Weighted>
-10.5998

> <Gold.Chemscore.Internal_Hbond.Weighted>
0.0000

> <Gold.Chemscore.DEClash.Weighted>
0.1172

> <Gold.Chemscore.DEInternal.Weighted>
1.0263

> <Gold.Chemscore.Rot.Weighted>
5.2188

> <Gold.Chemscore.Internal.Correction.Weighted>
   9.000000E+99

> <Gold.Protein.RotatedTorsions>
[ 6907 6896 6895 6894 ] final  -10.36 input  -60.11 | X-H torsion
[ 7974 7965 7964 7962 ] final  166.23 input  175.53 | X-H torsion
[ 8008 7997 7996 7995 ] final   92.76 input   59.86 | X-H torsion
[ 10167 10162 10161 10158 ] final  -60.82 input  -65.29 | X-H torsion
[ 10718 10713 10712 10709 ] final  -41.12 input   66.30 | X-H torsion
[ 10763 10752 10751 10750 ] final   66.70 input  -60.55 | X-H torsion
[ 11005 11000 10999 10996 ] final   17.90 input  -57.11 | X-H torsion

> <Gold.Protein.ActiveResidues>
 VAL166  LYS551  ARG553  GLY616  TRP617  ASP618  TYR619  PRO620  LYS621  CYS622 
 ASP623  PHE694  ASN695  SER759  ASP760  ASP761  ALA762  ILE779  LEU786  VAL792 
 PHE793  MET794  SER795  GLU796  ALA797  LYS798  CYS799  TRP800  GLU811  SER814 

> <Gold.Protein.RotatedAtoms>
  151.4031  135.0974  159.9561 H   0  0  0  0  0  0  0  0  0  0  0  0  # atno 6907 bound_to 6896
  152.5044  133.8869  159.7385 H   0  0  0  0  0  0  0  0  0  0  0  0  # atno 6908 bound_to 6896
  150.9347  133.6669  159.2831 H   0  0  0  0  0  0  0  0  0  0  0  0  # atno 6909 bound_to 6896
  144.7471  139.8585  143.6378 H   0  0  0  0  0  0  0  0  0  0  0  0  # atno 7974 bound_to 7965
  156.0391  140.3321  155.7223 H   0  0  0  0  0  0  0  0  0  0  0  0  # atno 8008 bound_to 7997
  155.5771  140.0633  157.2810 H   0  0  0  0  0  0  0  0  0  0  0  0  # atno 8009 bound_to 7997
  154.4385  140.1850  156.0927 H   0  0  0  0  0  0  0  0  0  0  0  0  # atno 8010 bound_to 7997
  140.6046  143.2370  151.5850 H   0  0  0  0  0  0  0  0  0  0  0  0  # atno 10167 bound_to 10162
  156.2739  130.4209  149.8409 H   0  0  0  0  0  0  0  0  0  0  0  0  # atno 10718 bound_to 10713
  153.0152  135.5311  154.6864 H   0  0  0  0  0  0  0  0  0  0  0  0  # atno 10763 bound_to 10752
  154.6010  135.2868  155.0537 H   0  0  0  0  0  0  0  0  0  0  0  0  # atno 10764 bound_to 10752
  154.1594  135.6550  153.5035 H   0  0  0  0  0  0  0  0  0  0  0  0  # atno 10765 bound_to 10752
  140.4308  134.1422  155.7680 H   0  0  0  0  0  0  0  0  0  0  0  0  # atno 11005 bound_to 11000
  146.1365  139.4412  143.0136 LP  0  0  0  0  0  0  0  0  0  0  0  0  # atno 17320 bound_to 7965
  145.7083  141.0114  143.1467 LP  0  0  0  0  0  0  0  0  0  0  0  0  # atno 17321 bound_to 7965
  139.5316  144.2901  152.1159 LP  0  0  0  0  0  0  0  0  0  0  0  0  # atno 17342 bound_to 10162
  140.2088  144.4584  150.6396 LP  0  0  0  0  0  0  0  0  0  0  0  0  # atno 17343 bound_to 10162
  156.5880  130.8494  151.3400 LP  0  0  0  0  0  0  0  0  0  0  0  0  # atno 17370 bound_to 10713
  157.7293  130.9669  150.1780 LP  0  0  0  0  0  0  0  0  0  0  0  0  # atno 17371 bound_to 10713
  141.1746  133.8540  157.1462 LP  0  0  0  0  0  0  0  0  0  0  0  0  # atno 17394 bound_to 11000
  140.0135  134.9977  157.0445 LP  0  0  0  0  0  0  0  0  0  0  0  0  # atno 17395 bound_to 11000

$$$$
