AV-unprocessed.smi:527|AV-procd|sdf|2823|dock4
  -GOLD-   2262023303D 1   1.00000     0.00000
 Structure written by MMmdl.
 43 44  0  0  0  0  0  0  0  0  2 V2000
  152.4527  138.0608  154.9885 C   0  0  0  0  0  0  0  0  0  0  0  0
  150.9497  137.9211  154.6877 C   0  0  2  0  0  0  0  0  0  0  0  0
  150.3474  139.3100  154.3896 C   0  0  0  0  0  0  0  0  0  0  0  0
  148.8481  139.2357  154.0716 C   0  0  0  0  0  0  0  0  0  0  0  0
  148.0798  138.5545  155.2125 C   0  0  0  0  0  0  0  0  0  0  0  0
  148.6460  137.1550  155.5280 C   0  0  1  0  0  0  0  0  0  0  0  0
  148.3612  136.2171  154.4403 N   0  0  0  0  0  0  0  0  0  0  0  0
  147.6454  135.0886  154.5505 C   0  0  0  0  0  0  0  0  0  0  0  0
  147.1746  134.6854  155.6161 O   0  0  0  0  0  0  0  0  0  0  0  0
  147.5140  134.4831  153.3546 N   0  0  0  0  0  0  0  0  0  0  0  0
  146.7522  133.4103  153.0580 C   0  0  0  0  0  0  0  0  0  0  0  0
  146.0477  132.7932  153.8590 O   0  0  0  0  0  0  0  0  0  0  0  0
  146.7767  132.9633  151.5958 C   0  0  0  0  0  0  0  0  0  0  0  0
  145.4345  133.0122  151.0080 N   0  0  0  0  0  0  0  0  0  0  0  0
  144.7288  131.9734  150.4558 C   0  0  0  0  0  0  0  0  0  0  0  0
  143.5339  132.4951  150.0309 C   0  0  0  0  0  0  0  0  0  0  0  0
  143.5607  133.8289  150.3399 N   0  3  0  0  0  0  0  0  0  0  0  0
  144.7167  134.1415  150.9346 C   0  0  0  0  0  0  0  0  0  0  0  0
  150.1661  137.2153  155.8304 C   0  0  1  0  0  0  0  0  0  0  0  0
  150.7232  135.8186  156.1737 C   0  0  0  0  0  0  0  0  0  0  0  0
  152.6225  138.5984  155.9219 H   0  0  0  0  0  0  0  0  0  0  0  0
  152.9606  138.6088  154.1945 H   0  0  0  0  0  0  0  0  0  0  0  0
  152.9424  137.0904  155.0652 H   0  0  0  0  0  0  0  0  0  0  0  0
  150.8553  137.3181  153.7834 H   0  0  0  0  0  0  0  0  0  0  0  0
  150.5012  139.9683  155.2458 H   0  0  0  0  0  0  0  0  0  0  0  0
  150.8704  139.7716  153.5514 H   0  0  0  0  0  0  0  0  0  0  0  0
  148.4540  140.2392  153.9085 H   0  0  0  0  0  0  0  0  0  0  0  0
  148.6946  138.6898  153.1401 H   0  0  0  0  0  0  0  0  0  0  0  0
  148.1443  139.1759  156.1066 H   0  0  0  0  0  0  0  0  0  0  0  0
  147.0194  138.4943  154.9653 H   0  0  0  0  0  0  0  0  0  0  0  0
  148.1465  136.7873  156.4263 H   0  0  0  0  0  0  0  0  0  0  0  0
  148.7414  136.4526  153.5355 H   0  0  0  0  0  0  0  0  0  0  0  0
  148.0421  134.8822  152.5928 H   0  0  0  0  0  0  0  0  0  0  0  0
  147.4377  133.5985  151.0037 H   0  0  0  0  0  0  0  0  0  0  0  0
  147.1524  131.9415  151.5199 H   0  0  0  0  0  0  0  0  0  0  0  0
  145.1188  130.9669  150.4061 H   0  0  0  0  0  0  0  0  0  0  0  0
  142.6890  132.0298  149.5439 H   0  0  0  0  0  0  0  0  0  0  0  0
  145.0140  135.1152  151.2823 H   0  0  0  0  0  0  0  0  0  0  0  0
  150.2826  137.8260  156.7272 H   0  0  0  0  0  0  0  0  0  0  0  0
  150.7719  135.1756  155.2945 H   0  0  0  0  0  0  0  0  0  0  0  0
  150.0975  135.3206  156.9150 H   0  0  0  0  0  0  0  0  0  0  0  0
  151.7253  135.8791  156.5973 H   0  0  0  0  0  0  0  0  0  0  0  0
  142.8159  134.4865  150.1452 H   0  0  0  0  0  0  0  0  0  0  0  0
  1  2  1  0  0  0  0
  1 21  1  0  0  0  0
  1 22  1  0  0  0  0
  1 23  1  0  0  0  0
  2 19  1  0  0  0  0
  2  3  1  0  0  0  0
  2 24  1  0  0  0  0
  3  4  1  0  0  0  0
  3 25  1  0  0  0  0
  3 26  1  0  0  0  0
  4  5  1  0  0  0  0
  4 27  1  0  0  0  0
  4 28  1  0  0  0  0
  5  6  1  0  0  0  0
  5 29  1  0  0  0  0
  5 30  1  0  0  0  0
  6  7  1  0  0  0  0
  6 19  1  0  0  0  0
  6 31  1  0  0  0  0
  7  8  1  0  0  0  0
  7 32  1  0  0  0  0
  8  9  2  0  0  0  0
  8 10  1  0  0  0  0
 10 11  1  0  0  0  0
 10 33  1  0  0  0  0
 11 12  2  0  0  0  0
 11 13  1  0  0  0  0
 13 14  1  0  0  0  0
 13 34  1  0  0  0  0
 13 35  1  0  0  0  0
 14 18  1  0  0  0  0
 14 15  1  0  0  0  0
 15 16  2  0  0  0  0
 15 36  1  0  0  0  0
 16 17  1  0  0  0  0
 16 37  1  0  0  0  0
 17 18  2  0  0  0  0
 17 43  1  0  0  0  0
 18 38  1  0  0  0  0
 19 20  1  0  0  0  0
 19 39  1  0  0  0  0
 20 40  1  0  0  0  0
 20 41  1  0  0  0  0
 20 42  1  0  0  0  0
M  CHG  1  17   1
M  END
> <s_m_source_file>
AV-unprocessed.smi

> <i_m_source_file_index>
527

> <i_lp_mmshare_version>
43012

> <i_f3d_flags>
0

> <s_epik_input>
W0NIM11bQ0BASF0xW0NIMl1bQ0gyXVtDSDJdW0NASF0oW0NASF0xW0NIM10pW05IXUMoPU8pW05IXUMoPU8pW0NIMl1uMltjSF1bY0hdbltjSF0y

> <s_epik_cmdline>
J2VwaWtfcHl0aG9uJywgJy1waCcsICc3LjAnLCAnLXRuJywgJzgnLCAnLW1hJywgJzIwMCcsICctbWV0YWxfYmluZGluZycsICctaW1hZScsICc8aW5maWxlLm1hZT4nLCAnLW9tYWUnLCAnPG91dGZpbGUubWFlPic=

> <r_lp_tautomer_probability>
1

> <r_epik_Ionization_Penalty>
0.816441

> <r_epik_Ionization_Penalty_Charging>
0

> <r_epik_Ionization_Penalty_Neutral>
0.816441

> <r_epik_State_Penalty>
0.849034

> <r_epik_Charging_Adjusted_Penalty>
0.849034

> <i_epik_Tot_Q>
1

> <i_epik_Tot_abs_Q>
1

> <r_epik_Metal_State_Penalty>
0.984327

> <b_epik_Metal_Only>
0

> <s_lp_Force_Field>
OPLS_2005

> <r_lp_Energy>
15.5075

> <b_lp_Chiralities_Consistent>
1

> <s_lp_Variant>
AV-unprocessed.smi:527-9

> <Gold.Version>
5.8.1

> <Gold.Id.Protein>
6NUR|6NUR_protein|mol2

> <Gold.PLP.Fitness>
44.2985

> <Gold.PLP.PLP>
-32.3451

> <Gold.PLP.part.hbond>
-2.9875

> <Gold.PLP.part.metal>
0.0000

> <Gold.PLP.part.buried>
-2.0572

> <Gold.PLP.part.nonpolar>
-27.1804

> <Gold.PLP.part.repulsive>
0.1590

> <Gold.PLP.ligand.clash>
0.0000

> <Gold.PLP.ligand.torsion>
0.0233

> <Gold.PLP.Chemscore.Hbond>
3.9920

> <Gold.PLP.Chemscore.CHOScore>
0.0000

> <Gold.PLP.Chemscore.Metal>
0.0000

> <Gold.Chemscore.Hbonds>
donor molecule, donor type, donor heavy atom, donor atom, acceptor molecule, acceptor atom, score
      L1  H     7    32       P1  7948  1.00
      L1  H    10    33       P1  7948  1.00
      L1  H    17    43       P1 10186  1.54

> <Gold.PLP.Chemscore.Internal.Correction>
0.0240

> <Gold.Rescore>
     Score         DG    S(hbond)    S(metal)    S(lipo)     H(rot)  DE(clash)    DE(int)     intcor
     16.95     -18.42       2.87        0.00      65.82       1.71       0.07       1.40       ----

> <Gold.Chemscore.Fitness>
16.9528

> <Gold.Chemscore.DG>
-18.4151

> <Gold.Chemscore.ZeroCoef>
-5.4800

> <Gold.Chemscore.Hbond>
2.8741

> <Gold.Chemscore.Metal>
0.0000

> <Gold.Chemscore.Lipo>
65.8210

> <Gold.Chemscore.Internal_Hbond>
0.0000

> <Gold.Chemscore.DEClash>
0.0669

> <Gold.Chemscore.DEInternal>
1.3955

> <Gold.Chemscore.Rot>
1.7052

> <Gold.Chemscore.Internal.Correction>
   9.000000E+99

> <Gold.Chemscore.Hbonds>
donor molecule, donor type, donor heavy atom, donor atom, acceptor molecule, acceptor atom, score
      L1  H     7    32       P1  7948  0.98
      L1  H    10    33       P1  7948  0.76
      L1  H    17    43       P1 10186  0.59

> <Gold.Chemscore.Hbond.Weighted>
-9.5994

> <Gold.Chemscore.Metal.Weighted>
-0.0000

> <Gold.Chemscore.Lipo.Weighted>
-7.7011

> <Gold.Chemscore.Internal_Hbond.Weighted>
0.0000

> <Gold.Chemscore.DEClash.Weighted>
0.0669

> <Gold.Chemscore.DEInternal.Weighted>
1.3955

> <Gold.Chemscore.Rot.Weighted>
4.3653

> <Gold.Chemscore.Internal.Correction.Weighted>
   9.000000E+99

> <Gold.Protein.RotatedTorsions>
[ 6907 6896 6895 6894 ] final   80.58 input  -60.11 | X-H torsion
[ 7974 7965 7964 7962 ] final   92.00 input  175.53 | X-H torsion
[ 8008 7997 7996 7995 ] final  -95.88 input   59.86 | X-H torsion
[ 10167 10162 10161 10158 ] final  -35.92 input  -65.29 | X-H torsion
[ 10718 10713 10712 10709 ] final   -9.43 input   66.30 | X-H torsion
[ 10763 10752 10751 10750 ] final   21.20 input  -60.55 | X-H torsion
[ 11005 11000 10999 10996 ] final -139.44 input  -57.11 | X-H torsion

> <Gold.Protein.ActiveResidues>
 VAL166  LYS551  ARG553  GLY616  TRP617  ASP618  TYR619  PRO620  LYS621  CYS622 
 ASP623  PHE694  ASN695  SER759  ASP760  ASP761  ALA762  ILE779  LEU786  VAL792 
 PHE793  MET794  SER795  GLU796  ALA797  LYS798  CYS799  TRP800  GLU811  SER814 

> <Gold.Protein.RotatedAtoms>
  152.5239  134.3336  159.9191 H   0  0  0  0  0  0  0  0  0  0  0  0  # atno 6907 bound_to 6896
  151.3285  133.4004  159.2668 H   0  0  0  0  0  0  0  0  0  0  0  0  # atno 6908 bound_to 6896
  150.9900  134.9254  159.7951 H   0  0  0  0  0  0  0  0  0  0  0  0  # atno 6909 bound_to 6896
  145.4981  139.2276  143.2792 H   0  0  0  0  0  0  0  0  0  0  0  0  # atno 7974 bound_to 7965
  154.7671  140.0476  157.1021 H   0  0  0  0  0  0  0  0  0  0  0  0  # atno 8008 bound_to 7997
  154.9866  140.3108  155.4904 H   0  0  0  0  0  0  0  0  0  0  0  0  # atno 8009 bound_to 7997
  156.2914  140.2226  156.4969 H   0  0  0  0  0  0  0  0  0  0  0  0  # atno 8010 bound_to 7997
  140.7154  143.3444  151.2287 H   0  0  0  0  0  0  0  0  0  0  0  0  # atno 10167 bound_to 10162
  156.6881  130.5057  149.5951 H   0  0  0  0  0  0  0  0  0  0  0  0  # atno 10718 bound_to 10713
  153.1014  135.6673  153.9665 H   0  0  0  0  0  0  0  0  0  0  0  0  # atno 10763 bound_to 10752
  153.9234  135.3012  155.3448 H   0  0  0  0  0  0  0  0  0  0  0  0  # atno 10764 bound_to 10752
  154.7435  135.5068  153.9239 H   0  0  0  0  0  0  0  0  0  0  0  0  # atno 10765 bound_to 10752
  140.8519  134.2275  157.4755 H   0  0  0  0  0  0  0  0  0  0  0  0  # atno 11005 bound_to 11000
  146.2243  140.5780  142.9003 LP  0  0  0  0  0  0  0  0  0  0  0  0  # atno 17320 bound_to 7965
  144.7795  140.5811  143.6615 LP  0  0  0  0  0  0  0  0  0  0  0  0  # atno 17321 bound_to 7965
  139.6960  143.9612  152.2883 LP  0  0  0  0  0  0  0  0  0  0  0  0  # atno 17342 bound_to 10162
  139.9290  144.6753  150.8383 LP  0  0  0  0  0  0  0  0  0  0  0  0  # atno 17343 bound_to 10162
  156.1817  130.6503  151.0960 LP  0  0  0  0  0  0  0  0  0  0  0  0  # atno 17370 bound_to 10713
  157.7019  131.0772  150.6793 LP  0  0  0  0  0  0  0  0  0  0  0  0  # atno 17371 bound_to 10713
  139.8704  134.9687  156.4642 LP  0  0  0  0  0  0  0  0  0  0  0  0  # atno 17394 bound_to 11000
  140.8780  133.7939  155.9435 LP  0  0  0  0  0  0  0  0  0  0  0  0  # atno 17395 bound_to 11000

$$$$
