#       Name:                AV-unprocessed.smi:2702
#       Creating user name   scv26
#       Creation time:       Fri Mar 27 14:47:43 2020


#       File generated by GOLD software.
#

@<TRIPOS>MOLECULE
AV-unprocessed.smi:2702
    54    55     1
SMALL
NO_CHARGES


@<TRIPOS>ATOM
      1 ****        -7.5266  -2.6264   2.3475 C.3            1 S1                 0.0000
      2 ****        -6.1127  -2.5439   2.3228 O.3            1 S1                 0.0000
      3 ****        -5.6269  -1.8826   1.1671 C.3            1 S1                 0.0000
      4 ****        -4.1126  -1.8339   1.1837 C.2            1 S1                 0.0000
      5 ****        -3.4374  -0.7410   1.6091 C.2            1 S1                 0.0000
      6 ****        -1.9749  -0.7182   1.6029 C.2            1 S1                 0.0000
      7 ****        -1.3249   0.2535   1.9900 O.2            1 S1                 0.0000
      8 ****        -1.3838  -1.8582   1.1368 N.am           1 S1                 0.0000
      9 ****         0.0835  -1.9860   1.0756 C.3            1 S1                 0.0000
     10 ****         0.6966  -1.2449  -0.1203 C.2            1 S1                 0.0000
     11 ****         0.1132  -1.2164  -1.2044 O.2            1 S1                 0.0000
     12 ****         1.8847  -0.6597   0.0936 N.am           1 S1                 0.0000
     13 ****         2.6300   0.1249  -0.8877 C.3            1 S1                 0.0000
     14 ****         4.1150   0.1927  -0.4816 C.3            1 S1                 0.0000
     15 ****         4.9380   0.9819  -1.5107 C.3            1 S1                 0.0000
     16 ****         4.3545   2.3841  -1.7446 C.3            1 S1                 0.0000
     17 ****         2.8661   2.3172  -2.1426 C.3            1 S1                 0.0000
     18 ****         2.3011   3.7076  -2.4770 C.3            1 S1                 0.0000
     19 ****         2.0272   1.5433  -1.0913 C.3            1 S1                 0.0000
     20 ****         1.8264   2.3165   0.2334 C.3            1 S1                 0.0000
     21 ****        -2.1360  -2.9616   0.6868 C.2            1 S1                 0.0000
     22 ****        -3.4310  -2.9579   0.7062 N.2            1 S1                 0.0000
     23 ****        -7.8480  -3.1347   3.2566 H              1 S1                 0.0000
     24 ****        -7.9035  -3.1921   1.4944 H              1 S1                 0.0000
     25 ****        -7.9803  -1.6344   2.3382 H              1 S1                 0.0000
     26 ****        -5.9596  -2.4043   0.2681 H              1 S1                 0.0000
     27 ****        -6.0262  -0.8683   1.1179 H              1 S1                 0.0000
     28 ****        -3.9774   0.1248   1.9639 H              1 S1                 0.0000
     29 ****         0.5188  -1.6089   2.0033 H              1 S1                 0.0000
     30 ****         0.3974  -3.0299   1.0213 H              1 S1                 0.0000
     31 ****         2.2924  -0.7405   1.0138 H              1 S1                 0.0000
     32 ****         2.5811  -0.4063  -1.8405 H              1 S1                 0.0000
     33 ****         4.2180   0.6545   0.5009 H              1 S1                 0.0000
     34 ****         4.5225  -0.8146  -0.3888 H              1 S1                 0.0000
     35 ****         5.9734   1.0604  -1.1782 H              1 S1                 0.0000
     36 ****         4.9583   0.4350  -2.4542 H              1 S1                 0.0000
     37 ****         4.4768   2.9886  -0.8455 H              1 S1                 0.0000
     38 ****         4.9255   2.8852  -2.5270 H              1 S1                 0.0000
     39 ****         2.8119   1.7418  -3.0684 H              1 S1                 0.0000
     40 ****         2.4154   4.4024  -1.6452 H              1 S1                 0.0000
     41 ****         1.2414   3.6523  -2.7272 H              1 S1                 0.0000
     42 ****         2.8181   4.1404  -3.3339 H              1 S1                 0.0000
     43 ****         1.0319   1.4127  -1.5184 H              1 S1                 0.0000
     44 ****         2.7703   2.5194   0.7378 H              1 S1                 0.0000
     45 ****         1.1958   1.7630   0.9291 H              1 S1                 0.0000
     46 ****         1.3296   3.2716   0.0675 H              1 S1                 0.0000
     47 ****        -1.5540  -3.8091   0.3209 H              1 S1                 0.0000
     48 ****        -5.7371  -3.4705   2.3436 LP             1 S1                 0.0000
     49 ****        -5.8067  -2.0420   3.1317 LP             1 S1                 0.0000
     50 ****        -1.7965   1.0690   2.3256 LP             1 S1                 0.0000
     51 ****        -0.3255   0.2271   1.9687 LP             1 S1                 0.0000
     52 ****        -0.7672  -1.6785  -1.3107 LP             1 S1                 0.0000
     53 ****         0.5199  -0.7312  -1.9785 LP             1 S1                 0.0000
     54 ****        -3.9408  -3.7545   0.3814 LP             1 S1                 0.0000
@<TRIPOS>BOND
    1    1    2 1     
    2    1   23 1     
    3    1   24 1     
    4    1   25 1     
    5    2    3 1     
    6    3    4 1     
    7    3   26 1     
    8    3   27 1     
    9    4   22 1     
   10    4    5 2     
   11    5    6 1     
   12    5   28 1     
   13    6    7 2     
   14    6    8 am    
   15    8    9 1     
   16    8   21 1     
   17    9   10 1     
   18    9   29 1     
   19    9   30 1     
   20   10   11 2     
   21   10   12 am    
   22   12   13 1     
   23   12   31 1     
   24   13   19 1     
   25   13   14 1     
   26   13   32 1     
   27   14   15 1     
   28   14   33 1     
   29   14   34 1     
   30   15   16 1     
   31   15   35 1     
   32   15   36 1     
   33   16   17 1     
   34   16   37 1     
   35   16   38 1     
   36   17   18 1     
   37   17   19 1     
   38   17   39 1     
   39   18   40 1     
   40   18   41 1     
   41   18   42 1     
   42   19   20 1     
   43   19   43 1     
   44   20   44 1     
   45   20   45 1     
   46   20   46 1     
   47   21   22 2     
   48   21   47 1     
   49    2   48 1     
   50    2   49 1     
   51    7   50 1     
   52    7   51 1     
   53   11   52 1     
   54   11   53 1     
   55   22   54 1     
@<TRIPOS>SUBSTRUCTURE
      1 S1             1
@<TRIPOS>SET
LONE_PAIRS      STATIC     ATOMS    <user>   **** ""
7 48 49 50 51 52 53 54
DONOR_HYDROGENS      STATIC     ATOMS    <user>   **** ""
1 31
ATOM$BLUE        STATIC     ATOMS    COLORGROUP SYSTEM
7 48 49 50 51 52 53 54
ATOM$RED        STATIC     ATOMS    COLORGROUP SYSTEM
1 31
