#       Name:                AV-unprocessed.smi:2100
#       Creating user name   scv26
#       Creation time:       Fri Mar 27 11:30:20 2020


#       File generated by GOLD software.
#

@<TRIPOS>MOLECULE
AV-unprocessed.smi:2100
    46    47     1
SMALL
NO_CHARGES


@<TRIPOS>ATOM
      1 ****        -0.5019   4.6628   1.3019 C.3            1 S1                 0.0000
      2 ****        -1.0548   3.6703   0.2735 C.3            1 S1                 0.0000
      3 ****        -0.7789   2.2092   0.6720 C.3            1 S1                 0.0000
      4 ****        -1.4274   1.2735  -0.2634 N.3            1 S1                 0.0000
      5 ****        -1.0090  -0.4012  -0.1344 S.o2           1 S1                 0.0000
      6 ****        -1.1791  -0.8197   1.2654 O.2            1 S1                 0.0000
      7 ****        -1.6595  -1.1398  -1.2277 O.2            1 S1                 0.0000
      8 ****         0.6784  -0.3024  -0.4873 N.3            1 S1                 0.0000
      9 ****         1.4507  -1.5236  -0.7252 C.3            1 S1                 0.0000
     10 ****         1.6308  -2.3391   0.5652 C.3            1 S1                 0.0000
     11 ****         2.4972  -3.5658   0.3517 C.ar           1 S1                 0.0000
     12 ****         3.8517  -3.5689   0.7476 C.ar           1 S1                 0.0000
     13 ****         4.6134  -4.7323   0.5243 C.ar           1 S1                 0.0000
     14 ****         3.9953  -5.8411  -0.0852 C.ar           1 S1                 0.0000
     15 ****         2.6373  -5.7365  -0.4462 C.ar           1 S1                 0.0000
     16 ****         1.8979  -4.6260  -0.2358 N.ar           1 S1                 0.0000
     17 ****        -2.8464   1.5830  -0.4992 C.3            1 S1                 0.0000
     18 ****        -3.0405   3.0706  -0.8465 C.3            1 S1                 0.0000
     19 ****        -4.5218   3.4467  -0.9624 C.3            1 S1                 0.0000
     20 ****        -2.4567   3.8757   0.1683 O.3            1 S1                 0.0000
     21 ****         0.5763   4.5493   1.4169 H              1 S1                 0.0000
     22 ****        -0.9606   4.5149   2.2799 H              1 S1                 0.0000
     23 ****        -0.6966   5.6905   0.9947 H              1 S1                 0.0000
     24 ****        -0.5877   3.8797  -0.6906 H              1 S1                 0.0000
     25 ****         0.2959   2.0308   0.6943 H              1 S1                 0.0000
     26 ****        -1.1543   2.0143   1.6776 H              1 S1                 0.0000
     27 ****         0.8940   0.4456  -1.1457 H              1 S1                 0.0000
     28 ****         0.9586  -2.1175  -1.4964 H              1 S1                 0.0000
     29 ****         2.4270  -1.2386  -1.1181 H              1 S1                 0.0000
     30 ****         2.0743  -1.7159   1.3428 H              1 S1                 0.0000
     31 ****         0.6640  -2.6673   0.9480 H              1 S1                 0.0000
     32 ****         4.2984  -2.7018   1.2113 H              1 S1                 0.0000
     33 ****         5.6529  -4.7728   0.8143 H              1 S1                 0.0000
     34 ****         4.5487  -6.7494  -0.2723 H              1 S1                 0.0000
     35 ****         2.1316  -6.5666  -0.9169 H              1 S1                 0.0000
     36 ****        -3.2270   0.9622  -1.3106 H              1 S1                 0.0000
     37 ****        -3.4140   1.3233   0.3955 H              1 S1                 0.0000
     38 ****        -2.5556   3.2889  -1.7997 H              1 S1                 0.0000
     39 ****        -5.0138   2.8670  -1.7438 H              1 S1                 0.0000
     40 ****        -4.6375   4.5022  -1.2097 H              1 S1                 0.0000
     41 ****        -5.0503   3.2638  -0.0264 H              1 S1                 0.0000
     42 ****        -0.9785   1.4675  -1.1357 LP             1 S1                 0.0000
     43 ****         1.0352  -0.0666   0.4166 LP             1 S1                 0.0000
     44 ****         0.9359  -4.5889  -0.5065 LP             1 S1                 0.0000
     45 ****        -2.6264   4.8377  -0.0459 LP             1 S1                 0.0000
     46 ****        -2.8824   3.6492   1.0443 LP             1 S1                 0.0000
@<TRIPOS>BOND
    1    1    2 1     
    2    1   21 1     
    3    1   22 1     
    4    1   23 1     
    5    2   20 1     
    6    2    3 1     
    7    2   24 1     
    8    3    4 1     
    9    3   25 1     
   10    3   26 1     
   11    4    5 1     
   12    4   17 1     
   13    5    6 2     
   14    5    7 2     
   15    5    8 1     
   16    8    9 1     
   17    8   27 1     
   18    9   10 1     
   19    9   28 1     
   20    9   29 1     
   21   10   11 1     
   22   10   30 1     
   23   10   31 1     
   24   11   16 ar    
   25   11   12 ar    
   26   12   13 ar    
   27   12   32 1     
   28   13   14 ar    
   29   13   33 1     
   30   14   15 ar    
   31   14   34 1     
   32   15   16 ar    
   33   15   35 1     
   34   17   18 1     
   35   17   36 1     
   36   17   37 1     
   37   18   19 1     
   38   18   20 1     
   39   18   38 1     
   40   19   39 1     
   41   19   40 1     
   42   19   41 1     
   43    4   42 1     
   44    8   43 1     
   45   16   44 1     
   46   20   45 1     
   47   20   46 1     
@<TRIPOS>SUBSTRUCTURE
      1 S1             1
@<TRIPOS>SET
LONE_PAIRS      STATIC     ATOMS    <user>   **** ""
7 42 6 7 43 44 45 46
DONOR_HYDROGENS      STATIC     ATOMS    <user>   **** ""
1 27
ATOM$BLUE        STATIC     ATOMS    COLORGROUP SYSTEM
7 42 6 7 43 44 45 46
ATOM$RED        STATIC     ATOMS    COLORGROUP SYSTEM
1 27
