AV-unprocessed.smi:294|AV-procd|sdf|2252|dock6
  -GOLD-   2262022133D 1   1.00000     0.00000
 Structure written by MMmdl.
 29 30  0  0  0  0  0  0  0  0  1 V2000
  140.4873  134.8920  153.8972 N   0  0  0  0  0  0  0  0  0  0  0  0
  141.5428  135.0554  153.4519 C   0  0  0  0  0  0  0  0  0  0  0  0
  142.8676  135.2608  152.8922 C   0  0  0  0  0  0  0  0  0  0  0  0
  143.1773  136.3879  152.1876 N   0  0  0  0  0  0  0  0  0  0  0  0
  144.4467  136.1157  151.9110 C   0  0  0  0  0  0  0  0  0  0  0  0
  144.8683  134.9420  152.3939 N   0  0  0  0  0  0  0  0  0  0  0  0
  146.1697  134.3055  152.3189 C   0  0  0  0  0  0  0  0  0  0  0  0
  146.6999  133.9942  153.7182 C   0  0  0  0  0  0  0  0  0  0  0  0
  146.0471  133.2794  154.4782 O   0  0  0  0  0  0  0  0  0  0  0  0
  147.8908  134.5235  154.0378 N   0  0  0  0  0  0  0  0  0  0  0  0
  148.5905  134.3101  155.3000 C   0  0  2  0  0  0  0  0  0  0  0  0
  148.3280  135.4638  156.2853 C   0  0  0  0  0  0  0  0  0  0  0  0
  149.3502  135.3774  157.4256 C   0  0  0  0  0  0  0  0  0  0  0  0
  150.8674  134.6525  156.6943 S   0  0  0  0  0  0  0  0  0  0  0  0
  151.8639  135.7116  156.4748 O   0  0  0  0  0  0  0  0  0  0  0  0
  151.2134  133.4277  157.4313 O   0  0  0  0  0  0  0  0  0  0  0  0
  150.1087  134.2036  155.0886 C   0  0  0  0  0  0  0  0  0  0  0  0
  143.8346  134.3590  153.0493 N   0  0  0  0  0  0  0  0  0  0  0  0
  145.0832  136.7851  151.3507 H   0  0  0  0  0  0  0  0  0  0  0  0
  146.0957  133.3948  151.7220 H   0  0  0  0  0  0  0  0  0  0  0  0
  146.8597  134.9739  151.8024 H   0  0  0  0  0  0  0  0  0  0  0  0
  148.3561  135.0959  153.3478 H   0  0  0  0  0  0  0  0  0  0  0  0
  148.2373  133.3887  155.7674 H   0  0  0  0  0  0  0  0  0  0  0  0
  148.4632  136.4154  155.7689 H   0  0  0  0  0  0  0  0  0  0  0  0
  147.3053  135.4500  156.6638 H   0  0  0  0  0  0  0  0  0  0  0  0
  149.5721  136.3457  157.8744 H   0  0  0  0  0  0  0  0  0  0  0  0
  149.0003  134.7033  158.2080 H   0  0  0  0  0  0  0  0  0  0  0  0
  150.4288  133.2064  154.7860 H   0  0  0  0  0  0  0  0  0  0  0  0
  150.4565  134.9214  154.3448 H   0  0  0  0  0  0  0  0  0  0  0  0
  1  2  3  0  0  0  0
  2  3  1  0  0  0  0
  3 18  2  0  0  0  0
  3  4  1  0  0  0  0
  4  5  2  0  0  0  0
  5  6  1  0  0  0  0
  5 19  1  0  0  0  0
  6  7  1  0  0  0  0
  6 18  1  0  0  0  0
  7  8  1  0  0  0  0
  7 20  1  0  0  0  0
  7 21  1  0  0  0  0
  8  9  2  0  0  0  0
  8 10  1  0  0  0  0
 10 11  1  0  0  0  0
 10 22  1  0  0  0  0
 11 17  1  0  0  0  0
 11 12  1  0  0  0  0
 11 23  1  0  0  0  0
 12 13  1  0  0  0  0
 12 24  1  0  0  0  0
 12 25  1  0  0  0  0
 13 14  1  0  0  0  0
 13 26  1  0  0  0  0
 13 27  1  0  0  0  0
 14 15  2  0  0  0  0
 14 16  2  0  0  0  0
 14 17  1  0  0  0  0
 17 28  1  0  0  0  0
 17 29  1  0  0  0  0
M  END
> <s_m_source_file>
AV-unprocessed.smi

> <i_m_source_file_index>
294

> <i_lp_mmshare_version>
43012

> <i_f3d_flags>
0

> <s_epik_input>
TiNDYzFuW2NIXW4objEpW0NIMl1DKD1PKVtOSF1bQ0BASF0oW0NIMl0yKVtDSDJdW0NIMl1TMig9Tyk9Tw==

> <s_epik_cmdline>
J2VwaWtfcHl0aG9uJywgJy1waCcsICc3LjAnLCAnLXRuJywgJzgnLCAnLW1hJywgJzIwMCcsICctbWV0YWxfYmluZGluZycsICctaW1hZScsICc8aW5maWxlLm1hZT4nLCAnLW9tYWUnLCAnPG91dGZpbGUubWFlPic=

> <r_lp_tautomer_probability>
1

> <r_epik_Ionization_Penalty>
6.08231e-07

> <r_epik_Ionization_Penalty_Charging>
0

> <r_epik_Ionization_Penalty_Neutral>
6.08231e-07

> <r_epik_State_Penalty>
-0

> <r_epik_Charging_Adjusted_Penalty>
0

> <i_epik_Tot_Q>
0

> <i_epik_Tot_abs_Q>
0

> <r_epik_Metal_State_Penalty>
-0

> <b_epik_Metal_Only>
0

> <s_lp_Force_Field>
OPLS_2005

> <r_lp_Energy>
6.42809

> <b_lp_Chiralities_Consistent>
1

> <s_lp_Variant>
AV-unprocessed.smi:294-1

> <Gold.Version>
5.8.1

> <Gold.Id.Protein>
6NUR|6NUR_protein|mol2

> <Gold.PLP.Fitness>
34.0582

> <Gold.PLP.PLP>
-21.5008

> <Gold.PLP.part.hbond>
-5.0000

> <Gold.PLP.part.metal>
0.0000

> <Gold.PLP.part.buried>
-4.0646

> <Gold.PLP.part.nonpolar>
-13.6724

> <Gold.PLP.part.repulsive>
0.6647

> <Gold.PLP.ligand.clash>
0.0000

> <Gold.PLP.ligand.torsion>
0.3476

> <Gold.PLP.Chemscore.Hbond>
3.8411

> <Gold.PLP.Chemscore.CHOScore>
0.5757

> <Gold.PLP.Chemscore.Metal>
0.0000

> <Gold.Chemscore.Hbonds>
donor molecule, donor type, donor heavy atom, donor atom, acceptor molecule, acceptor atom, score
      L1  H    10    22       P1  7948  1.00
      P1  H  6896  6908       L1    16  0.69
      P1  H 10752 10764       L1    15  1.00
      P1  H 11000 11005       L1     1  1.00
      L1  C     5    19       P1 10171  0.50

> <Gold.PLP.Chemscore.Internal.Correction>
0.0022

> <Gold.Rescore>
     Score         DG    S(hbond)    S(metal)    S(lipo)     H(rot)  DE(clash)    DE(int)     intcor
     12.26     -13.96       3.57        0.00      17.77       2.15       0.00       1.71       ----

> <Gold.Chemscore.Fitness>
12.2566

> <Gold.Chemscore.DG>
-13.9620

> <Gold.Chemscore.ZeroCoef>
-5.4800

> <Gold.Chemscore.Hbond>
3.5685

> <Gold.Chemscore.Metal>
0.0000

> <Gold.Chemscore.Lipo>
17.7695

> <Gold.Chemscore.Internal_Hbond>
0.0000

> <Gold.Chemscore.DEClash>
0.0000

> <Gold.Chemscore.DEInternal>
1.7054

> <Gold.Chemscore.Rot>
2.1546

> <Gold.Chemscore.Internal.Correction>
   9.000000E+99

> <Gold.Chemscore.Hbonds>
donor molecule, donor type, donor heavy atom, donor atom, acceptor molecule, acceptor atom, score
      L1  H    10    22       P1  7948  0.92
      P1  H  6896  6908       L1    16  0.67
      P1  H 10752 10764       L1    15  0.96
      P1  H 11000 11005       L1     1  0.98

> <Gold.Chemscore.Hbond.Weighted>
-11.9187

> <Gold.Chemscore.Metal.Weighted>
-0.0000

> <Gold.Chemscore.Lipo.Weighted>
-2.0790

> <Gold.Chemscore.Internal_Hbond.Weighted>
0.0000

> <Gold.Chemscore.DEClash.Weighted>
0.0000

> <Gold.Chemscore.DEInternal.Weighted>
1.7054

> <Gold.Chemscore.Rot.Weighted>
5.5158

> <Gold.Chemscore.Internal.Correction.Weighted>
   9.000000E+99

> <Gold.Protein.RotatedTorsions>
[ 6907 6896 6895 6894 ] final   83.00 input  -60.11 | X-H torsion
[ 7974 7965 7964 7962 ] final  -28.57 input  175.53 | X-H torsion
[ 8008 7997 7996 7995 ] final  104.42 input   59.86 | X-H torsion
[ 10167 10162 10161 10158 ] final   19.33 input  -65.29 | X-H torsion
[ 10718 10713 10712 10709 ] final   -2.82 input   66.30 | X-H torsion
[ 10763 10752 10751 10750 ] final  -15.82 input  -60.55 | X-H torsion
[ 11005 11000 10999 10996 ] final   33.11 input  -57.11 | X-H torsion

> <Gold.Protein.ActiveResidues>
 VAL166  LYS551  ARG553  GLY616  TRP617  ASP618  TYR619  PRO620  LYS621  CYS622 
 ASP623  PHE694  ASN695  SER759  ASP760  ASP761  ALA762  ILE779  LEU786  VAL792 
 PHE793  MET794  SER795  GLU796  ALA797  LYS798  CYS799  TRP800  GLU811  SER814 

> <Gold.Protein.RotatedAtoms>
  152.5315  134.2964  159.9061 H   0  0  0  0  0  0  0  0  0  0  0  0  # atno 6907 bound_to 6896
  151.2915  133.4157  159.2641 H   0  0  0  0  0  0  0  0  0  0  0  0  # atno 6908 bound_to 6896
  151.0197  134.9475  159.8109 H   0  0  0  0  0  0  0  0  0  0  0  0  # atno 6909 bound_to 6896
  146.1279  140.5300  142.8706 H   0  0  0  0  0  0  0  0  0  0  0  0  # atno 7974 bound_to 7965
  156.1571  140.3148  155.8745 H   0  0  0  0  0  0  0  0  0  0  0  0  # atno 8008 bound_to 7997
  155.3856  140.0490  157.3059 H   0  0  0  0  0  0  0  0  0  0  0  0  # atno 8009 bound_to 7997
  154.5112  140.2165  155.9165 H   0  0  0  0  0  0  0  0  0  0  0  0  # atno 8010 bound_to 7997
  140.5587  143.9377  150.6627 H   0  0  0  0  0  0  0  0  0  0  0  0  # atno 10167 bound_to 10162
  156.7851  130.5343  149.5744 H   0  0  0  0  0  0  0  0  0  0  0  0  # atno 10718 bound_to 10713
  153.5491  135.7012  153.5600 H   0  0  0  0  0  0  0  0  0  0  0  0  # atno 10763 bound_to 10752
  153.3531  135.3990  155.1661 H   0  0  0  0  0  0  0  0  0  0  0  0  # atno 10764 bound_to 10752
  154.8663  135.3770  154.5001 H   0  0  0  0  0  0  0  0  0  0  0  0  # atno 10765 bound_to 10752
  140.2665  134.3131  155.7841 H   0  0  0  0  0  0  0  0  0  0  0  0  # atno 11005 bound_to 11000
  144.7660  140.5532  143.6702 LP  0  0  0  0  0  0  0  0  0  0  0  0  # atno 17320 bound_to 7965
  145.5326  139.1475  143.3491 LP  0  0  0  0  0  0  0  0  0  0  0  0  # atno 17321 bound_to 7965
  140.2822  143.3381  152.1140 LP  0  0  0  0  0  0  0  0  0  0  0  0  # atno 17342 bound_to 10162
  139.5060  144.6805  151.6020 LP  0  0  0  0  0  0  0  0  0  0  0  0  # atno 17343 bound_to 10162
  156.1193  130.6098  151.0169 LP  0  0  0  0  0  0  0  0  0  0  0  0  # atno 17370 bound_to 10713
  157.6627  131.0877  150.7800 LP  0  0  0  0  0  0  0  0  0  0  0  0  # atno 17371 bound_to 10713
  141.2183  133.7441  156.9269 LP  0  0  0  0  0  0  0  0  0  0  0  0  # atno 17394 bound_to 11000
  140.1414  134.9291  157.2471 LP  0  0  0  0  0  0  0  0  0  0  0  0  # atno 17395 bound_to 11000

$$$$
