AV-unprocessed.smi:1648|AV-procd|sdf|6627|dock7
  -GOLD-   22720 7323D 1   1.00000     0.00000
 Structure written by MMmdl.
 42 42  0  0  0  0  0  0  0  0  2 V2000
  148.7907  127.4370  150.3140 C   0  0  0  0  0  0  0  0  0  0  0  0
  148.2898  128.1271  151.5842 C   0  0  0  0  0  0  0  0  0  0  0  0
  147.1388  127.9267  151.9645 O   0  0  0  0  0  0  0  0  0  0  0  0
  149.1165  128.9428  152.2610 N   0  0  0  0  0  0  0  0  0  0  0  0
  148.8217  129.6870  153.4882 C   0  0  2  0  0  0  0  0  0  0  0  0
  147.5765  130.5485  153.2106 C   0  0  0  0  0  0  0  0  0  0  0  0
  146.7913  130.8201  154.1203 O   0  0  0  0  0  0  0  0  0  0  0  0
  147.4202  130.9830  151.9499 N   0  0  0  0  0  0  0  0  0  0  0  0
  146.3435  131.8515  151.4753 C   0  0  2  0  0  0  0  0  0  0  0  0
  146.1789  131.6546  149.9625 C   0  0  0  0  0  0  0  0  0  0  0  0
  146.6303  133.3303  151.8201 C   0  0  0  0  0  0  0  0  0  0  0  0
  145.5522  134.2374  151.4083 N   0  0  0  0  0  0  0  0  0  0  0  0
  145.5846  135.6084  151.3823 C   0  0  0  0  0  0  0  0  0  0  0  0
  144.3637  136.0198  150.9135 C   0  0  0  0  0  0  0  0  0  0  0  0
  143.6336  134.8848  150.6839 N   0  3  0  0  0  0  0  0  0  0  0  0
  144.3538  133.8028  150.9961 C   0  0  0  0  0  0  0  0  0  0  0  0
  150.0362  130.5988  153.8308 C   0  0  0  0  0  0  0  0  0  0  0  0
  151.2784  129.7737  154.2204 C   0  0  0  0  0  0  0  0  0  0  0  0
  149.7285  131.6093  154.9557 C   0  0  0  0  0  0  0  0  0  0  0  0
  148.9707  128.1718  149.5289 H   0  0  0  0  0  0  0  0  0  0  0  0
  148.0502  126.7260  149.9460 H   0  0  0  0  0  0  0  0  0  0  0  0
  149.7152  126.8908  150.4978 H   0  0  0  0  0  0  0  0  0  0  0  0
  150.0281  129.1052  151.8578 H   0  0  0  0  0  0  0  0  0  0  0  0
  148.6386  129.0088  154.3236 H   0  0  0  0  0  0  0  0  0  0  0  0
  148.1086  130.7008  151.2670 H   0  0  0  0  0  0  0  0  0  0  0  0
  145.4015  131.5561  151.9410 H   0  0  0  0  0  0  0  0  0  0  0  0
  145.3603  132.2615  149.5747 H   0  0  0  0  0  0  0  0  0  0  0  0
  145.9569  130.6140  149.7235 H   0  0  0  0  0  0  0  0  0  0  0  0
  147.0846  131.9346  149.4232 H   0  0  0  0  0  0  0  0  0  0  0  0
  146.8026  133.4531  152.8909 H   0  0  0  0  0  0  0  0  0  0  0  0
  147.5366  133.6658  151.3148 H   0  0  0  0  0  0  0  0  0  0  0  0
  146.4555  136.1738  151.6804 H   0  0  0  0  0  0  0  0  0  0  0  0
  143.9703  137.0091  150.7303 H   0  0  0  0  0  0  0  0  0  0  0  0
  144.0320  132.7799  150.9174 H   0  0  0  0  0  0  0  0  0  0  0  0
  150.3038  131.1749  152.9432 H   0  0  0  0  0  0  0  0  0  0  0  0
  151.0779  129.1441  155.0879 H   0  0  0  0  0  0  0  0  0  0  0  0
  152.1184  130.4228  154.4700 H   0  0  0  0  0  0  0  0  0  0  0  0
  151.6097  129.1258  153.4089 H   0  0  0  0  0  0  0  0  0  0  0  0
  149.4121  131.1010  155.8672 H   0  0  0  0  0  0  0  0  0  0  0  0
  148.9432  132.3116  154.6757 H   0  0  0  0  0  0  0  0  0  0  0  0
  150.6093  132.2044  155.1987 H   0  0  0  0  0  0  0  0  0  0  0  0
  142.6852  134.8646  150.3300 H   0  0  0  0  0  0  0  0  0  0  0  0
  1  2  1  0  0  0  0
  1 20  1  0  0  0  0
  1 21  1  0  0  0  0
  1 22  1  0  0  0  0
  2  3  2  0  0  0  0
  2  4  1  0  0  0  0
  4  5  1  0  0  0  0
  4 23  1  0  0  0  0
  5  6  1  0  0  0  0
  5 17  1  0  0  0  0
  5 24  1  0  0  0  0
  6  7  2  0  0  0  0
  6  8  1  0  0  0  0
  8  9  1  0  0  0  0
  8 25  1  0  0  0  0
  9 10  1  0  0  0  0
  9 11  1  0  0  0  0
  9 26  1  0  0  0  0
 10 27  1  0  0  0  0
 10 28  1  0  0  0  0
 10 29  1  0  0  0  0
 11 12  1  0  0  0  0
 11 30  1  0  0  0  0
 11 31  1  0  0  0  0
 12 16  1  0  0  0  0
 12 13  1  0  0  0  0
 13 14  2  0  0  0  0
 13 32  1  0  0  0  0
 14 15  1  0  0  0  0
 14 33  1  0  0  0  0
 15 16  2  0  0  0  0
 15 42  1  0  0  0  0
 16 34  1  0  0  0  0
 17 18  1  0  0  0  0
 17 19  1  0  0  0  0
 17 35  1  0  0  0  0
 18 36  1  0  0  0  0
 18 37  1  0  0  0  0
 18 38  1  0  0  0  0
 19 39  1  0  0  0  0
 19 40  1  0  0  0  0
 19 41  1  0  0  0  0
M  CHG  1  15   1
M  END
> <s_m_source_file>
AV-unprocessed.smi

> <i_m_source_file_index>
1648

> <i_lp_mmshare_version>
43012

> <i_f3d_flags>
0

> <s_epik_input>
W0NIM11DKD1PKVtOSF1bQ0BASF0oW0NIXShbQ0gzXSlbQ0gzXSlDKD1PKVtOSF1bQ0BIXShbQ0gzXSlbQ0gyXW4xW2NIXVtjSF1uW2NIXTE=

> <s_epik_cmdline>
J2VwaWtfcHl0aG9uJywgJy1waCcsICc3LjAnLCAnLXRuJywgJzgnLCAnLW1hJywgJzIwMCcsICctbWV0YWxfYmluZGluZycsICctaW1hZScsICc8aW5maWxlLm1hZT4nLCAnLW9tYWUnLCAnPG91dGZpbGUubWFlPic=

> <r_lp_tautomer_probability>
1

> <r_epik_Ionization_Penalty>
0.251562

> <r_epik_Ionization_Penalty_Charging>
0

> <r_epik_Ionization_Penalty_Neutral>
0.251562

> <r_epik_State_Penalty>
0.242926

> <r_epik_Charging_Adjusted_Penalty>
0.242926

> <i_epik_Tot_Q>
1

> <i_epik_Tot_abs_Q>
1

> <r_epik_Metal_State_Penalty>
0.53388

> <b_epik_Metal_Only>
0

> <s_lp_Force_Field>
OPLS_2005

> <r_lp_Energy>
9.98337

> <b_lp_Chiralities_Consistent>
1

> <s_lp_Variant>
AV-unprocessed.smi:1648-1

> <Gold.Version>
5.8.1

> <Gold.Id.Protein>
6NUR|6NUR_protein|mol2

> <Gold.PLP.Fitness>
43.2970

> <Gold.PLP.PLP>
-33.7819

> <Gold.PLP.part.hbond>
-2.7675

> <Gold.PLP.part.metal>
0.0000

> <Gold.PLP.part.buried>
1.5955

> <Gold.PLP.part.nonpolar>
-32.2983

> <Gold.PLP.part.repulsive>
0.3642

> <Gold.PLP.ligand.clash>
0.0000

> <Gold.PLP.ligand.torsion>
1.2368

> <Gold.PLP.Chemscore.Hbond>
2.9760

> <Gold.PLP.Chemscore.CHOScore>
1.0000

> <Gold.PLP.Chemscore.Metal>
0.0000

> <Gold.Chemscore.Hbonds>
donor molecule, donor type, donor heavy atom, donor atom, acceptor molecule, acceptor atom, score
      L1  H     4    23       P1 10737  0.01
      L1  H     8    25       P1 10747  0.47
      L1  H    15    42       P1 10186  1.80
      L1  C    13    32       P1  7948  1.00

> <Gold.PLP.Chemscore.Internal.Correction>
0.0607

> <Gold.Rescore>
     Score         DG    S(hbond)    S(metal)    S(lipo)     H(rot)  DE(clash)    DE(int)     intcor
      9.73     -12.50       1.70        0.00      68.72       2.61       1.75       1.03       ----

> <Gold.Chemscore.Fitness>
9.7299

> <Gold.Chemscore.DG>
-12.5027

> <Gold.Chemscore.ZeroCoef>
-5.4800

> <Gold.Chemscore.Hbond>
1.6987

> <Gold.Chemscore.Metal>
0.0000

> <Gold.Chemscore.Lipo>
68.7154

> <Gold.Chemscore.Internal_Hbond>
0.0000

> <Gold.Chemscore.DEClash>
1.7462

> <Gold.Chemscore.DEInternal>
1.0266

> <Gold.Chemscore.Rot>
2.6135

> <Gold.Chemscore.Internal.Correction>
   9.000000E+99

> <Gold.Chemscore.Hbonds>
donor molecule, donor type, donor heavy atom, donor atom, acceptor molecule, acceptor atom, score
      L1  H     4    23       P1 10737  0.02
      L1  H     8    25       P1 10747  0.47
      L1  H    15    42       P1 10186  0.18

> <Gold.Chemscore.Hbond.Weighted>
-5.6737

> <Gold.Chemscore.Metal.Weighted>
-0.0000

> <Gold.Chemscore.Lipo.Weighted>
-8.0397

> <Gold.Chemscore.Internal_Hbond.Weighted>
0.0000

> <Gold.Chemscore.DEClash.Weighted>
1.7462

> <Gold.Chemscore.DEInternal.Weighted>
1.0266

> <Gold.Chemscore.Rot.Weighted>
6.6906

> <Gold.Chemscore.Internal.Correction.Weighted>
   9.000000E+99

> <Gold.Protein.RotatedTorsions>
[ 6907 6896 6895 6894 ] final  -43.88 input  -60.11 | X-H torsion
[ 7974 7965 7964 7962 ] final  -73.28 input  175.53 | X-H torsion
[ 8008 7997 7996 7995 ] final    7.61 input   59.86 | X-H torsion
[ 10167 10162 10161 10158 ] final   71.99 input  -65.29 | X-H torsion
[ 10718 10713 10712 10709 ] final -104.51 input   66.30 | X-H torsion
[ 10763 10752 10751 10750 ] final   29.69 input  -60.55 | X-H torsion
[ 11005 11000 10999 10996 ] final  149.91 input  -57.11 | X-H torsion

> <Gold.Protein.ActiveResidues>
 VAL166  LYS551  ARG553  GLY616  TRP617  ASP618  TYR619  PRO620  LYS621  CYS622 
 ASP623  PHE694  ASN695  SER759  ASP760  ASP761  ALA762  ILE779  LEU786  VAL792 
 PHE793  MET794  SER795  GLU796  ALA797  LYS798  CYS799  TRP800  GLU811  SER814 

> <Gold.Protein.RotatedAtoms>
  150.9390  134.8800  159.7599 H   0  0  0  0  0  0  0  0  0  0  0  0  # atno 6907 bound_to 6896
  152.5072  134.3970  159.9413 H   0  0  0  0  0  0  0  0  0  0  0  0  # atno 6908 bound_to 6896
  151.3992  133.3723  159.2765 H   0  0  0  0  0  0  0  0  0  0  0  0  # atno 6909 bound_to 6896
  145.6542  140.9273  143.0968 H   0  0  0  0  0  0  0  0  0  0  0  0  # atno 7974 bound_to 7965
  154.7561  140.2776  155.6253 H   0  0  0  0  0  0  0  0  0  0  0  0  # atno 8008 bound_to 7997
  156.2906  140.2669  156.2254 H   0  0  0  0  0  0  0  0  0  0  0  0  # atno 8009 bound_to 7997
  155.0076  140.0372  157.2376 H   0  0  0  0  0  0  0  0  0  0  0  0  # atno 8010 bound_to 7997
  140.0402  144.5396  150.7440 H   0  0  0  0  0  0  0  0  0  0  0  0  # atno 10167 bound_to 10162
  156.0307  130.5519  150.7407 H   0  0  0  0  0  0  0  0  0  0  0  0  # atno 10718 bound_to 10713
  153.0415  135.6483  154.0929 H   0  0  0  0  0  0  0  0  0  0  0  0  # atno 10763 bound_to 10752
  154.0635  135.2886  155.3322 H   0  0  0  0  0  0  0  0  0  0  0  0  # atno 10764 bound_to 10752
  154.6642  135.5380  153.8121 H   0  0  0  0  0  0  0  0  0  0  0  0  # atno 10765 bound_to 10752
  140.1085  134.8939  157.1902 H   0  0  0  0  0  0  0  0  0  0  0  0  # atno 11005 bound_to 11000
  144.7111  139.8366  143.7414 LP  0  0  0  0  0  0  0  0  0  0  0  0  # atno 17320 bound_to 7965
  146.1178  139.4192  143.0247 LP  0  0  0  0  0  0  0  0  0  0  0  0  # atno 17321 bound_to 7965
  140.7264  143.2640  151.4107 LP  0  0  0  0  0  0  0  0  0  0  0  0  # atno 17342 bound_to 10162
  139.6019  144.1278  152.2207 LP  0  0  0  0  0  0  0  0  0  0  0  0  # atno 17343 bound_to 10162
  157.4977  131.0916  151.0352 LP  0  0  0  0  0  0  0  0  0  0  0  0  # atno 17370 bound_to 10713
  157.0742  130.5876  149.5408 LP  0  0  0  0  0  0  0  0  0  0  0  0  # atno 17371 bound_to 10713
  140.3123  134.3010  155.7264 LP  0  0  0  0  0  0  0  0  0  0  0  0  # atno 17394 bound_to 11000
  141.2124  133.7658  156.9794 LP  0  0  0  0  0  0  0  0  0  0  0  0  # atno 17395 bound_to 11000

$$$$
