AV-unprocessed.smi:2191|AV-procd|sdf|8892|dock2
  -GOLD-   2272012 93D 1   1.00000     0.00000
 Structure written by MMmdl.
 36 38  0  0  0  0  0  0  0  0  1 V2000
  150.5896  139.9491  154.1975 O   0  0  0  0  0  0  0  0  0  0  0  0
  150.0760  140.2332  155.4844 C   0  0  2  0  0  0  0  0  0  0  0  0
  148.5439  140.1315  155.4263 C   0  0  0  0  0  0  0  0  0  0  0  0
  148.0753  140.8905  154.3196 O   0  0  0  0  0  0  0  0  0  0  0  0
  147.0876  141.8268  154.5399 C   0  0  0  0  0  0  0  0  0  0  0  0
  146.6121  142.5306  153.4141 C   0  0  0  0  0  0  0  0  0  0  0  0
  145.6029  143.5039  153.5450 C   0  0  0  0  0  0  0  0  0  0  0  0
  145.0566  143.7844  154.8109 C   0  0  0  0  0  0  0  0  0  0  0  0
  145.5224  143.0911  155.9435 C   0  0  0  0  0  0  0  0  0  0  0  0
  146.5314  142.1168  155.8121 C   0  0  0  0  0  0  0  0  0  0  0  0
  150.5417  141.6381  155.9144 C   0  0  0  0  0  0  0  0  0  0  0  0
  150.8690  141.7116  157.3276 N   0  0  0  0  0  0  0  0  0  0  0  0
  150.8771  140.6945  158.2105 C   0  0  0  0  0  0  0  0  0  0  0  0
  151.2056  140.9802  159.4672 N   0  0  0  0  0  0  0  0  0  0  0  0
  151.4370  142.3431  159.3920 C   0  0  0  0  0  0  0  0  0  0  0  0
  151.8225  143.2641  160.3925 C   0  0  0  0  0  0  0  0  0  0  0  0
  151.9986  144.6279  160.0786 C   0  0  0  0  0  0  0  0  0  0  0  0
  151.7950  145.0909  158.7623 C   0  0  0  0  0  0  0  0  0  0  0  0
  151.4126  144.1918  157.7482 C   0  0  0  0  0  0  0  0  0  0  0  0
  151.2347  142.8322  158.0660 C   0  0  0  0  0  0  0  0  0  0  0  0
  150.9903  139.0933  154.2185 H   0  0  0  0  0  0  0  0  0  0  0  0
  150.4663  139.4997  156.1913 H   0  0  0  0  0  0  0  0  0  0  0  0
  148.2560  139.0898  155.2742 H   0  0  0  0  0  0  0  0  0  0  0  0
  148.0994  140.4674  156.3651 H   0  0  0  0  0  0  0  0  0  0  0  0
  147.0261  142.3213  152.4384 H   0  0  0  0  0  0  0  0  0  0  0  0
  145.2484  144.0347  152.6740 H   0  0  0  0  0  0  0  0  0  0  0  0
  144.2821  144.5302  154.9132 H   0  0  0  0  0  0  0  0  0  0  0  0
  145.1047  143.3062  156.9159 H   0  0  0  0  0  0  0  0  0  0  0  0
  146.8613  141.6058  156.7037 H   0  0  0  0  0  0  0  0  0  0  0  0
  151.4145  141.9437  155.3361 H   0  0  0  0  0  0  0  0  0  0  0  0
  149.7615  142.3724  155.7095 H   0  0  0  0  0  0  0  0  0  0  0  0
  150.6279  139.6864  157.9127 H   0  0  0  0  0  0  0  0  0  0  0  0
  151.9818  142.9206  161.4039 H   0  0  0  0  0  0  0  0  0  0  0  0
  152.2917  145.3224  160.8522 H   0  0  0  0  0  0  0  0  0  0  0  0
  151.9335  146.1370  158.5307 H   0  0  0  0  0  0  0  0  0  0  0  0
  151.2590  144.5423  156.7385 H   0  0  0  0  0  0  0  0  0  0  0  0
  1  2  1  0  0  0  0
  1 21  1  0  0  0  0
  2  3  1  0  0  0  0
  2 11  1  0  0  0  0
  2 22  1  0  0  0  0
  3  4  1  0  0  0  0
  3 23  1  0  0  0  0
  3 24  1  0  0  0  0
  4  5  1  0  0  0  0
  5 10  1  0  0  0  0
  5  6  2  0  0  0  0
  6  7  1  0  0  0  0
  6 25  1  0  0  0  0
  7  8  2  0  0  0  0
  7 26  1  0  0  0  0
  8  9  1  0  0  0  0
  8 27  1  0  0  0  0
  9 10  2  0  0  0  0
  9 28  1  0  0  0  0
 10 29  1  0  0  0  0
 11 12  1  0  0  0  0
 11 30  1  0  0  0  0
 11 31  1  0  0  0  0
 12 20  1  0  0  0  0
 12 13  1  0  0  0  0
 13 14  2  0  0  0  0
 13 32  1  0  0  0  0
 14 15  1  0  0  0  0
 15 20  2  0  0  0  0
 15 16  1  0  0  0  0
 16 17  2  0  0  0  0
 16 33  1  0  0  0  0
 17 18  1  0  0  0  0
 17 34  1  0  0  0  0
 18 19  2  0  0  0  0
 18 35  1  0  0  0  0
 19 20  1  0  0  0  0
 19 36  1  0  0  0  0
M  END
> <s_m_source_file>
AV-unprocessed.smi

> <i_m_source_file_index>
2191

> <i_lp_mmshare_version>
43012

> <i_f3d_flags>
0

> <s_epik_input>
W2NIXTFbY0hdW2NIXVtjSF1jKGMxMiluKFtjSF1uMilbQ0gyXVtDQEhdKFtPSF0pW0NIMl1PYzNbY0hdW2NIXVtjSF1bY0hdW2NIXTM=

> <s_epik_cmdline>
J2VwaWtfcHl0aG9uJywgJy1waCcsICc3LjAnLCAnLXRuJywgJzgnLCAnLW1hJywgJzIwMCcsICctbWV0YWxfYmluZGluZycsICctaW1hZScsICc8aW5maWxlLm1hZT4nLCAnLW9tYWUnLCAnPG91dGZpbGUubWFlPic=

> <r_lp_tautomer_probability>
1

> <r_epik_Ionization_Penalty>
0.0640132

> <r_epik_Ionization_Penalty_Charging>
0

> <r_epik_Ionization_Penalty_Neutral>
0.0640132

> <r_epik_State_Penalty>
0.0557325

> <r_epik_Charging_Adjusted_Penalty>
0.0557325

> <i_epik_Tot_Q>
0

> <i_epik_Tot_abs_Q>
0

> <r_epik_Metal_State_Penalty>
5.8435e-05

> <b_epik_Metal_Only>
0

> <s_lp_Force_Field>
OPLS_2005

> <r_lp_Energy>
16.2786

> <b_lp_Chiralities_Consistent>
1

> <s_lp_Variant>
AV-unprocessed.smi:2191-1

> <Gold.Version>
5.8.1

> <Gold.Id.Protein>
6NUR|6NUR_protein|mol2

> <Gold.PLP.Fitness>
47.4880

> <Gold.PLP.PLP>
-46.3935

> <Gold.PLP.part.hbond>
-1.7580

> <Gold.PLP.part.metal>
0.0000

> <Gold.PLP.part.buried>
-7.8293

> <Gold.PLP.part.nonpolar>
-36.6883

> <Gold.PLP.part.repulsive>
0.1185

> <Gold.PLP.ligand.clash>
0.0000

> <Gold.PLP.ligand.torsion>
0.9658

> <Gold.PLP.Chemscore.Hbond>
1.0000

> <Gold.PLP.Chemscore.CHOScore>
0.0000

> <Gold.PLP.Chemscore.Metal>
0.0000

> <Gold.Chemscore.Hbonds>
donor molecule, donor type, donor heavy atom, donor atom, acceptor molecule, acceptor atom, score
      P1  H  7989  7998       L1     1  1.00

> <Gold.PLP.Chemscore.Internal.Correction>
0.0261

> <Gold.Rescore>
     Score         DG    S(hbond)    S(metal)    S(lipo)     H(rot)  DE(clash)    DE(int)     intcor
     15.71     -16.66       0.97        0.00     116.46       2.22       0.04       0.91       ----

> <Gold.Chemscore.Fitness>
15.7124

> <Gold.Chemscore.DG>
-16.6613

> <Gold.Chemscore.ZeroCoef>
-5.4800

> <Gold.Chemscore.Hbond>
0.9696

> <Gold.Chemscore.Metal>
0.0000

> <Gold.Chemscore.Lipo>
116.4615

> <Gold.Chemscore.Internal_Hbond>
0.0000

> <Gold.Chemscore.DEClash>
0.0392

> <Gold.Chemscore.DEInternal>
0.9098

> <Gold.Chemscore.Rot>
2.2200

> <Gold.Chemscore.Internal.Correction>
   9.000000E+99

> <Gold.Chemscore.Hbonds>
donor molecule, donor type, donor heavy atom, donor atom, acceptor molecule, acceptor atom, score
      P1  H  7989  7998       L1     1  0.47

> <Gold.Chemscore.Hbond.Weighted>
-3.2386

> <Gold.Chemscore.Metal.Weighted>
-0.0000

> <Gold.Chemscore.Lipo.Weighted>
-13.6260

> <Gold.Chemscore.Internal_Hbond.Weighted>
0.0000

> <Gold.Chemscore.DEClash.Weighted>
0.0392

> <Gold.Chemscore.DEInternal.Weighted>
0.9098

> <Gold.Chemscore.Rot.Weighted>
5.6832

> <Gold.Chemscore.Internal.Correction.Weighted>
   9.000000E+99

> <Gold.Protein.RotatedTorsions>
[ 6907 6896 6895 6894 ] final   93.94 input  -60.11 | X-H torsion
[ 7974 7965 7964 7962 ] final  126.53 input  175.53 | X-H torsion
[ 8008 7997 7996 7995 ] final   60.53 input   59.86 | X-H torsion
[ 10167 10162 10161 10158 ] final -107.05 input  -65.29 | X-H torsion
[ 10718 10713 10712 10709 ] final  103.23 input   66.30 | X-H torsion
[ 10763 10752 10751 10750 ] final  -13.52 input  -60.55 | X-H torsion
[ 11005 11000 10999 10996 ] final -121.97 input  -57.11 | X-H torsion

> <Gold.Protein.ActiveResidues>
 VAL166  LYS551  ARG553  GLY616  TRP617  ASP618  TYR619  PRO620  LYS621  CYS622 
 ASP623  PHE694  ASN695  SER759  ASP760  ASP761  ALA762  ILE779  LEU786  VAL792 
 PHE793  MET794  SER795  GLU796  ALA797  LYS798  CYS799  TRP800  GLU811  SER814 

> <Gold.Protein.RotatedAtoms>
  152.5451  134.1270  159.8422 H   0  0  0  0  0  0  0  0  0  0  0  0  # atno 6907 bound_to 6896
  151.1319  133.5023  159.2606 H   0  0  0  0  0  0  0  0  0  0  0  0  # atno 6908 bound_to 6896
  151.1666  135.0308  159.8788 H   0  0  0  0  0  0  0  0  0  0  0  0  # atno 6909 bound_to 6896
  145.0607  139.3807  143.5007 H   0  0  0  0  0  0  0  0  0  0  0  0  # atno 7974 bound_to 7965
  155.5838  140.3492  155.4547 H   0  0  0  0  0  0  0  0  0  0  0  0  # atno 8008 bound_to 7997
  156.0353  140.1283  157.0239 H   0  0  0  0  0  0  0  0  0  0  0  0  # atno 8009 bound_to 7997
  154.4369  140.1035  156.6144 H   0  0  0  0  0  0  0  0  0  0  0  0  # atno 8010 bound_to 7997
  140.1811  143.3966  152.1280 H   0  0  0  0  0  0  0  0  0  0  0  0  # atno 10167 bound_to 10162
  157.6779  131.0773  150.5523 H   0  0  0  0  0  0  0  0  0  0  0  0  # atno 10718 bound_to 10713
  153.5145  135.7016  153.5763 H   0  0  0  0  0  0  0  0  0  0  0  0  # atno 10763 bound_to 10752
  153.3839  135.3913  155.1876 H   0  0  0  0  0  0  0  0  0  0  0  0  # atno 10764 bound_to 10752
  154.8700  135.3842  154.4628 H   0  0  0  0  0  0  0  0  0  0  0  0  # atno 10765 bound_to 10752
  141.0030  134.0375  157.3513 H   0  0  0  0  0  0  0  0  0  0  0  0  # atno 11005 bound_to 11000
  146.3524  140.0304  142.8651 LP  0  0  0  0  0  0  0  0  0  0  0  0  # atno 17320 bound_to 7965
  145.1412  140.9572  143.4487 LP  0  0  0  0  0  0  0  0  0  0  0  0  # atno 17321 bound_to 7965
  139.5296  144.7143  151.5105 LP  0  0  0  0  0  0  0  0  0  0  0  0  # atno 17342 bound_to 10162
  140.6519  143.8679  150.6794 LP  0  0  0  0  0  0  0  0  0  0  0  0  # atno 17343 bound_to 10162
  156.5828  130.4309  149.5970 LP  0  0  0  0  0  0  0  0  0  0  0  0  # atno 17370 bound_to 10713
  156.2647  130.6983  151.1762 LP  0  0  0  0  0  0  0  0  0  0  0  0  # atno 17371 bound_to 10713
  139.9049  135.0176  156.7438 LP  0  0  0  0  0  0  0  0  0  0  0  0  # atno 17394 bound_to 11000
  140.6858  133.9434  155.7937 LP  0  0  0  0  0  0  0  0  0  0  0  0  # atno 17395 bound_to 11000

$$$$
