AV-unprocessed.smi:2163|AV-procd|sdf|8807|dock3
  -GOLD-   2272011593D 1   1.00000     0.00000
 Structure written by MMmdl.
 44 46  0  0  0  0  0  0  0  0  2 V2000
  151.1025  141.0221  156.0814 C   0  0  0  0  0  0  0  0  0  0  0  0
  151.2693  142.0098  157.1868 C   0  0  0  0  0  0  0  0  0  0  0  0
  150.6709  143.2319  157.2659 N   0  3  0  0  0  0  0  0  0  0  0  0
  151.0637  143.8747  158.4410 C   0  0  0  0  0  0  0  0  0  0  0  0
  150.7232  145.1217  158.9562 C   0  0  0  0  0  0  0  0  0  0  0  0
  151.3058  145.4765  160.1907 C   0  0  0  0  0  0  0  0  0  0  0  0
  152.1887  144.6069  160.8634 C   0  0  0  0  0  0  0  0  0  0  0  0
  152.5268  143.3453  160.3309 C   0  0  0  0  0  0  0  0  0  0  0  0
  151.9454  143.0020  159.1108 C   0  0  0  0  0  0  0  0  0  0  0  0
  152.0403  141.8642  158.3025 N   0  0  0  0  0  0  0  0  0  0  0  0
  152.8941  140.7461  158.7339 C   0  0  0  0  0  0  0  0  0  0  0  0
  152.1386  139.4029  158.8020 C   0  0  1  0  0  0  0  0  0  0  0  0
  152.3309  138.7075  157.5854 O   0  0  0  0  0  0  0  0  0  0  0  0
  152.6406  138.5198  159.9554 C   0  0  0  0  0  0  0  0  0  0  0  0
  153.9806  138.8820  160.2622 O   0  0  0  0  0  0  0  0  0  0  0  0
  154.4587  138.6082  161.5258 C   0  0  0  0  0  0  0  0  0  0  0  0
  154.0223  137.5220  162.3262 C   0  0  0  0  0  0  0  0  0  0  0  0
  154.5585  137.3239  163.6135 C   0  0  0  0  0  0  0  0  0  0  0  0
  155.5374  138.2020  164.1181 C   0  0  0  0  0  0  0  0  0  0  0  0
  156.1075  137.9904  165.5051 C   0  0  0  0  0  0  0  0  0  0  0  0
  155.9498  139.1795  166.3558 C   0  0  0  0  0  0  0  0  0  0  0  0
  155.8254  140.1149  167.0254 N   0  0  0  0  0  0  0  0  0  0  0  0
  155.9828  139.2772  163.3251 C   0  0  0  0  0  0  0  0  0  0  0  0
  155.4451  139.4756  162.0388 C   0  0  0  0  0  0  0  0  0  0  0  0
  150.3958  141.3930  155.3388 H   0  0  0  0  0  0  0  0  0  0  0  0
  150.7279  140.0768  156.4742 H   0  0  0  0  0  0  0  0  0  0  0  0
  152.0592  140.8420  155.5906 H   0  0  0  0  0  0  0  0  0  0  0  0
  150.0471  145.7898  158.4431 H   0  0  0  0  0  0  0  0  0  0  0  0
  151.0703  146.4349  160.6305 H   0  0  0  0  0  0  0  0  0  0  0  0
  152.6152  144.9129  161.8078 H   0  0  0  0  0  0  0  0  0  0  0  0
  153.2025  142.6851  160.8539 H   0  0  0  0  0  0  0  0  0  0  0  0
  153.7287  140.6762  158.0353 H   0  0  0  0  0  0  0  0  0  0  0  0
  153.3265  141.0006  159.7025 H   0  0  0  0  0  0  0  0  0  0  0  0
  151.0730  139.5968  158.9289 H   0  0  0  0  0  0  0  0  0  0  0  0
  151.5591  138.8169  157.0515 H   0  0  0  0  0  0  0  0  0  0  0  0
  151.9845  138.6133  160.8229 H   0  0  0  0  0  0  0  0  0  0  0  0
  152.6331  137.4746  159.6422 H   0  0  0  0  0  0  0  0  0  0  0  0
  153.2762  136.8254  161.9758 H   0  0  0  0  0  0  0  0  0  0  0  0
  154.2155  136.4943  164.2143 H   0  0  0  0  0  0  0  0  0  0  0  0
  155.6116  137.1498  165.9911 H   0  0  0  0  0  0  0  0  0  0  0  0
  157.1691  137.7510  165.4391 H   0  0  0  0  0  0  0  0  0  0  0  0
  156.7363  139.9534  163.7015 H   0  0  0  0  0  0  0  0  0  0  0  0
  155.7909  140.3060  161.4408 H   0  0  0  0  0  0  0  0  0  0  0  0
  150.0381  143.5970  156.5658 H   0  0  0  0  0  0  0  0  0  0  0  0
  1  2  1  0  0  0  0
  1 25  1  0  0  0  0
  1 26  1  0  0  0  0
  1 27  1  0  0  0  0
  2 10  1  0  0  0  0
  2  3  2  0  0  0  0
  3  4  1  0  0  0  0
  3 44  1  0  0  0  0
  4  9  2  0  0  0  0
  4  5  1  0  0  0  0
  5  6  2  0  0  0  0
  5 28  1  0  0  0  0
  6  7  1  0  0  0  0
  6 29  1  0  0  0  0
  7  8  2  0  0  0  0
  7 30  1  0  0  0  0
  8  9  1  0  0  0  0
  8 31  1  0  0  0  0
  9 10  1  0  0  0  0
 10 11  1  0  0  0  0
 11 12  1  0  0  0  0
 11 32  1  0  0  0  0
 11 33  1  0  0  0  0
 12 13  1  0  0  0  0
 12 14  1  0  0  0  0
 12 34  1  0  0  0  0
 13 35  1  0  0  0  0
 14 15  1  0  0  0  0
 14 36  1  0  0  0  0
 14 37  1  0  0  0  0
 15 16  1  0  0  0  0
 16 24  1  0  0  0  0
 16 17  2  0  0  0  0
 17 18  1  0  0  0  0
 17 38  1  0  0  0  0
 18 19  2  0  0  0  0
 18 39  1  0  0  0  0
 19 20  1  0  0  0  0
 19 23  1  0  0  0  0
 20 21  1  0  0  0  0
 20 40  1  0  0  0  0
 20 41  1  0  0  0  0
 21 22  3  0  0  0  0
 23 24  2  0  0  0  0
 23 42  1  0  0  0  0
 24 43  1  0  0  0  0
M  CHG  1   3   1
M  END
> <s_m_source_file>
AV-unprocessed.smi

> <i_m_source_file_index>
2163

> <i_lp_mmshare_version>
43012

> <i_f3d_flags>
0

> <s_epik_input>
W2NIXTFbY0hdW2NIXVtjSF1jKGMxMiluKGMobjIpW0NIM10pW0NIMl1bQ0BIXShbT0hdKVtDSDJdT2MzW2NIXVtjSF1jKFtDSDJdQyNOKVtjSF1bY0hdMw==

> <s_epik_cmdline>
J2VwaWtfcHl0aG9uJywgJy1waCcsICc3LjAnLCAnLXRuJywgJzgnLCAnLW1hJywgJzIwMCcsICctbWV0YWxfYmluZGluZycsICctaW1hZScsICc8aW5maWxlLm1hZT4nLCAnLW9tYWUnLCAnPG91dGZpbGUubWFlPic=

> <r_lp_tautomer_probability>
1

> <r_epik_Ionization_Penalty>
1.03158

> <r_epik_Ionization_Penalty_Charging>
1.03158

> <r_epik_Ionization_Penalty_Neutral>
2.3994e-06

> <r_epik_State_Penalty>
1.08278

> <r_epik_Charging_Adjusted_Penalty>
2.11436

> <i_epik_Tot_Q>
1

> <i_epik_Tot_abs_Q>
1

> <r_epik_Metal_State_Penalty>
5.07177

> <b_epik_Metal_Only>
0

> <s_lp_Force_Field>
OPLS_2005

> <r_lp_Energy>
20.4003

> <b_lp_Chiralities_Consistent>
1

> <s_lp_Variant>
AV-unprocessed.smi:2163-4

> <Gold.Version>
5.8.1

> <Gold.Id.Protein>
6NUR|6NUR_protein|mol2

> <Gold.PLP.Fitness>
51.7484

> <Gold.PLP.PLP>
-48.5058

> <Gold.PLP.part.hbond>
-1.0000

> <Gold.PLP.part.metal>
0.0000

> <Gold.PLP.part.buried>
-7.6339

> <Gold.PLP.part.nonpolar>
-39.7041

> <Gold.PLP.part.repulsive>
0.0716

> <Gold.PLP.ligand.clash>
0.0000

> <Gold.PLP.ligand.torsion>
1.4853

> <Gold.PLP.Chemscore.Hbond>
2.0000

> <Gold.PLP.Chemscore.CHOScore>
0.0000

> <Gold.PLP.Chemscore.Metal>
0.0000

> <Gold.Chemscore.Hbonds>
donor molecule, donor type, donor heavy atom, donor atom, acceptor molecule, acceptor atom, score
      L1  H     3    44       P1  8028  2.00

> <Gold.PLP.Chemscore.Internal.Correction>
0.2131

> <Gold.Rescore>
     Score         DG    S(hbond)    S(metal)    S(lipo)     H(rot)  DE(clash)    DE(int)     intcor
     16.58     -18.21       1.00        0.00     137.22       2.60       0.16       1.47       ----

> <Gold.Chemscore.Fitness>
16.5774

> <Gold.Chemscore.DG>
-18.2053

> <Gold.Chemscore.ZeroCoef>
-5.4800

> <Gold.Chemscore.Hbond>
0.9992

> <Gold.Chemscore.Metal>
0.0000

> <Gold.Chemscore.Lipo>
137.2175

> <Gold.Chemscore.Internal_Hbond>
0.0000

> <Gold.Chemscore.DEClash>
0.1598

> <Gold.Chemscore.DEInternal>
1.4680

> <Gold.Chemscore.Rot>
2.6041

> <Gold.Chemscore.Internal.Correction>
   9.000000E+99

> <Gold.Chemscore.Hbonds>
donor molecule, donor type, donor heavy atom, donor atom, acceptor molecule, acceptor atom, score
      L1  H     3    44       P1  8028  1.00

> <Gold.Chemscore.Hbond.Weighted>
-3.3374

> <Gold.Chemscore.Metal.Weighted>
-0.0000

> <Gold.Chemscore.Lipo.Weighted>
-16.0545

> <Gold.Chemscore.Internal_Hbond.Weighted>
0.0000

> <Gold.Chemscore.DEClash.Weighted>
0.1598

> <Gold.Chemscore.DEInternal.Weighted>
1.4680

> <Gold.Chemscore.Rot.Weighted>
6.6665

> <Gold.Chemscore.Internal.Correction.Weighted>
   9.000000E+99

> <Gold.Protein.RotatedTorsions>
[ 6907 6896 6895 6894 ] final -168.38 input  -60.11 | X-H torsion
[ 7974 7965 7964 7962 ] final  -90.57 input  175.53 | X-H torsion
[ 8008 7997 7996 7995 ] final  170.57 input   59.86 | X-H torsion
[ 10167 10162 10161 10158 ] final  -44.76 input  -65.29 | X-H torsion
[ 10718 10713 10712 10709 ] final   99.83 input   66.30 | X-H torsion
[ 10763 10752 10751 10750 ] final  173.76 input  -60.55 | X-H torsion
[ 11005 11000 10999 10996 ] final -130.23 input  -57.11 | X-H torsion

> <Gold.Protein.ActiveResidues>
 VAL166  LYS551  ARG553  GLY616  TRP617  ASP618  TYR619  PRO620  LYS621  CYS622 
 ASP623  PHE694  ASN695  SER759  ASP760  ASP761  ALA762  ILE779  LEU786  VAL792 
 PHE793  MET794  SER795  GLU796  ALA797  LYS798  CYS799  TRP800  GLU811  SER814 

> <Gold.Protein.RotatedAtoms>
  151.4746  133.3561  159.2828 H   0  0  0  0  0  0  0  0  0  0  0  0  # atno 6907 bound_to 6896
  150.8938  134.8346  159.7323 H   0  0  0  0  0  0  0  0  0  0  0  0  # atno 6908 bound_to 6896
  152.4839  134.4659  159.9672 H   0  0  0  0  0  0  0  0  0  0  0  0  # atno 6909 bound_to 6896
  145.4247  140.9553  143.2161 H   0  0  0  0  0  0  0  0  0  0  0  0  # atno 7974 bound_to 7965
  156.1353  140.1534  156.9004 H   0  0  0  0  0  0  0  0  0  0  0  0  # atno 8008 bound_to 7997
  154.4942  140.0843  156.7700 H   0  0  0  0  0  0  0  0  0  0  0  0  # atno 8009 bound_to 7997
  155.4180  140.3422  155.4271 H   0  0  0  0  0  0  0  0  0  0  0  0  # atno 8010 bound_to 7997
  140.6884  143.2914  151.3541 H   0  0  0  0  0  0  0  0  0  0  0  0  # atno 10167 bound_to 10162
  157.6868  131.0681  150.5007 H   0  0  0  0  0  0  0  0  0  0  0  0  # atno 10718 bound_to 10713
  154.4445  135.2763  155.1824 H   0  0  0  0  0  0  0  0  0  0  0  0  # atno 10763 bound_to 10752
  154.3676  135.6115  153.5727 H   0  0  0  0  0  0  0  0  0  0  0  0  # atno 10764 bound_to 10752
  152.9843  135.5849  154.4779 H   0  0  0  0  0  0  0  0  0  0  0  0  # atno 10765 bound_to 10752
  140.9364  134.1252  157.4190 H   0  0  0  0  0  0  0  0  0  0  0  0  # atno 11005 bound_to 11000
  144.8222  139.5772  143.6981 LP  0  0  0  0  0  0  0  0  0  0  0  0  # atno 17320 bound_to 7965
  146.2638  139.6473  142.9343 LP  0  0  0  0  0  0  0  0  0  0  0  0  # atno 17321 bound_to 7965
  139.6264  144.0806  152.2438 LP  0  0  0  0  0  0  0  0  0  0  0  0  # atno 17342 bound_to 10162
  140.0266  144.6112  150.7522 LP  0  0  0  0  0  0  0  0  0  0  0  0  # atno 17343 bound_to 10162
  156.5329  130.4189  149.6192 LP  0  0  0  0  0  0  0  0  0  0  0  0  # atno 17370 bound_to 10713
  156.3053  130.7199  151.2080 LP  0  0  0  0  0  0  0  0  0  0  0  0  # atno 17371 bound_to 10713
  139.8809  135.0022  156.6113 LP  0  0  0  0  0  0  0  0  0  0  0  0  # atno 17394 bound_to 11000
  140.7794  133.8672  155.8555 LP  0  0  0  0  0  0  0  0  0  0  0  0  # atno 17395 bound_to 11000

$$$$
