AV-unprocessed.smi:2276|AV-procd|sdf|9176|dock6
  -GOLD-   2272012393D 1   1.00000     0.00000
 Structure written by MMmdl.
 52 53  0  0  0  0  0  0  0  0  1 V2000
  148.9888  130.5837  153.3323 C   0  0  0  0  0  0  0  0  0  0  0  0
  149.7133  131.6000  154.1896 C   0  0  0  0  0  0  0  0  0  0  0  0
  150.4835  131.1947  155.2967 C   0  0  0  0  0  0  0  0  0  0  0  0
  151.1323  132.1892  156.0547 C   0  0  0  0  0  0  0  0  0  0  0  0
  151.9857  131.8246  157.2511 C   0  0  0  0  0  0  0  0  0  0  0  0
  151.0488  133.5056  155.7675 N   0  0  0  0  0  0  0  0  0  0  0  0
  150.3104  133.9076  154.7036 C   0  0  0  0  0  0  0  0  0  0  0  0
  150.1708  135.2653  154.3112 N   0  0  0  0  0  0  0  0  0  0  0  0
  150.8376  136.3360  154.7770 C   0  0  0  0  0  0  0  0  0  0  0  0
  151.6491  136.3229  155.7033 O   0  0  0  0  0  0  0  0  0  0  0  0
  150.5056  137.4457  154.1012 N   0  0  0  0  0  0  0  0  0  0  0  0
  151.0659  138.7740  154.3352 C   0  0  0  0  0  0  0  0  0  0  0  0
  150.7854  139.3067  155.7585 C   0  0  2  0  0  0  0  0  0  0  0  0
  149.3690  138.9059  156.2012 C   0  0  0  0  0  0  0  0  0  0  0  0
  150.9872  140.8385  155.8527 C   0  0  0  0  0  0  0  0  0  0  0  0
  151.6657  141.3174  157.0580 N   0  0  0  0  0  0  0  0  0  0  0  0
  151.3528  140.4628  158.2047 C   0  0  0  0  0  0  0  0  0  0  0  0
  152.0711  140.9367  159.4819 C   0  0  0  0  0  0  0  0  0  0  0  0
  151.7046  142.3103  159.8178 N   0  0  0  0  0  0  0  0  0  0  0  0
  152.3736  142.7629  161.0276 C   0  0  0  0  0  0  0  0  0  0  0  0
  152.0125  143.1728  158.6794 C   0  0  0  0  0  0  0  0  0  0  0  0
  151.2987  142.6961  157.4006 C   0  0  0  0  0  0  0  0  0  0  0  0
  149.6280  132.9748  153.8909 C   0  0  0  0  0  0  0  0  0  0  0  0
  149.2459  129.5648  153.6232 H   0  0  0  0  0  0  0  0  0  0  0  0
  149.2529  130.7146  152.2826 H   0  0  0  0  0  0  0  0  0  0  0  0
  147.9104  130.7068  153.4339 H   0  0  0  0  0  0  0  0  0  0  0  0
  150.5766  130.1504  155.5570 H   0  0  0  0  0  0  0  0  0  0  0  0
  151.8089  130.7948  157.5624 H   0  0  0  0  0  0  0  0  0  0  0  0
  151.7623  132.4774  158.0957 H   0  0  0  0  0  0  0  0  0  0  0  0
  153.0423  131.9316  157.0050 H   0  0  0  0  0  0  0  0  0  0  0  0
  149.5066  135.4365  153.5712 H   0  0  0  0  0  0  0  0  0  0  0  0
  149.8251  137.3654  153.3601 H   0  0  0  0  0  0  0  0  0  0  0  0
  152.1415  138.7187  154.1645 H   0  0  0  0  0  0  0  0  0  0  0  0
  150.6724  139.4643  153.5871 H   0  0  0  0  0  0  0  0  0  0  0  0
  151.4853  138.8083  156.4274 H   0  0  0  0  0  0  0  0  0  0  0  0
  148.6103  139.3635  155.5655 H   0  0  0  0  0  0  0  0  0  0  0  0
  149.1723  139.2131  157.2286 H   0  0  0  0  0  0  0  0  0  0  0  0
  149.2347  137.8249  156.1549 H   0  0  0  0  0  0  0  0  0  0  0  0
  151.5369  141.1954  154.9810 H   0  0  0  0  0  0  0  0  0  0  0  0
  150.0036  141.3058  155.7885 H   0  0  0  0  0  0  0  0  0  0  0  0
  150.2750  140.4465  158.3760 H   0  0  0  0  0  0  0  0  0  0  0  0
  151.6490  139.4356  157.9902 H   0  0  0  0  0  0  0  0  0  0  0  0
  151.8127  140.2740  160.3085 H   0  0  0  0  0  0  0  0  0  0  0  0
  153.1510  140.8592  159.3451 H   0  0  0  0  0  0  0  0  0  0  0  0
  152.0721  143.7806  161.2776 H   0  0  0  0  0  0  0  0  0  0  0  0
  153.4577  142.7496  160.9078 H   0  0  0  0  0  0  0  0  0  0  0  0
  152.1165  142.1236  161.8726 H   0  0  0  0  0  0  0  0  0  0  0  0
  151.7095  144.1966  158.9008 H   0  0  0  0  0  0  0  0  0  0  0  0
  153.0899  143.1966  158.5086 H   0  0  0  0  0  0  0  0  0  0  0  0
  151.5647  143.3736  156.5906 H   0  0  0  0  0  0  0  0  0  0  0  0
  150.2183  142.7755  157.5317 H   0  0  0  0  0  0  0  0  0  0  0  0
  149.0447  133.3076  153.0442 H   0  0  0  0  0  0  0  0  0  0  0  0
  1  2  1  0  0  0  0
  1 24  1  0  0  0  0
  1 25  1  0  0  0  0
  1 26  1  0  0  0  0
  2 23  1  0  0  0  0
  2  3  2  0  0  0  0
  3  4  1  0  0  0  0
  3 27  1  0  0  0  0
  4  5  1  0  0  0  0
  4  6  2  0  0  0  0
  5 28  1  0  0  0  0
  5 29  1  0  0  0  0
  5 30  1  0  0  0  0
  6  7  1  0  0  0  0
  7  8  1  0  0  0  0
  7 23  2  0  0  0  0
  8  9  1  0  0  0  0
  8 31  1  0  0  0  0
  9 10  2  0  0  0  0
  9 11  1  0  0  0  0
 11 12  1  0  0  0  0
 11 32  1  0  0  0  0
 12 13  1  0  0  0  0
 12 33  1  0  0  0  0
 12 34  1  0  0  0  0
 13 14  1  0  0  0  0
 13 15  1  0  0  0  0
 13 35  1  0  0  0  0
 14 36  1  0  0  0  0
 14 37  1  0  0  0  0
 14 38  1  0  0  0  0
 15 16  1  0  0  0  0
 15 39  1  0  0  0  0
 15 40  1  0  0  0  0
 16 22  1  0  0  0  0
 16 17  1  0  0  0  0
 17 18  1  0  0  0  0
 17 41  1  0  0  0  0
 17 42  1  0  0  0  0
 18 19  1  0  0  0  0
 18 43  1  0  0  0  0
 18 44  1  0  0  0  0
 19 20  1  0  0  0  0
 19 21  1  0  0  0  0
 20 45  1  0  0  0  0
 20 46  1  0  0  0  0
 20 47  1  0  0  0  0
 21 22  1  0  0  0  0
 21 48  1  0  0  0  0
 21 49  1  0  0  0  0
 22 50  1  0  0  0  0
 22 51  1  0  0  0  0
 23 52  1  0  0  0  0
M  END
> <s_m_source_file>
AV-unprocessed.smi

> <i_m_source_file_index>
2276

> <i_lp_mmshare_version>
43012

> <i_f3d_flags>
0

> <s_epik_input>
W0NIM11jMVtjSF1jKFtDSDNdKW5jKFtjSF0xKVtOSF1DKD1PKVtOSF1bQ0gyXVtDQEhdKFtDSDNdKVtDSDJdTjJbQ0gyXVtDSDJdTihbQ0gzXSlbQ0gyXVtDSDJdMg==

> <s_epik_cmdline>
J2VwaWtfcHl0aG9uJywgJy1waCcsICc3LjAnLCAnLXRuJywgJzgnLCAnLW1hJywgJzIwMCcsICctbWV0YWxfYmluZGluZycsICctaW1hZScsICc8aW5maWxlLm1hZT4nLCAnLW9tYWUnLCAnPG91dGZpbGUubWFlPic=

> <r_epik_Ionization_Penalty>
3.46991

> <r_epik_Ionization_Penalty_Charging>
0

> <r_epik_Ionization_Penalty_Neutral>
3.46991

> <r_epik_State_Penalty>
2.28006

> <r_epik_Charging_Adjusted_Penalty>
2.28006

> <i_epik_Tot_Q>
0

> <i_epik_Tot_abs_Q>
0

> <r_epik_Metal_State_Penalty>
2.28005

> <b_epik_Metal_Only>
0

> <s_lp_Force_Field>
OPLS_2005

> <r_lp_Energy>
36.9952

> <b_lp_Chiralities_Consistent>
1

> <s_lp_Variant>
AV-unprocessed.smi:2276-5

> <Gold.Version>
5.8.1

> <Gold.Id.Protein>
6NUR|6NUR_protein|mol2

> <Gold.PLP.Fitness>
48.4978

> <Gold.PLP.PLP>
-42.2367

> <Gold.PLP.part.hbond>
-3.9326

> <Gold.PLP.part.metal>
0.0000

> <Gold.PLP.part.buried>
-4.3150

> <Gold.PLP.part.nonpolar>
-33.5422

> <Gold.PLP.part.repulsive>
0.1908

> <Gold.PLP.ligand.clash>
0.0000

> <Gold.PLP.ligand.torsion>
1.0816

> <Gold.PLP.Chemscore.Hbond>
2.7920

> <Gold.PLP.Chemscore.CHOScore>
0.0000

> <Gold.PLP.Chemscore.Metal>
0.0000

> <Gold.Chemscore.Hbonds>
donor molecule, donor type, donor heavy atom, donor atom, acceptor molecule, acceptor atom, score
      L1  H     8    31       P1  7948  0.85
      L1  H    11    32       P1  7948  0.95
      P1  H 10752 10765       L1    10  0.85

> <Gold.PLP.Chemscore.Internal.Correction>
0.0484

> <Gold.Rescore>
     Score         DG    S(hbond)    S(metal)    S(lipo)     H(rot)  DE(clash)    DE(int)     intcor
     16.95     -19.37       1.81        0.00     101.36       1.57       0.11       2.31       ----

> <Gold.Chemscore.Fitness>
16.9538

> <Gold.Chemscore.DG>
-19.3715

> <Gold.Chemscore.ZeroCoef>
-5.4800

> <Gold.Chemscore.Hbond>
1.8129

> <Gold.Chemscore.Metal>
0.0000

> <Gold.Chemscore.Lipo>
101.3650

> <Gold.Chemscore.Internal_Hbond>
0.0000

> <Gold.Chemscore.DEClash>
0.1119

> <Gold.Chemscore.DEInternal>
2.3058

> <Gold.Chemscore.Rot>
1.5715

> <Gold.Chemscore.Internal.Correction>
   9.000000E+99

> <Gold.Chemscore.Hbonds>
donor molecule, donor type, donor heavy atom, donor atom, acceptor molecule, acceptor atom, score
      L1  H     8    31       P1  7948  0.14
      L1  H    11    32       P1  7948  0.47
      P1  H 10752 10765       L1    10  0.15

> <Gold.Chemscore.Hbond.Weighted>
-6.0549

> <Gold.Chemscore.Metal.Weighted>
-0.0000

> <Gold.Chemscore.Lipo.Weighted>
-11.8597

> <Gold.Chemscore.Internal_Hbond.Weighted>
0.0000

> <Gold.Chemscore.DEClash.Weighted>
0.1119

> <Gold.Chemscore.DEInternal.Weighted>
2.3058

> <Gold.Chemscore.Rot.Weighted>
4.0231

> <Gold.Chemscore.Internal.Correction.Weighted>
   9.000000E+99

> <Gold.Protein.RotatedTorsions>
[ 6907 6896 6895 6894 ] final  105.26 input  -60.11 | X-H torsion
[ 7974 7965 7964 7962 ] final -163.34 input  175.53 | X-H torsion
[ 8008 7997 7996 7995 ] final -106.35 input   59.86 | X-H torsion
[ 10167 10162 10161 10158 ] final -135.43 input  -65.29 | X-H torsion
[ 10718 10713 10712 10709 ] final  -14.02 input   66.30 | X-H torsion
[ 10763 10752 10751 10750 ] final -168.29 input  -60.55 | X-H torsion
[ 11005 11000 10999 10996 ] final -107.22 input  -57.11 | X-H torsion

> <Gold.Protein.ActiveResidues>
 VAL166  LYS551  ARG553  GLY616  TRP617  ASP618  TYR619  PRO620  LYS621  CYS622 
 ASP623  PHE694  ASN695  SER759  ASP760  ASP761  ALA762  ILE779  LEU786  VAL792 
 PHE793  MET794  SER795  GLU796  ALA797  LYS798  CYS799  TRP800  GLU811  SER814 

> <Gold.Protein.RotatedAtoms>
  152.5236  133.9554  159.7691 H   0  0  0  0  0  0  0  0  0  0  0  0  # atno 6907 bound_to 6896
  150.9856  133.6193  159.2723 H   0  0  0  0  0  0  0  0  0  0  0  0  # atno 6908 bound_to 6896
  151.3355  135.0857  159.9406 H   0  0  0  0  0  0  0  0  0  0  0  0  # atno 6909 bound_to 6896
  144.7329  140.3122  143.6186 H   0  0  0  0  0  0  0  0  0  0  0  0  # atno 7974 bound_to 7965
  154.9133  140.0409  157.1958 H   0  0  0  0  0  0  0  0  0  0  0  0  # atno 8008 bound_to 7997
  154.8326  140.2901  155.5690 H   0  0  0  0  0  0  0  0  0  0  0  0  # atno 8009 bound_to 7997
  156.2988  140.2498  156.3254 H   0  0  0  0  0  0  0  0  0  0  0  0  # atno 8010 bound_to 7997
  139.8779  143.6875  152.2631 H   0  0  0  0  0  0  0  0  0  0  0  0  # atno 10167 bound_to 10162
  156.6219  130.4877  149.6161 H   0  0  0  0  0  0  0  0  0  0  0  0  # atno 10718 bound_to 10713
  154.6643  135.2929  154.9825 H   0  0  0  0  0  0  0  0  0  0  0  0  # atno 10763 bound_to 10752
  154.0874  135.6595  153.4851 H   0  0  0  0  0  0  0  0  0  0  0  0  # atno 10764 bound_to 10752
  153.0448  135.5212  154.7609 H   0  0  0  0  0  0  0  0  0  0  0  0  # atno 10765 bound_to 10752
  141.0965  133.8962  157.1950 H   0  0  0  0  0  0  0  0  0  0  0  0  # atno 11005 bound_to 11000
  145.7654  139.1839  143.2243 LP  0  0  0  0  0  0  0  0  0  0  0  0  # atno 17320 bound_to 7965
  146.0953  140.7607  142.9575 LP  0  0  0  0  0  0  0  0  0  0  0  0  # atno 17321 bound_to 7965
  139.7223  144.7600  151.0935 LP  0  0  0  0  0  0  0  0  0  0  0  0  # atno 17342 bound_to 10162
  140.7749  143.5192  150.9557 LP  0  0  0  0  0  0  0  0  0  0  0  0  # atno 17343 bound_to 10162
  156.2305  130.6791  151.1459 LP  0  0  0  0  0  0  0  0  0  0  0  0  # atno 17370 bound_to 10713
  157.7225  131.0672  150.6074 LP  0  0  0  0  0  0  0  0  0  0  0  0  # atno 17371 bound_to 10713
  139.9803  135.0100  156.9733 LP  0  0  0  0  0  0  0  0  0  0  0  0  # atno 17394 bound_to 11000
  140.5128  134.0985  155.7274 LP  0  0  0  0  0  0  0  0  0  0  0  0  # atno 17395 bound_to 11000

$$$$
