AV-unprocessed.smi:2795|AV-procd|sdf|10781|dock6
  -GOLD-   2272015213D 1   1.00000     0.00000
 Structure written by MMmdl.
 36 37  0  0  0  0  0  0  0  0  1 V2000
  149.6284  142.1108  158.3083 C   0  0  0  0  0  0  0  0  0  0  0  0
  150.1302  141.3861  157.1579 N   0  0  0  0  0  0  0  0  0  0  0  0
  150.1268  141.8007  155.8838 C   0  0  0  0  0  0  0  0  0  0  0  0
  150.6438  140.9352  155.0231 N   0  0  0  0  0  0  0  0  0  0  0  0
  151.0161  139.8579  155.8221 C   0  0  0  0  0  0  0  0  0  0  0  0
  150.7140  140.1221  157.1421 C   0  0  0  0  0  0  0  0  0  0  0  0
  150.9048  139.2993  158.3839 C   0  0  0  0  0  0  0  0  0  0  0  0
  150.5366  137.8112  158.2564 C   0  0  0  0  0  0  0  0  0  0  0  0
  149.4987  137.4323  159.2070 N   0  0  0  0  0  0  0  0  0  0  0  0
  148.9343  136.2181  159.2751 C   0  0  0  0  0  0  0  0  0  0  0  0
  149.2173  135.3045  158.4990 O   0  0  0  0  0  0  0  0  0  0  0  0
  147.8904  136.0215  160.3833 C   0  0  1  0  0  0  0  0  0  0  0  0
  147.4188  134.5553  160.5183 C   0  0  0  0  0  0  0  0  0  0  0  0
  146.4432  134.4084  161.6913 C   0  0  0  0  0  0  0  0  0  0  0  0
  147.0720  134.9876  162.9624 C   0  0  0  0  0  0  0  0  0  0  0  0
  147.5520  136.4254  162.7113 C   0  0  0  0  0  0  0  0  0  0  0  0
  148.4647  136.4499  161.6186 O   0  0  0  0  0  0  0  0  0  0  0  0
  149.1800  143.0544  157.9952 H   0  0  0  0  0  0  0  0  0  0  0  0
  150.4474  142.3196  158.9969 H   0  0  0  0  0  0  0  0  0  0  0  0
  148.8730  141.5133  158.8193 H   0  0  0  0  0  0  0  0  0  0  0  0
  149.7336  142.7594  155.5782 H   0  0  0  0  0  0  0  0  0  0  0  0
  151.4731  138.9809  155.3872 H   0  0  0  0  0  0  0  0  0  0  0  0
  151.9446  139.3743  158.7047 H   0  0  0  0  0  0  0  0  0  0  0  0
  150.3137  139.7366  159.1890 H   0  0  0  0  0  0  0  0  0  0  0  0
  150.1903  137.6050  157.2426 H   0  0  0  0  0  0  0  0  0  0  0  0
  151.4202  137.1928  158.4226 H   0  0  0  0  0  0  0  0  0  0  0  0
  149.2127  138.1292  159.8801 H   0  0  0  0  0  0  0  0  0  0  0  0
  147.0377  136.6601  160.1463 H   0  0  0  0  0  0  0  0  0  0  0  0
  146.9370  134.2215  159.5984 H   0  0  0  0  0  0  0  0  0  0  0  0
  148.2768  133.9004  160.6788 H   0  0  0  0  0  0  0  0  0  0  0  0
  145.5158  134.9363  161.4664 H   0  0  0  0  0  0  0  0  0  0  0  0
  146.1807  133.3606  161.8394 H   0  0  0  0  0  0  0  0  0  0  0  0
  146.3543  134.9661  163.7827 H   0  0  0  0  0  0  0  0  0  0  0  0
  147.9169  134.3696  163.2685 H   0  0  0  0  0  0  0  0  0  0  0  0
  146.7091  137.0878  162.5089 H   0  0  0  0  0  0  0  0  0  0  0  0
  148.0549  136.8125  163.5976 H   0  0  0  0  0  0  0  0  0  0  0  0
  1  2  1  0  0  0  0
  1 18  1  0  0  0  0
  1 19  1  0  0  0  0
  1 20  1  0  0  0  0
  2  6  1  0  0  0  0
  2  3  1  0  0  0  0
  3  4  2  0  0  0  0
  3 21  1  0  0  0  0
  4  5  1  0  0  0  0
  5  6  2  0  0  0  0
  5 22  1  0  0  0  0
  6  7  1  0  0  0  0
  7  8  1  0  0  0  0
  7 23  1  0  0  0  0
  7 24  1  0  0  0  0
  8  9  1  0  0  0  0
  8 25  1  0  0  0  0
  8 26  1  0  0  0  0
  9 10  1  0  0  0  0
  9 27  1  0  0  0  0
 10 11  2  0  0  0  0
 10 12  1  0  0  0  0
 12 17  1  0  0  0  0
 12 13  1  0  0  0  0
 12 28  1  0  0  0  0
 13 14  1  0  0  0  0
 13 29  1  0  0  0  0
 13 30  1  0  0  0  0
 14 15  1  0  0  0  0
 14 31  1  0  0  0  0
 14 32  1  0  0  0  0
 15 16  1  0  0  0  0
 15 33  1  0  0  0  0
 15 34  1  0  0  0  0
 16 17  1  0  0  0  0
 16 35  1  0  0  0  0
 16 36  1  0  0  0  0
M  END
> <s_m_source_file>
AV-unprocessed.smi

> <i_m_source_file_index>
2795

> <i_lp_mmshare_version>
43012

> <i_f3d_flags>
0

> <s_epik_input>
W0NIM11uMVtjSF1uW2NIXWMxW0NIMl1bQ0gyXVtOSF1DKD1PKVtDQEBIXTJbQ0gyXVtDSDJdW0NIMl1bQ0gyXU8y

> <s_epik_cmdline>
J2VwaWtfcHl0aG9uJywgJy1waCcsICc3LjAnLCAnLXRuJywgJzgnLCAnLW1hJywgJzIwMCcsICctbWV0YWxfYmluZGluZycsICctaW1hZScsICc8aW5maWxlLm1hZT4nLCAnLW9tYWUnLCAnPG91dGZpbGUubWFlPic=

> <r_lp_tautomer_probability>
1

> <r_epik_Ionization_Penalty>
0.870864

> <r_epik_Ionization_Penalty_Charging>
0.870864

> <r_epik_Ionization_Penalty_Neutral>
4.06047e-08

> <r_epik_State_Penalty>
0.90819

> <r_epik_Charging_Adjusted_Penalty>
1.77905

> <i_epik_Tot_Q>
0

> <i_epik_Tot_abs_Q>
0

> <r_epik_Metal_State_Penalty>
0.360563

> <b_epik_Metal_Only>
0

> <s_lp_Force_Field>
OPLS_2005

> <r_lp_Energy>
10.035

> <b_lp_Chiralities_Consistent>
1

> <s_lp_Variant>
AV-unprocessed.smi:2795-4

> <Gold.Version>
5.8.1

> <Gold.Id.Protein>
6NUR|6NUR_protein|mol2

> <Gold.PLP.Fitness>
41.5058

> <Gold.PLP.PLP>
-31.0760

> <Gold.PLP.part.hbond>
-3.0000

> <Gold.PLP.part.metal>
0.0000

> <Gold.PLP.part.buried>
-4.7705

> <Gold.PLP.part.nonpolar>
-24.9283

> <Gold.PLP.part.repulsive>
0.3317

> <Gold.PLP.ligand.clash>
0.0000

> <Gold.PLP.ligand.torsion>
0.7292

> <Gold.PLP.Chemscore.Hbond>
2.9600

> <Gold.PLP.Chemscore.CHOScore>
1.0000

> <Gold.PLP.Chemscore.Metal>
0.0000

> <Gold.Chemscore.Hbonds>
donor molecule, donor type, donor heavy atom, donor atom, acceptor molecule, acceptor atom, score
      P1  H  6896  6907       L1    11  1.00
      P1  H  6931  6943       L1    17  0.75
      P1  H  7989  7998       L1     4  0.75
      L1  C     3    21       P1  8028  1.00

> <Gold.PLP.Chemscore.Internal.Correction>
0.0082

> <Gold.Rescore>
     Score         DG    S(hbond)    S(metal)    S(lipo)     H(rot)  DE(clash)    DE(int)     intcor
     16.11     -16.78       2.70        0.00      58.00       1.76       0.13       0.54       ----

> <Gold.Chemscore.Fitness>
16.1101

> <Gold.Chemscore.DG>
-16.7750

> <Gold.Chemscore.ZeroCoef>
-5.4800

> <Gold.Chemscore.Hbond>
2.6977

> <Gold.Chemscore.Metal>
0.0000

> <Gold.Chemscore.Lipo>
58.0030

> <Gold.Chemscore.Internal_Hbond>
0.0000

> <Gold.Chemscore.DEClash>
0.1286

> <Gold.Chemscore.DEInternal>
0.5364

> <Gold.Chemscore.Rot>
1.7585

> <Gold.Chemscore.Internal.Correction>
   9.000000E+99

> <Gold.Chemscore.Hbonds>
donor molecule, donor type, donor heavy atom, donor atom, acceptor molecule, acceptor atom, score
      P1  H  6896  6907       L1    11  0.34
      P1  H  6931  6943       L1    17  0.09
      P1  H  7989  7998       L1     4  0.53

> <Gold.Chemscore.Hbond.Weighted>
-9.0104

> <Gold.Chemscore.Metal.Weighted>
-0.0000

> <Gold.Chemscore.Lipo.Weighted>
-6.7863

> <Gold.Chemscore.Internal_Hbond.Weighted>
0.0000

> <Gold.Chemscore.DEClash.Weighted>
0.1286

> <Gold.Chemscore.DEInternal.Weighted>
0.5364

> <Gold.Chemscore.Rot.Weighted>
4.5018

> <Gold.Chemscore.Internal.Correction.Weighted>
   9.000000E+99

> <Gold.Protein.RotatedTorsions>
[ 6907 6896 6895 6894 ] final  -83.61 input  -60.11 | X-H torsion
[ 7974 7965 7964 7962 ] final   19.58 input  175.53 | X-H torsion
[ 8008 7997 7996 7995 ] final -165.66 input   59.86 | X-H torsion
[ 10167 10162 10161 10158 ] final  172.76 input  -65.29 | X-H torsion
[ 10718 10713 10712 10709 ] final  -17.05 input   66.30 | X-H torsion
[ 10763 10752 10751 10750 ] final  169.19 input  -60.55 | X-H torsion
[ 11005 11000 10999 10996 ] final   68.68 input  -57.11 | X-H torsion

> <Gold.Protein.ActiveResidues>
 VAL166  LYS551  ARG553  GLY616  TRP617  ASP618  TYR619  PRO620  LYS621  CYS622 
 ASP623  PHE694  ASN695  SER759  ASP760  ASP761  ALA762  ILE779  LEU786  VAL792 
 PHE793  MET794  SER795  GLU796  ALA797  LYS798  CYS799  TRP800  GLU811  SER814 

> <Gold.Protein.RotatedAtoms>
  150.6884  134.3486  159.4898 H   0  0  0  0  0  0  0  0  0  0  0  0  # atno 6907 bound_to 6896
  152.1330  134.9118  160.0567 H   0  0  0  0  0  0  0  0  0  0  0  0  # atno 6908 bound_to 6896
  152.0280  133.3891  159.4322 H   0  0  0  0  0  0  0  0  0  0  0  0  # atno 6909 bound_to 6896
  146.2144  139.8293  142.8663 H   0  0  0  0  0  0  0  0  0  0  0  0  # atno 7974 bound_to 7965
  155.8529  140.0966  157.1663 H   0  0  0  0  0  0  0  0  0  0  0  0  # atno 8008 bound_to 7997
  154.3986  140.1379  156.3928 H   0  0  0  0  0  0  0  0  0  0  0  0  # atno 8009 bound_to 7997
  155.7941  140.3455  155.5368 H   0  0  0  0  0  0  0  0  0  0  0  0  # atno 8010 bound_to 7997
  139.5086  144.3337  152.0086 H   0  0  0  0  0  0  0  0  0  0  0  0  # atno 10167 bound_to 10162
  156.5790  130.4769  149.6328 H   0  0  0  0  0  0  0  0  0  0  0  0  # atno 10718 bound_to 10713
  154.3796  135.2753  155.2219 H   0  0  0  0  0  0  0  0  0  0  0  0  # atno 10763 bound_to 10752
  154.4332  135.5972  153.6085 H   0  0  0  0  0  0  0  0  0  0  0  0  # atno 10764 bound_to 10752
  152.9835  135.6000  154.4037 H   0  0  0  0  0  0  0  0  0  0  0  0  # atno 10765 bound_to 10752
  139.9697  134.6920  156.0471 H   0  0  0  0  0  0  0  0  0  0  0  0  # atno 11005 bound_to 11000
  145.3014  141.0195  143.3606 LP  0  0  0  0  0  0  0  0  0  0  0  0  # atno 17320 bound_to 7965
  144.9003  139.4658  143.6635 LP  0  0  0  0  0  0  0  0  0  0  0  0  # atno 17321 bound_to 7965
  140.2777  144.3895  150.6129 LP  0  0  0  0  0  0  0  0  0  0  0  0  # atno 17342 bound_to 10162
  140.6042  143.2167  151.7014 LP  0  0  0  0  0  0  0  0  0  0  0  0  # atno 17343 bound_to 10162
  156.2648  130.6983  151.1762 LP  0  0  0  0  0  0  0  0  0  0  0  0  # atno 17370 bound_to 10713
  157.7331  131.0594  150.5595 LP  0  0  0  0  0  0  0  0  0  0  0  0  # atno 17371 bound_to 10713
  141.1377  133.6571  156.3641 LP  0  0  0  0  0  0  0  0  0  0  0  0  # atno 17394 bound_to 11000
  140.5319  134.6204  157.5352 LP  0  0  0  0  0  0  0  0  0  0  0  0  # atno 17395 bound_to 11000

$$$$
