#       Name:                AV-unprocessed.smi:1718
#       Creating user name   scv26
#       Creation time:       Fri Mar 27 08:13:19 2020


#       File generated by GOLD software.
#

@<TRIPOS>MOLECULE
AV-unprocessed.smi:1718
    48    49     1
SMALL
NO_CHARGES


@<TRIPOS>ATOM
      1 ****        -1.0928  -3.0768  -2.0198 C.3            1 S1                 0.0000
      2 ****        -0.6320  -2.2694  -0.7978 C.3            1 S1                 0.0000
      3 ****         0.7930  -2.2486  -0.8104 O.3            1 S1                 0.0000
      4 ****         1.4089  -1.7882   0.3874 C.3            1 S1                 0.0000
      5 ****         2.9310  -1.8397   0.2119 C.3            1 S1                 0.0000
      6 ****         3.4695  -0.8688  -0.8399 C.3            1 S1                 0.0000
      7 ****         4.8730  -0.6189  -0.3382 C.3            1 S1                 0.0000
      8 ****         4.6532  -0.5778   1.1701 C.3            1 S1                 0.0000
      9 ****         3.5827  -1.4822   1.4291 O.3            1 S1                 0.0000
     10 ****        -1.1844  -0.8356  -0.8390 C.2            1 S1                 0.0000
     11 ****        -0.9261  -0.1150  -1.8032 O.2            1 S1                 0.0000
     12 ****        -1.9306  -0.4711   0.2222 N.am           1 S1                 0.0000
     13 ****        -2.5030   0.7774   0.5156 C.2            1 S1                 0.0000
     14 ****        -2.0967   1.9576  -0.0203 C.2            1 S1                 0.0000
     15 ****        -2.7158   3.2212   0.3386 C.2            1 S1                 0.0000
     16 ****        -2.2543   4.5227  -0.2969 C.3            1 S1                 0.0000
     17 ****        -2.9940   5.5591   0.1002 F              1 S1                 0.0000
     18 ****        -0.9849   4.7646   0.0283 F              1 S1                 0.0000
     19 ****        -2.3290   4.4378  -1.6247 F              1 S1                 0.0000
     20 ****        -3.7135   3.1677   1.2409 C.2            1 S1                 0.0000
     21 ****        -4.1279   1.9596   1.8070 N.am           1 S1                 0.0000
     22 ****        -3.5881   0.7558   1.5103 C.2            1 S1                 0.0000
     23 ****        -4.0059  -0.2645   2.0570 O.2            1 S1                 0.0000
     24 ****        -4.8785   2.0027   2.4814 H              1 S1                 0.0000
     25 ****        -2.1809  -3.1212  -2.0782 H              1 S1                 0.0000
     26 ****        -0.7247  -4.1015  -1.9658 H              1 S1                 0.0000
     27 ****        -0.7236  -2.6434  -2.9503 H              1 S1                 0.0000
     28 ****        -0.9775  -2.7796   0.1037 H              1 S1                 0.0000
     29 ****         1.1017  -0.7716   0.6356 H              1 S1                 0.0000
     30 ****         1.1122  -2.4294   1.2185 H              1 S1                 0.0000
     31 ****         3.2441  -2.8547  -0.0372 H              1 S1                 0.0000
     32 ****         3.4417  -1.2786  -1.8499 H              1 S1                 0.0000
     33 ****         2.9014   0.0628  -0.8338 H              1 S1                 0.0000
     34 ****         5.5212  -1.4553  -0.6030 H              1 S1                 0.0000
     35 ****         5.3146   0.2971  -0.7316 H              1 S1                 0.0000
     36 ****         5.5489  -0.8461   1.7306 H              1 S1                 0.0000
     37 ****         4.3454   0.4213   1.4811 H              1 S1                 0.0000
     38 ****        -2.1347  -1.1964   0.8950 H              1 S1                 0.0000
     39 ****        -1.2777   1.9991  -0.7201 H              1 S1                 0.0000
     40 ****        -4.2646   4.0262   1.5954 H              1 S1                 0.0000
     41 ****         1.0859  -1.6512  -1.5569 LP             1 S1                 0.0000
     42 ****         1.1133  -3.1799  -0.9834 LP             1 S1                 0.0000
     43 ****         3.9452  -2.3066   1.8636 LP             1 S1                 0.0000
     44 ****         2.9228  -1.0457   2.0407 LP             1 S1                 0.0000
     45 ****        -0.3613  -0.4638  -2.5510 LP             1 S1                 0.0000
     46 ****        -1.2812   0.8192  -1.8386 LP             1 S1                 0.0000
     47 ****        -3.6037  -1.1522   1.8332 LP             1 S1                 0.0000
     48 ****        -4.7477  -0.2058   2.7251 LP             1 S1                 0.0000
@<TRIPOS>BOND
    1    1    2 1     
    2    1   25 1     
    3    1   26 1     
    4    1   27 1     
    5    2    3 1     
    6    2   10 1     
    7    2   28 1     
    8    3    4 1     
    9    4    5 1     
   10    4   29 1     
   11    4   30 1     
   12    5    9 1     
   13    5    6 1     
   14    5   31 1     
   15    6    7 1     
   16    6   32 1     
   17    6   33 1     
   18    7    8 1     
   19    7   34 1     
   20    7   35 1     
   21    8    9 1     
   22    8   36 1     
   23    8   37 1     
   24   10   11 2     
   25   10   12 am    
   26   12   13 1     
   27   12   38 1     
   28   13   22 1     
   29   13   14 2     
   30   14   15 1     
   31   14   39 1     
   32   15   16 1     
   33   15   20 2     
   34   16   17 1     
   35   16   18 1     
   36   16   19 1     
   37   20   21 1     
   38   20   40 1     
   39   21   24 1     
   40   21   22 am    
   41   22   23 2     
   42    3   41 1     
   43    3   42 1     
   44    9   43 1     
   45    9   44 1     
   46   11   45 1     
   47   11   46 1     
   48   23   47 1     
   49   23   48 1     
@<TRIPOS>SUBSTRUCTURE
      1 S1             1
@<TRIPOS>SET
LONE_PAIRS      STATIC     ATOMS    <user>   **** ""
8 41 42 43 44 45 46 47 48
DONOR_HYDROGENS      STATIC     ATOMS    <user>   **** ""
2 38 24
ATOM$BLUE        STATIC     ATOMS    COLORGROUP SYSTEM
8 41 42 43 44 45 46 47 48
ATOM$RED        STATIC     ATOMS    COLORGROUP SYSTEM
2 38 24
