#       Name:                AV-unprocessed.smi:495
#       Creating user name   scv26
#       Creation time:       Thu Mar 26 23:16:04 2020


#       File generated by GOLD software.
#

@<TRIPOS>MOLECULE
AV-unprocessed.smi:495
    37    39     1
SMALL
NO_CHARGES


@<TRIPOS>ATOM
      1 ****         1.7114   5.1972  -0.0509 N.pl3          1 S1                 0.0000
      2 ****         1.1087   3.9435   0.0361 C.ar           1 S1                 0.0000
      3 ****         0.3474   3.4494  -1.0423 C.ar           1 S1                 0.0000
      4 ****        -0.2611   2.1820  -0.9542 C.ar           1 S1                 0.0000
      5 ****        -0.1064   1.4024   0.2108 C.ar           1 S1                 0.0000
      6 ****        -0.7370   0.0929   0.2978 C.2            1 S1                 0.0000
      7 ****        -2.0634  -0.0253   0.3896 N.2            1 S1                 0.0000
      8 ****        -2.2557  -1.3913   0.4436 C.ar           1 S1                 0.0000
      9 ****        -3.4439  -2.1496   0.5481 C.ar           1 S1                 0.0000
     10 ****        -3.3904  -3.5586   0.5803 C.ar           1 S1                 0.0000
     11 ****        -2.1514  -4.2275   0.5066 C.ar           1 S1                 0.0000
     12 ****        -0.9563  -3.4902   0.4020 C.ar           1 S1                 0.0000
     13 ****        -1.0158  -2.0839   0.3744 C.ar           1 S1                 0.0000
     14 ****        -0.0562  -1.0815   0.2808 N.pl3          1 S1                 0.0000
     15 ****         1.3811  -1.2742   0.1662 C.3            1 S1                 0.0000
     16 ****         1.8393  -1.2275  -1.2976 C.3            1 S1                 0.0000
     17 ****         3.2332  -1.4322  -1.3672 O.3            1 S1                 0.0000
     18 ****         0.6505   1.9010   1.2917 C.ar           1 S1                 0.0000
     19 ****         1.2585   3.1683   1.2036 C.ar           1 S1                 0.0000
     20 ****         2.2603   5.5710   0.7101 H              1 S1                 0.0000
     21 ****         1.7238   5.7146  -0.9184 H              1 S1                 0.0000
     22 ****         0.2267   4.0386  -1.9397 H              1 S1                 0.0000
     23 ****        -0.8431   1.8076  -1.7836 H              1 S1                 0.0000
     24 ****        -4.3978  -1.6464   0.6029 H              1 S1                 0.0000
     25 ****        -4.3043  -4.1287   0.6604 H              1 S1                 0.0000
     26 ****        -2.1190  -5.3070   0.5302 H              1 S1                 0.0000
     27 ****        -0.0062  -4.0001   0.3438 H              1 S1                 0.0000
     28 ****         1.8947  -0.5138   0.7544 H              1 S1                 0.0000
     29 ****         1.6419  -2.2339   0.6134 H              1 S1                 0.0000
     30 ****         1.3369  -1.9979  -1.8836 H              1 S1                 0.0000
     31 ****         1.5999  -0.2641  -1.7489 H              1 S1                 0.0000
     32 ****         3.4973  -1.3962  -2.2740 H              1 S1                 0.0000
     33 ****         0.7673   1.3116   2.1894 H              1 S1                 0.0000
     34 ****         1.8382   3.5411   2.0355 H              1 S1                 0.0000
     35 ****        -2.7513   0.7001   0.4134 LP             1 S1                 0.0000
     36 ****         3.4621  -2.3273  -0.9847 LP             1 S1                 0.0000
     37 ****         3.7051  -0.7181  -0.8500 LP             1 S1                 0.0000
@<TRIPOS>BOND
    1    1    2 1     
    2    1   20 1     
    3    1   21 1     
    4    2   19 ar    
    5    2    3 ar    
    6    3    4 ar    
    7    3   22 1     
    8    4    5 ar    
    9    4   23 1     
   10    5    6 1     
   11    5   18 ar    
   12    6   14 1     
   13    6    7 2     
   14    7    8 1     
   15    8   13 ar    
   16    8    9 ar    
   17    9   10 ar    
   18    9   24 1     
   19   10   11 ar    
   20   10   25 1     
   21   11   12 ar    
   22   11   26 1     
   23   12   13 ar    
   24   12   27 1     
   25   13   14 1     
   26   14   15 1     
   27   15   16 1     
   28   15   28 1     
   29   15   29 1     
   30   16   17 1     
   31   16   30 1     
   32   16   31 1     
   33   17   32 1     
   34   18   19 ar    
   35   18   33 1     
   36   19   34 1     
   37    7   35 1     
   38   17   36 1     
   39   17   37 1     
@<TRIPOS>SUBSTRUCTURE
      1 S1             1
@<TRIPOS>SET
LONE_PAIRS      STATIC     ATOMS    <user>   **** ""
3 35 36 37
DONOR_HYDROGENS      STATIC     ATOMS    <user>   **** ""
3 20 21 32
ATOM$BLUE        STATIC     ATOMS    COLORGROUP SYSTEM
3 35 36 37
ATOM$RED        STATIC     ATOMS    COLORGROUP SYSTEM
3 20 21 32
