AV-unprocessed.smi:3290|AV-procd|sdf|12611|dock2
  -GOLD-   2272018543D 1   1.00000     0.00000
 Structure written by MMmdl.
 43 44  0  0  0  0  0  0  0  0  2 V2000
  152.7969  140.9854  159.3399 C   0  0  0  0  0  0  0  0  0  0  0  0
  152.4370  142.4814  159.3909 C   0  0  2  0  0  0  0  0  0  0  0  0
  152.4969  142.9739  160.8527 C   0  0  0  0  0  0  0  0  0  0  0  0
  152.1963  144.4740  160.9700 C   0  0  0  0  0  0  0  0  0  0  0  0
  150.8350  144.8054  160.3498 C   0  0  0  0  0  0  0  0  0  0  0  0
  150.7717  144.3334  158.8909 C   0  0  0  0  0  0  0  0  0  0  0  0
  151.0580  142.8210  158.7500 C   0  0  1  0  0  0  0  0  0  0  0  0
  150.9513  142.4207  157.2609 C   0  0  0  0  0  0  0  0  0  0  0  0
  149.5806  142.5783  156.7346 N   0  3  0  0  0  0  0  0  0  0  0  0
  149.0842  141.4045  155.9889 C   0  0  0  0  0  0  0  0  0  0  0  0
  149.9657  141.0956  154.7666 C   0  0  2  0  0  0  0  0  0  0  0  0
  149.1531  141.0909  153.6085 O   0  0  0  0  0  0  0  0  0  0  0  0
  150.7034  139.7778  154.9446 C   0  0  0  0  0  0  0  0  0  0  0  0
  150.3105  138.6340  154.2181 C   0  0  0  0  0  0  0  0  0  0  0  0
  151.0289  137.4361  154.4061 C   0  0  0  0  0  0  0  0  0  0  0  0
  152.0796  137.3259  155.2465 N   0  0  0  0  0  0  0  0  0  0  0  0
  152.4531  138.4233  155.9386 C   0  0  0  0  0  0  0  0  0  0  0  0
  151.8029  139.6682  155.8240 C   0  0  0  0  0  0  0  0  0  0  0  0
  152.0181  140.3722  159.7946 H   0  0  0  0  0  0  0  0  0  0  0  0
  153.7255  140.7890  159.8766 H   0  0  0  0  0  0  0  0  0  0  0  0
  152.9516  140.6400  158.3184 H   0  0  0  0  0  0  0  0  0  0  0  0
  153.2082  143.0172  158.8349 H   0  0  0  0  0  0  0  0  0  0  0  0
  151.7847  142.4134  161.4603 H   0  0  0  0  0  0  0  0  0  0  0  0
  153.4828  142.7741  161.2744 H   0  0  0  0  0  0  0  0  0  0  0  0
  152.2123  144.7768  162.0174 H   0  0  0  0  0  0  0  0  0  0  0  0
  152.9786  145.0462  160.4695 H   0  0  0  0  0  0  0  0  0  0  0  0
  150.0413  144.3285  160.9263 H   0  0  0  0  0  0  0  0  0  0  0  0
  150.6541  145.8795  160.4026 H   0  0  0  0  0  0  0  0  0  0  0  0
  149.7861  144.5674  158.4868 H   0  0  0  0  0  0  0  0  0  0  0  0
  151.4889  144.9007  158.2957 H   0  0  0  0  0  0  0  0  0  0  0  0
  150.2776  142.2951  159.3034 H   0  0  0  0  0  0  0  0  0  0  0  0
  151.6005  143.0538  156.6543 H   0  0  0  0  0  0  0  0  0  0  0  0
  151.2944  141.3948  157.1192 H   0  0  0  0  0  0  0  0  0  0  0  0
  148.9574  142.7390  157.5135 H   0  0  0  0  0  0  0  0  0  0  0  0
  149.0735  140.5460  156.6622 H   0  0  0  0  0  0  0  0  0  0  0  0
  148.0532  141.5801  155.6775 H   0  0  0  0  0  0  0  0  0  0  0  0
  150.7033  141.8901  154.6433 H   0  0  0  0  0  0  0  0  0  0  0  0
  149.3272  140.2979  153.1237 H   0  0  0  0  0  0  0  0  0  0  0  0
  149.4787  138.6674  153.5298 H   0  0  0  0  0  0  0  0  0  0  0  0
  150.7527  136.5432  153.8647 H   0  0  0  0  0  0  0  0  0  0  0  0
  153.2974  138.3072  156.6017 H   0  0  0  0  0  0  0  0  0  0  0  0
  152.1454  140.5164  156.3985 H   0  0  0  0  0  0  0  0  0  0  0  0
  149.5542  143.3860  156.1291 H   0  0  0  0  0  0  0  0  0  0  0  0
  1  2  1  0  0  0  0
  1 19  1  0  0  0  0
  1 20  1  0  0  0  0
  1 21  1  0  0  0  0
  2  7  1  0  0  0  0
  2  3  1  0  0  0  0
  2 22  1  0  0  0  0
  3  4  1  0  0  0  0
  3 23  1  0  0  0  0
  3 24  1  0  0  0  0
  4  5  1  0  0  0  0
  4 25  1  0  0  0  0
  4 26  1  0  0  0  0
  5  6  1  0  0  0  0
  5 27  1  0  0  0  0
  5 28  1  0  0  0  0
  6  7  1  0  0  0  0
  6 29  1  0  0  0  0
  6 30  1  0  0  0  0
  7  8  1  0  0  0  0
  7 31  1  0  0  0  0
  8  9  1  0  0  0  0
  8 32  1  0  0  0  0
  8 33  1  0  0  0  0
  9 10  1  0  0  0  0
  9 34  1  0  0  0  0
  9 43  1  0  0  0  0
 10 11  1  0  0  0  0
 10 35  1  0  0  0  0
 10 36  1  0  0  0  0
 11 12  1  0  0  0  0
 11 13  1  0  0  0  0
 11 37  1  0  0  0  0
 12 38  1  0  0  0  0
 13 18  1  0  0  0  0
 13 14  2  0  0  0  0
 14 15  1  0  0  0  0
 14 39  1  0  0  0  0
 15 16  2  0  0  0  0
 15 40  1  0  0  0  0
 16 17  1  0  0  0  0
 17 18  2  0  0  0  0
 17 41  1  0  0  0  0
 18 42  1  0  0  0  0
M  CHG  1   9   1
M  END
> <s_m_source_file>
AV-unprocessed.smi

> <i_m_source_file_index>
3290

> <i_lp_mmshare_version>
43012

> <i_f3d_flags>
0

> <s_epik_input>
W0NIM11bQ0BASF0xW0NIMl1bQ0gyXVtDSDJdW0NIMl1bQ0BIXTFbQ0gyXVtOSF1bQ0gyXVtDQEhdKFtPSF0pYzJbY0hdW2NIXW5bY0hdW2NIXTI=

> <s_epik_cmdline>
J2VwaWtfcHl0aG9uJywgJy1waCcsICc3LjAnLCAnLXRuJywgJzgnLCAnLW1hJywgJzIwMCcsICctbWV0YWxfYmluZGluZycsICctaW1hZScsICc8aW5maWxlLm1hZT4nLCAnLW9tYWUnLCAnPG91dGZpbGUubWFlPic=

> <r_lp_tautomer_probability>
1

> <r_epik_Ionization_Penalty>
0.00420552

> <r_epik_Ionization_Penalty_Charging>
0.00207255

> <r_epik_Ionization_Penalty_Neutral>
0.00213297

> <r_epik_State_Penalty>
-0

> <r_epik_Charging_Adjusted_Penalty>
0.00207255

> <i_epik_Tot_Q>
1

> <i_epik_Tot_abs_Q>
1

> <r_epik_Metal_State_Penalty>
-0

> <b_epik_Metal_Only>
0

> <s_lp_Force_Field>
OPLS_2005

> <r_lp_Energy>
17.3626

> <b_lp_Chiralities_Consistent>
1

> <s_lp_Variant>
AV-unprocessed.smi:3290-1

> <Gold.Version>
5.8.1

> <Gold.Id.Protein>
6NUR|6NUR_protein|mol2

> <Gold.PLP.Fitness>
57.7025

> <Gold.PLP.PLP>
-44.4115

> <Gold.PLP.part.hbond>
-4.8808

> <Gold.PLP.part.metal>
0.0000

> <Gold.PLP.part.buried>
-2.9197

> <Gold.PLP.part.nonpolar>
-36.7653

> <Gold.PLP.part.repulsive>
0.0877

> <Gold.PLP.ligand.clash>
0.0000

> <Gold.PLP.ligand.torsion>
1.4576

> <Gold.PLP.Chemscore.Hbond>
4.4240

> <Gold.PLP.Chemscore.CHOScore>
0.9542

> <Gold.PLP.Chemscore.Metal>
0.0000

> <Gold.Chemscore.Hbonds>
donor molecule, donor type, donor heavy atom, donor atom, acceptor molecule, acceptor atom, score
      L1  H     9    43       P1  8028  2.00
      L1  H    12    38       P1  7957  0.59
      P1  H  8011  8017       L1    12  1.00
      P1  H 10752 10764       L1    16  0.85
      L1  C    15    40       P1  7948  0.22
      L1  C    15    40       P1  7949  0.73

> <Gold.PLP.Chemscore.Internal.Correction>
0.0716

> <Gold.Rescore>
     Score         DG    S(hbond)    S(metal)    S(lipo)     H(rot)  DE(clash)    DE(int)     intcor
     22.26     -25.08       2.93        0.00     128.85       2.05       1.23       1.59       ----

> <Gold.Chemscore.Fitness>
22.2576

> <Gold.Chemscore.DG>
-25.0816

> <Gold.Chemscore.ZeroCoef>
-5.4800

> <Gold.Chemscore.Hbond>
2.9263

> <Gold.Chemscore.Metal>
0.0000

> <Gold.Chemscore.Lipo>
128.8483

> <Gold.Chemscore.Internal_Hbond>
0.0000

> <Gold.Chemscore.DEClash>
1.2323

> <Gold.Chemscore.DEInternal>
1.5916

> <Gold.Chemscore.Rot>
2.0498

> <Gold.Chemscore.Internal.Correction>
   9.000000E+99

> <Gold.Chemscore.Hbonds>
donor molecule, donor type, donor heavy atom, donor atom, acceptor molecule, acceptor atom, score
      L1  H     9    43       P1  8028  0.92
      L1  H    12    38       P1  7957  0.56
      P1  H  8011  8017       L1    12  0.18
      P1  H 10752 10764       L1    16  0.31

> <Gold.Chemscore.Hbond.Weighted>
-9.7739

> <Gold.Chemscore.Metal.Weighted>
-0.0000

> <Gold.Chemscore.Lipo.Weighted>
-15.0752

> <Gold.Chemscore.Internal_Hbond.Weighted>
0.0000

> <Gold.Chemscore.DEClash.Weighted>
1.2323

> <Gold.Chemscore.DEInternal.Weighted>
1.5916

> <Gold.Chemscore.Rot.Weighted>
5.2475

> <Gold.Chemscore.Internal.Correction.Weighted>
   9.000000E+99

> <Gold.Protein.RotatedTorsions>
[ 6907 6896 6895 6894 ] final   52.72 input  -60.11 | X-H torsion
[ 7974 7965 7964 7962 ] final  157.01 input  175.53 | X-H torsion
[ 8008 7997 7996 7995 ] final  -12.04 input   59.86 | X-H torsion
[ 10167 10162 10161 10158 ] final  136.48 input  -65.29 | X-H torsion
[ 10718 10713 10712 10709 ] final   44.67 input   66.30 | X-H torsion
[ 10763 10752 10751 10750 ] final  -55.74 input  -60.55 | X-H torsion
[ 11005 11000 10999 10996 ] final -111.64 input  -57.11 | X-H torsion

> <Gold.Protein.ActiveResidues>
 VAL166  LYS551  ARG553  GLY616  TRP617  ASP618  TYR619  PRO620  LYS621  CYS622 
 ASP623  PHE694  ASN695  SER759  ASP760  ASP761  ALA762  ILE779  LEU786  VAL792 
 PHE793  MET794  SER795  GLU796  ALA797  LYS798  CYS799  TRP800  GLU811  SER814 

> <Gold.Protein.RotatedAtoms>
  152.3262  134.7318  160.0301 H   0  0  0  0  0  0  0  0  0  0  0  0  # atno 6907 bound_to 6896
  151.7750  133.3339  159.3463 H   0  0  0  0  0  0  0  0  0  0  0  0  # atno 6908 bound_to 6896
  150.7397  134.5915  159.6034 H   0  0  0  0  0  0  0  0  0  0  0  0  # atno 6909 bound_to 6896
  144.7929  139.7281  143.6214 H   0  0  0  0  0  0  0  0  0  0  0  0  # atno 7974 bound_to 7965
  154.5412  140.2286  155.8639 H   0  0  0  0  0  0  0  0  0  0  0  0  # atno 8008 bound_to 7997
  156.1859  140.3089  155.9201 H   0  0  0  0  0  0  0  0  0  0  0  0  # atno 8009 bound_to 7997
  155.3255  140.0442  157.3031 H   0  0  0  0  0  0  0  0  0  0  0  0  # atno 8010 bound_to 7997
  139.5178  144.6462  151.5433 H   0  0  0  0  0  0  0  0  0  0  0  0  # atno 10167 bound_to 10162
  157.4293  130.8015  149.7588 H   0  0  0  0  0  0  0  0  0  0  0  0  # atno 10718 bound_to 10713
  154.1956  135.6420  153.5072 H   0  0  0  0  0  0  0  0  0  0  0  0  # atno 10763 bound_to 10752
  153.0024  135.5439  154.6370 H   0  0  0  0  0  0  0  0  0  0  0  0  # atno 10764 bound_to 10752
  154.5769  135.2922  155.0744 H   0  0  0  0  0  0  0  0  0  0  0  0  # atno 10765 bound_to 10752
  141.0722  133.9360  157.2461 H   0  0  0  0  0  0  0  0  0  0  0  0  # atno 11005 bound_to 11000
  146.2187  139.5596  142.9633 LP  0  0  0  0  0  0  0  0  0  0  0  0  # atno 17320 bound_to 7965
  145.5748  141.0390  143.2154 LP  0  0  0  0  0  0  0  0  0  0  0  0  # atno 17321 bound_to 7965
  140.6248  143.9190  150.6555 LP  0  0  0  0  0  0  0  0  0  0  0  0  # atno 17342 bound_to 10162
  140.2475  143.3618  152.1434 LP  0  0  0  0  0  0  0  0  0  0  0  0  # atno 17343 bound_to 10162
  155.9907  130.3942  150.3015 LP  0  0  0  0  0  0  0  0  0  0  0  0  # atno 17370 bound_to 10713
  157.1170  131.0236  151.3025 LP  0  0  0  0  0  0  0  0  0  0  0  0  # atno 17371 bound_to 10713
  139.9535  135.0170  156.9063 LP  0  0  0  0  0  0  0  0  0  0  0  0  # atno 17394 bound_to 11000
  140.5648  134.0500  155.7411 LP  0  0  0  0  0  0  0  0  0  0  0  0  # atno 17395 bound_to 11000

$$$$
