AV-unprocessed.smi:1936|AV-procd|sdf|7831|dock10
  -GOLD-   22720 9573D 1   1.00000     0.00000
 Structure written by MMmdl.
 39 40  0  0  0  0  0  0  0  0  2 V2000
  150.3306  134.1933  156.1968 C   0  0  0  0  0  0  0  0  0  0  0  0
  149.2197  134.7793  155.3148 C   0  0  2  0  0  0  0  0  0  0  0  0
  148.7313  133.7501  154.2705 C   0  0  0  0  0  0  0  0  0  0  0  0
  147.7664  134.3217  153.2971 N   0  3  0  0  0  0  0  0  0  0  0  0
  147.2448  133.3188  152.3397 C   0  0  0  0  0  0  0  0  0  0  0  0
  146.3145  133.9935  151.3169 C   0  0  0  0  0  0  0  0  0  0  0  0
  145.2579  134.6603  151.9968 O   0  0  0  0  0  0  0  0  0  0  0  0
  145.7407  135.6811  152.8622 C   0  0  0  0  0  0  0  0  0  0  0  0
  146.6487  135.0584  153.9357 C   0  0  0  0  0  0  0  0  0  0  0  0
  149.7163  135.9966  154.6729 N   0  0  0  0  0  0  0  0  0  0  0  0
  150.2339  137.0676  155.2979 C   0  0  0  0  0  0  0  0  0  0  0  0
  150.2933  137.1714  156.5226 O   0  0  0  0  0  0  0  0  0  0  0  0
  150.7416  138.2081  154.4107 C   0  0  0  0  0  0  0  0  0  0  0  0
  149.9292  139.4057  154.5450 N   0  0  0  0  0  0  0  0  0  0  0  0
  148.5705  139.5465  154.3511 C   0  0  0  0  0  0  0  0  0  0  0  0
  148.2592  140.8545  154.5888 C   0  0  0  0  0  0  0  0  0  0  0  0
  149.5092  141.4433  154.9291 C   0  0  0  0  0  0  0  0  0  0  0  0
  150.5062  140.5736  154.9036 N   0  0  0  0  0  0  0  0  0  0  0  0
  149.9831  133.3056  156.7262 H   0  0  0  0  0  0  0  0  0  0  0  0
  150.6588  134.9143  156.9464 H   0  0  0  0  0  0  0  0  0  0  0  0
  151.2012  133.9075  155.6056 H   0  0  0  0  0  0  0  0  0  0  0  0
  148.3941  135.0365  155.9798 H   0  0  0  0  0  0  0  0  0  0  0  0
  149.6038  133.3761  153.7321 H   0  0  0  0  0  0  0  0  0  0  0  0
  148.2851  132.8836  154.7610 H   0  0  0  0  0  0  0  0  0  0  0  0
  148.0731  132.8378  151.8180 H   0  0  0  0  0  0  0  0  0  0  0  0
  146.7072  132.5386  152.8814 H   0  0  0  0  0  0  0  0  0  0  0  0
  146.8665  134.7006  150.6953 H   0  0  0  0  0  0  0  0  0  0  0  0
  145.8878  133.2467  150.6471 H   0  0  0  0  0  0  0  0  0  0  0  0
  146.2779  136.4388  152.2894 H   0  0  0  0  0  0  0  0  0  0  0  0
  144.8912  136.1783  153.3307 H   0  0  0  0  0  0  0  0  0  0  0  0
  146.0707  134.3785  154.5636 H   0  0  0  0  0  0  0  0  0  0  0  0
  147.0326  135.8443  154.5856 H   0  0  0  0  0  0  0  0  0  0  0  0
  149.7077  136.0069  153.6628 H   0  0  0  0  0  0  0  0  0  0  0  0
  151.7721  138.4454  154.6776 H   0  0  0  0  0  0  0  0  0  0  0  0
  150.7448  137.8990  153.3641 H   0  0  0  0  0  0  0  0  0  0  0  0
  147.9454  138.7142  154.0620 H   0  0  0  0  0  0  0  0  0  0  0  0
  147.2869  141.3207  154.5295 H   0  0  0  0  0  0  0  0  0  0  0  0
  149.7207  142.4696  155.1919 H   0  0  0  0  0  0  0  0  0  0  0  0
  148.2834  134.9937  152.7474 H   0  0  0  0  0  0  0  0  0  0  0  0
  1  2  1  0  0  0  0
  1 19  1  0  0  0  0
  1 20  1  0  0  0  0
  1 21  1  0  0  0  0
  2  3  1  0  0  0  0
  2 10  1  0  0  0  0
  2 22  1  0  0  0  0
  3  4  1  0  0  0  0
  3 23  1  0  0  0  0
  3 24  1  0  0  0  0
  4  9  1  0  0  0  0
  4  5  1  0  0  0  0
  4 39  1  0  0  0  0
  5  6  1  0  0  0  0
  5 25  1  0  0  0  0
  5 26  1  0  0  0  0
  6  7  1  0  0  0  0
  6 27  1  0  0  0  0
  6 28  1  0  0  0  0
  7  8  1  0  0  0  0
  8  9  1  0  0  0  0
  8 29  1  0  0  0  0
  8 30  1  0  0  0  0
  9 31  1  0  0  0  0
  9 32  1  0  0  0  0
 10 11  1  0  0  0  0
 10 33  1  0  0  0  0
 11 12  2  0  0  0  0
 11 13  1  0  0  0  0
 13 14  1  0  0  0  0
 13 34  1  0  0  0  0
 13 35  1  0  0  0  0
 14 18  1  0  0  0  0
 14 15  1  0  0  0  0
 15 16  2  0  0  0  0
 15 36  1  0  0  0  0
 16 17  1  0  0  0  0
 16 37  1  0  0  0  0
 17 18  2  0  0  0  0
 17 38  1  0  0  0  0
M  CHG  1   4   1
M  END
> <s_m_source_file>
AV-unprocessed.smi

> <i_m_source_file_index>
1936

> <i_lp_mmshare_version>
43012

> <i_f3d_flags>
0

> <s_epik_input>
W0NIMl0xW0NIMl1PW0NIMl1bQ0gyXU4xW0NIMl1bQ0BASF0oW0NIM10pW05IXUMoPU8pW0NIMl1uMltjSF1bY0hdW2NIXW4y

> <s_epik_cmdline>
J2VwaWtfcHl0aG9uJywgJy1waCcsICc3LjAnLCAnLXRuJywgJzgnLCAnLW1hJywgJzIwMCcsICctbWV0YWxfYmluZGluZycsICctaW1hZScsICc8aW5maWxlLm1hZT4nLCAnLW9tYWUnLCAnPG91dGZpbGUubWFlPic=

> <r_lp_tautomer_probability>
1

> <r_epik_Ionization_Penalty>
0.748405

> <r_epik_Ionization_Penalty_Charging>
0.748396

> <r_epik_Ionization_Penalty_Neutral>
9.02181e-06

> <r_epik_State_Penalty>
0.775162

> <r_epik_Charging_Adjusted_Penalty>
1.52356

> <i_epik_Tot_Q>
1

> <i_epik_Tot_abs_Q>
1

> <r_epik_Metal_State_Penalty>
0.775167

> <b_epik_Metal_Only>
0

> <s_lp_Force_Field>
OPLS_2005

> <r_lp_Energy>
23.0503

> <b_lp_Chiralities_Consistent>
1

> <s_lp_Variant>
AV-unprocessed.smi:1936-3

> <Gold.Version>
5.8.1

> <Gold.Id.Protein>
6NUR|6NUR_protein|mol2

> <Gold.PLP.Fitness>
44.7031

> <Gold.PLP.PLP>
-30.2030

> <Gold.PLP.part.hbond>
-3.0000

> <Gold.PLP.part.metal>
0.0000

> <Gold.PLP.part.buried>
-2.4056

> <Gold.PLP.part.nonpolar>
-24.4997

> <Gold.PLP.part.repulsive>
0.2538

> <Gold.PLP.ligand.clash>
0.0000

> <Gold.PLP.ligand.torsion>
0.1268

> <Gold.PLP.Chemscore.Hbond>
3.9000

> <Gold.PLP.Chemscore.CHOScore>
0.9991

> <Gold.PLP.Chemscore.Metal>
0.0000

> <Gold.Chemscore.Hbonds>
donor molecule, donor type, donor heavy atom, donor atom, acceptor molecule, acceptor atom, score
      L1  H     4    39       P1  7948  2.00
      L1  H    10    33       P1  7948  1.00
      P1  H  7989  7998       L1    18  0.98
      L1  C    17    38       P1  8028  1.00

> <Gold.PLP.Chemscore.Internal.Correction>
0.0563

> <Gold.Rescore>
     Score         DG    S(hbond)    S(metal)    S(lipo)     H(rot)  DE(clash)    DE(int)     intcor
     14.58     -16.00       2.74        0.00      54.01       1.93       0.02       1.40       ----

> <Gold.Chemscore.Fitness>
14.5812

> <Gold.Chemscore.DG>
-16.0000

> <Gold.Chemscore.ZeroCoef>
-5.4800

> <Gold.Chemscore.Hbond>
2.7401

> <Gold.Chemscore.Metal>
0.0000

> <Gold.Chemscore.Lipo>
54.0098

> <Gold.Chemscore.Internal_Hbond>
0.0000

> <Gold.Chemscore.DEClash>
0.0232

> <Gold.Chemscore.DEInternal>
1.3957

> <Gold.Chemscore.Rot>
1.9340

> <Gold.Chemscore.Internal.Correction>
   9.000000E+99

> <Gold.Chemscore.Hbonds>
donor molecule, donor type, donor heavy atom, donor atom, acceptor molecule, acceptor atom, score
      L1  H     4    39       P1  7948  0.74
      L1  H    10    33       P1  7948  0.25
      P1  H  7989  7998       L1    18  0.25

> <Gold.Chemscore.Hbond.Weighted>
-9.1519

> <Gold.Chemscore.Metal.Weighted>
-0.0000

> <Gold.Chemscore.Lipo.Weighted>
-6.3192

> <Gold.Chemscore.Internal_Hbond.Weighted>
0.0000

> <Gold.Chemscore.DEClash.Weighted>
0.0232

> <Gold.Chemscore.DEInternal.Weighted>
1.3957

> <Gold.Chemscore.Rot.Weighted>
4.9510

> <Gold.Chemscore.Internal.Correction.Weighted>
   9.000000E+99

> <Gold.Protein.RotatedTorsions>
[ 6907 6896 6895 6894 ] final   -6.49 input  -60.11 | X-H torsion
[ 7974 7965 7964 7962 ] final  142.81 input  175.53 | X-H torsion
[ 8008 7997 7996 7995 ] final   88.77 input   59.86 | X-H torsion
[ 10167 10162 10161 10158 ] final  -60.63 input  -65.29 | X-H torsion
[ 10718 10713 10712 10709 ] final   86.42 input   66.30 | X-H torsion
[ 10763 10752 10751 10750 ] final -174.59 input  -60.55 | X-H torsion
[ 11005 11000 10999 10996 ] final -142.70 input  -57.11 | X-H torsion

> <Gold.Protein.ActiveResidues>
 VAL166  LYS551  ARG553  GLY616  TRP617  ASP618  TYR619  PRO620  LYS621  CYS622 
 ASP623  PHE694  ASN695  SER759  ASP760  ASP761  ALA762  ILE779  LEU786  VAL792 
 PHE793  MET794  SER795  GLU796  ALA797  LYS798  CYS799  TRP800  GLU811  SER814 

> <Gold.Protein.RotatedAtoms>
  151.4647  135.1041  159.9734 H   0  0  0  0  0  0  0  0  0  0  0  0  # atno 6907 bound_to 6896
  152.4839  133.8320  159.7119 H   0  0  0  0  0  0  0  0  0  0  0  0  # atno 6908 bound_to 6896
  150.8933  133.7153  159.2925 H   0  0  0  0  0  0  0  0  0  0  0  0  # atno 6909 bound_to 6896
  144.8975  139.5470  143.5769 H   0  0  0  0  0  0  0  0  0  0  0  0  # atno 7974 bound_to 7965
  155.9918  140.3368  155.6760 H   0  0  0  0  0  0  0  0  0  0  0  0  # atno 8008 bound_to 7997
  155.6410  140.0695  157.2636 H   0  0  0  0  0  0  0  0  0  0  0  0  # atno 8009 bound_to 7997
  154.4222  140.1742  156.1560 H   0  0  0  0  0  0  0  0  0  0  0  0  # atno 8010 bound_to 7997
  140.6059  143.2373  151.5823 H   0  0  0  0  0  0  0  0  0  0  0  0  # atno 10167 bound_to 10162
  157.6928  131.0215  150.2970 H   0  0  0  0  0  0  0  0  0  0  0  0  # atno 10718 bound_to 10713
  154.5945  135.2848  155.0601 H   0  0  0  0  0  0  0  0  0  0  0  0  # atno 10763 bound_to 10752
  154.1889  135.6444  153.5058 H   0  0  0  0  0  0  0  0  0  0  0  0  # atno 10764 bound_to 10752
  153.0133  135.5441  154.6642 H   0  0  0  0  0  0  0  0  0  0  0  0  # atno 10765 bound_to 10752
  140.8199  134.2643  157.4905 H   0  0  0  0  0  0  0  0  0  0  0  0  # atno 11005 bound_to 11000
  146.3090  139.7678  142.9034 LP  0  0  0  0  0  0  0  0  0  0  0  0  # atno 17320 bound_to 7965
  145.3674  141.0337  143.3250 LP  0  0  0  0  0  0  0  0  0  0  0  0  # atno 17321 bound_to 7965
  139.5324  144.2877  152.1178 LP  0  0  0  0  0  0  0  0  0  0  0  0  # atno 17342 bound_to 10162
  140.2066  144.4604  150.6405 LP  0  0  0  0  0  0  0  0  0  0  0  0  # atno 17343 bound_to 10162
  156.3492  130.3828  149.7343 LP  0  0  0  0  0  0  0  0  0  0  0  0  # atno 17370 bound_to 10713
  156.4826  130.8048  151.3062 LP  0  0  0  0  0  0  0  0  0  0  0  0  # atno 17371 bound_to 10713
  139.8709  134.9530  156.4131 LP  0  0  0  0  0  0  0  0  0  0  0  0  # atno 17394 bound_to 11000
  140.9110  133.7712  155.9791 LP  0  0  0  0  0  0  0  0  0  0  0  0  # atno 17395 bound_to 11000

$$$$
