AV-unprocessed.smi:229|AV-procd|sdf|1752|dock8
  -GOLD-   2262020273D 1   1.00000     0.00000
 Structure written by MMmdl.
 58 62  0  0  0  0  0  0  0  0  1 V2000
  147.4622  132.8551  159.1629 C   0  0  0  0  0  0  0  0  0  0  0  0
  148.0730  134.2465  158.9384 C   0  0  0  0  0  0  0  0  0  0  0  0
  148.8832  134.3859  157.6374 C   0  0  1  0  0  0  0  0  0  0  0  0
  149.5776  135.7525  157.4884 C   0  0  0  0  0  0  0  0  0  0  0  0
  150.3901  135.7584  156.2784 N   0  0  0  0  0  0  0  0  0  0  0  0
  150.8292  136.9472  155.7972 C   0  0  0  0  0  0  0  0  0  0  0  0
  151.5103  136.9993  154.6215 N   0  0  0  0  0  0  0  0  0  0  0  0
  151.9317  138.1721  154.1384 C   0  0  0  0  0  0  0  0  0  0  0  0
  151.7850  139.3915  154.6609 N   0  0  0  0  0  0  0  0  0  0  0  0
  151.1128  139.3438  155.8462 C   0  0  0  0  0  0  0  0  0  0  0  0
  150.6049  138.1751  156.4802 C   0  0  0  0  0  0  0  0  0  0  0  0
  149.9884  138.5158  157.6787 N   0  0  0  0  0  0  0  0  0  0  0  0
  150.1167  139.8126  157.7453 C   0  0  0  0  0  0  0  0  0  0  0  0
  150.7755  140.3916  156.6850 N   0  0  0  0  0  0  0  0  0  0  0  0
  151.0511  141.8066  156.5092 C   0  0  0  0  0  0  0  0  0  0  0  0
  150.8557  142.6069  157.8113 C   0  0  2  0  0  0  0  0  0  0  0  0
  150.5222  143.9436  157.4886 O   0  0  0  0  0  0  0  0  0  0  0  0
  152.1186  142.6034  158.6916 C   0  0  1  0  0  0  0  0  0  0  0  0
  151.9981  143.4193  159.9795 C   0  0  0  0  0  0  0  0  0  0  0  0
  153.0225  142.7799  160.9032 C   0  0  0  0  0  0  0  0  0  0  0  0
  153.3121  141.4231  160.2556 C   0  0  0  0  0  0  0  0  0  0  0  0
  152.3681  141.3019  159.2006 O   0  0  0  0  0  0  0  0  0  0  0  0
  151.3743  134.6837  156.2563 C   0  0  0  0  0  0  0  0  0  0  0  0
  150.6849  133.3138  156.4185 C   0  0  1  0  0  0  0  0  0  0  0  0
  149.9451  132.8393  155.1713 C   0  0  0  0  0  0  0  0  0  0  0  0
  149.9250  131.3314  155.3675 C   0  0  0  0  0  0  0  0  0  0  0  0
  151.2079  131.0416  155.9009 O   0  0  0  0  0  0  0  0  0  0  0  0
  151.6935  132.1715  156.6229 C   0  0  0  0  0  0  0  0  0  0  0  0
  149.8451  133.3302  157.5803 O   0  0  0  0  0  0  0  0  0  0  0  0
  146.8503  132.8462  160.0649 H   0  0  0  0  0  0  0  0  0  0  0  0
  148.2303  132.0917  159.2837 H   0  0  0  0  0  0  0  0  0  0  0  0
  146.8236  132.5622  158.3292 H   0  0  0  0  0  0  0  0  0  0  0  0
  147.2691  134.9832  158.9308 H   0  0  0  0  0  0  0  0  0  0  0  0
  148.7060  134.5018  159.7886 H   0  0  0  0  0  0  0  0  0  0  0  0
  148.1798  134.2690  156.8136 H   0  0  0  0  0  0  0  0  0  0  0  0
  148.8280  136.5440  157.4455 H   0  0  0  0  0  0  0  0  0  0  0  0
  150.2214  135.9567  158.3446 H   0  0  0  0  0  0  0  0  0  0  0  0
  152.4612  138.1270  153.1981 H   0  0  0  0  0  0  0  0  0  0  0  0
  149.7299  140.3872  158.5744 H   0  0  0  0  0  0  0  0  0  0  0  0
  152.0775  141.9064  156.1544 H   0  0  0  0  0  0  0  0  0  0  0  0
  150.4099  142.1978  155.7182 H   0  0  0  0  0  0  0  0  0  0  0  0
  150.0247  142.1807  158.3751 H   0  0  0  0  0  0  0  0  0  0  0  0
  149.9504  143.9362  156.7363 H   0  0  0  0  0  0  0  0  0  0  0  0
  152.9882  142.9334  158.1195 H   0  0  0  0  0  0  0  0  0  0  0  0
  152.1753  144.4835  159.8223 H   0  0  0  0  0  0  0  0  0  0  0  0
  151.0009  143.3043  160.4064 H   0  0  0  0  0  0  0  0  0  0  0  0
  153.9331  143.3771  160.9585 H   0  0  0  0  0  0  0  0  0  0  0  0
  152.6276  142.6738  161.9139 H   0  0  0  0  0  0  0  0  0  0  0  0
  154.3207  141.4047  159.8403 H   0  0  0  0  0  0  0  0  0  0  0  0
  153.2189  140.5954  160.9590 H   0  0  0  0  0  0  0  0  0  0  0  0
  151.9692  134.6965  155.3434 H   0  0  0  0  0  0  0  0  0  0  0  0
  152.0710  134.8439  157.0805 H   0  0  0  0  0  0  0  0  0  0  0  0
  148.9523  133.2640  155.0347 H   0  0  0  0  0  0  0  0  0  0  0  0
  150.5251  133.0773  154.2784 H   0  0  0  0  0  0  0  0  0  0  0  0
  149.1593  131.0474  156.0907 H   0  0  0  0  0  0  0  0  0  0  0  0
  149.7431  130.7862  154.4413 H   0  0  0  0  0  0  0  0  0  0  0  0
  152.6713  132.4289  156.2136 H   0  0  0  0  0  0  0  0  0  0  0  0
  151.8345  131.9301  157.6770 H   0  0  0  0  0  0  0  0  0  0  0  0
  1  2  1  0  0  0  0
  1 30  1  0  0  0  0
  1 31  1  0  0  0  0
  1 32  1  0  0  0  0
  2  3  1  0  0  0  0
  2 33  1  0  0  0  0
  2 34  1  0  0  0  0
  3 29  1  0  0  0  0
  3  4  1  0  0  0  0
  3 35  1  0  0  0  0
  4  5  1  0  0  0  0
  4 36  1  0  0  0  0
  4 37  1  0  0  0  0
  5  6  1  0  0  0  0
  5 23  1  0  0  0  0
  6 11  1  0  0  0  0
  6  7  2  0  0  0  0
  7  8  1  0  0  0  0
  8  9  2  0  0  0  0
  8 38  1  0  0  0  0
  9 10  1  0  0  0  0
 10 14  1  0  0  0  0
 10 11  2  0  0  0  0
 11 12  1  0  0  0  0
 12 13  2  0  0  0  0
 13 14  1  0  0  0  0
 13 39  1  0  0  0  0
 14 15  1  0  0  0  0
 15 16  1  0  0  0  0
 15 40  1  0  0  0  0
 15 41  1  0  0  0  0
 16 17  1  0  0  0  0
 16 18  1  0  0  0  0
 16 42  1  0  0  0  0
 17 43  1  0  0  0  0
 18 22  1  0  0  0  0
 18 19  1  0  0  0  0
 18 44  1  0  0  0  0
 19 20  1  0  0  0  0
 19 45  1  0  0  0  0
 19 46  1  0  0  0  0
 20 21  1  0  0  0  0
 20 47  1  0  0  0  0
 20 48  1  0  0  0  0
 21 22  1  0  0  0  0
 21 49  1  0  0  0  0
 21 50  1  0  0  0  0
 23 24  1  0  0  0  0
 23 51  1  0  0  0  0
 23 52  1  0  0  0  0
 24 28  1  0  0  0  0
 24 25  1  0  0  0  0
 24 29  1  0  0  0  0
 25 26  1  0  0  0  0
 25 53  1  0  0  0  0
 25 54  1  0  0  0  0
 26 27  1  0  0  0  0
 26 55  1  0  0  0  0
 26 56  1  0  0  0  0
 27 28  1  0  0  0  0
 28 57  1  0  0  0  0
 28 58  1  0  0  0  0
M  END
> <s_m_source_file>
AV-unprocessed.smi

> <i_m_source_file_index>
229

> <i_lp_mmshare_version>
43012

> <i_f3d_flags>
0

> <s_epik_input>
W0NIMl0xT1tDSDJdW0NIMl1bQ0BdMTJbQ0gyXU4oW0NIMl1bQ0BIXShPMilbQ0gyXVtDSDNdKWMobltjSF1uMyljKGMzNCluW2NIXW40W0NIMl1bQ0BIXShbT0hdKVtDQEBIXTVbQ0gyXVtDSDJdW0NIMl1PNQ==

> <s_epik_cmdline>
J2VwaWtfcHl0aG9uJywgJy1waCcsICc3LjAnLCAnLXRuJywgJzgnLCAnLW1hJywgJzIwMCcsICctbWV0YWxfYmluZGluZycsICctaW1hZScsICc8aW5maWxlLm1hZT4nLCAnLW9tYWUnLCAnPG91dGZpbGUubWFlPic=

> <r_lp_tautomer_probability>
1

> <r_epik_Ionization_Penalty>
0.00318402

> <r_epik_Ionization_Penalty_Charging>
0

> <r_epik_Ionization_Penalty_Neutral>
0.00318402

> <r_epik_State_Penalty>
0.00215642

> <r_epik_Charging_Adjusted_Penalty>
0.00215642

> <i_epik_Tot_Q>
0

> <i_epik_Tot_abs_Q>
0

> <r_epik_Metal_State_Penalty>
-0

> <b_epik_Metal_Only>
0

> <s_lp_Force_Field>
OPLS_2005

> <r_lp_Energy>
54.3536

> <b_lp_Chiralities_Consistent>
1

> <s_lp_Variant>
AV-unprocessed.smi:229-6

> <Gold.Version>
5.8.1

> <Gold.Id.Protein>
6NUR|6NUR_protein|mol2

> <Gold.PLP.Fitness>
54.9733

> <Gold.PLP.PLP>
-44.0415

> <Gold.PLP.part.hbond>
-4.0000

> <Gold.PLP.part.metal>
0.0000

> <Gold.PLP.part.buried>
-7.4836

> <Gold.PLP.part.nonpolar>
-33.2084

> <Gold.PLP.part.repulsive>
0.2324

> <Gold.PLP.ligand.clash>
0.0000

> <Gold.PLP.ligand.torsion>
0.7266

> <Gold.PLP.Chemscore.Hbond>
4.0000

> <Gold.PLP.Chemscore.CHOScore>
0.0000

> <Gold.PLP.Chemscore.Metal>
0.0000

> <Gold.Chemscore.Hbonds>
donor molecule, donor type, donor heavy atom, donor atom, acceptor molecule, acceptor atom, score
      L1  H    17    43       P1  8028  0.99
      P1  H  6896  6909       L1    29  0.99
      P1  H  7989  7998       L1     9  1.00
      P1  H 10752 10765       L1     7  1.00

> <Gold.PLP.Chemscore.Internal.Correction>
0.3851

> <Gold.Rescore>
     Score         DG    S(hbond)    S(metal)    S(lipo)     H(rot)  DE(clash)    DE(int)     intcor
     17.39     -19.98       2.70        0.00     100.63       2.46       0.22       2.36       ----

> <Gold.Chemscore.Fitness>
17.3926

> <Gold.Chemscore.DG>
-19.9811

> <Gold.Chemscore.ZeroCoef>
-5.4800

> <Gold.Chemscore.Hbond>
2.7015

> <Gold.Chemscore.Metal>
0.0000

> <Gold.Chemscore.Lipo>
100.6271

> <Gold.Chemscore.Internal_Hbond>
0.0000

> <Gold.Chemscore.DEClash>
0.2250

> <Gold.Chemscore.DEInternal>
2.3635

> <Gold.Chemscore.Rot>
2.4591

> <Gold.Chemscore.Internal.Correction>
   9.000000E+99

> <Gold.Chemscore.Hbonds>
donor molecule, donor type, donor heavy atom, donor atom, acceptor molecule, acceptor atom, score
      L1  H    17    43       P1  8028  0.94
      P1  H  6896  6909       L1    29  0.35
      P1  H  7989  7998       L1     9  0.91
      P1  H 10752 10765       L1     7  0.57

> <Gold.Chemscore.Hbond.Weighted>
-9.0231

> <Gold.Chemscore.Metal.Weighted>
-0.0000

> <Gold.Chemscore.Lipo.Weighted>
-11.7734

> <Gold.Chemscore.Internal_Hbond.Weighted>
0.0000

> <Gold.Chemscore.DEClash.Weighted>
0.2250

> <Gold.Chemscore.DEInternal.Weighted>
2.3635

> <Gold.Chemscore.Rot.Weighted>
6.2953

> <Gold.Chemscore.Internal.Correction.Weighted>
   9.000000E+99

> <Gold.Protein.RotatedTorsions>
[ 6907 6896 6895 6894 ] final  -22.90 input  -60.11 | X-H torsion
[ 7974 7965 7964 7962 ] final  140.18 input  175.53 | X-H torsion
[ 8008 7997 7996 7995 ] final -111.68 input   59.86 | X-H torsion
[ 10167 10162 10161 10158 ] final   10.98 input  -65.29 | X-H torsion
[ 10718 10713 10712 10709 ] final -108.34 input   66.30 | X-H torsion
[ 10763 10752 10751 10750 ] final  161.27 input  -60.55 | X-H torsion
[ 11005 11000 10999 10996 ] final  -38.13 input  -57.11 | X-H torsion

> <Gold.Protein.ActiveResidues>
 VAL166  LYS551  ARG553  GLY616  TRP617  ASP618  TYR619  PRO620  LYS621  CYS622 
 ASP623  PHE694  ASN695  SER759  ASP760  ASP761  ALA762  ILE779  LEU786  VAL792 
 PHE793  MET794  SER795  GLU796  ALA797  LYS798  CYS799  TRP800  GLU811  SER814 

> <Gold.Protein.RotatedAtoms>
  151.2119  135.0484  159.8914 H   0  0  0  0  0  0  0  0  0  0  0  0  # atno 6907 bound_to 6896
  152.5424  134.0736  159.8215 H   0  0  0  0  0  0  0  0  0  0  0  0  # atno 6908 bound_to 6896
  151.0890  133.5282  159.2648 H   0  0  0  0  0  0  0  0  0  0  0  0  # atno 6909 bound_to 6896
  144.9210  139.5167  143.5663 H   0  0  0  0  0  0  0  0  0  0  0  0  # atno 7974 bound_to 7965
  154.9935  140.0395  157.2329 H   0  0  0  0  0  0  0  0  0  0  0  0  # atno 8008 bound_to 7997
  154.7607  140.2784  155.6193 H   0  0  0  0  0  0  0  0  0  0  0  0  # atno 8009 bound_to 7997
  156.2903  140.2629  156.2385 H   0  0  0  0  0  0  0  0  0  0  0  0  # atno 8010 bound_to 7997
  140.6161  143.8306  150.7120 H   0  0  0  0  0  0  0  0  0  0  0  0  # atno 10167 bound_to 10162
  156.0481  130.5708  150.7947 H   0  0  0  0  0  0  0  0  0  0  0  0  # atno 10718 bound_to 10713
  154.2604  135.2768  155.2780 H   0  0  0  0  0  0  0  0  0  0  0  0  # atno 10763 bound_to 10752
  154.5389  135.5708  153.6826 H   0  0  0  0  0  0  0  0  0  0  0  0  # atno 10764 bound_to 10752
  152.9963  135.6246  154.2754 H   0  0  0  0  0  0  0  0  0  0  0  0  # atno 10765 bound_to 10752
  141.0004  133.6958  156.2012 H   0  0  0  0  0  0  0  0  0  0  0  0  # atno 11005 bound_to 11000
  146.3205  139.8090  142.8950 LP  0  0  0  0  0  0  0  0  0  0  0  0  # atno 17320 bound_to 7965
  145.3296  141.0263  143.3454 LP  0  0  0  0  0  0  0  0  0  0  0  0  # atno 17321 bound_to 7965
  140.1885  143.4056  152.1881 LP  0  0  0  0  0  0  0  0  0  0  0  0  # atno 17342 bound_to 10162
  139.5399  144.7247  151.4767 LP  0  0  0  0  0  0  0  0  0  0  0  0  # atno 17343 bound_to 10162
  157.5378  131.0939  150.9869 LP  0  0  0  0  0  0  0  0  0  0  0  0  # atno 17370 bound_to 10713
  157.0159  130.5655  149.5326 LP  0  0  0  0  0  0  0  0  0  0  0  0  # atno 17371 bound_to 10713
  140.6898  134.4678  157.5588 LP  0  0  0  0  0  0  0  0  0  0  0  0  # atno 17394 bound_to 11000
  139.9036  134.8500  156.1795 LP  0  0  0  0  0  0  0  0  0  0  0  0  # atno 17395 bound_to 11000

$$$$
