AV-unprocessed.smi:2510|AV-procd|sdf|9878|dock10
  -GOLD-   2272013513D 1   1.00000     0.00000
 Structure written by MMmdl.
 48 49  0  0  0  0  0  0  0  0  1 V2000
  150.9627  142.8012  157.1308 C   0  0  0  0  0  0  0  0  0  0  0  0
  150.5770  141.6494  158.0724 C   0  0  0  0  0  0  0  0  0  0  0  0
  151.7163  140.6426  158.3863 C   0  0  0  0  0  0  0  0  0  0  0  0
  152.9232  141.4314  158.9515 C   0  0  0  0  0  0  0  0  0  0  0  0
  152.6324  142.2588  160.2151 C   0  0  0  0  0  0  0  0  0  0  0  0
  151.3669  139.3619  159.2068 C   0  0  1  0  0  0  0  0  0  0  0  0
  149.9672  138.9555  159.1027 N   0  0  0  0  0  0  0  0  0  0  0  0
  149.4572  137.7973  159.5458 C   0  0  0  0  0  0  0  0  0  0  0  0
  150.1437  136.8794  159.9930 O   0  0  0  0  0  0  0  0  0  0  0  0
  147.9327  137.6753  159.5076 C   0  0  0  0  0  0  0  0  0  0  0  0
  147.4469  136.8313  160.6447 C   0  0  0  0  0  0  0  0  0  0  0  0
  147.5309  137.0078  161.9981 C   0  0  0  0  0  0  0  0  0  0  0  0
  146.9438  135.8298  162.5446 C   0  0  0  0  0  0  0  0  0  0  0  0
  146.7907  135.4573  163.9894 C   0  0  0  0  0  0  0  0  0  0  0  0
  146.5091  135.0001  161.6080 N   0  0  0  0  0  0  0  0  0  0  0  0
  146.8194  135.6210  160.4549 N   0  0  0  0  0  0  0  0  0  0  0  0
  152.2631  138.5408  158.2625 C   0  0  1  0  0  0  0  0  0  0  0  0
  151.9278  137.0928  157.9094 C   0  0  0  0  0  0  0  0  0  0  0  0
  152.0916  139.6726  157.2324 C   0  0  1  0  0  0  0  0  0  0  0  0
  150.9936  139.4476  156.3534 O   0  0  0  0  0  0  0  0  0  0  0  0
  151.2744  138.5053  155.3337 C   0  0  0  0  0  0  0  0  0  0  0  0
  146.6142  135.2054  159.5573 H   0  0  0  0  0  0  0  0  0  0  0  0
  150.0806  143.3813  156.8598 H   0  0  0  0  0  0  0  0  0  0  0  0
  151.4066  142.4290  156.2074 H   0  0  0  0  0  0  0  0  0  0  0  0
  151.6679  143.4903  157.5942 H   0  0  0  0  0  0  0  0  0  0  0  0
  150.1509  142.0551  158.9893 H   0  0  0  0  0  0  0  0  0  0  0  0
  149.7423  141.1391  157.5941 H   0  0  0  0  0  0  0  0  0  0  0  0
  153.7297  140.7425  159.2018 H   0  0  0  0  0  0  0  0  0  0  0  0
  153.3552  142.0791  158.1896 H   0  0  0  0  0  0  0  0  0  0  0  0
  153.5561  142.6742  160.6185 H   0  0  0  0  0  0  0  0  0  0  0  0
  152.1760  141.6534  160.9979 H   0  0  0  0  0  0  0  0  0  0  0  0
  151.9696  143.0984  160.0085 H   0  0  0  0  0  0  0  0  0  0  0  0
  151.7435  139.3676  160.2306 H   0  0  0  0  0  0  0  0  0  0  0  0
  149.3225  139.6504  158.7541 H   0  0  0  0  0  0  0  0  0  0  0  0
  147.4933  138.6716  159.5642 H   0  0  0  0  0  0  0  0  0  0  0  0
  147.6201  137.2454  158.5551 H   0  0  0  0  0  0  0  0  0  0  0  0
  147.9722  137.8431  162.5212 H   0  0  0  0  0  0  0  0  0  0  0  0
  147.1724  136.2434  164.6411 H   0  0  0  0  0  0  0  0  0  0  0  0
  147.3396  134.5433  164.2178 H   0  0  0  0  0  0  0  0  0  0  0  0
  145.7441  135.2921  164.2450 H   0  0  0  0  0  0  0  0  0  0  0  0
  153.2831  138.5820  158.6476 H   0  0  0  0  0  0  0  0  0  0  0  0
  150.9475  137.0004  157.4415 H   0  0  0  0  0  0  0  0  0  0  0  0
  151.9264  136.4633  158.7993 H   0  0  0  0  0  0  0  0  0  0  0  0
  152.6606  136.6784  157.2171 H   0  0  0  0  0  0  0  0  0  0  0  0
  153.0105  139.9590  156.7170 H   0  0  0  0  0  0  0  0  0  0  0  0
  150.3841  138.3539  154.7236 H   0  0  0  0  0  0  0  0  0  0  0  0
  151.5694  137.5409  155.7474 H   0  0  0  0  0  0  0  0  0  0  0  0
  152.0716  138.8635  154.6815 H   0  0  0  0  0  0  0  0  0  0  0  0
  1  2  1  0  0  0  0
  1 23  1  0  0  0  0
  1 24  1  0  0  0  0
  1 25  1  0  0  0  0
  2  3  1  0  0  0  0
  2 26  1  0  0  0  0
  2 27  1  0  0  0  0
  3 19  1  0  0  0  0
  3  4  1  0  0  0  0
  3  6  1  0  0  0  0
  4  5  1  0  0  0  0
  4 28  1  0  0  0  0
  4 29  1  0  0  0  0
  5 30  1  0  0  0  0
  5 31  1  0  0  0  0
  5 32  1  0  0  0  0
  6  7  1  0  0  0  0
  6 17  1  0  0  0  0
  6 33  1  0  0  0  0
  7  8  1  0  0  0  0
  7 34  1  0  0  0  0
  8  9  2  0  0  0  0
  8 10  1  0  0  0  0
 10 35  1  0  0  0  0
 10 36  1  0  0  0  0
 10 11  1  0  0  0  0
 11 16  1  0  0  0  0
 11 12  2  0  0  0  0
 12 13  1  0  0  0  0
 12 37  1  0  0  0  0
 13 14  1  0  0  0  0
 13 15  2  0  0  0  0
 14 38  1  0  0  0  0
 14 39  1  0  0  0  0
 14 40  1  0  0  0  0
 15 16  1  0  0  0  0
 16 22  1  0  0  0  0
 17 18  1  0  0  0  0
 17 19  1  0  0  0  0
 17 41  1  0  0  0  0
 18 42  1  0  0  0  0
 18 43  1  0  0  0  0
 18 44  1  0  0  0  0
 19 20  1  0  0  0  0
 19 45  1  0  0  0  0
 20 21  1  0  0  0  0
 21 46  1  0  0  0  0
 21 47  1  0  0  0  0
 21 48  1  0  0  0  0
M  END
> <s_m_source_file>
AV-unprocessed.smi

> <i_m_source_file_index>
2510

> <i_lp_mmshare_version>
43012

> <i_f3d_flags>
0

> <s_epik_input>
W0NIM11PW0NAQEhdMVtDQEhdKFtDSDNdKVtDQEBIXShDMShbQ0gyXVtDSDNdKVtDSDJdW0NIM10pW05IXUMoPU8pW0NIMl1jMltjSF1jKFtDSDNdKVtuSF1uMg==

> <s_epik_cmdline>
J2VwaWtfcHl0aG9uJywgJy1waCcsICc3LjAnLCAnLXRuJywgJzgnLCAnLW1hJywgJzIwMCcsICctbWV0YWxfYmluZGluZycsICctaW1hZScsICc8aW5maWxlLm1hZT4nLCAnLW9tYWUnLCAnPG91dGZpbGUubWFlPic=

> <r_lp_tautomer_probability>
0.5

> <r_epik_Ionization_Penalty>
0.000134763

> <r_epik_Ionization_Penalty_Charging>
0

> <r_epik_Ionization_Penalty_Neutral>
0.000134763

> <r_epik_State_Penalty>
0.41068

> <r_epik_Charging_Adjusted_Penalty>
0.41068

> <i_epik_Tot_Q>
0

> <i_epik_Tot_abs_Q>
0

> <r_epik_Metal_State_Penalty>
0.410661

> <b_epik_Metal_Only>
0

> <s_lp_Force_Field>
OPLS_2005

> <r_lp_Energy>
25.663

> <b_lp_Chiralities_Consistent>
1

> <s_lp_Variant>
AV-unprocessed.smi:2510-9

> <Gold.Version>
5.8.1

> <Gold.Id.Protein>
6NUR|6NUR_protein|mol2

> <Gold.PLP.Fitness>
36.8825

> <Gold.PLP.PLP>
-34.6325

> <Gold.PLP.part.hbond>
-1.0000

> <Gold.PLP.part.metal>
0.0000

> <Gold.PLP.part.buried>
-3.3579

> <Gold.PLP.part.nonpolar>
-29.8407

> <Gold.PLP.part.repulsive>
0.2200

> <Gold.PLP.ligand.clash>
0.0000

> <Gold.PLP.ligand.torsion>
0.7035

> <Gold.PLP.Chemscore.Hbond>
1.0000

> <Gold.PLP.Chemscore.CHOScore>
0.0000

> <Gold.PLP.Chemscore.Metal>
0.0000

> <Gold.Chemscore.Hbonds>
donor molecule, donor type, donor heavy atom, donor atom, acceptor molecule, acceptor atom, score
      P1  H  6896  6907       L1     9  0.83

> <Gold.PLP.Chemscore.Internal.Correction>
0.6571

> <Gold.Rescore>
     Score         DG    S(hbond)    S(metal)    S(lipo)     H(rot)  DE(clash)    DE(int)     intcor
     14.14     -15.71       1.00        0.00      98.48       1.81       0.09       1.48       ----

> <Gold.Chemscore.Fitness>
14.1365

> <Gold.Chemscore.DG>
-15.7081

> <Gold.Chemscore.ZeroCoef>
-5.4800

> <Gold.Chemscore.Hbond>
0.9999

> <Gold.Chemscore.Metal>
0.0000

> <Gold.Chemscore.Lipo>
98.4840

> <Gold.Chemscore.Internal_Hbond>
0.0000

> <Gold.Chemscore.DEClash>
0.0913

> <Gold.Chemscore.DEInternal>
1.4803

> <Gold.Chemscore.Rot>
1.8102

> <Gold.Chemscore.Internal.Correction>
   9.000000E+99

> <Gold.Chemscore.Hbonds>
donor molecule, donor type, donor heavy atom, donor atom, acceptor molecule, acceptor atom, score
      P1  H  6896  6907       L1     9  0.79

> <Gold.Chemscore.Hbond.Weighted>
-3.3396

> <Gold.Chemscore.Metal.Weighted>
-0.0000

> <Gold.Chemscore.Lipo.Weighted>
-11.5226

> <Gold.Chemscore.Internal_Hbond.Weighted>
0.0000

> <Gold.Chemscore.DEClash.Weighted>
0.0913

> <Gold.Chemscore.DEInternal.Weighted>
1.4803

> <Gold.Chemscore.Rot.Weighted>
4.6341

> <Gold.Chemscore.Internal.Correction.Weighted>
   9.000000E+99

> <Gold.Protein.RotatedTorsions>
[ 6907 6896 6895 6894 ] final  -44.93 input  -60.11 | X-H torsion
[ 7974 7965 7964 7962 ] final -102.92 input  175.53 | X-H torsion
[ 8008 7997 7996 7995 ] final   46.42 input   59.86 | X-H torsion
[ 10167 10162 10161 10158 ] final   85.00 input  -65.29 | X-H torsion
[ 10718 10713 10712 10709 ] final  136.64 input   66.30 | X-H torsion
[ 10763 10752 10751 10750 ] final  128.01 input  -60.55 | X-H torsion
[ 11005 11000 10999 10996 ] final   55.97 input  -57.11 | X-H torsion

> <Gold.Protein.ActiveResidues>
 VAL166  LYS551  ARG553  GLY616  TRP617  ASP618  TYR619  PRO620  LYS621  CYS622 
 ASP623  PHE694  ASN695  SER759  ASP760  ASP761  ALA762  ILE779  LEU786  VAL792 
 PHE793  MET794  SER795  GLU796  ALA797  LYS798  CYS799  TRP800  GLU811  SER814 

> <Gold.Protein.RotatedAtoms>
  150.9275  134.8691  159.7528 H   0  0  0  0  0  0  0  0  0  0  0  0  # atno 6907 bound_to 6896
  152.5022  134.4128  159.9464 H   0  0  0  0  0  0  0  0  0  0  0  0  # atno 6908 bound_to 6896
  151.4157  133.3674  159.2784 H   0  0  0  0  0  0  0  0  0  0  0  0  # atno 6909 bound_to 6896
  145.2625  140.9273  143.3033 H   0  0  0  0  0  0  0  0  0  0  0  0  # atno 7974 bound_to 7965
  155.3522  140.3414  155.4239 H   0  0  0  0  0  0  0  0  0  0  0  0  # atno 8008 bound_to 7997
  156.1758  140.1647  156.8401 H   0  0  0  0  0  0  0  0  0  0  0  0  # atno 8009 bound_to 7997
  154.5280  140.0751  156.8276 H   0  0  0  0  0  0  0  0  0  0  0  0  # atno 8010 bound_to 7997
  139.9022  144.6322  150.8625 H   0  0  0  0  0  0  0  0  0  0  0  0  # atno 10167 bound_to 10162
  157.4446  131.1060  151.0104 H   0  0  0  0  0  0  0  0  0  0  0  0  # atno 10718 bound_to 10713
  153.7187  135.3257  155.3262 H   0  0  0  0  0  0  0  0  0  0  0  0  # atno 10763 bound_to 10752
  154.8363  135.4494  154.1240 H   0  0  0  0  0  0  0  0  0  0  0  0  # atno 10764 bound_to 10752
  153.2354  135.6965  153.7922 H   0  0  0  0  0  0  0  0  0  0  0  0  # atno 10765 bound_to 10752
  140.0565  134.5662  155.9201 H   0  0  0  0  0  0  0  0  0  0  0  0  # atno 11005 bound_to 11000
  144.9406  139.4193  143.6451 LP  0  0  0  0  0  0  0  0  0  0  0  0  # atno 17320 bound_to 7965
  146.3271  139.8364  142.8898 LP  0  0  0  0  0  0  0  0  0  0  0  0  # atno 17321 bound_to 7965
  140.7704  143.3428  151.2173 LP  0  0  0  0  0  0  0  0  0  0  0  0  # atno 17342 bound_to 10162
  139.7015  143.9525  152.2907 LP  0  0  0  0  0  0  0  0  0  0  0  0  # atno 17343 bound_to 10162
  157.0956  130.5960  149.5449 LP  0  0  0  0  0  0  0  0  0  0  0  0  # atno 17370 bound_to 10713
  155.9962  130.5031  150.7488 LP  0  0  0  0  0  0  0  0  0  0  0  0  # atno 17371 bound_to 10713
  141.1954  133.6587  156.5643 LP  0  0  0  0  0  0  0  0  0  0  0  0  # atno 17394 bound_to 11000
  140.3836  134.7502  157.4676 LP  0  0  0  0  0  0  0  0  0  0  0  0  # atno 17395 bound_to 11000

$$$$
