AV-unprocessed.smi:148|AV-procd|sdf|1204|dock3
  -GOLD-   2262018373D 1   1.00000     0.00000
 Structure written by MMmdl.
 63 67  0  0  0  0  0  0  0  0  1 V2000
  147.9455  138.9041  153.4442 O   0  0  0  0  0  0  0  0  0  0  0  0
  146.9998  139.8995  153.7770 C   0  0  0  0  0  0  0  0  0  0  0  0
  147.1915  140.4005  155.2299 C   0  0  2  0  0  0  0  0  0  0  0  0
  147.1053  139.2575  156.2722 C   0  0  0  0  0  0  0  0  0  0  0  0
  148.2337  139.2367  157.1862 N   0  0  0  0  0  0  0  0  0  0  0  0
  148.2247  138.7918  158.4891 C   0  0  0  0  0  0  0  0  0  0  0  0
  149.3628  138.8922  159.1201 N   0  0  0  0  0  0  0  0  0  0  0  0
  150.2203  139.4439  158.1773 C   0  0  0  0  0  0  0  0  0  0  0  0
  151.5822  139.8437  158.1972 C   0  0  0  0  0  0  0  0  0  0  0  0
  152.3440  139.7369  159.3092 N   0  0  0  0  0  0  0  0  0  0  0  0
  153.1170  138.4926  159.3002 C   0  0  0  0  0  0  0  0  0  0  0  0
  153.7081  138.1952  160.6817 C   0  0  0  0  0  0  0  0  0  0  0  0
  154.5524  139.3810  161.1513 C   0  0  0  0  0  0  0  0  0  0  0  0
  153.7081  140.6620  161.1368 C   0  0  0  0  0  0  0  0  0  0  0  0
  153.0728  140.9470  159.7493 C   0  0  2  0  0  0  0  0  0  0  0  0
  152.1921  142.2470  159.7674 C   0  0  2  0  0  0  0  0  0  0  0  0
  152.2588  143.0758  158.4580 C   0  0  0  0  0  0  0  0  0  0  0  0
  152.3188  144.5613  158.8330 C   0  0  0  0  0  0  0  0  0  0  0  0
  151.9961  144.6133  160.3191 C   0  0  0  0  0  0  0  0  0  0  0  0
  152.5429  143.2914  160.8512 C   0  0  1  0  0  0  0  0  0  0  0  0
  151.9501  143.0076  162.1031 O   0  0  0  0  0  0  0  0  0  0  0  0
  152.1124  140.3609  157.0572 N   0  0  0  0  0  0  0  0  0  0  0  0
  151.3493  140.4913  155.9677 C   0  0  0  0  0  0  0  0  0  0  0  0
  150.0612  140.1788  155.8079 N   0  0  0  0  0  0  0  0  0  0  0  0
  149.5317  139.6541  156.9505 C   0  0  0  0  0  0  0  0  0  0  0  0
  146.2360  141.5678  155.5849 C   0  0  2  0  0  0  0  0  0  0  0  0
  146.2901  142.7519  154.6357 C   0  0  0  0  0  0  0  0  0  0  0  0
  145.6482  143.8559  155.4671 C   0  0  0  0  0  0  0  0  0  0  0  0
  146.0342  143.5900  156.8101 O   0  0  0  0  0  0  0  0  0  0  0  0
  146.5423  142.2632  156.9169 C   0  0  0  0  0  0  0  0  0  0  0  0
  148.3557  139.1396  152.6260 H   0  0  0  0  0  0  0  0  0  0  0  0
  147.0893  140.7186  153.0634 H   0  0  0  0  0  0  0  0  0  0  0  0
  145.9996  139.4911  153.6358 H   0  0  0  0  0  0  0  0  0  0  0  0
  148.2075  140.7947  155.2813 H   0  0  0  0  0  0  0  0  0  0  0  0
  146.1996  139.3513  156.8716 H   0  0  0  0  0  0  0  0  0  0  0  0
  147.0428  138.2912  155.7704 H   0  0  0  0  0  0  0  0  0  0  0  0
  147.3370  138.3979  158.9626 H   0  0  0  0  0  0  0  0  0  0  0  0
  152.4820  137.6604  158.9915 H   0  0  0  0  0  0  0  0  0  0  0  0
  153.9221  138.5683  158.5677 H   0  0  0  0  0  0  0  0  0  0  0  0
  152.9042  138.0062  161.3944 H   0  0  0  0  0  0  0  0  0  0  0  0
  154.3147  137.2901  160.6452 H   0  0  0  0  0  0  0  0  0  0  0  0
  154.9381  139.1952  162.1541 H   0  0  0  0  0  0  0  0  0  0  0  0
  155.4184  139.5021  160.4991 H   0  0  0  0  0  0  0  0  0  0  0  0
  152.9218  140.5792  161.8886 H   0  0  0  0  0  0  0  0  0  0  0  0
  154.3522  141.4842  161.4457 H   0  0  0  0  0  0  0  0  0  0  0  0
  153.8946  141.1047  159.0492 H   0  0  0  0  0  0  0  0  0  0  0  0
  151.1512  141.9615  159.9302 H   0  0  0  0  0  0  0  0  0  0  0  0
  153.1343  142.8203  157.8607 H   0  0  0  0  0  0  0  0  0  0  0  0
  151.3815  142.8866  157.8402 H   0  0  0  0  0  0  0  0  0  0  0  0
  153.3276  144.9408  158.6647 H   0  0  0  0  0  0  0  0  0  0  0  0
  151.6350  145.1693  158.2400 H   0  0  0  0  0  0  0  0  0  0  0  0
  152.4311  145.4818  160.8147 H   0  0  0  0  0  0  0  0  0  0  0  0
  150.9140  144.6572  160.4535 H   0  0  0  0  0  0  0  0  0  0  0  0
  153.6249  143.3733  160.9636 H   0  0  0  0  0  0  0  0  0  0  0  0
  152.1471  143.7169  162.6958 H   0  0  0  0  0  0  0  0  0  0  0  0
  151.8392  140.9116  155.1018 H   0  0  0  0  0  0  0  0  0  0  0  0
  145.2084  141.2018  155.6182 H   0  0  0  0  0  0  0  0  0  0  0  0
  147.3244  143.0103  154.4042 H   0  0  0  0  0  0  0  0  0  0  0  0
  145.7616  142.5778  153.6982 H   0  0  0  0  0  0  0  0  0  0  0  0
  145.9564  144.8525  155.1504 H   0  0  0  0  0  0  0  0  0  0  0  0
  144.5610  143.7987  155.3995 H   0  0  0  0  0  0  0  0  0  0  0  0
  146.0992  141.7444  157.7672 H   0  0  0  0  0  0  0  0  0  0  0  0
  147.6184  142.3258  157.0849 H   0  0  0  0  0  0  0  0  0  0  0  0
  1  2  1  0  0  0  0
  1 31  1  0  0  0  0
  2  3  1  0  0  0  0
  2 32  1  0  0  0  0
  2 33  1  0  0  0  0
  3  4  1  0  0  0  0
  3 26  1  0  0  0  0
  3 34  1  0  0  0  0
  4  5  1  0  0  0  0
  4 35  1  0  0  0  0
  4 36  1  0  0  0  0
  5 25  1  0  0  0  0
  5  6  1  0  0  0  0
  6  7  2  0  0  0  0
  6 37  1  0  0  0  0
  7  8  1  0  0  0  0
  8 25  2  0  0  0  0
  8  9  1  0  0  0  0
  9 10  1  0  0  0  0
  9 22  2  0  0  0  0
 10 15  1  0  0  0  0
 10 11  1  0  0  0  0
 11 12  1  0  0  0  0
 11 38  1  0  0  0  0
 11 39  1  0  0  0  0
 12 13  1  0  0  0  0
 12 40  1  0  0  0  0
 12 41  1  0  0  0  0
 13 14  1  0  0  0  0
 13 42  1  0  0  0  0
 13 43  1  0  0  0  0
 14 15  1  0  0  0  0
 14 44  1  0  0  0  0
 14 45  1  0  0  0  0
 15 16  1  0  0  0  0
 15 46  1  0  0  0  0
 16 20  1  0  0  0  0
 16 17  1  0  0  0  0
 16 47  1  0  0  0  0
 17 18  1  0  0  0  0
 17 48  1  0  0  0  0
 17 49  1  0  0  0  0
 18 19  1  0  0  0  0
 18 50  1  0  0  0  0
 18 51  1  0  0  0  0
 19 20  1  0  0  0  0
 19 52  1  0  0  0  0
 19 53  1  0  0  0  0
 20 21  1  0  0  0  0
 20 54  1  0  0  0  0
 21 55  1  0  0  0  0
 22 23  1  0  0  0  0
 23 24  2  0  0  0  0
 23 56  1  0  0  0  0
 24 25  1  0  0  0  0
 26 30  1  0  0  0  0
 26 27  1  0  0  0  0
 26 57  1  0  0  0  0
 27 28  1  0  0  0  0
 27 58  1  0  0  0  0
 27 59  1  0  0  0  0
 28 29  1  0  0  0  0
 28 60  1  0  0  0  0
 28 61  1  0  0  0  0
 29 30  1  0  0  0  0
 30 62  1  0  0  0  0
 30 63  1  0  0  0  0
M  END
> <s_m_source_file>
AV-unprocessed.smi

> <i_m_source_file_index>
148

> <i_lp_mmshare_version>
43012

> <i_f3d_flags>
0

> <s_epik_input>
W0NIMl0xT1tDSDJdW0NIMl1bQ0BIXTFbQ0BIXShbQ0gyXVtPSF0pW0NIMl1uKFtjSF1uMiljKGMyMyluW2NIXW5jM040W0NIMl1bQ0gyXVtDSDJdW0NIMl1bQ0BIXTRbQ0BASF01W0NIMl1bQ0gyXVtDSDJdW0NASF01W09IXQ==

> <s_epik_cmdline>
J2VwaWtfcHl0aG9uJywgJy1waCcsICc3LjAnLCAnLXRuJywgJzgnLCAnLW1hJywgJzIwMCcsICctbWV0YWxfYmluZGluZycsICctaW1hZScsICc8aW5maWxlLm1hZT4nLCAnLW9tYWUnLCAnPG91dGZpbGUubWFlPic=

> <r_lp_tautomer_probability>
1

> <r_epik_Ionization_Penalty>
0.00556303

> <r_epik_Ionization_Penalty_Charging>
0

> <r_epik_Ionization_Penalty_Neutral>
0.00556303

> <r_epik_State_Penalty>
0.00401767

> <r_epik_Charging_Adjusted_Penalty>
0.00401767

> <i_epik_Tot_Q>
0

> <i_epik_Tot_abs_Q>
0

> <r_epik_Metal_State_Penalty>
-0

> <b_epik_Metal_Only>
0

> <s_lp_Force_Field>
OPLS_2005

> <r_lp_Energy>
68.5956

> <b_lp_Chiralities_Consistent>
1

> <s_lp_Variant>
AV-unprocessed.smi:148-3

> <Gold.Version>
5.8.1

> <Gold.Id.Protein>
6NUR|6NUR_protein|mol2

> <Gold.PLP.Fitness>
55.6672

> <Gold.PLP.PLP>
-51.3936

> <Gold.PLP.part.hbond>
-5.8915

> <Gold.PLP.part.metal>
0.0000

> <Gold.PLP.part.buried>
-5.6593

> <Gold.PLP.part.nonpolar>
-39.6237

> <Gold.PLP.part.repulsive>
0.1870

> <Gold.PLP.ligand.clash>
0.0000

> <Gold.PLP.ligand.torsion>
2.4175

> <Gold.PLP.Chemscore.Hbond>
2.8320

> <Gold.PLP.Chemscore.CHOScore>
0.0000

> <Gold.PLP.Chemscore.Metal>
0.0000

> <Gold.Chemscore.Hbonds>
donor molecule, donor type, donor heavy atom, donor atom, acceptor molecule, acceptor atom, score
      L1  H     1    31       P1  7957  0.80
      P1  H  6933  6945       L1    21  0.34
      P1  H  7997  8009       L1    22  0.26

> <Gold.PLP.Chemscore.Internal.Correction>
0.6127

> <Gold.Rescore>
     Score         DG    S(hbond)    S(metal)    S(lipo)     H(rot)  DE(clash)    DE(int)     intcor
     15.57     -19.25       2.70        0.00     113.40       3.32       1.19       2.49       ----

> <Gold.Chemscore.Fitness>
15.5697

> <Gold.Chemscore.DG>
-19.2499

> <Gold.Chemscore.ZeroCoef>
-5.4800

> <Gold.Chemscore.Hbond>
2.6953

> <Gold.Chemscore.Metal>
0.0000

> <Gold.Chemscore.Lipo>
113.3973

> <Gold.Chemscore.Internal_Hbond>
0.0000

> <Gold.Chemscore.DEClash>
1.1928

> <Gold.Chemscore.DEInternal>
2.4874

> <Gold.Chemscore.Rot>
3.3203

> <Gold.Chemscore.Internal.Correction>
   9.000000E+99

> <Gold.Chemscore.Hbonds>
donor molecule, donor type, donor heavy atom, donor atom, acceptor molecule, acceptor atom, score
      L1  H     1    31       P1  7957  0.79
      P1  H  6933  6945       L1    21  0.33
      P1  H  7997  8009       L1    22  0.23

> <Gold.Chemscore.Hbond.Weighted>
-9.0024

> <Gold.Chemscore.Metal.Weighted>
-0.0000

> <Gold.Chemscore.Lipo.Weighted>
-13.2675

> <Gold.Chemscore.Internal_Hbond.Weighted>
0.0000

> <Gold.Chemscore.DEClash.Weighted>
1.1928

> <Gold.Chemscore.DEInternal.Weighted>
2.4874

> <Gold.Chemscore.Rot.Weighted>
8.5000

> <Gold.Chemscore.Internal.Correction.Weighted>
   9.000000E+99

> <Gold.Protein.RotatedTorsions>
[ 6907 6896 6895 6894 ] final  125.14 input  -60.11 | X-H torsion
[ 7974 7965 7964 7962 ] final   58.58 input  175.53 | X-H torsion
[ 8008 7997 7996 7995 ] final  176.12 input   59.86 | X-H torsion
[ 10167 10162 10161 10158 ] final -107.94 input  -65.29 | X-H torsion
[ 10718 10713 10712 10709 ] final  -53.12 input   66.30 | X-H torsion
[ 10763 10752 10751 10750 ] final  144.13 input  -60.55 | X-H torsion
[ 11005 11000 10999 10996 ] final  -62.73 input  -57.11 | X-H torsion

> <Gold.Protein.ActiveResidues>
 VAL166  LYS551  ARG553  GLY616  TRP617  ASP618  TYR619  PRO620  LYS621  CYS622 
 ASP623  PHE694  ASN695  SER759  ASP760  ASP761  ALA762  ILE779  LEU786  VAL792 
 PHE793  MET794  SER795  GLU796  ALA797  LYS798  CYS799  TRP800  GLU811  SER814 

> <Gold.Protein.RotatedAtoms>
  152.4018  133.6829  159.6322 H   0  0  0  0  0  0  0  0  0  0  0  0  # atno 6907 bound_to 6896
  150.7908  133.8778  159.3286 H   0  0  0  0  0  0  0  0  0  0  0  0  # atno 6908 bound_to 6896
  151.6542  135.0999  160.0218 H   0  0  0  0  0  0  0  0  0  0  0  0  # atno 6909 bound_to 6896
  145.9166  139.3696  143.0503 H   0  0  0  0  0  0  0  0  0  0  0  0  # atno 7974 bound_to 7965
  156.0798  140.1391  156.9726 H   0  0  0  0  0  0  0  0  0  0  0  0  # atno 8008 bound_to 7997
  154.4578  140.0954  156.6858 H   0  0  0  0  0  0  0  0  0  0  0  0  # atno 8009 bound_to 7997
  155.5094  140.3453  155.4388 H   0  0  0  0  0  0  0  0  0  0  0  0  # atno 8010 bound_to 7997
  140.1715  143.4039  152.1351 H   0  0  0  0  0  0  0  0  0  0  0  0  # atno 10167 bound_to 10162
  156.1562  130.4150  149.9865 H   0  0  0  0  0  0  0  0  0  0  0  0  # atno 10718 bound_to 10713
  153.9838  135.2938  155.3418 H   0  0  0  0  0  0  0  0  0  0  0  0  # atno 10763 bound_to 10752
  154.7253  135.5091  153.8880 H   0  0  0  0  0  0  0  0  0  0  0  0  # atno 10764 bound_to 10752
  153.0842  135.6688  154.0099 H   0  0  0  0  0  0  0  0  0  0  0  0  # atno 10765 bound_to 10752
  141.1369  133.6643  156.5572 H   0  0  0  0  0  0  0  0  0  0  0  0  # atno 11005 bound_to 11000
  145.8603  140.9479  143.0703 LP  0  0  0  0  0  0  0  0  0  0  0  0  # atno 17320 bound_to 7965
  144.6748  140.0522  143.7478 LP  0  0  0  0  0  0  0  0  0  0  0  0  # atno 17321 bound_to 7965
  139.5336  144.7186  151.4971 LP  0  0  0  0  0  0  0  0  0  0  0  0  # atno 17342 bound_to 10162
  140.6579  143.8561  150.6855 LP  0  0  0  0  0  0  0  0  0  0  0  0  # atno 17343 bound_to 10162
  156.7708  130.9185  151.3644 LP  0  0  0  0  0  0  0  0  0  0  0  0  # atno 17370 bound_to 10713
  157.6697  130.9039  150.0011 LP  0  0  0  0  0  0  0  0  0  0  0  0  # atno 17371 bound_to 10713
  140.4017  134.7351  157.4783 LP  0  0  0  0  0  0  0  0  0  0  0  0  # atno 17394 bound_to 11000
  140.0491  134.6156  155.8883 LP  0  0  0  0  0  0  0  0  0  0  0  0  # atno 17395 bound_to 11000

$$$$
