AV-unprocessed.smi:2511|AV-procd|sdf|9888|dock7
  -GOLD-   2272013523D 1   1.00000     0.00000
 Structure written by MMmdl.
 40 41  0  0  0  0  0  0  0  0  1 V2000
  145.6009  139.2388  151.0728 N   0  0  0  0  0  0  0  0  0  0  0  0
  146.9220  139.2013  151.2768 C   0  0  0  0  0  0  0  0  0  0  0  0
  147.6607  138.4478  150.6445 O   0  0  0  0  0  0  0  0  0  0  0  0
  147.4569  140.1010  152.3588 C   0  0  0  0  0  0  0  0  0  0  0  0
  146.9900  141.4310  152.4639 C   0  0  0  0  0  0  0  0  0  0  0  0
  147.4939  142.2565  153.4872 C   0  0  0  0  0  0  0  0  0  0  0  0
  148.4563  141.7290  154.3796 C   0  0  0  0  0  0  0  0  0  0  0  0
  149.0310  142.4493  155.4610 N   0  0  0  0  0  0  0  0  0  0  0  0
  149.6173  141.9753  156.5782 C   0  0  0  0  0  0  0  0  0  0  0  0
  149.7662  140.7839  156.8405 O   0  0  0  0  0  0  0  0  0  0  0  0
  150.0276  142.9299  157.4334 N   0  0  0  0  0  0  0  0  0  0  0  0
  150.6953  142.7702  158.7275 C   0  0  2  0  0  0  0  0  0  0  0  0
  151.4670  144.0585  159.0648 C   0  0  0  0  0  0  0  0  0  0  0  0
  152.2363  143.9197  160.3868 C   0  0  0  0  0  0  0  0  0  0  0  0
  153.1793  142.7069  160.3590 C   0  0  0  0  0  0  0  0  0  0  0  0
  152.4198  141.4035  160.0344 C   0  0  2  0  0  0  0  0  0  0  0  0
  153.3547  140.1763  160.0222 C   0  0  0  0  0  0  0  0  0  0  0  0
  154.4470  140.4184  159.2969 F   0  0  0  0  0  0  0  0  0  0  0  0
  153.7224  139.8706  161.2666 F   0  0  0  0  0  0  0  0  0  0  0  0
  152.7195  139.1236  159.5067 F   0  0  0  0  0  0  0  0  0  0  0  0
  151.6491  141.5560  158.7056 C   0  0  0  0  0  0  0  0  0  0  0  0
  148.8434  140.3851  154.2049 C   0  0  0  0  0  0  0  0  0  0  0  0
  148.3656  139.5899  153.2249 N   0  0  0  0  0  0  0  0  0  0  0  0
  145.1842  138.6595  150.3589 H   0  0  0  0  0  0  0  0  0  0  0  0
  145.0288  139.8515  151.6361 H   0  0  0  0  0  0  0  0  0  0  0  0
  146.2553  141.8209  151.7742 H   0  0  0  0  0  0  0  0  0  0  0  0
  147.1224  143.2656  153.5716 H   0  0  0  0  0  0  0  0  0  0  0  0
  148.9223  143.4519  155.4160 H   0  0  0  0  0  0  0  0  0  0  0  0
  149.8507  143.8835  157.1516 H   0  0  0  0  0  0  0  0  0  0  0  0
  149.9457  142.6225  159.5071 H   0  0  0  0  0  0  0  0  0  0  0  0
  152.1684  144.2926  158.2623 H   0  0  0  0  0  0  0  0  0  0  0  0
  150.7779  144.9018  159.1289 H   0  0  0  0  0  0  0  0  0  0  0  0
  152.8069  144.8284  160.5809 H   0  0  0  0  0  0  0  0  0  0  0  0
  151.5306  143.8157  161.2118 H   0  0  0  0  0  0  0  0  0  0  0  0
  153.9622  142.8738  159.6183 H   0  0  0  0  0  0  0  0  0  0  0  0
  153.6820  142.6189  161.3225 H   0  0  0  0  0  0  0  0  0  0  0  0
  151.6850  141.2432  160.8253 H   0  0  0  0  0  0  0  0  0  0  0  0
  151.0846  140.6452  158.5053 H   0  0  0  0  0  0  0  0  0  0  0  0
  152.3572  141.6623  157.8824 H   0  0  0  0  0  0  0  0  0  0  0  0
  149.5644  139.9322  154.8700 H   0  0  0  0  0  0  0  0  0  0  0  0
  1  2  1  0  0  0  0
  1 24  1  0  0  0  0
  1 25  1  0  0  0  0
  2  3  2  0  0  0  0
  2  4  1  0  0  0  0
  4 23  1  0  0  0  0
  4  5  2  0  0  0  0
  5  6  1  0  0  0  0
  5 26  1  0  0  0  0
  6  7  2  0  0  0  0
  6 27  1  0  0  0  0
  7  8  1  0  0  0  0
  7 22  1  0  0  0  0
  8  9  1  0  0  0  0
  8 28  1  0  0  0  0
  9 10  2  0  0  0  0
  9 11  1  0  0  0  0
 11 12  1  0  0  0  0
 11 29  1  0  0  0  0
 12 21  1  0  0  0  0
 12 13  1  0  0  0  0
 12 30  1  0  0  0  0
 13 14  1  0  0  0  0
 13 31  1  0  0  0  0
 13 32  1  0  0  0  0
 14 15  1  0  0  0  0
 14 33  1  0  0  0  0
 14 34  1  0  0  0  0
 15 16  1  0  0  0  0
 15 35  1  0  0  0  0
 15 36  1  0  0  0  0
 16 17  1  0  0  0  0
 16 21  1  0  0  0  0
 16 37  1  0  0  0  0
 17 18  1  0  0  0  0
 17 19  1  0  0  0  0
 17 20  1  0  0  0  0
 21 38  1  0  0  0  0
 21 39  1  0  0  0  0
 22 23  2  0  0  0  0
 22 40  1  0  0  0  0
M  END
> <s_m_source_file>
AV-unprocessed.smi

> <i_m_source_file_index>
2511

> <i_lp_mmshare_version>
43012

> <i_f3d_flags>
0

> <s_epik_input>
W05IMl1DKD1PKWMxW2NIXVtjSF1jKFtjSF1uMSlbTkhdQyg9TylbTkhdW0NAQEhdMltDSDJdW0NIMl1bQ0gyXVtDQEBIXShDKEYpKEYpRilbQ0gyXTI=

> <s_epik_cmdline>
J2VwaWtfcHl0aG9uJywgJy1waCcsICc3LjAnLCAnLXRuJywgJzgnLCAnLW1hJywgJzIwMCcsICctbWV0YWxfYmluZGluZycsICctaW1hZScsICc8aW5maWxlLm1hZT4nLCAnLW9tYWUnLCAnPG91dGZpbGUubWFlPic=

> <r_lp_tautomer_probability>
1

> <r_epik_Ionization_Penalty>
4.28758e-05

> <r_epik_Ionization_Penalty_Charging>
0

> <r_epik_Ionization_Penalty_Neutral>
4.28758e-05

> <r_epik_State_Penalty>
-0

> <r_epik_Charging_Adjusted_Penalty>
0

> <i_epik_Tot_Q>
0

> <i_epik_Tot_abs_Q>
0

> <r_epik_Metal_State_Penalty>
-0

> <b_epik_Metal_Only>
0

> <s_lp_Force_Field>
OPLS_2005

> <r_lp_Energy>
28.5247

> <b_lp_Chiralities_Consistent>
1

> <s_lp_Variant>
AV-unprocessed.smi:2511-3

> <Gold.Version>
5.8.1

> <Gold.Id.Protein>
6NUR|6NUR_protein|mol2

> <Gold.PLP.Fitness>
47.5778

> <Gold.PLP.PLP>
-37.7829

> <Gold.PLP.part.hbond>
-4.5586

> <Gold.PLP.part.metal>
0.0000

> <Gold.PLP.part.buried>
-2.5927

> <Gold.PLP.part.nonpolar>
-37.4383

> <Gold.PLP.part.repulsive>
6.2689

> <Gold.PLP.ligand.clash>
0.0000

> <Gold.PLP.ligand.torsion>
1.4235

> <Gold.PLP.Chemscore.Hbond>
4.2068

> <Gold.PLP.Chemscore.CHOScore>
0.0000

> <Gold.PLP.Chemscore.Metal>
0.0000

> <Gold.Chemscore.Hbonds>
donor molecule, donor type, donor heavy atom, donor atom, acceptor molecule, acceptor atom, score
      L1  H     1    24       P1 10171  0.45
      L1  H     1    25       P1 10175  1.00
      L1  H     8    28       P1  8028  0.37
      L1  H    11    29       P1  8028  0.72

> <Gold.PLP.Chemscore.Internal.Correction>
0.0216

> <Gold.Rescore>
     Score         DG    S(hbond)    S(metal)    S(lipo)     H(rot)  DE(clash)    DE(int)     intcor
     22.31     -28.84       4.07        0.00     105.34       1.00       2.62       3.92       ----

> <Gold.Chemscore.Fitness>
22.3084

> <Gold.Chemscore.DG>
-28.8421

> <Gold.Chemscore.ZeroCoef>
-5.4800

> <Gold.Chemscore.Hbond>
4.0710

> <Gold.Chemscore.Metal>
0.0000

> <Gold.Chemscore.Lipo>
105.3426

> <Gold.Chemscore.Internal_Hbond>
0.0000

> <Gold.Chemscore.DEClash>
2.6185

> <Gold.Chemscore.DEInternal>
3.9152

> <Gold.Chemscore.Rot>
1.0000

> <Gold.Chemscore.Internal.Correction>
   9.000000E+99

> <Gold.Chemscore.Hbonds>
donor molecule, donor type, donor heavy atom, donor atom, acceptor molecule, acceptor atom, score
      L1  H     1    24       P1 10171  0.45
      L1  H     1    25       P1 10175  0.35
      L1  H     8    28       P1  8028  0.37
      L1  H    11    29       P1  8028  0.61
      P1  H  7954  7966       L1     3  0.01

> <Gold.Chemscore.Hbond.Weighted>
-13.5970

> <Gold.Chemscore.Metal.Weighted>
-0.0000

> <Gold.Chemscore.Lipo.Weighted>
-12.3251

> <Gold.Chemscore.Internal_Hbond.Weighted>
0.0000

> <Gold.Chemscore.DEClash.Weighted>
2.6185

> <Gold.Chemscore.DEInternal.Weighted>
3.9152

> <Gold.Chemscore.Rot.Weighted>
2.5600

> <Gold.Chemscore.Internal.Correction.Weighted>
   9.000000E+99

> <Gold.Protein.RotatedTorsions>
[ 6907 6896 6895 6894 ] final   13.85 input  -60.11 | X-H torsion
[ 7974 7965 7964 7962 ] final   30.47 input  175.53 | X-H torsion
[ 8008 7997 7996 7995 ] final  -68.72 input   59.86 | X-H torsion
[ 10167 10162 10161 10158 ] final  148.87 input  -65.29 | X-H torsion
[ 10718 10713 10712 10709 ] final  138.11 input   66.30 | X-H torsion
[ 10763 10752 10751 10750 ] final   62.28 input  -60.55 | X-H torsion
[ 11005 11000 10999 10996 ] final  -46.56 input  -57.11 | X-H torsion

> <Gold.Protein.ActiveResidues>
 VAL166  LYS551  ARG553  GLY616  TRP617  ASP618  TYR619  PRO620  LYS621  CYS622 
 ASP623  PHE694  ASN695  SER759  ASP760  ASP761  ALA762  ILE779  LEU786  VAL792 
 PHE793  MET794  SER795  GLU796  ALA797  LYS798  CYS799  TRP800  GLU811  SER814 

> <Gold.Protein.RotatedAtoms>
  151.7929  135.0730  160.0389 H   0  0  0  0  0  0  0  0  0  0  0  0  # atno 6907 bound_to 6896
  152.3144  133.5782  159.5710 H   0  0  0  0  0  0  0  0  0  0  0  0  # atno 6908 bound_to 6896
  150.7336  134.0021  159.3683 H   0  0  0  0  0  0  0  0  0  0  0  0  # atno 6909 bound_to 6896
  146.1609  139.6784  142.9034 H   0  0  0  0  0  0  0  0  0  0  0  0  # atno 7974 bound_to 7965
  154.4888  140.0867  156.7547 H   0  0  0  0  0  0  0  0  0  0  0  0  # atno 8008 bound_to 7997
  155.4283  140.3448  155.4259 H   0  0  0  0  0  0  0  0  0  0  0  0  # atno 8009 bound_to 7997
  156.1300  140.1498  156.9068 H   0  0  0  0  0  0  0  0  0  0  0  0  # atno 8010 bound_to 7997
  139.4869  144.5646  151.7168 H   0  0  0  0  0  0  0  0  0  0  0  0  # atno 10167 bound_to 10162
  157.4288  131.1046  151.0273 H   0  0  0  0  0  0  0  0  0  0  0  0  # atno 10718 bound_to 10713
  152.9977  135.5471  154.6168 H   0  0  0  0  0  0  0  0  0  0  0  0  # atno 10763 bound_to 10752
  154.5476  135.2824  155.1040 H   0  0  0  0  0  0  0  0  0  0  0  0  # atno 10764 bound_to 10752
  154.2293  135.6436  153.5222 H   0  0  0  0  0  0  0  0  0  0  0  0  # atno 10765 bound_to 10752
  141.0586  133.6717  156.3172 H   0  0  0  0  0  0  0  0  0  0  0  0  # atno 11005 bound_to 11000
  145.4590  141.0432  143.2762 LP  0  0  0  0  0  0  0  0  0  0  0  0  # atno 17320 bound_to 7965
  144.8026  139.6111  143.7065 LP  0  0  0  0  0  0  0  0  0  0  0  0  # atno 17321 bound_to 7965
  140.5222  144.0861  150.6026 LP  0  0  0  0  0  0  0  0  0  0  0  0  # atno 17342 bound_to 10162
  140.3823  143.2796  152.0156 LP  0  0  0  0  0  0  0  0  0  0  0  0  # atno 17343 bound_to 10162
  157.1177  130.6048  149.5497 LP  0  0  0  0  0  0  0  0  0  0  0  0  # atno 17370 bound_to 10713
  155.9906  130.4957  150.7263 LP  0  0  0  0  0  0  0  0  0  0  0  0  # atno 17371 bound_to 10713
  140.5914  134.5647  157.5500 LP  0  0  0  0  0  0  0  0  0  0  0  0  # atno 17394 bound_to 11000
  139.9412  134.7783  156.0673 LP  0  0  0  0  0  0  0  0  0  0  0  0  # atno 17395 bound_to 11000

$$$$
