#       Name:                AV-unprocessed.smi:507
#       Creating user name   scv26
#       Creation time:       Thu Mar 26 23:22:16 2020


#       File generated by GOLD software.
#

@<TRIPOS>MOLECULE
AV-unprocessed.smi:507
    37    38     1
SMALL
NO_CHARGES


@<TRIPOS>ATOM
      1 ****        -0.9449   4.1188   1.9591 C.3            1 S1                 0.0000
      2 ****        -0.9060   2.8023   1.2031 C.ar           1 S1                 0.0000
      3 ****        -1.5915   2.6955  -0.0281 C.ar           1 S1                 0.0000
      4 ****        -1.5811   1.4883  -0.7606 C.ar           1 S1                 0.0000
      5 ****        -2.1745   1.1651  -1.9688 N.2            1 S1                 0.0000
      6 ****        -1.8024  -0.1030  -2.1189 C.2            1 S1                 0.0000
      7 ****        -1.0372  -0.6404  -1.1495 N.pl3          1 S1                 0.0000
      8 ****        -0.5207  -1.9966  -1.0893 C.3            1 S1                 0.0000
      9 ****         0.9860  -2.0739  -1.4053 C.3            1 S1                 0.0000
     10 ****         1.2025  -1.5859  -2.7151 O.3            1 S1                 0.0000
     11 ****         1.5109  -3.5186  -1.3284 C.3            1 S1                 0.0000
     12 ****         2.9409  -3.5852  -0.9938 N.3            1 S1                 0.0000
     13 ****        -0.8621   0.3811  -0.2225 C.ar           1 S1                 0.0000
     14 ****        -0.1756   0.4749   1.0008 C.ar           1 S1                 0.0000
     15 ****        -0.1943   1.6892   1.7187 C.ar           1 S1                 0.0000
     16 ****         0.5531   1.7818   3.0372 C.3            1 S1                 0.0000
     17 ****        -1.5262   4.8695   1.4229 H              1 S1                 0.0000
     18 ****         0.0627   4.5120   2.0953 H              1 S1                 0.0000
     19 ****        -1.3999   3.9826   2.9405 H              1 S1                 0.0000
     20 ****        -2.1334   3.5429  -0.4218 H              1 S1                 0.0000
     21 ****        -2.1031  -0.6753  -2.9844 H              1 S1                 0.0000
     22 ****        -0.7152  -2.3847  -0.0889 H              1 S1                 0.0000
     23 ****        -1.0894  -2.6200  -1.7813 H              1 S1                 0.0000
     24 ****         1.5273  -1.4412  -0.7003 H              1 S1                 0.0000
     25 ****         0.7564  -2.1526  -3.3255 H              1 S1                 0.0000
     26 ****         0.9596  -4.0504  -0.5522 H              1 S1                 0.0000
     27 ****         1.3065  -4.0540  -2.2564 H              1 S1                 0.0000
     28 ****         3.1247  -3.1061  -0.1134 H              1 S1                 0.0000
     29 ****         3.2357  -4.5534  -0.8752 H              1 S1                 0.0000
     30 ****         0.3624  -0.3808   1.3810 H              1 S1                 0.0000
     31 ****         1.0458   0.8404   3.2818 H              1 S1                 0.0000
     32 ****        -0.1333   2.0218   3.8495 H              1 S1                 0.0000
     33 ****         1.3179   2.5571   2.9885 H              1 S1                 0.0000
     34 ****        -2.7350   1.7346  -2.5700 LP             1 S1                 0.0000
     35 ****         2.1823  -1.5804  -2.9148 LP             1 S1                 0.0000
     36 ****         0.8412  -0.6567  -2.7923 LP             1 S1                 0.0000
     37 ****         3.4417  -3.1524  -1.7433 LP             1 S1                 0.0000
@<TRIPOS>BOND
    1    1    2 1     
    2    1   17 1     
    3    1   18 1     
    4    1   19 1     
    5    2   15 ar    
    6    2    3 ar    
    7    3    4 ar    
    8    3   20 1     
    9    4   13 ar    
   10    4    5 1     
   11    5    6 2     
   12    6    7 1     
   13    6   21 1     
   14    7    8 1     
   15    7   13 1     
   16    8    9 1     
   17    8   22 1     
   18    8   23 1     
   19    9   10 1     
   20    9   11 1     
   21    9   24 1     
   22   10   25 1     
   23   11   12 1     
   24   11   26 1     
   25   11   27 1     
   26   12   28 1     
   27   12   29 1     
   28   13   14 ar    
   29   14   15 ar    
   30   14   30 1     
   31   15   16 1     
   32   16   31 1     
   33   16   32 1     
   34   16   33 1     
   35    5   34 1     
   36   10   35 1     
   37   10   36 1     
   38   12   37 1     
@<TRIPOS>SUBSTRUCTURE
      1 S1             1
@<TRIPOS>SET
LONE_PAIRS      STATIC     ATOMS    <user>   **** ""
4 34 35 36 37
DONOR_HYDROGENS      STATIC     ATOMS    <user>   **** ""
3 25 28 29
ATOM$BLUE        STATIC     ATOMS    COLORGROUP SYSTEM
4 34 35 36 37
ATOM$RED        STATIC     ATOMS    COLORGROUP SYSTEM
3 25 28 29
