AV-unprocessed.smi:1804|AV-procd|sdf|7296|dock4
  -GOLD-   22720 8553D 1   1.00000     0.00000
 Structure written by MMmdl.
 43 44  0  0  0  0  0  0  0  0  3 V2000
  151.0071  138.5061  154.9212 C   0  0  0  0  0  0  0  0  0  0  0  0
  151.6344  138.9428  156.1970 N   0  3  0  0  0  0  0  0  0  0  0  0
  152.8429  138.1197  156.4678 C   0  0  0  0  0  0  0  0  0  0  0  0
  150.6869  139.1224  157.3565 C   0  0  0  0  0  0  0  0  0  0  0  0
  150.1187  137.7296  157.7868 C   0  0  0  0  0  0  0  0  0  0  0  0
  149.1660  137.7977  158.8954 N   0  0  0  0  0  0  0  0  0  0  0  0
  148.6598  136.7617  159.5796 C   0  0  0  0  0  0  0  0  0  0  0  0
  148.9963  135.6096  159.2969 O   0  0  0  0  0  0  0  0  0  0  0  0
  147.7896  137.1269  160.5471 N   0  5  0  0  0  0  0  0  0  0  0  0
  147.1176  136.1878  161.2330 C   0  0  0  0  0  0  0  0  0  0  0  0
  147.5721  134.9313  161.3655 N   0  0  0  0  0  0  0  0  0  0  0  0
  146.7257  134.1208  162.1101 N   0  0  0  0  0  0  0  0  0  0  0  0
  145.6451  134.7880  162.5145 C   0  0  0  0  0  0  0  0  0  0  0  0
  145.5616  136.4654  162.0200 S   0  0  0  0  0  0  0  0  0  0  0  0
  151.3992  139.7422  158.6043 C   0  0  0  0  0  0  0  0  0  0  0  0
  152.1881  141.0521  158.4176 C   0  0  0  0  0  0  0  0  0  0  0  0
  151.3626  142.2487  157.9280 C   0  0  0  0  0  0  0  0  0  0  0  0
  151.0176  142.1445  156.4391 C   0  0  0  0  0  0  0  0  0  0  0  0
  149.7622  141.3193  156.1204 C   0  0  0  0  0  0  0  0  0  0  0  0
  149.4930  140.0513  156.9646 C   0  0  0  0  0  0  0  0  0  0  0  0
  150.7452  137.4481  154.9455 H   0  0  0  0  0  0  0  0  0  0  0  0
  151.7084  138.6455  154.0980 H   0  0  0  0  0  0  0  0  0  0  0  0
  150.1099  139.0663  154.6670 H   0  0  0  0  0  0  0  0  0  0  0  0
  152.5858  137.0777  156.6569 H   0  0  0  0  0  0  0  0  0  0  0  0
  153.4304  138.4832  157.3080 H   0  0  0  0  0  0  0  0  0  0  0  0
  153.5054  138.1375  155.6018 H   0  0  0  0  0  0  0  0  0  0  0  0
  149.6608  137.2116  156.9445 H   0  0  0  0  0  0  0  0  0  0  0  0
  150.9238  137.0776  158.1237 H   0  0  0  0  0  0  0  0  0  0  0  0
  148.8557  138.7185  159.1695 H   0  0  0  0  0  0  0  0  0  0  0  0
  144.8910  134.2889  163.1046 H   0  0  0  0  0  0  0  0  0  0  0  0
  150.6634  139.9236  159.3888 H   0  0  0  0  0  0  0  0  0  0  0  0
  152.0735  139.0058  159.0425 H   0  0  0  0  0  0  0  0  0  0  0  0
  152.6185  141.3157  159.3843 H   0  0  0  0  0  0  0  0  0  0  0  0
  153.0420  140.9017  157.7578 H   0  0  0  0  0  0  0  0  0  0  0  0
  150.4659  142.3876  158.5331 H   0  0  0  0  0  0  0  0  0  0  0  0
  151.9632  143.1476  158.0725 H   0  0  0  0  0  0  0  0  0  0  0  0
  150.8673  143.1485  156.0405 H   0  0  0  0  0  0  0  0  0  0  0  0
  151.8729  141.7475  155.8914 H   0  0  0  0  0  0  0  0  0  0  0  0
  148.8907  141.9670  156.2238 H   0  0  0  0  0  0  0  0  0  0  0  0
  149.7899  141.0605  155.0625 H   0  0  0  0  0  0  0  0  0  0  0  0
  148.7420  139.4706  156.4282 H   0  0  0  0  0  0  0  0  0  0  0  0
  148.9795  140.3642  157.8749 H   0  0  0  0  0  0  0  0  0  0  0  0
  151.9822  139.8736  156.0159 H   0  0  0  0  0  0  0  0  0  0  0  0
  1  2  1  0  0  0  0
  1 21  1  0  0  0  0
  1 22  1  0  0  0  0
  1 23  1  0  0  0  0
  2  3  1  0  0  0  0
  2  4  1  0  0  0  0
  2 43  1  0  0  0  0
  3 24  1  0  0  0  0
  3 25  1  0  0  0  0
  3 26  1  0  0  0  0
  4 20  1  0  0  0  0
  4  5  1  0  0  0  0
  4 15  1  0  0  0  0
  5  6  1  0  0  0  0
  5 27  1  0  0  0  0
  5 28  1  0  0  0  0
  6  7  1  0  0  0  0
  6 29  1  0  0  0  0
  7  8  2  0  0  0  0
  7  9  1  0  0  0  0
  9 10  1  0  0  0  0
 10 14  1  0  0  0  0
 10 11  2  0  0  0  0
 11 12  1  0  0  0  0
 12 13  2  0  0  0  0
 13 14  1  0  0  0  0
 13 30  1  0  0  0  0
 15 16  1  0  0  0  0
 15 31  1  0  0  0  0
 15 32  1  0  0  0  0
 16 17  1  0  0  0  0
 16 33  1  0  0  0  0
 16 34  1  0  0  0  0
 17 18  1  0  0  0  0
 17 35  1  0  0  0  0
 17 36  1  0  0  0  0
 18 19  1  0  0  0  0
 18 37  1  0  0  0  0
 18 38  1  0  0  0  0
 19 20  1  0  0  0  0
 19 39  1  0  0  0  0
 19 40  1  0  0  0  0
 20 41  1  0  0  0  0
 20 42  1  0  0  0  0
M  CHG  1   2   1
M  CHG  1   9  -1
M  END
> <s_m_source_file>
AV-unprocessed.smi

> <i_m_source_file_index>
1804

> <i_lp_mmshare_version>
43012

> <i_f3d_flags>
0

> <s_epik_input>
W0NIMl0xW0NIMl1bQ0gyXVtDSDJdW0NIMl1bQ0gyXUMxKE4oW0NIM10pW0NIM10pW0NIMl1bTkhdQyg9TylbTkhdYzJubltjSF1zMg==

> <s_epik_cmdline>
J2VwaWtfcHl0aG9uJywgJy1waCcsICc3LjAnLCAnLXRuJywgJzgnLCAnLW1hJywgJzIwMCcsICctbWV0YWxfYmluZGluZycsICctaW1hZScsICc8aW5maWxlLm1hZT4nLCAnLW9tYWUnLCAnPG91dGZpbGUubWFlPic=

> <r_lp_tautomer_probability>
1

> <r_epik_Ionization_Penalty>
3.99544

> <r_epik_Ionization_Penalty_Charging>
3.96227

> <r_epik_Ionization_Penalty_Neutral>
0.0331711

> <r_epik_State_Penalty>
3.95985

> <r_epik_Charging_Adjusted_Penalty>
7.92213

> <i_epik_Tot_Q>
0

> <i_epik_Tot_abs_Q>
2

> <r_epik_Metal_State_Penalty>
0.609364

> <b_epik_Metal_Only>
1

> <s_lp_Force_Field>
OPLS_2005

> <r_lp_Energy>
27.9036

> <b_lp_Chiralities_Consistent>
1

> <s_lp_Variant>
AV-unprocessed.smi:1804-2

> <Gold.Version>
5.8.1

> <Gold.Id.Protein>
6NUR|6NUR_protein|mol2

> <Gold.PLP.Fitness>
42.5369

> <Gold.PLP.PLP>
-29.8910

> <Gold.PLP.part.hbond>
-3.0000

> <Gold.PLP.part.metal>
0.0000

> <Gold.PLP.part.buried>
-7.1317

> <Gold.PLP.part.nonpolar>
-21.0215

> <Gold.PLP.part.repulsive>
0.3185

> <Gold.PLP.ligand.clash>
0.0000

> <Gold.PLP.ligand.torsion>
0.2298

> <Gold.PLP.Chemscore.Hbond>
4.3280

> <Gold.PLP.Chemscore.CHOScore>
0.0000

> <Gold.PLP.Chemscore.Metal>
0.0000

> <Gold.Chemscore.Hbonds>
donor molecule, donor type, donor heavy atom, donor atom, acceptor molecule, acceptor atom, score
      P1  H  6896  6909       L1     8  1.00
      P1  H  6931  6943       L1     9  1.12
      P1  H  6934  6947       L1     9  1.76

> <Gold.PLP.Chemscore.Internal.Correction>
0.1215

> <Gold.Rescore>
     Score         DG    S(hbond)    S(metal)    S(lipo)     H(rot)  DE(clash)    DE(int)     intcor
     14.88     -16.80       2.10        0.00      72.21       1.62       0.05       1.87       ----

> <Gold.Chemscore.Fitness>
14.8832

> <Gold.Chemscore.DG>
-16.7994

> <Gold.Chemscore.ZeroCoef>
-5.4800

> <Gold.Chemscore.Hbond>
2.1043

> <Gold.Chemscore.Metal>
0.0000

> <Gold.Chemscore.Lipo>
72.2134

> <Gold.Chemscore.Internal_Hbond>
0.0000

> <Gold.Chemscore.DEClash>
0.0462

> <Gold.Chemscore.DEInternal>
1.8699

> <Gold.Chemscore.Rot>
1.6242

> <Gold.Chemscore.Internal.Correction>
   9.000000E+99

> <Gold.Chemscore.Hbonds>
donor molecule, donor type, donor heavy atom, donor atom, acceptor molecule, acceptor atom, score
      P1  H  6896  6909       L1     8  0.98
      P1  H  6931  6943       L1     9  0.14
      P1  H  6934  6947       L1     9  0.74

> <Gold.Chemscore.Hbond.Weighted>
-7.0283

> <Gold.Chemscore.Metal.Weighted>
-0.0000

> <Gold.Chemscore.Lipo.Weighted>
-8.4490

> <Gold.Chemscore.Internal_Hbond.Weighted>
0.0000

> <Gold.Chemscore.DEClash.Weighted>
0.0462

> <Gold.Chemscore.DEInternal.Weighted>
1.8699

> <Gold.Chemscore.Rot.Weighted>
4.1579

> <Gold.Chemscore.Internal.Correction.Weighted>
   9.000000E+99

> <Gold.Protein.RotatedTorsions>
[ 6907 6896 6895 6894 ] final   52.25 input  -60.11 | X-H torsion
[ 7974 7965 7964 7962 ] final  151.68 input  175.53 | X-H torsion
[ 8008 7997 7996 7995 ] final  132.43 input   59.86 | X-H torsion
[ 10167 10162 10161 10158 ] final -174.29 input  -65.29 | X-H torsion
[ 10718 10713 10712 10709 ] final -176.49 input   66.30 | X-H torsion
[ 10763 10752 10751 10750 ] final    4.54 input  -60.55 | X-H torsion
[ 11005 11000 10999 10996 ] final   49.55 input  -57.11 | X-H torsion

> <Gold.Protein.ActiveResidues>
 VAL166  LYS551  ARG553  GLY616  TRP617  ASP618  TYR619  PRO620  LYS621  CYS622 
 ASP623  PHE694  ASN695  SER759  ASP760  ASP761  ALA762  ILE779  LEU786  VAL792 
 PHE793  MET794  SER795  GLU796  ALA797  LYS798  CYS799  TRP800  GLU811  SER814 

> <Gold.Protein.RotatedAtoms>
  152.3213  134.7376  160.0312 H   0  0  0  0  0  0  0  0  0  0  0  0  # atno 6907 bound_to 6896
  151.7824  133.3345  159.3483 H   0  0  0  0  0  0  0  0  0  0  0  0  # atno 6908 bound_to 6896
  150.7371  134.5850  159.6002 H   0  0  0  0  0  0  0  0  0  0  0  0  # atno 6909 bound_to 6896
  144.8275  139.6569  143.6073 H   0  0  0  0  0  0  0  0  0  0  0  0  # atno 7974 bound_to 7965
  156.2982  140.2546  156.3087 H   0  0  0  0  0  0  0  0  0  0  0  0  # atno 8008 bound_to 7997
  154.9347  140.0397  157.2085 H   0  0  0  0  0  0  0  0  0  0  0  0  # atno 8009 bound_to 7997
  154.8184  140.2856  155.5808 H   0  0  0  0  0  0  0  0  0  0  0  0  # atno 8010 bound_to 7997
  139.5642  144.1796  152.1286 H   0  0  0  0  0  0  0  0  0  0  0  0  # atno 10167 bound_to 10162
  156.8154  130.9601  151.3114 H   0  0  0  0  0  0  0  0  0  0  0  0  # atno 10718 bound_to 10713
  153.2700  135.6931  153.7490 H   0  0  0  0  0  0  0  0  0  0  0  0  # atno 10763 bound_to 10752
  153.6517  135.3375  155.3102 H   0  0  0  0  0  0  0  0  0  0  0  0  # atno 10764 bound_to 10752
  154.8460  135.4456  154.1719 H   0  0  0  0  0  0  0  0  0  0  0  0  # atno 10765 bound_to 10752
  140.1093  134.4976  155.8692 H   0  0  0  0  0  0  0  0  0  0  0  0  # atno 11005 bound_to 11000
  146.2580  139.6345  142.9382 LP  0  0  0  0  0  0  0  0  0  0  0  0  # atno 17320 bound_to 7965
  145.4967  141.0438  143.2563 LP  0  0  0  0  0  0  0  0  0  0  0  0  # atno 17321 bound_to 7965
  140.1316  144.5283  150.6799 LP  0  0  0  0  0  0  0  0  0  0  0  0  # atno 17342 bound_to 10162
  140.6924  143.2384  151.5094 LP  0  0  0  0  0  0  0  0  0  0  0  0  # atno 17343 bound_to 10162
  157.6484  130.8864  149.9585 LP  0  0  0  0  0  0  0  0  0  0  0  0  # atno 17370 bound_to 10713
  156.1020  130.3655  150.0201 LP  0  0  0  0  0  0  0  0  0  0  0  0  # atno 17371 bound_to 10713
  141.2126  133.6722  156.6674 LP  0  0  0  0  0  0  0  0  0  0  0  0  # atno 17394 bound_to 11000
  140.3112  134.8084  157.4178 LP  0  0  0  0  0  0  0  0  0  0  0  0  # atno 17395 bound_to 11000

$$$$
