AV-unprocessed.smi:483|AV-procd|sdf|2686|dock4
  -GOLD-   2262023113D 1   1.00000     0.00000
 Structure written by MMmdl.
 44 44  0  0  0  0  0  0  0  0  1 V2000
  143.3650  145.3550  155.1267 C   0  0  0  0  0  0  0  0  0  0  0  0
  144.0142  143.9689  155.2577 C   0  0  0  0  0  0  0  0  0  0  0  0
  145.3930  143.8485  154.5825 C   0  0  0  0  0  0  0  0  0  0  0  0
  145.9617  142.5139  154.7444 N   0  0  0  0  0  0  0  0  0  0  0  0
  147.2032  142.1497  154.3884 C   0  0  0  0  0  0  0  0  0  0  0  0
  147.9921  142.9029  153.8152 O   0  0  0  0  0  0  0  0  0  0  0  0
  147.6280  140.7222  154.7690 C   0  0  1  0  0  0  0  0  0  0  0  0
  147.4601  139.8039  153.5465 C   0  0  0  0  0  0  0  0  0  0  0  0
  149.0403  140.7355  155.1438 N   0  0  0  0  0  0  0  0  0  0  0  0
  149.5203  141.2215  156.2998 C   0  0  0  0  0  0  0  0  0  0  0  0
  148.7986  141.6044  157.2218 O   0  0  0  0  0  0  0  0  0  0  0  0
  151.0472  141.2951  156.4301 C   0  0  0  0  0  0  0  0  0  0  0  0
  151.4639  141.7546  157.7633 N   0  0  0  0  0  0  0  0  0  0  0  0
  150.9408  142.9794  158.1292 N   0  0  0  0  0  0  0  0  0  0  0  0
  151.2620  143.5409  159.2482 C   0  0  0  0  0  0  0  0  0  0  0  0
  150.6372  144.8794  159.5366 C   0  0  0  0  0  0  0  0  0  0  0  0
  152.1906  142.8713  160.1536 C   0  0  0  0  0  0  0  0  0  0  0  0
  152.5394  143.5845  161.4526 C   0  0  0  0  0  0  0  0  0  0  0  0
  152.6864  141.6623  159.7896 C   0  0  0  0  0  0  0  0  0  0  0  0
  153.6075  140.9371  160.6038 C   0  0  0  0  0  0  0  0  0  0  0  0
  154.3398  140.3347  161.2678 N   0  0  0  0  0  0  0  0  0  0  0  0
  152.3189  141.0155  158.5285 C   0  0  0  0  0  0  0  0  0  0  0  0
  152.7413  139.9135  158.1743 O   0  0  0  0  0  0  0  0  0  0  0  0
  142.3629  145.3571  155.5560 H   0  0  0  0  0  0  0  0  0  0  0  0
  143.2801  145.6550  154.0821 H   0  0  0  0  0  0  0  0  0  0  0  0
  143.9434  146.1169  155.6484 H   0  0  0  0  0  0  0  0  0  0  0  0
  144.1012  143.7121  156.3141 H   0  0  0  0  0  0  0  0  0  0  0  0
  143.3458  143.2261  154.8210 H   0  0  0  0  0  0  0  0  0  0  0  0
  145.2897  144.0386  153.5142 H   0  0  0  0  0  0  0  0  0  0  0  0
  146.0674  144.6177  154.9622 H   0  0  0  0  0  0  0  0  0  0  0  0
  145.3869  141.8296  155.2145 H   0  0  0  0  0  0  0  0  0  0  0  0
  147.0194  140.3453  155.5938 H   0  0  0  0  0  0  0  0  0  0  0  0
  146.4219  139.7770  153.2130 H   0  0  0  0  0  0  0  0  0  0  0  0
  147.7494  138.7806  153.7877 H   0  0  0  0  0  0  0  0  0  0  0  0
  148.0728  140.1270  152.7033 H   0  0  0  0  0  0  0  0  0  0  0  0
  149.7011  140.4385  154.4407 H   0  0  0  0  0  0  0  0  0  0  0  0
  151.4541  140.3044  156.2201 H   0  0  0  0  0  0  0  0  0  0  0  0
  151.4611  141.9540  155.6640 H   0  0  0  0  0  0  0  0  0  0  0  0
  150.0040  144.8274  160.4223 H   0  0  0  0  0  0  0  0  0  0  0  0
  150.0175  145.2263  158.7082 H   0  0  0  0  0  0  0  0  0  0  0  0
  151.4033  145.6351  159.7111 H   0  0  0  0  0  0  0  0  0  0  0  0
  153.1846  142.9837  162.0927 H   0  0  0  0  0  0  0  0  0  0  0  0
  151.6375  143.8116  162.0218 H   0  0  0  0  0  0  0  0  0  0  0  0
  153.0604  144.5199  161.2454 H   0  0  0  0  0  0  0  0  0  0  0  0
  1  2  1  0  0  0  0
  1 24  1  0  0  0  0
  1 25  1  0  0  0  0
  1 26  1  0  0  0  0
  2  3  1  0  0  0  0
  2 27  1  0  0  0  0
  2 28  1  0  0  0  0
  3  4  1  0  0  0  0
  3 29  1  0  0  0  0
  3 30  1  0  0  0  0
  4  5  1  0  0  0  0
  4 31  1  0  0  0  0
  5  6  2  0  0  0  0
  5  7  1  0  0  0  0
  7  8  1  0  0  0  0
  7  9  1  0  0  0  0
  7 32  1  0  0  0  0
  8 33  1  0  0  0  0
  8 34  1  0  0  0  0
  8 35  1  0  0  0  0
  9 10  1  0  0  0  0
  9 36  1  0  0  0  0
 10 11  2  0  0  0  0
 10 12  1  0  0  0  0
 12 13  1  0  0  0  0
 12 37  1  0  0  0  0
 12 38  1  0  0  0  0
 13 22  1  0  0  0  0
 13 14  1  0  0  0  0
 14 15  2  0  0  0  0
 15 16  1  0  0  0  0
 15 17  1  0  0  0  0
 16 39  1  0  0  0  0
 16 40  1  0  0  0  0
 16 41  1  0  0  0  0
 17 18  1  0  0  0  0
 17 19  2  0  0  0  0
 18 42  1  0  0  0  0
 18 43  1  0  0  0  0
 18 44  1  0  0  0  0
 19 20  1  0  0  0  0
 19 22  1  0  0  0  0
 20 21  3  0  0  0  0
 22 23  2  0  0  0  0
M  END
> <s_m_source_file>
AV-unprocessed.smi

> <i_m_source_file_index>
483

> <i_lp_mmshare_version>
43012

> <i_f3d_flags>
0

> <s_epik_input>
W0NIM11bQ0gyXVtDSDJdW05IXUMoPU8pW0NASF0oW0NIM10pW05IXUMoPU8pW0NIMl1uMW5jKFtDSDNdKWMoW0NIM10pYyhDI04pYzE9Tw==

> <s_epik_cmdline>
J2VwaWtfcHl0aG9uJywgJy1waCcsICc3LjAnLCAnLXRuJywgJzgnLCAnLW1hJywgJzIwMCcsICctbWV0YWxfYmluZGluZycsICctaW1hZScsICc8aW5maWxlLm1hZT4nLCAnLW9tYWUnLCAnPG91dGZpbGUubWFlPic=

> <r_lp_tautomer_probability>
1

> <r_epik_Ionization_Penalty>
5.96698e-08

> <r_epik_Ionization_Penalty_Charging>
1.88177e-11

> <r_epik_Ionization_Penalty_Neutral>
5.9651e-08

> <r_epik_State_Penalty>
-0

> <r_epik_Charging_Adjusted_Penalty>
1.88177e-11

> <i_epik_Tot_Q>
0

> <i_epik_Tot_abs_Q>
0

> <r_epik_Metal_State_Penalty>
-0

> <b_epik_Metal_Only>
0

> <s_lp_Force_Field>
OPLS_2005

> <r_lp_Energy>
18.0289

> <b_lp_Chiralities_Consistent>
1

> <s_lp_Variant>
AV-unprocessed.smi:483-2

> <Gold.Version>
5.8.1

> <Gold.Id.Protein>
6NUR|6NUR_protein|mol2

> <Gold.PLP.Fitness>
43.1364

> <Gold.PLP.PLP>
-39.7074

> <Gold.PLP.part.hbond>
-3.0000

> <Gold.PLP.part.metal>
0.0000

> <Gold.PLP.part.buried>
-4.4344

> <Gold.PLP.part.nonpolar>
-33.2697

> <Gold.PLP.part.repulsive>
2.7373

> <Gold.PLP.ligand.clash>
0.0000

> <Gold.PLP.ligand.torsion>
0.8759

> <Gold.PLP.Chemscore.Hbond>
1.7040

> <Gold.PLP.Chemscore.CHOScore>
0.0000

> <Gold.PLP.Chemscore.Metal>
0.0000

> <Gold.Chemscore.Hbonds>
donor molecule, donor type, donor heavy atom, donor atom, acceptor molecule, acceptor atom, score
      P1  H  7997  8008       L1    23  0.65
      P1  H  8022  8030       L1     6  0.78

> <Gold.PLP.Chemscore.Internal.Correction>
0.0687

> <Gold.Rescore>
     Score         DG    S(hbond)    S(metal)    S(lipo)     H(rot)  DE(clash)    DE(int)     intcor
     10.54     -15.07       1.68        0.00      85.95       2.38       2.26       2.27       ----

> <Gold.Chemscore.Fitness>
10.5390

> <Gold.Chemscore.DG>
-15.0685

> <Gold.Chemscore.ZeroCoef>
-5.4800

> <Gold.Chemscore.Hbond>
1.6831

> <Gold.Chemscore.Metal>
0.0000

> <Gold.Chemscore.Lipo>
85.9477

> <Gold.Chemscore.Internal_Hbond>
0.0000

> <Gold.Chemscore.DEClash>
2.2637

> <Gold.Chemscore.DEInternal>
2.2658

> <Gold.Chemscore.Rot>
2.3785

> <Gold.Chemscore.Internal.Correction>
   9.000000E+99

> <Gold.Chemscore.Hbonds>
donor molecule, donor type, donor heavy atom, donor atom, acceptor molecule, acceptor atom, score
      P1  H  7997  8008       L1    23  0.52
      P1  H  8011  8017       L1     6  0.01
      P1  H  8022  8030       L1     6  0.77

> <Gold.Chemscore.Hbond.Weighted>
-5.6216

> <Gold.Chemscore.Metal.Weighted>
-0.0000

> <Gold.Chemscore.Lipo.Weighted>
-10.0559

> <Gold.Chemscore.Internal_Hbond.Weighted>
0.0000

> <Gold.Chemscore.DEClash.Weighted>
2.2637

> <Gold.Chemscore.DEInternal.Weighted>
2.2658

> <Gold.Chemscore.Rot.Weighted>
6.0890

> <Gold.Chemscore.Internal.Correction.Weighted>
   9.000000E+99

> <Gold.Protein.RotatedTorsions>
[ 6907 6896 6895 6894 ] final  -51.04 input  -60.11 | X-H torsion
[ 7974 7965 7964 7962 ] final  -43.23 input  175.53 | X-H torsion
[ 8008 7997 7996 7995 ] final  -74.22 input   59.86 | X-H torsion
[ 10167 10162 10161 10158 ] final  -36.56 input  -65.29 | X-H torsion
[ 10718 10713 10712 10709 ] final  -63.99 input   66.30 | X-H torsion
[ 10763 10752 10751 10750 ] final   64.89 input  -60.55 | X-H torsion
[ 11005 11000 10999 10996 ] final -129.71 input  -57.11 | X-H torsion

> <Gold.Protein.ActiveResidues>
 VAL166  LYS551  ARG553  GLY616  TRP617  ASP618  TYR619  PRO620  LYS621  CYS622 
 ASP623  PHE694  ASN695  SER759  ASP760  ASP761  ALA762  ILE779  LEU786  VAL792 
 PHE793  MET794  SER795  GLU796  ALA797  LYS798  CYS799  TRP800  GLU811  SER814 

> <Gold.Protein.RotatedAtoms>
  150.8649  134.8010  159.7110 H   0  0  0  0  0  0  0  0  0  0  0  0  # atno 6907 bound_to 6896
  152.4674  134.5040  159.9743 H   0  0  0  0  0  0  0  0  0  0  0  0  # atno 6908 bound_to 6896
  151.5137  133.3441  159.2925 H   0  0  0  0  0  0  0  0  0  0  0  0  # atno 6909 bound_to 6896
  146.0039  140.7043  142.9257 H   0  0  0  0  0  0  0  0  0  0  0  0  # atno 7974 bound_to 7965
  154.5313  140.0765  156.8349 H   0  0  0  0  0  0  0  0  0  0  0  0  # atno 8008 bound_to 7997
  155.3370  140.3405  155.4221 H   0  0  0  0  0  0  0  0  0  0  0  0  # atno 8009 bound_to 7997
  156.1784  140.1643  156.8307 H   0  0  0  0  0  0  0  0  0  0  0  0  # atno 8010 bound_to 7997
  140.7140  143.3401  151.2377 H   0  0  0  0  0  0  0  0  0  0  0  0  # atno 10167 bound_to 10162
  156.0757  130.4227  150.1356 H   0  0  0  0  0  0  0  0  0  0  0  0  # atno 10718 bound_to 10713
  153.0074  135.5376  154.6581 H   0  0  0  0  0  0  0  0  0  0  0  0  # atno 10763 bound_to 10752
  154.5797  135.2849  155.0748 H   0  0  0  0  0  0  0  0  0  0  0  0  # atno 10764 bound_to 10752
  154.1882  135.6505  153.5105 H   0  0  0  0  0  0  0  0  0  0  0  0  # atno 10765 bound_to 10752
  140.9408  134.1196  157.4152 H   0  0  0  0  0  0  0  0  0  0  0  0  # atno 11005 bound_to 11000
  144.6929  140.3281  143.7221 LP  0  0  0  0  0  0  0  0  0  0  0  0  # atno 17320 bound_to 7965
  145.7446  139.1774  143.2356 LP  0  0  0  0  0  0  0  0  0  0  0  0  # atno 17321 bound_to 7965
  139.6906  143.9699  152.2857 LP  0  0  0  0  0  0  0  0  0  0  0  0  # atno 17342 bound_to 10162
  139.9359  144.6712  150.8315 LP  0  0  0  0  0  0  0  0  0  0  0  0  # atno 17343 bound_to 10162
  156.9398  130.9740  151.3518 LP  0  0  0  0  0  0  0  0  0  0  0  0  # atno 17370 bound_to 10713
  157.5850  130.8403  149.8577 LP  0  0  0  0  0  0  0  0  0  0  0  0  # atno 17371 bound_to 10713
  139.8820  135.0036  156.6196 LP  0  0  0  0  0  0  0  0  0  0  0  0  # atno 17394 bound_to 11000
  140.7737  133.8717  155.8512 LP  0  0  0  0  0  0  0  0  0  0  0  0  # atno 17395 bound_to 11000

$$$$
