AV-unprocessed.smi:1518|AV-procd|sdf|6125|dock7
  -GOLD-   22720 6263D 1   1.00000     0.00000
 Structure written by MMmdl.
 45 47  0  0  0  0  0  0  0  0  1 V2000
  142.8987  146.2487  154.2297 C   0  0  0  0  0  0  0  0  0  0  0  0
  144.1199  145.5569  153.6258 C   0  0  0  0  0  0  0  0  0  0  0  0
  144.5687  145.9786  152.5602 O   0  0  0  0  0  0  0  0  0  0  0  0
  144.7065  144.4022  154.3658 C   0  0  0  0  0  0  0  0  0  0  0  0
  144.0250  143.8879  155.4919 C   0  0  0  0  0  0  0  0  0  0  0  0
  144.5524  142.7989  156.2086 C   0  0  0  0  0  0  0  0  0  0  0  0
  145.7667  142.2141  155.8081 C   0  0  0  0  0  0  0  0  0  0  0  0
  146.4688  142.7080  154.6912 C   0  0  0  0  0  0  0  0  0  0  0  0
  147.6525  142.0764  154.3734 O   0  0  0  0  0  0  0  0  0  0  0  0
  148.0010  140.8920  155.0786 C   0  0  0  0  0  0  0  0  0  0  0  0
  148.8522  141.2723  156.3008 C   0  0  1  0  0  0  0  0  0  0  0  0
  148.9080  140.1619  157.1745 O   0  0  0  0  0  0  0  0  0  0  0  0
  150.2873  141.6717  155.8988 C   0  0  0  0  0  0  0  0  0  0  0  0
  151.2887  141.2692  156.8799 N   0  0  0  0  0  0  0  0  0  0  0  0
  151.9427  140.0829  156.9809 C   0  0  0  0  0  0  0  0  0  0  0  0
  151.7023  138.9428  156.0380 C   0  0  0  0  0  0  0  0  0  0  0  0
  151.8661  139.3040  154.6842 O   0  0  0  0  0  0  0  0  0  0  0  0
  152.8170  139.9865  157.9831 N   0  0  0  0  0  0  0  0  0  0  0  0
  152.7170  141.2200  158.5953 C   0  0  0  0  0  0  0  0  0  0  0  0
  153.3885  141.7411  159.7244 C   0  0  0  0  0  0  0  0  0  0  0  0
  153.1160  143.0488  160.1761 C   0  0  0  0  0  0  0  0  0  0  0  0
  152.1709  143.8525  159.5065 C   0  0  0  0  0  0  0  0  0  0  0  0
  151.4912  143.3524  158.3791 C   0  0  0  0  0  0  0  0  0  0  0  0
  151.7667  142.0462  157.9318 C   0  0  0  0  0  0  0  0  0  0  0  0
  145.9295  143.8056  153.9723 C   0  0  0  0  0  0  0  0  0  0  0  0
  143.1348  146.6474  155.2164 H   0  0  0  0  0  0  0  0  0  0  0  0
  142.0683  145.5486  154.3217 H   0  0  0  0  0  0  0  0  0  0  0  0
  142.5776  147.0761  153.5965 H   0  0  0  0  0  0  0  0  0  0  0  0
  143.0904  144.3216  155.8181 H   0  0  0  0  0  0  0  0  0  0  0  0
  144.0242  142.4112  157.0674 H   0  0  0  0  0  0  0  0  0  0  0  0
  146.1642  141.3778  156.3645 H   0  0  0  0  0  0  0  0  0  0  0  0
  147.1178  140.3258  155.3799 H   0  0  0  0  0  0  0  0  0  0  0  0
  148.5921  140.2604  154.4131 H   0  0  0  0  0  0  0  0  0  0  0  0
  148.3796  142.1033  156.8233 H   0  0  0  0  0  0  0  0  0  0  0  0
  149.5979  140.3113  157.8031 H   0  0  0  0  0  0  0  0  0  0  0  0
  150.5454  141.2245  154.9379 H   0  0  0  0  0  0  0  0  0  0  0  0
  150.3518  142.7487  155.7486 H   0  0  0  0  0  0  0  0  0  0  0  0
  152.4026  138.1378  156.2645 H   0  0  0  0  0  0  0  0  0  0  0  0
  150.7044  138.5335  156.1920 H   0  0  0  0  0  0  0  0  0  0  0  0
  152.0653  138.5249  154.1881 H   0  0  0  0  0  0  0  0  0  0  0  0
  154.1140  141.1329  160.2438 H   0  0  0  0  0  0  0  0  0  0  0  0
  153.6347  143.4369  161.0405 H   0  0  0  0  0  0  0  0  0  0  0  0
  151.9681  144.8533  159.8584 H   0  0  0  0  0  0  0  0  0  0  0  0
  150.7680  143.9665  157.8630 H   0  0  0  0  0  0  0  0  0  0  0  0
  146.4548  144.1938  153.1142 H   0  0  0  0  0  0  0  0  0  0  0  0
  1  2  1  0  0  0  0
  1 26  1  0  0  0  0
  1 27  1  0  0  0  0
  1 28  1  0  0  0  0
  2  3  2  0  0  0  0
  2  4  1  0  0  0  0
  4 25  1  0  0  0  0
  4  5  2  0  0  0  0
  5  6  1  0  0  0  0
  5 29  1  0  0  0  0
  6  7  2  0  0  0  0
  6 30  1  0  0  0  0
  7  8  1  0  0  0  0
  7 31  1  0  0  0  0
  8  9  1  0  0  0  0
  8 25  2  0  0  0  0
  9 10  1  0  0  0  0
 10 11  1  0  0  0  0
 10 32  1  0  0  0  0
 10 33  1  0  0  0  0
 11 12  1  0  0  0  0
 11 13  1  0  0  0  0
 11 34  1  0  0  0  0
 12 35  1  0  0  0  0
 13 14  1  0  0  0  0
 13 36  1  0  0  0  0
 13 37  1  0  0  0  0
 14 24  1  0  0  0  0
 14 15  1  0  0  0  0
 15 16  1  0  0  0  0
 15 18  2  0  0  0  0
 16 17  1  0  0  0  0
 16 38  1  0  0  0  0
 16 39  1  0  0  0  0
 17 40  1  0  0  0  0
 18 19  1  0  0  0  0
 19 24  2  0  0  0  0
 19 20  1  0  0  0  0
 20 21  2  0  0  0  0
 20 41  1  0  0  0  0
 21 22  1  0  0  0  0
 21 42  1  0  0  0  0
 22 23  2  0  0  0  0
 22 43  1  0  0  0  0
 23 24  1  0  0  0  0
 23 44  1  0  0  0  0
 25 45  1  0  0  0  0
M  END
> <s_m_source_file>
AV-unprocessed.smi

> <i_m_source_file_index>
1518

> <i_lp_mmshare_version>
43012

> <i_f3d_flags>
0

> <s_epik_input>
W0NIM11DKD1PKWMxW2NIXVtjSF1bY0hdYyhbY0hdMSlPW0NIMl1bQ0BIXShbT0hdKVtDSDJdbihjKG4yKVtDSDJdW09IXSljKGMyMylbY0hdW2NIXVtjSF1bY0hdMw==

> <s_epik_cmdline>
J2VwaWtfcHl0aG9uJywgJy1waCcsICc3LjAnLCAnLXRuJywgJzgnLCAnLW1hJywgJzIwMCcsICctbWV0YWxfYmluZGluZycsICctaW1hZScsICc8aW5maWxlLm1hZT4nLCAnLW9tYWUnLCAnPG91dGZpbGUubWFlPic=

> <r_lp_tautomer_probability>
0.99995

> <r_epik_Ionization_Penalty>
0.0583159

> <r_epik_Ionization_Penalty_Charging>
0

> <r_epik_Ionization_Penalty_Neutral>
0.0583159

> <r_epik_State_Penalty>
0.0503525

> <r_epik_Charging_Adjusted_Penalty>
0.0503525

> <i_epik_Tot_Q>
0

> <i_epik_Tot_abs_Q>
0

> <r_epik_Metal_State_Penalty>
5.25517e-05

> <b_epik_Metal_Only>
0

> <s_lp_Force_Field>
OPLS_2005

> <r_lp_Energy>
23.8716

> <b_lp_Chiralities_Consistent>
1

> <s_lp_Variant>
AV-unprocessed.smi:1518-2

> <Gold.Version>
5.8.1

> <Gold.Id.Protein>
6NUR|6NUR_protein|mol2

> <Gold.PLP.Fitness>
52.2767

> <Gold.PLP.PLP>
-50.5738

> <Gold.PLP.part.hbond>
-3.9372

> <Gold.PLP.part.metal>
0.0000

> <Gold.PLP.part.buried>
-7.7970

> <Gold.PLP.part.nonpolar>
-39.3435

> <Gold.PLP.part.repulsive>
0.3132

> <Gold.PLP.ligand.clash>
1.9183

> <Gold.PLP.ligand.torsion>
1.2541

> <Gold.PLP.Chemscore.Hbond>
1.9760

> <Gold.PLP.Chemscore.CHOScore>
0.0000

> <Gold.PLP.Chemscore.Metal>
0.0000

> <Gold.Chemscore.Hbonds>
donor molecule, donor type, donor heavy atom, donor atom, acceptor molecule, acceptor atom, score
      P1  H  7989  7998       L1    17  0.99
      P1  H  7997  8010       L1    18  1.00

> <Gold.PLP.Chemscore.Internal.Correction>
0.2014

> <Gold.Rescore>
     Score         DG    S(hbond)    S(metal)    S(lipo)     H(rot)  DE(clash)    DE(int)     intcor
     11.24     -15.22       1.13        0.00     122.10       3.25       1.74       2.23       ----

> <Gold.Chemscore.Fitness>
11.2384

> <Gold.Chemscore.DG>
-15.2170

> <Gold.Chemscore.ZeroCoef>
-5.4800

> <Gold.Chemscore.Hbond>
1.1277

> <Gold.Chemscore.Metal>
0.0000

> <Gold.Chemscore.Lipo>
122.1013

> <Gold.Chemscore.Internal_Hbond>
0.0000

> <Gold.Chemscore.DEClash>
1.7449

> <Gold.Chemscore.DEInternal>
2.2337

> <Gold.Chemscore.Rot>
3.2482

> <Gold.Chemscore.Internal.Correction>
   9.000000E+99

> <Gold.Chemscore.Hbonds>
donor molecule, donor type, donor heavy atom, donor atom, acceptor molecule, acceptor atom, score
      P1  H  7989  7998       L1    17  0.73
      P1  H  7997  8010       L1    18  0.14

> <Gold.Chemscore.Hbond.Weighted>
-3.7666

> <Gold.Chemscore.Metal.Weighted>
-0.0000

> <Gold.Chemscore.Lipo.Weighted>
-14.2859

> <Gold.Chemscore.Internal_Hbond.Weighted>
0.0000

> <Gold.Chemscore.DEClash.Weighted>
1.7449

> <Gold.Chemscore.DEInternal.Weighted>
2.2337

> <Gold.Chemscore.Rot.Weighted>
8.3155

> <Gold.Chemscore.Internal.Correction.Weighted>
   9.000000E+99

> <Gold.Protein.RotatedTorsions>
[ 6907 6896 6895 6894 ] final -104.15 input  -60.11 | X-H torsion
[ 7974 7965 7964 7962 ] final   13.89 input  175.53 | X-H torsion
[ 8008 7997 7996 7995 ] final   37.46 input   59.86 | X-H torsion
[ 10167 10162 10161 10158 ] final  -48.74 input  -65.29 | X-H torsion
[ 10718 10713 10712 10709 ] final  143.48 input   66.30 | X-H torsion
[ 10763 10752 10751 10750 ] final  121.80 input  -60.55 | X-H torsion
[ 11005 11000 10999 10996 ] final -132.03 input  -57.11 | X-H torsion

> <Gold.Protein.ActiveResidues>
 VAL166  LYS551  ARG553  GLY616  TRP617  ASP618  TYR619  PRO620  LYS621  CYS622 
 ASP623  PHE694  ASN695  SER759  ASP760  ASP761  ALA762  ILE779  LEU786  VAL792 
 PHE793  MET794  SER795  GLU796  ALA797  LYS798  CYS799  TRP800  GLU811  SER814 

> <Gold.Protein.RotatedAtoms>
  150.7273  134.0321  159.3736 H   0  0  0  0  0  0  0  0  0  0  0  0  # atno 6907 bound_to 6896
  151.8291  135.0625  160.0444 H   0  0  0  0  0  0  0  0  0  0  0  0  # atno 6908 bound_to 6896
  152.2947  133.5559  159.5616 H   0  0  0  0  0  0  0  0  0  0  0  0  # atno 6909 bound_to 6896
  146.2318  139.9122  142.8522 H   0  0  0  0  0  0  0  0  0  0  0  0  # atno 7974 bound_to 7965
  155.2041  140.3318  155.4338 H   0  0  0  0  0  0  0  0  0  0  0  0  # atno 8008 bound_to 7997
  156.2395  140.1888  156.7076 H   0  0  0  0  0  0  0  0  0  0  0  0  # atno 8009 bound_to 7997
  154.6121  140.0607  156.9493 H   0  0  0  0  0  0  0  0  0  0  0  0  # atno 8010 bound_to 7997
  140.6717  143.2727  151.4114 H   0  0  0  0  0  0  0  0  0  0  0  0  # atno 10167 bound_to 10162
  157.3685  131.0975  151.0850 H   0  0  0  0  0  0  0  0  0  0  0  0  # atno 10718 bound_to 10713
  153.6197  135.3415  155.3006 H   0  0  0  0  0  0  0  0  0  0  0  0  # atno 10763 bound_to 10752
  154.8602  135.4270  154.2221 H   0  0  0  0  0  0  0  0  0  0  0  0  # atno 10764 bound_to 10752
  153.3091  135.7030  153.7205 H   0  0  0  0  0  0  0  0  0  0  0  0  # atno 10765 bound_to 10752
  140.9206  134.1449  157.4317 H   0  0  0  0  0  0  0  0  0  0  0  0  # atno 11005 bound_to 11000
  145.2218  140.9938  143.4041 LP  0  0  0  0  0  0  0  0  0  0  0  0  # atno 17320 bound_to 7965
  144.9603  139.3987  143.6359 LP  0  0  0  0  0  0  0  0  0  0  0  0  # atno 17321 bound_to 7965
  139.5989  144.1338  152.2175 LP  0  0  0  0  0  0  0  0  0  0  0  0  # atno 17342 bound_to 10162
  140.0716  144.5774  150.7187 LP  0  0  0  0  0  0  0  0  0  0  0  0  # atno 17343 bound_to 10162
  157.1963  130.6375  149.5722 LP  0  0  0  0  0  0  0  0  0  0  0  0  # atno 17370 bound_to 10713
  155.9751  130.4705  150.6433 LP  0  0  0  0  0  0  0  0  0  0  0  0  # atno 17371 bound_to 10713
  139.8775  134.9970  156.5823 LP  0  0  0  0  0  0  0  0  0  0  0  0  # atno 17394 bound_to 11000
  140.7993  133.8519  155.8712 LP  0  0  0  0  0  0  0  0  0  0  0  0  # atno 17395 bound_to 11000

$$$$
