#       Name:                AV-unprocessed.smi:20
#       Creating user name   scv26
#       Creation time:       Thu Mar 26 15:29:01 2020


#       File generated by GOLD software.
#

@<TRIPOS>MOLECULE
AV-unprocessed.smi:20
    67    71     1
SMALL
NO_CHARGES


@<TRIPOS>ATOM
      1 ****         0.9985   6.7559   0.4619 O.2            1 S1                 0.0000
      2 ****         0.1302   5.9289   0.1943 C.2            1 S1                 0.0000
      3 ****        -1.0610   5.6342   1.0912 C.3            1 S1                 0.0000
      4 ****        -1.6083   4.3038   0.5308 C.3            1 S1                 0.0000
      5 ****        -3.1508   4.2326   0.6106 C.3            1 S1                 0.0000
      6 ****        -3.6786   2.8607   0.1598 C.3            1 S1                 0.0000
      7 ****        -3.0157   1.7284   0.9569 C.3            1 S1                 0.0000
      8 ****        -1.5606   1.8318   0.8810 N.3            1 S1                 0.0000
      9 ****        -0.8865   0.7003   1.2051 C.ar           1 S1                 0.0000
     10 ****        -0.0564   0.6898   2.2821 N.ar           1 S1                 0.0000
     11 ****         0.6049  -0.4232   2.6126 C.ar           1 S1                 0.0000
     12 ****         0.5883  -1.6133   2.0100 N.ar           1 S1                 0.0000
     13 ****        -0.2315  -1.6061   0.9206 C.ar           1 S1                 0.0000
     14 ****        -1.0042  -0.5042   0.4564 C.ar           1 S1                 0.0000
     15 ****        -1.7182  -0.8713  -0.6781 N.2            1 S1                 0.0000
     16 ****        -1.3936  -2.1206  -0.8688 C.2            1 S1                 0.0000
     17 ****        -0.4851  -2.6353   0.0292 N.pl3          1 S1                 0.0000
     18 ****         0.0393  -3.9906   0.0456 C.3            1 S1                 0.0000
     19 ****         1.5870  -4.1044  -0.0555 C.3            1 S1                 0.0000
     20 ****         2.0013  -5.5761   0.1879 C.3            1 S1                 0.0000
     21 ****         1.6797  -5.9926   1.4991 O.3            1 S1                 0.0000
     22 ****         2.1678  -3.5793  -1.4028 C.3            1 S1                 0.0000
     23 ****         2.0499  -2.0823  -1.6512 C.3            1 S1                 0.0000
     24 ****         3.0932  -1.8363  -2.7337 C.3            1 S1                 0.0000
     25 ****         4.1311  -2.7731  -2.4837 O.3            1 S1                 0.0000
     26 ****         3.6888  -3.7435  -1.5417 C.3            1 S1                 0.0000
     27 ****        -0.9993   3.1123   1.3162 C.3            1 S1                 0.0000
     28 ****        -1.0855   4.3106  -0.9279 C.3            1 S1                 0.0000
     29 ****         0.0819   5.1700  -0.8982 N.am           1 S1                 0.0000
     30 ****        -0.7710   5.5698   2.1407 H              1 S1                 0.0000
     31 ****        -1.7825   6.4455   0.9856 H              1 S1                 0.0000
     32 ****        -3.4688   4.4156   1.6379 H              1 S1                 0.0000
     33 ****        -3.6028   5.0208   0.0074 H              1 S1                 0.0000
     34 ****        -4.7610   2.8176   0.2835 H              1 S1                 0.0000
     35 ****        -3.4842   2.7203  -0.9041 H              1 S1                 0.0000
     36 ****        -3.3152   1.7863   2.0042 H              1 S1                 0.0000
     37 ****        -3.3695   0.7674   0.5846 H              1 S1                 0.0000
     38 ****         1.2393  -0.3491   3.4836 H              1 S1                 0.0000
     39 ****        -1.7982  -2.6995  -1.6862 H              1 S1                 0.0000
     40 ****        -0.3175  -4.4471   0.9691 H              1 S1                 0.0000
     41 ****        -0.4239  -4.5522  -0.7666 H              1 S1                 0.0000
     42 ****         2.0343  -3.5142   0.7448 H              1 S1                 0.0000
     43 ****         1.5172  -6.2384  -0.5305 H              1 S1                 0.0000
     44 ****         3.0756  -5.7153   0.0763 H              1 S1                 0.0000
     45 ****         1.9542  -6.8906   1.6050 H              1 S1                 0.0000
     46 ****         1.6889  -4.1054  -2.2303 H              1 S1                 0.0000
     47 ****         1.0623  -1.7687  -1.9840 H              1 S1                 0.0000
     48 ****         2.3052  -1.5223  -0.7501 H              1 S1                 0.0000
     49 ****         2.6731  -2.0393  -3.7195 H              1 S1                 0.0000
     50 ****         3.4675  -0.8122  -2.7279 H              1 S1                 0.0000
     51 ****         4.1871  -3.5423  -0.5922 H              1 S1                 0.0000
     52 ****         3.9728  -4.7451  -1.8652 H              1 S1                 0.0000
     53 ****         0.0852   3.1040   1.1952 H              1 S1                 0.0000
     54 ****        -1.1977   3.2306   2.3824 H              1 S1                 0.0000
     55 ****        -0.8337   3.3167  -1.2992 H              1 S1                 0.0000
     56 ****        -1.8136   4.7467  -1.6132 H              1 S1                 0.0000
     57 ****         0.7675   5.1905  -1.6393 H              1 S1                 0.0000
     58 ****         1.7582   6.9059  -0.1709 LP             1 S1                 0.0000
     59 ****         0.9456   7.2791   1.3125 LP             1 S1                 0.0000
     60 ****        -1.3676   1.8827  -0.0989 LP             1 S1                 0.0000
     61 ****         0.0597   1.5188   2.8292 LP             1 S1                 0.0000
     62 ****         1.1103  -2.4087   2.3178 LP             1 S1                 0.0000
     63 ****        -2.3384  -0.3072  -1.2233 LP             1 S1                 0.0000
     64 ****         0.6926  -5.9226   1.6424 LP             1 S1                 0.0000
     65 ****         2.1547  -5.4144   2.1625 LP             1 S1                 0.0000
     66 ****         4.9291  -2.2944  -2.1173 LP             1 S1                 0.0000
     67 ****         4.3795  -3.2292  -3.3383 LP             1 S1                 0.0000
@<TRIPOS>BOND
    1    1    2 2     
    2    2   29 am    
    3    2    3 1     
    4    3    4 1     
    5    3   30 1     
    6    3   31 1     
    7    4   27 1     
    8    4    5 1     
    9    4   28 1     
   10    5    6 1     
   11    5   32 1     
   12    5   33 1     
   13    6    7 1     
   14    6   34 1     
   15    6   35 1     
   16    7    8 1     
   17    7   36 1     
   18    7   37 1     
   19    8    9 1     
   20    8   27 1     
   21    9   14 ar    
   22    9   10 ar    
   23   10   11 ar    
   24   11   12 ar    
   25   11   38 1     
   26   12   13 ar    
   27   13   17 1     
   28   13   14 ar    
   29   14   15 1     
   30   15   16 2     
   31   16   17 1     
   32   16   39 1     
   33   17   18 1     
   34   18   19 1     
   35   18   40 1     
   36   18   41 1     
   37   19   20 1     
   38   19   22 1     
   39   19   42 1     
   40   20   21 1     
   41   20   43 1     
   42   20   44 1     
   43   21   45 1     
   44   22   26 1     
   45   22   23 1     
   46   22   46 1     
   47   23   24 1     
   48   23   47 1     
   49   23   48 1     
   50   24   25 1     
   51   24   49 1     
   52   24   50 1     
   53   25   26 1     
   54   26   51 1     
   55   26   52 1     
   56   27   53 1     
   57   27   54 1     
   58   28   29 1     
   59   28   55 1     
   60   28   56 1     
   61   29   57 1     
   62    1   58 1     
   63    1   59 1     
   64    8   60 1     
   65   10   61 1     
   66   12   62 1     
   67   15   63 1     
   68   21   64 1     
   69   21   65 1     
   70   25   66 1     
   71   25   67 1     
@<TRIPOS>SUBSTRUCTURE
      1 S1             1
@<TRIPOS>SET
LONE_PAIRS      STATIC     ATOMS    <user>   **** ""
10 58 59 60 61 62 63 64 65 66 67
DONOR_HYDROGENS      STATIC     ATOMS    <user>   **** ""
2 45 57
ATOM$BLUE        STATIC     ATOMS    COLORGROUP SYSTEM
10 58 59 60 61 62 63 64 65 66 67
ATOM$RED        STATIC     ATOMS    COLORGROUP SYSTEM
2 45 57
