AV-unprocessed.smi:2095|AV-procd|sdf|8555|dock8
  -GOLD-   2272011283D 1   1.00000     0.00000
 Structure written by MMmdl.
 42 43  0  0  0  0  0  0  0  0  2 V2000
  151.2106  144.3133  157.0181 C   0  0  0  0  0  0  0  0  0  0  0  0
  151.2627  142.7883  157.2170 C   0  0  1  0  0  0  0  0  0  0  0  0
  150.4964  142.3251  158.4713 C   0  0  0  0  0  0  0  0  0  0  0  0
  148.9767  142.3844  158.2552 C   0  0  0  0  0  0  0  0  0  0  0  0
  148.5713  141.6129  156.9899 C   0  0  0  0  0  0  0  0  0  0  0  0
  149.3018  142.1345  155.8030 N   0  3  2  0  0  0  0  0  0  0  0  0
  148.8087  141.6499  154.4806 C   0  0  2  0  0  0  0  0  0  0  0  0
  147.2924  141.8951  154.3488 C   0  0  0  0  0  0  0  0  0  0  0  0
  149.2285  140.1896  154.1707 C   0  0  0  0  0  0  0  0  0  0  0  0
  148.5522  139.6707  152.9858 N   0  0  0  0  0  0  0  0  0  0  0  0
  147.5813  138.7426  152.9877 C   0  0  0  0  0  0  0  0  0  0  0  0
  147.1979  138.1617  154.0023 O   0  0  0  0  0  0  0  0  0  0  0  0
  146.9168  138.4499  151.6428 C   0  0  0  0  0  0  0  0  0  0  0  0
  146.1757  137.2036  151.7017 N   0  0  0  0  0  0  0  0  0  0  0  0
  145.0351  136.8897  152.3194 C   0  0  0  0  0  0  0  0  0  0  0  0
  144.7186  135.6161  152.1446 N   0  0  0  0  0  0  0  0  0  0  0  0
  145.7529  135.1400  151.3567 N   0  0  0  0  0  0  0  0  0  0  0  0
  146.6210  136.0770  151.0910 N   0  0  0  0  0  0  0  0  0  0  0  0
  150.7759  142.0216  155.9695 C   0  0  0  0  0  0  0  0  0  0  0  0
  150.1960  144.6671  156.8353 H   0  0  0  0  0  0  0  0  0  0  0  0
  151.8224  144.6173  156.1682 H   0  0  0  0  0  0  0  0  0  0  0  0
  151.5904  144.8356  157.8967 H   0  0  0  0  0  0  0  0  0  0  0  0
  152.3130  142.5349  157.3670 H   0  0  0  0  0  0  0  0  0  0  0  0
  150.7814  141.2985  158.7058 H   0  0  0  0  0  0  0  0  0  0  0  0
  150.7798  142.9243  159.3374 H   0  0  0  0  0  0  0  0  0  0  0  0
  148.4635  141.9696  159.1232 H   0  0  0  0  0  0  0  0  0  0  0  0
  148.6501  143.4217  158.1754 H   0  0  0  0  0  0  0  0  0  0  0  0
  148.7867  140.5527  157.1273 H   0  0  0  0  0  0  0  0  0  0  0  0
  147.4950  141.7039  156.8485 H   0  0  0  0  0  0  0  0  0  0  0  0
  149.2704  142.2877  153.7252 H   0  0  0  0  0  0  0  0  0  0  0  0
  146.9564  141.7664  153.3194 H   0  0  0  0  0  0  0  0  0  0  0  0
  147.0320  142.9127  154.6413 H   0  0  0  0  0  0  0  0  0  0  0  0
  146.7129  141.2099  154.9671 H   0  0  0  0  0  0  0  0  0  0  0  0
  150.2998  140.1373  153.9784 H   0  0  0  0  0  0  0  0  0  0  0  0
  149.0414  139.5380  155.0250 H   0  0  0  0  0  0  0  0  0  0  0  0
  148.8067  140.0842  152.1003 H   0  0  0  0  0  0  0  0  0  0  0  0
  146.2352  139.2585  151.3757 H   0  0  0  0  0  0  0  0  0  0  0  0
  147.6681  138.3837  150.8543 H   0  0  0  0  0  0  0  0  0  0  0  0
  144.4484  137.5848  152.9017 H   0  0  0  0  0  0  0  0  0  0  0  0
  151.2872  142.4044  155.0855 H   0  0  0  0  0  0  0  0  0  0  0  0
  151.0508  140.9697  156.0573 H   0  0  0  0  0  0  0  0  0  0  0  0
  149.1207  143.1282  155.7918 H   0  0  0  0  0  0  0  0  0  0  0  0
  1  2  1  0  0  0  0
  1 20  1  0  0  0  0
  1 21  1  0  0  0  0
  1 22  1  0  0  0  0
  2 19  1  0  0  0  0
  2  3  1  0  0  0  0
  2 23  1  0  0  0  0
  3  4  1  0  0  0  0
  3 24  1  0  0  0  0
  3 25  1  0  0  0  0
  4  5  1  0  0  0  0
  4 26  1  0  0  0  0
  4 27  1  0  0  0  0
  5  6  1  0  0  0  0
  5 28  1  0  0  0  0
  5 29  1  0  0  0  0
  6  7  1  0  0  0  0
  6 19  1  0  0  0  0
  6 42  1  0  0  0  0
  7  8  1  0  0  0  0
  7  9  1  0  0  0  0
  7 30  1  0  0  0  0
  8 31  1  0  0  0  0
  8 32  1  0  0  0  0
  8 33  1  0  0  0  0
  9 10  1  0  0  0  0
  9 34  1  0  0  0  0
  9 35  1  0  0  0  0
 10 11  1  0  0  0  0
 10 36  1  0  0  0  0
 11 12  2  0  0  0  0
 11 13  1  0  0  0  0
 13 14  1  0  0  0  0
 13 37  1  0  0  0  0
 13 38  1  0  0  0  0
 14 18  1  0  0  0  0
 14 15  1  0  0  0  0
 15 16  2  0  0  0  0
 15 39  1  0  0  0  0
 16 17  1  0  0  0  0
 17 18  2  0  0  0  0
 19 40  1  0  0  0  0
 19 41  1  0  0  0  0
M  CHG  1   6   1
M  END
> <s_m_source_file>
AV-unprocessed.smi

> <i_m_source_file_index>
2095

> <i_lp_mmshare_version>
43012

> <i_f3d_flags>
0

> <s_epik_input>
W0NIM11bQ0BASF0xW0NIMl1bQ0gyXVtDSDJdTihbQ0gyXTEpW0NASF0oW0NIM10pW0NIMl1bTkhdQyg9TylbQ0gyXW4yW2NIXW5ubjI=

> <s_epik_cmdline>
J2VwaWtfcHl0aG9uJywgJy1waCcsICc3LjAnLCAnLXRuJywgJzgnLCAnLW1hJywgJzIwMCcsICctbWV0YWxfYmluZGluZycsICctaW1hZScsICc8aW5maWxlLm1hZT4nLCAnLW9tYWUnLCAnPG91dGZpbGUubWFlPic=

> <r_lp_tautomer_probability>
1

> <r_epik_Ionization_Penalty>
0.00268321

> <r_epik_Ionization_Penalty_Charging>
0.00267875

> <r_epik_Ionization_Penalty_Neutral>
4.46125e-06

> <r_epik_State_Penalty>
0.00186642

> <r_epik_Charging_Adjusted_Penalty>
0.00454517

> <i_epik_Tot_Q>
1

> <i_epik_Tot_abs_Q>
1

> <r_epik_Metal_State_Penalty>
-0

> <b_epik_Metal_Only>
0

> <s_lp_Force_Field>
OPLS_2005

> <r_lp_Energy>
25.1095

> <b_lp_Chiralities_Consistent>
1

> <s_lp_Variant>
AV-unprocessed.smi:2095-2

> <Gold.Version>
5.8.1

> <Gold.Id.Protein>
6NUR|6NUR_protein|mol2

> <Gold.PLP.Fitness>
42.5626

> <Gold.PLP.PLP>
-31.6212

> <Gold.PLP.part.hbond>
-2.0000

> <Gold.PLP.part.metal>
0.0000

> <Gold.PLP.part.buried>
-2.4036

> <Gold.PLP.part.nonpolar>
-29.2650

> <Gold.PLP.part.repulsive>
1.3264

> <Gold.PLP.ligand.clash>
0.0000

> <Gold.PLP.ligand.torsion>
0.5892

> <Gold.PLP.Chemscore.Hbond>
3.0000

> <Gold.PLP.Chemscore.CHOScore>
1.0000

> <Gold.PLP.Chemscore.Metal>
0.0000

> <Gold.Chemscore.Hbonds>
donor molecule, donor type, donor heavy atom, donor atom, acceptor molecule, acceptor atom, score
      L1  H     6    42       P1  8028  2.00
      L1  H    10    36       P1  7957  0.22

> <Gold.PLP.Chemscore.Internal.Correction>
0.1198

> <Gold.Rescore>
     Score         DG    S(hbond)    S(metal)    S(lipo)     H(rot)  DE(clash)    DE(int)     intcor
     11.78     -13.79       2.00        0.00      71.75       2.64       0.51       1.49       ----

> <Gold.Chemscore.Fitness>
11.7834

> <Gold.Chemscore.DG>
-13.7858

> <Gold.Chemscore.ZeroCoef>
-5.4800

> <Gold.Chemscore.Hbond>
1.9999

> <Gold.Chemscore.Metal>
0.0000

> <Gold.Chemscore.Lipo>
71.7476

> <Gold.Chemscore.Internal_Hbond>
0.0000

> <Gold.Chemscore.DEClash>
0.5132

> <Gold.Chemscore.DEInternal>
1.4892

> <Gold.Chemscore.Rot>
2.6439

> <Gold.Chemscore.Internal.Correction>
   9.000000E+99

> <Gold.Chemscore.Hbonds>
donor molecule, donor type, donor heavy atom, donor atom, acceptor molecule, acceptor atom, score
      L1  H     6    42       P1  8028  0.99
      L1  H    10    36       P1  7957  0.22

> <Gold.Chemscore.Hbond.Weighted>
-6.6798

> <Gold.Chemscore.Metal.Weighted>
-0.0000

> <Gold.Chemscore.Lipo.Weighted>
-8.3945

> <Gold.Chemscore.Internal_Hbond.Weighted>
0.0000

> <Gold.Chemscore.DEClash.Weighted>
0.5132

> <Gold.Chemscore.DEInternal.Weighted>
1.4892

> <Gold.Chemscore.Rot.Weighted>
6.7685

> <Gold.Chemscore.Internal.Correction.Weighted>
   9.000000E+99

> <Gold.Protein.RotatedTorsions>
[ 6907 6896 6895 6894 ] final -120.43 input  -60.11 | X-H torsion
[ 7974 7965 7964 7962 ] final  -62.05 input  175.53 | X-H torsion
[ 8008 7997 7996 7995 ] final -155.28 input   59.86 | X-H torsion
[ 10167 10162 10161 10158 ] final   20.07 input  -65.29 | X-H torsion
[ 10718 10713 10712 10709 ] final  -50.05 input   66.30 | X-H torsion
[ 10763 10752 10751 10750 ] final  110.76 input  -60.55 | X-H torsion
[ 11005 11000 10999 10996 ] final  -13.27 input  -57.11 | X-H torsion

> <Gold.Protein.ActiveResidues>
 VAL166  LYS551  ARG553  GLY616  TRP617  ASP618  TYR619  PRO620  LYS621  CYS622 
 ASP623  PHE694  ASN695  SER759  ASP760  ASP761  ALA762  ILE779  LEU786  VAL792 
 PHE793  MET794  SER795  GLU796  ALA797  LYS798  CYS799  TRP800  GLU811  SER814 

> <Gold.Protein.RotatedAtoms>
  150.8392  133.7963  159.3067 H   0  0  0  0  0  0  0  0  0  0  0  0  # atno 6907 bound_to 6896
  151.5669  135.1062  159.9995 H   0  0  0  0  0  0  0  0  0  0  0  0  # atno 6908 bound_to 6896
  152.4459  133.7494  159.6741 H   0  0  0  0  0  0  0  0  0  0  0  0  # atno 6909 bound_to 6896
  145.7960  140.8682  143.0256 H   0  0  0  0  0  0  0  0  0  0  0  0  # atno 7974 bound_to 7965
  155.6994  140.0765  157.2416 H   0  0  0  0  0  0  0  0  0  0  0  0  # atno 8008 bound_to 7997
  154.4075  140.1650  156.2227 H   0  0  0  0  0  0  0  0  0  0  0  0  # atno 8009 bound_to 7997
  155.9381  140.3386  155.6307 H   0  0  0  0  0  0  0  0  0  0  0  0  # atno 8010 bound_to 7997
  140.5532  143.9472  150.6591 H   0  0  0  0  0  0  0  0  0  0  0  0  # atno 10167 bound_to 10162
  156.1836  130.4151  149.9471 H   0  0  0  0  0  0  0  0  0  0  0  0  # atno 10718 bound_to 10713
  153.4535  135.3738  155.2298 H   0  0  0  0  0  0  0  0  0  0  0  0  # atno 10763 bound_to 10752
  154.8756  135.3891  154.4009 H   0  0  0  0  0  0  0  0  0  0  0  0  # atno 10764 bound_to 10752
  153.4572  135.7086  153.6136 H   0  0  0  0  0  0  0  0  0  0  0  0  # atno 10765 bound_to 10752
  140.7744  133.8413  155.9236 H   0  0  0  0  0  0  0  0  0  0  0  0  # atno 11005 bound_to 11000
  144.6775  140.0191  143.7484 LP  0  0  0  0  0  0  0  0  0  0  0  0  # atno 17320 bound_to 7965
  145.9927  139.3028  143.0975 LP  0  0  0  0  0  0  0  0  0  0  0  0  # atno 17321 bound_to 7965
  140.2904  143.3328  152.1068 LP  0  0  0  0  0  0  0  0  0  0  0  0  # atno 17342 bound_to 10162
  139.5036  144.6759  151.6130 LP  0  0  0  0  0  0  0  0  0  0  0  0  # atno 17343 bound_to 10162
  156.7233  130.9015  151.3620 LP  0  0  0  0  0  0  0  0  0  0  0  0  # atno 17370 bound_to 10713
  157.6884  130.9209  150.0449 LP  0  0  0  0  0  0  0  0  0  0  0  0  # atno 17371 bound_to 10713
  140.9543  134.1738  157.4704 LP  0  0  0  0  0  0  0  0  0  0  0  0  # atno 17394 bound_to 11000
  139.8751  134.9921  156.5580 LP  0  0  0  0  0  0  0  0  0  0  0  0  # atno 17395 bound_to 11000

$$$$
