AV-unprocessed.smi:1867|AV-procd|sdf|7569|dock2
  -GOLD-   22720 9283D 1   1.00000     0.00000
 Structure written by MMmdl.
 53 56  0  0  0  0  0  0  0  0  3 V2000
  147.3132  140.3637  154.4273 O   0  0  0  0  0  0  0  0  0  0  0  0
  148.1291  139.4958  154.1276 C   0  0  0  0  0  0  0  0  0  0  0  0
  149.3929  139.4346  154.5923 N   0  0  0  0  0  0  0  0  0  0  0  0
  150.0584  140.3057  155.4972 C   0  0  0  0  0  0  0  0  0  0  0  0
  151.0926  139.9075  156.3805 C   0  0  0  0  0  0  0  0  0  0  0  0
  151.6905  140.8635  157.2271 C   0  0  0  0  0  0  0  0  0  0  0  0
  151.2581  142.2096  157.1853 C   0  0  0  0  0  0  0  0  0  0  0  0
  151.8146  143.2139  157.9997 N   0  0  0  0  0  0  0  0  0  0  0  0
  151.1567  144.4983  158.1802 C   0  0  0  0  0  0  0  0  0  0  0  0
  151.9784  145.2032  159.2585 C   0  0  0  0  0  0  0  0  0  0  0  0
  152.4584  144.0479  160.1373 C   0  0  0  0  0  0  0  0  0  0  0  0
  152.6305  142.8798  159.1589 C   0  0  0  0  0  0  0  0  0  0  0  0
  150.2792  142.5463  156.3122 N   0  3  0  0  0  0  0  0  0  0  0  0
  149.6797  141.6638  155.4849 C   0  0  0  0  0  0  0  0  0  0  0  0
  147.8121  138.5226  153.2539 N   0  0  0  0  0  0  0  0  0  0  0  0
  146.5417  138.2877  152.5597 C   0  0  1  0  0  0  0  0  0  0  0  0
  146.6593  138.4732  151.0338 C   0  0  0  0  0  0  0  0  0  0  0  0
  145.8384  137.3270  150.4348 C   0  0  0  0  0  0  0  0  0  0  0  0
  146.0291  136.2452  151.4070 N   0  3  2  0  0  0  0  0  0  0  0  0
  145.1841  135.0390  151.2949 C   0  0  0  0  0  0  0  0  0  0  0  0
  145.7006  133.9869  152.2992 C   0  0  0  0  0  0  0  0  0  0  0  0
  145.8154  134.5540  153.7324 C   0  0  0  0  0  0  0  0  0  0  0  0
  146.5995  135.8839  153.7631 C   0  0  0  0  0  0  0  0  0  0  0  0
  145.9768  136.8578  152.7460 C   0  0  1  0  0  0  0  0  0  0  0  0
  149.9651  138.6971  154.2084 H   0  0  0  0  0  0  0  0  0  0  0  0
  151.4546  138.8924  156.4206 H   0  0  0  0  0  0  0  0  0  0  0  0
  152.4831  140.5527  157.8919 H   0  0  0  0  0  0  0  0  0  0  0  0
  151.1308  145.0724  157.2533 H   0  0  0  0  0  0  0  0  0  0  0  0
  150.1321  144.3399  158.5197 H   0  0  0  0  0  0  0  0  0  0  0  0
  152.8363  145.7010  158.8043 H   0  0  0  0  0  0  0  0  0  0  0  0
  151.4062  145.9510  159.8082 H   0  0  0  0  0  0  0  0  0  0  0  0
  153.3731  144.2798  160.6836 H   0  0  0  0  0  0  0  0  0  0  0  0
  151.6863  143.8020  160.8677 H   0  0  0  0  0  0  0  0  0  0  0  0
  152.3299  141.9381  159.6199 H   0  0  0  0  0  0  0  0  0  0  0  0
  153.6702  142.7908  158.8428 H   0  0  0  0  0  0  0  0  0  0  0  0
  148.9138  142.0728  154.8417 H   0  0  0  0  0  0  0  0  0  0  0  0
  148.5538  137.8744  153.0304 H   0  0  0  0  0  0  0  0  0  0  0  0
  145.7967  139.0027  152.9136 H   0  0  0  0  0  0  0  0  0  0  0  0
  146.3114  139.4518  150.7007 H   0  0  0  0  0  0  0  0  0  0  0  0
  147.6991  138.3708  150.7183 H   0  0  0  0  0  0  0  0  0  0  0  0
  144.7821  137.5956  150.3826 H   0  0  0  0  0  0  0  0  0  0  0  0
  146.1746  137.0436  149.4369 H   0  0  0  0  0  0  0  0  0  0  0  0
  144.1412  135.2896  151.4946 H   0  0  0  0  0  0  0  0  0  0  0  0
  145.2347  134.6462  150.2789 H   0  0  0  0  0  0  0  0  0  0  0  0
  145.0485  133.1131  152.2940 H   0  0  0  0  0  0  0  0  0  0  0  0
  146.6822  133.6372  151.9765 H   0  0  0  0  0  0  0  0  0  0  0  0
  144.8143  134.7177  154.1331 H   0  0  0  0  0  0  0  0  0  0  0  0
  146.2914  133.8232  154.3871 H   0  0  0  0  0  0  0  0  0  0  0  0
  146.5668  136.3028  154.7689 H   0  0  0  0  0  0  0  0  0  0  0  0
  147.6491  135.7045  153.5260 H   0  0  0  0  0  0  0  0  0  0  0  0
  144.9233  136.9804  153.0070 H   0  0  0  0  0  0  0  0  0  0  0  0
  146.9826  135.9374  151.2800 H   0  0  0  0  0  0  0  0  0  0  0  0
  149.9774  143.5203  156.2781 H   0  0  0  0  0  0  0  0  0  0  0  0
  1  2  2  0  0  0  0
  2  3  1  0  0  0  0
  2 15  1  0  0  0  0
  3  4  1  0  0  0  0
  3 25  1  0  0  0  0
  4 14  1  0  0  0  0
  4  5  2  0  0  0  0
  5  6  1  0  0  0  0
  5 26  1  0  0  0  0
  6  7  2  0  0  0  0
  6 27  1  0  0  0  0
  7  8  1  0  0  0  0
  7 13  1  0  0  0  0
  8 12  1  0  0  0  0
  8  9  1  0  0  0  0
  9 10  1  0  0  0  0
  9 28  1  0  0  0  0
  9 29  1  0  0  0  0
 10 11  1  0  0  0  0
 10 30  1  0  0  0  0
 10 31  1  0  0  0  0
 11 12  1  0  0  0  0
 11 32  1  0  0  0  0
 11 33  1  0  0  0  0
 12 34  1  0  0  0  0
 12 35  1  0  0  0  0
 13 14  2  0  0  0  0
 13 53  1  0  0  0  0
 14 36  1  0  0  0  0
 15 16  1  0  0  0  0
 15 37  1  0  0  0  0
 16 24  1  0  0  0  0
 16 17  1  0  0  0  0
 16 38  1  0  0  0  0
 17 18  1  0  0  0  0
 17 39  1  0  0  0  0
 17 40  1  0  0  0  0
 18 19  1  0  0  0  0
 18 41  1  0  0  0  0
 18 42  1  0  0  0  0
 19 24  1  0  0  0  0
 19 20  1  0  0  0  0
 19 52  1  0  0  0  0
 20 21  1  0  0  0  0
 20 43  1  0  0  0  0
 20 44  1  0  0  0  0
 21 22  1  0  0  0  0
 21 45  1  0  0  0  0
 21 46  1  0  0  0  0
 22 23  1  0  0  0  0
 22 47  1  0  0  0  0
 22 48  1  0  0  0  0
 23 24  1  0  0  0  0
 23 49  1  0  0  0  0
 23 50  1  0  0  0  0
 24 51  1  0  0  0  0
M  CHG  1  13   1
M  CHG  1  19   1
M  END
> <s_m_source_file>
AV-unprocessed.smi

> <i_m_source_file_index>
1867

> <i_lp_mmshare_version>
43012

> <i_f3d_flags>
0

> <s_epik_input>
W0NIMl0xW0NIMl1bQ0gyXVtDSDJdW0NASF0oTjEyKVtDQEBIXShbQ0gyXVtDSDJdMilbTkhdQyg9TylbTkhdYzNbY0hdW2NIXWMobltjSF0zKU40W0NIMl1bQ0gyXVtDSDJdW0NIMl00

> <s_epik_cmdline>
J2VwaWtfcHl0aG9uJywgJy1waCcsICc3LjAnLCAnLXRuJywgJzgnLCAnLW1hJywgJzIwMCcsICctbWV0YWxfYmluZGluZycsICctaW1hZScsICc8aW5maWxlLm1hZT4nLCAnLW9tYWUnLCAnPG91dGZpbGUubWFlPic=

> <r_lp_tautomer_probability>
0.999994

> <r_epik_Ionization_Penalty>
1.27347

> <r_epik_Ionization_Penalty_Charging>
1.27345

> <r_epik_Ionization_Penalty_Neutral>
1.96458e-05

> <r_epik_State_Penalty>
1.34393

> <r_epik_Charging_Adjusted_Penalty>
2.61738

> <i_epik_Tot_Q>
2

> <i_epik_Tot_abs_Q>
2

> <r_epik_Metal_State_Penalty>
1.41094

> <b_epik_Metal_Only>
0

> <s_lp_Force_Field>
OPLS_2005

> <r_lp_Energy>
85.4694

> <b_lp_Chiralities_Consistent>
1

> <s_lp_Variant>
AV-unprocessed.smi:1867-10

> <Gold.Version>
5.8.1

> <Gold.Id.Protein>
6NUR|6NUR_protein|mol2

> <Gold.PLP.Fitness>
56.2098

> <Gold.PLP.PLP>
-42.5807

> <Gold.PLP.part.hbond>
-3.7054

> <Gold.PLP.part.metal>
0.0000

> <Gold.PLP.part.buried>
6.0364

> <Gold.PLP.part.nonpolar>
-46.4884

> <Gold.PLP.part.repulsive>
0.3957

> <Gold.PLP.ligand.clash>
0.0000

> <Gold.PLP.ligand.torsion>
0.3346

> <Gold.PLP.Chemscore.Hbond>
4.6966

> <Gold.PLP.Chemscore.CHOScore>
0.0000

> <Gold.PLP.Chemscore.Metal>
0.0000

> <Gold.Chemscore.Hbonds>
donor molecule, donor type, donor heavy atom, donor atom, acceptor molecule, acceptor atom, score
      L1  H    13    53       P1  8028  1.98
      L1  H    15    37       P1  7948  0.82
      L1  H    19    52       P1  7948  1.84

> <Gold.PLP.Chemscore.Internal.Correction>
0.2086

> <Gold.Rescore>
     Score         DG    S(hbond)    S(metal)    S(lipo)     H(rot)  DE(clash)    DE(int)     intcor
     21.46     -25.60       2.58        0.00     120.25       1.00       2.54       1.60       ----

> <Gold.Chemscore.Fitness>
21.4593

> <Gold.Chemscore.DG>
-25.5968

> <Gold.Chemscore.ZeroCoef>
-5.4800

> <Gold.Chemscore.Hbond>
2.5771

> <Gold.Chemscore.Metal>
0.0000

> <Gold.Chemscore.Lipo>
120.2497

> <Gold.Chemscore.Internal_Hbond>
0.0000

> <Gold.Chemscore.DEClash>
2.5383

> <Gold.Chemscore.DEInternal>
1.5992

> <Gold.Chemscore.Rot>
1.0000

> <Gold.Chemscore.Internal.Correction>
   9.000000E+99

> <Gold.Chemscore.Hbonds>
donor molecule, donor type, donor heavy atom, donor atom, acceptor molecule, acceptor atom, score
      L1  H    13    53       P1  8028  0.94
      L1  H    15    37       P1  7948  0.77
      L1  H    19    52       P1  7948  0.83

> <Gold.Chemscore.Hbond.Weighted>
-8.6076

> <Gold.Chemscore.Metal.Weighted>
-0.0000

> <Gold.Chemscore.Lipo.Weighted>
-14.0692

> <Gold.Chemscore.Internal_Hbond.Weighted>
0.0000

> <Gold.Chemscore.DEClash.Weighted>
2.5383

> <Gold.Chemscore.DEInternal.Weighted>
1.5992

> <Gold.Chemscore.Rot.Weighted>
2.5600

> <Gold.Chemscore.Internal.Correction.Weighted>
   9.000000E+99

> <Gold.Protein.RotatedTorsions>
[ 6907 6896 6895 6894 ] final    6.83 input  -60.11 | X-H torsion
[ 7974 7965 7964 7962 ] final   -1.30 input  175.53 | X-H torsion
[ 8008 7997 7996 7995 ] final   25.92 input   59.86 | X-H torsion
[ 10167 10162 10161 10158 ] final   97.00 input  -65.29 | X-H torsion
[ 10718 10713 10712 10709 ] final -158.88 input   66.30 | X-H torsion
[ 10763 10752 10751 10750 ] final -144.86 input  -60.55 | X-H torsion
[ 11005 11000 10999 10996 ] final   66.70 input  -57.11 | X-H torsion

> <Gold.Protein.ActiveResidues>
 VAL166  LYS551  ARG553  GLY616  TRP617  ASP618  TYR619  PRO620  LYS621  CYS622 
 ASP623  PHE694  ASN695  SER759  ASP760  ASP761  ALA762  ILE779  LEU786  VAL792 
 PHE793  MET794  SER795  GLU796  ALA797  LYS798  CYS799  TRP800  GLU811  SER814 

> <Gold.Protein.RotatedAtoms>
  151.6801  135.0963  160.0214 H   0  0  0  0  0  0  0  0  0  0  0  0  # atno 6907 bound_to 6896
  152.3840  133.6582  159.6193 H   0  0  0  0  0  0  0  0  0  0  0  0  # atno 6908 bound_to 6896
  150.7770  133.8982  159.3374 H   0  0  0  0  0  0  0  0  0  0  0  0  # atno 6909 bound_to 6896
  146.2418  140.1400  142.8336 H   0  0  0  0  0  0  0  0  0  0  0  0  # atno 7974 bound_to 7965
  155.0191  140.3145  155.4800 H   0  0  0  0  0  0  0  0  0  0  0  0  # atno 8008 bound_to 7997
  156.2895  140.2200  156.5251 H   0  0  0  0  0  0  0  0  0  0  0  0  # atno 8009 bound_to 7997
  154.7467  140.0469  157.0846 H   0  0  0  0  0  0  0  0  0  0  0  0  # atno 8010 bound_to 7997
  139.7842  144.6877  150.9981 H   0  0  0  0  0  0  0  0  0  0  0  0  # atno 10167 bound_to 10162
  156.5604  130.8644  151.2807 H   0  0  0  0  0  0  0  0  0  0  0  0  # atno 10718 bound_to 10713
  154.8409  135.3429  154.6412 H   0  0  0  0  0  0  0  0  0  0  0  0  # atno 10763 bound_to 10752
  153.7023  135.6969  153.5064 H   0  0  0  0  0  0  0  0  0  0  0  0  # atno 10764 bound_to 10752
  153.2513  135.4352  155.0755 H   0  0  0  0  0  0  0  0  0  0  0  0  # atno 10765 bound_to 10752
  139.9815  134.6736  156.0253 H   0  0  0  0  0  0  0  0  0  0  0  0  # atno 11005 bound_to 11000
  145.0254  140.8828  143.5141 LP  0  0  0  0  0  0  0  0  0  0  0  0  # atno 17320 bound_to 7965
  145.1455  139.2546  143.5468 LP  0  0  0  0  0  0  0  0  0  0  0  0  # atno 17321 bound_to 7965
  140.7819  143.4450  151.0496 LP  0  0  0  0  0  0  0  0  0  0  0  0  # atno 17342 bound_to 10162
  139.8129  143.7925  152.3172 LP  0  0  0  0  0  0  0  0  0  0  0  0  # atno 17343 bound_to 10162
  157.7370  130.9788  150.2166 LP  0  0  0  0  0  0  0  0  0  0  0  0  # atno 17370 bound_to 10713
  156.2804  130.3733  149.7941 LP  0  0  0  0  0  0  0  0  0  0  0  0  # atno 17371 bound_to 10713
  141.1487  133.6552  156.3945 LP  0  0  0  0  0  0  0  0  0  0  0  0  # atno 17394 bound_to 11000
  140.5086  134.6416  157.5276 LP  0  0  0  0  0  0  0  0  0  0  0  0  # atno 17395 bound_to 11000

$$$$
