AV-unprocessed.smi:1403|AV-procd|sdf|5700|dock7
  -GOLD-   22720 5333D 1   1.00000     0.00000
 Structure written by MMmdl.
 36 37  0  0  0  0  0  0  0  0  1 V2000
  151.0309  138.7802  158.4961 C   0  0  0  0  0  0  0  0  0  0  0  0
  151.5915  140.1412  158.0561 C   0  0  1  0  0  0  0  0  0  0  0  0
  150.6158  140.7838  157.1793 N   0  0  0  0  0  0  0  0  0  0  0  0
  150.6444  140.7788  155.8377 C   0  0  0  0  0  0  0  0  0  0  0  0
  151.4982  140.1812  155.1810 O   0  0  0  0  0  0  0  0  0  0  0  0
  149.5229  141.5607  155.1387 C   0  0  0  0  0  0  0  0  0  0  0  0
  148.5938  140.6942  154.3986 N   0  0  0  0  0  0  0  0  0  0  0  0
  148.8823  139.3487  154.2197 C   0  0  0  0  0  0  0  0  0  0  0  0
  148.0793  138.4983  153.5374 C   0  0  0  0  0  0  0  0  0  0  0  0
  146.8359  138.9745  152.9409 C   0  0  0  0  0  0  0  0  0  0  0  0
  146.0430  138.2823  152.3065 O   0  0  0  0  0  0  0  0  0  0  0  0
  146.5818  140.3340  153.1409 N   0  0  0  0  0  0  0  0  0  0  0  0
  147.4055  141.2162  153.8418 C   0  0  0  0  0  0  0  0  0  0  0  0
  147.0886  142.3997  153.9561 O   0  0  0  0  0  0  0  0  0  0  0  0
  151.9008  141.0645  159.2528 C   0  0  1  0  0  0  0  0  0  0  0  0
  153.0992  140.6365  160.1022 C   0  0  0  0  0  0  0  0  0  0  0  0
  153.5885  141.9367  160.7223 C   0  0  0  0  0  0  0  0  0  0  0  0
  152.8726  143.0266  159.9211 C   0  0  0  0  0  0  0  0  0  0  0  0
  152.3065  142.3505  158.8089 O   0  0  0  0  0  0  0  0  0  0  0  0
  145.7334  140.7100  152.7430 H   0  0  0  0  0  0  0  0  0  0  0  0
  151.7460  138.2363  159.1135 H   0  0  0  0  0  0  0  0  0  0  0  0
  150.8064  138.1527  157.6331 H   0  0  0  0  0  0  0  0  0  0  0  0
  150.1125  138.8957  159.0726 H   0  0  0  0  0  0  0  0  0  0  0  0
  152.5159  139.9550  157.5063 H   0  0  0  0  0  0  0  0  0  0  0  0
  149.8732  141.2972  157.6307 H   0  0  0  0  0  0  0  0  0  0  0  0
  148.9870  142.1342  155.8965 H   0  0  0  0  0  0  0  0  0  0  0  0
  149.9544  142.3048  154.4659 H   0  0  0  0  0  0  0  0  0  0  0  0
  149.7953  138.9527  154.6406 H   0  0  0  0  0  0  0  0  0  0  0  0
  148.3593  137.4600  153.4314 H   0  0  0  0  0  0  0  0  0  0  0  0
  151.0187  141.1744  159.8871 H   0  0  0  0  0  0  0  0  0  0  0  0
  152.8370  139.8863  160.8489 H   0  0  0  0  0  0  0  0  0  0  0  0
  153.8827  140.2194  159.4679 H   0  0  0  0  0  0  0  0  0  0  0  0
  153.3286  142.0016  161.7793 H   0  0  0  0  0  0  0  0  0  0  0  0
  154.6723  142.0223  160.6365 H   0  0  0  0  0  0  0  0  0  0  0  0
  152.0728  143.4755  160.5117 H   0  0  0  0  0  0  0  0  0  0  0  0
  153.5454  143.8213  159.5981 H   0  0  0  0  0  0  0  0  0  0  0  0
  1  2  1  0  0  0  0
  1 21  1  0  0  0  0
  1 22  1  0  0  0  0
  1 23  1  0  0  0  0
  2  3  1  0  0  0  0
  2 15  1  0  0  0  0
  2 24  1  0  0  0  0
  3  4  1  0  0  0  0
  3 25  1  0  0  0  0
  4  5  2  0  0  0  0
  4  6  1  0  0  0  0
  6  7  1  0  0  0  0
  6 26  1  0  0  0  0
  6 27  1  0  0  0  0
  7 13  1  0  0  0  0
  7  8  1  0  0  0  0
  8  9  2  0  0  0  0
  8 28  1  0  0  0  0
  9 10  1  0  0  0  0
  9 29  1  0  0  0  0
 10 11  2  0  0  0  0
 10 12  1  0  0  0  0
 12 20  1  0  0  0  0
 12 13  1  0  0  0  0
 13 14  2  0  0  0  0
 15 19  1  0  0  0  0
 15 16  1  0  0  0  0
 15 30  1  0  0  0  0
 16 17  1  0  0  0  0
 16 31  1  0  0  0  0
 16 32  1  0  0  0  0
 17 18  1  0  0  0  0
 17 33  1  0  0  0  0
 17 34  1  0  0  0  0
 18 19  1  0  0  0  0
 18 35  1  0  0  0  0
 18 36  1  0  0  0  0
M  END
> <s_m_source_file>
AV-unprocessed.smi

> <i_m_source_file_index>
1403

> <i_lp_mmshare_version>
43012

> <i_f3d_flags>
0

> <s_epik_input>
TzFbQ0gyXVtDSDJdW0NIMl1bQ0BIXTFbQ0BIXShbQ0gzXSlbTkhdQyg9TylbQ0gyXW4yW2NIXVtjSF1jKD1PKVtuSF1jMj1P

> <s_epik_cmdline>
J2VwaWtfcHl0aG9uJywgJy1waCcsICc3LjAnLCAnLXRuJywgJzgnLCAnLW1hJywgJzIwMCcsICctbWV0YWxfYmluZGluZycsICctaW1hZScsICc8aW5maWxlLm1hZT4nLCAnLW9tYWUnLCAnPG91dGZpbGUubWFlPic=

> <r_lp_tautomer_probability>
0.999537

> <r_epik_Ionization_Penalty>
0.00331407

> <r_epik_Ionization_Penalty_Charging>
0.00331405

> <r_epik_Ionization_Penalty_Neutral>
2.30132e-08

> <r_epik_State_Penalty>
0.00234266

> <r_epik_Charging_Adjusted_Penalty>
0.00565671

> <i_epik_Tot_Q>
0

> <i_epik_Tot_abs_Q>
0

> <r_epik_Metal_State_Penalty>
0.365604

> <b_epik_Metal_Only>
0

> <s_lp_Force_Field>
OPLS_2005

> <r_lp_Energy>
17.8488

> <b_lp_Chiralities_Consistent>
1

> <s_lp_Variant>
AV-unprocessed.smi:1403-4

> <Gold.Version>
5.8.1

> <Gold.Id.Protein>
6NUR|6NUR_protein|mol2

> <Gold.PLP.Fitness>
39.4962

> <Gold.PLP.PLP>
-34.4386

> <Gold.PLP.part.hbond>
-2.0000

> <Gold.PLP.part.metal>
0.0000

> <Gold.PLP.part.buried>
-3.4591

> <Gold.PLP.part.nonpolar>
-30.2285

> <Gold.PLP.part.repulsive>
0.5607

> <Gold.PLP.ligand.clash>
0.0000

> <Gold.PLP.ligand.torsion>
0.4835

> <Gold.PLP.Chemscore.Hbond>
2.0000

> <Gold.PLP.Chemscore.CHOScore>
0.0000

> <Gold.PLP.Chemscore.Metal>
0.0000

> <Gold.Chemscore.Hbonds>
donor molecule, donor type, donor heavy atom, donor atom, acceptor molecule, acceptor atom, score
      L1  H    12    20       P1 10175  0.86
      P1  H  7989  7998       L1     5  1.00

> <Gold.PLP.Chemscore.Internal.Correction>
0.0247

> <Gold.Rescore>
     Score         DG    S(hbond)    S(metal)    S(lipo)     H(rot)  DE(clash)    DE(int)     intcor
     12.87     -14.57       1.97        0.00      66.09       2.04       0.10       1.61       ----

> <Gold.Chemscore.Fitness>
12.8655

> <Gold.Chemscore.DG>
-14.5711

> <Gold.Chemscore.ZeroCoef>
-5.4800

> <Gold.Chemscore.Hbond>
1.9701

> <Gold.Chemscore.Metal>
0.0000

> <Gold.Chemscore.Lipo>
66.0872

> <Gold.Chemscore.Internal_Hbond>
0.0000

> <Gold.Chemscore.DEClash>
0.0961

> <Gold.Chemscore.DEInternal>
1.6094

> <Gold.Chemscore.Rot>
2.0395

> <Gold.Chemscore.Internal.Correction>
   9.000000E+99

> <Gold.Chemscore.Hbonds>
donor molecule, donor type, donor heavy atom, donor atom, acceptor molecule, acceptor atom, score
      L1  H    12    20       P1 10175  0.36
      P1  H  7989  7998       L1     5  0.74

> <Gold.Chemscore.Hbond.Weighted>
-6.5800

> <Gold.Chemscore.Metal.Weighted>
-0.0000

> <Gold.Chemscore.Lipo.Weighted>
-7.7322

> <Gold.Chemscore.Internal_Hbond.Weighted>
0.0000

> <Gold.Chemscore.DEClash.Weighted>
0.0961

> <Gold.Chemscore.DEInternal.Weighted>
1.6094

> <Gold.Chemscore.Rot.Weighted>
5.2211

> <Gold.Chemscore.Internal.Correction.Weighted>
   9.000000E+99

> <Gold.Protein.RotatedTorsions>
[ 6907 6896 6895 6894 ] final  175.94 input  -60.11 | X-H torsion
[ 7974 7965 7964 7962 ] final -158.64 input  175.53 | X-H torsion
[ 8008 7997 7996 7995 ] final   91.40 input   59.86 | X-H torsion
[ 10167 10162 10161 10158 ] final -151.08 input  -65.29 | X-H torsion
[ 10718 10713 10712 10709 ] final  115.86 input   66.30 | X-H torsion
[ 10763 10752 10751 10750 ] final   96.24 input  -60.55 | X-H torsion
[ 11005 11000 10999 10996 ] final  111.10 input  -57.11 | X-H torsion

> <Gold.Protein.ActiveResidues>
 VAL166  LYS551  ARG553  GLY616  TRP617  ASP618  TYR619  PRO620  LYS621  CYS622 
 ASP623  PHE694  ASN695  SER759  ASP760  ASP761  ALA762  ILE779  LEU786  VAL792 
 PHE793  MET794  SER795  GLU796  ALA797  LYS798  CYS799  TRP800  GLU811  SER814 

> <Gold.Protein.RotatedAtoms>
  151.7282  133.3317  159.3332 H   0  0  0  0  0  0  0  0  0  0  0  0  # atno 6907 bound_to 6896
  150.7624  134.6387  159.6235 H   0  0  0  0  0  0  0  0  0  0  0  0  # atno 6908 bound_to 6896
  152.3609  134.6876  160.0259 H   0  0  0  0  0  0  0  0  0  0  0  0  # atno 6909 bound_to 6896
  144.7497  140.3799  143.6057 H   0  0  0  0  0  0  0  0  0  0  0  0  # atno 7974 bound_to 7965
  156.0233  140.3338  155.7062 H   0  0  0  0  0  0  0  0  0  0  0  0  # atno 8008 bound_to 7997
  155.5991  140.0654  157.2755 H   0  0  0  0  0  0  0  0  0  0  0  0  # atno 8009 bound_to 7997
  154.4324  140.1813  156.1142 H   0  0  0  0  0  0  0  0  0  0  0  0  # atno 8010 bound_to 7997
  139.7298  143.8825  152.2531 H   0  0  0  0  0  0  0  0  0  0  0  0  # atno 10167 bound_to 10162
  157.6196  131.1018  150.7391 H   0  0  0  0  0  0  0  0  0  0  0  0  # atno 10718 bound_to 10713
  153.2626  135.4225  155.0909 H   0  0  0  0  0  0  0  0  0  0  0  0  # atno 10763 bound_to 10752
  154.8426  135.3453  154.6356 H   0  0  0  0  0  0  0  0  0  0  0  0  # atno 10764 bound_to 10752
  153.6776  135.7040  153.5185 H   0  0  0  0  0  0  0  0  0  0  0  0  # atno 10765 bound_to 10752
  139.8896  134.9500  156.6380 H   0  0  0  0  0  0  0  0  0  0  0  0  # atno 11005 bound_to 11000
  145.6989  139.1656  143.2604 LP  0  0  0  0  0  0  0  0  0  0  0  0  # atno 17320 bound_to 7965
  146.1430  140.7031  142.9358 LP  0  0  0  0  0  0  0  0  0  0  0  0  # atno 17321 bound_to 7965
  139.8745  144.7050  150.8948 LP  0  0  0  0  0  0  0  0  0  0  0  0  # atno 17342 bound_to 10162
  140.7769  143.3711  151.1648 LP  0  0  0  0  0  0  0  0  0  0  0  0  # atno 17343 bound_to 10162
  156.7751  130.4841  149.5411 LP  0  0  0  0  0  0  0  0  0  0  0  0  # atno 17370 bound_to 10713
  156.1334  130.6194  151.0366 LP  0  0  0  0  0  0  0  0  0  0  0  0  # atno 17371 bound_to 10713
  140.7616  133.8813  155.8422 LP  0  0  0  0  0  0  0  0  0  0  0  0  # atno 17394 bound_to 11000
  140.9917  134.1269  157.4401 LP  0  0  0  0  0  0  0  0  0  0  0  0  # atno 17395 bound_to 11000

$$$$
