AV-unprocessed.smi:1060|AV-procd|sdf|4659|dock9
  -GOLD-   22720 3173D 1   1.00000     0.00000
 Structure written by MMmdl.
 36 37  0  0  0  0  0  0  0  0  2 V2000
  150.2985  133.9950  157.3131 O   0  0  0  0  0  0  0  0  0  0  0  0
  149.8626  135.0514  156.8573 C   0  0  0  0  0  0  0  0  0  0  0  0
  150.2631  135.4743  155.4459 C   0  0  0  0  0  0  0  0  0  0  0  0
  150.4746  136.8768  155.4295 O   0  0  0  0  0  0  0  0  0  0  0  0
  151.7640  137.2370  155.8965 C   0  0  0  0  0  0  0  0  0  0  0  0
  151.8232  138.7576  156.0888 C   0  0  1  0  0  0  0  0  0  0  0  0
  150.9171  139.5317  155.1367 C   0  0  0  0  0  0  0  0  0  0  0  0
  150.7529  140.8605  155.8492 C   0  0  0  0  0  0  0  0  0  0  0  0
  150.9503  140.5050  157.3262 C   0  0  0  0  0  0  0  0  0  0  0  0
  151.2994  139.1247  157.3563 O   0  0  0  0  0  0  0  0  0  0  0  0
  149.0654  135.9178  157.5132 N   0  0  0  0  0  0  0  0  0  0  0  0
  148.5351  135.8376  158.8126 C   0  0  0  0  0  0  0  0  0  0  0  0
  148.0843  134.6944  159.3998 C   0  0  0  0  0  0  0  0  0  0  0  0
  147.5401  134.6735  160.7517 C   0  0  0  0  0  0  0  0  0  0  0  0
  146.9617  133.4315  161.4068 C   0  0  0  0  0  0  0  0  0  0  0  0
  147.9080  132.5186  161.6270 F   0  0  0  0  0  0  0  0  0  0  0  0
  146.3869  133.7303  162.5719 F   0  0  0  0  0  0  0  0  0  0  0  0
  146.0376  132.8896  160.6150 F   0  0  0  0  0  0  0  0  0  0  0  0
  147.5134  135.9299  161.3256 C   0  0  0  0  0  0  0  0  0  0  0  0
  147.9421  137.1062  160.8180 N   0  5  0  0  0  0  0  0  0  0  0  0
  148.4564  137.1126  159.5557 C   0  0  0  0  0  0  0  0  0  0  0  0
  148.8545  138.1518  159.0282 O   0  0  0  0  0  0  0  0  0  0  0  0
  151.1716  134.9439  155.1558 H   0  0  0  0  0  0  0  0  0  0  0  0
  149.4776  135.2006  154.7392 H   0  0  0  0  0  0  0  0  0  0  0  0
  151.9448  136.7396  156.8507 H   0  0  0  0  0  0  0  0  0  0  0  0
  152.5393  136.9086  155.2022 H   0  0  0  0  0  0  0  0  0  0  0  0
  152.8489  139.1197  155.9962 H   0  0  0  0  0  0  0  0  0  0  0  0
  151.3381  139.6338  154.1360 H   0  0  0  0  0  0  0  0  0  0  0  0
  149.9486  139.0366  155.0501 H   0  0  0  0  0  0  0  0  0  0  0  0
  151.5253  141.5603  155.5276 H   0  0  0  0  0  0  0  0  0  0  0  0
  149.7817  141.3159  155.6531 H   0  0  0  0  0  0  0  0  0  0  0  0
  151.7523  141.1003  157.7643 H   0  0  0  0  0  0  0  0  0  0  0  0
  150.0457  140.6713  157.9115 H   0  0  0  0  0  0  0  0  0  0  0  0
  148.8456  136.7753  157.0273 H   0  0  0  0  0  0  0  0  0  0  0  0
  148.1036  133.7560  158.8708 H   0  0  0  0  0  0  0  0  0  0  0  0
  147.0776  136.0015  162.3450 H   0  0  0  0  0  0  0  0  0  0  0  0
  1  2  2  0  0  0  0
  2  3  1  0  0  0  0
  2 11  1  0  0  0  0
  3  4  1  0  0  0  0
  3 23  1  0  0  0  0
  3 24  1  0  0  0  0
  4  5  1  0  0  0  0
  5  6  1  0  0  0  0
  5 25  1  0  0  0  0
  5 26  1  0  0  0  0
  6 10  1  0  0  0  0
  6  7  1  0  0  0  0
  6 27  1  0  0  0  0
  7  8  1  0  0  0  0
  7 28  1  0  0  0  0
  7 29  1  0  0  0  0
  8  9  1  0  0  0  0
  8 30  1  0  0  0  0
  8 31  1  0  0  0  0
  9 10  1  0  0  0  0
  9 32  1  0  0  0  0
  9 33  1  0  0  0  0
 11 12  1  0  0  0  0
 11 34  1  0  0  0  0
 12 21  1  0  0  0  0
 12 13  2  0  0  0  0
 13 14  1  0  0  0  0
 13 35  1  0  0  0  0
 14 15  1  0  0  0  0
 14 19  2  0  0  0  0
 15 16  1  0  0  0  0
 15 17  1  0  0  0  0
 15 18  1  0  0  0  0
 19 20  1  0  0  0  0
 19 36  1  0  0  0  0
 20 21  1  0  0  0  0
 21 22  2  0  0  0  0
M  CHG  1  20  -1
M  END
> <s_m_source_file>
AV-unprocessed.smi

> <i_m_source_file_index>
1060

> <i_lp_mmshare_version>
43012

> <i_f3d_flags>
0

> <s_epik_input>
Tz1jMVtuSF1bY0hdYyhDKEYpKEYpRilbY0hdYzFbTkhdQyg9TylbQ0gyXU9bQ0gyXVtDQEBIXTJbQ0gyXVtDSDJdW0NIMl1PMg==

> <s_epik_cmdline>
J2VwaWtfcHl0aG9uJywgJy1waCcsICc3LjAnLCAnLXRuJywgJzgnLCAnLW1hJywgJzIwMCcsICctbWV0YWxfYmluZGluZycsICctaW1hZScsICc8aW5maWxlLm1hZT4nLCAnLW9tYWUnLCAnPG91dGZpbGUubWFlPic=

> <r_epik_Ionization_Penalty>
2.50578

> <r_epik_Ionization_Penalty_Charging>
0.0523173

> <r_epik_Ionization_Penalty_Neutral>
2.45346

> <r_epik_State_Penalty>
2.61512

> <r_epik_Charging_Adjusted_Penalty>
2.66744

> <i_epik_Tot_Q>
-1

> <i_epik_Tot_abs_Q>
1

> <r_epik_Metal_State_Penalty>
0.513209

> <b_epik_Metal_Only>
0

> <s_lp_Force_Field>
OPLS_2005

> <r_lp_Energy>
36.6163

> <b_lp_Chiralities_Consistent>
1

> <s_lp_Variant>
AV-unprocessed.smi:1060-4

> <Gold.Version>
5.8.1

> <Gold.Id.Protein>
6NUR|6NUR_protein|mol2

> <Gold.PLP.Fitness>
43.5091

> <Gold.PLP.PLP>
-33.4407

> <Gold.PLP.part.hbond>
-3.9718

> <Gold.PLP.part.metal>
0.0000

> <Gold.PLP.part.buried>
-2.2200

> <Gold.PLP.part.nonpolar>
-27.4821

> <Gold.PLP.part.repulsive>
0.1706

> <Gold.PLP.ligand.clash>
0.0000

> <Gold.PLP.ligand.torsion>
1.1290

> <Gold.PLP.Chemscore.Hbond>
4.0640

> <Gold.PLP.Chemscore.CHOScore>
0.0000

> <Gold.PLP.Chemscore.Metal>
0.0000

> <Gold.Chemscore.Hbonds>
donor molecule, donor type, donor heavy atom, donor atom, acceptor molecule, acceptor atom, score
      P1  H  6896  6908       L1     1  0.82
      P1  H  6931  6943       L1    20  1.82
      P1  H  6934  6947       L1    20  1.48

> <Gold.PLP.Chemscore.Internal.Correction>
0.1344

> <Gold.Rescore>
     Score         DG    S(hbond)    S(metal)    S(lipo)     H(rot)  DE(clash)    DE(int)     intcor
     13.05     -14.61       1.97        0.00      63.65       1.92       0.32       1.23       ----

> <Gold.Chemscore.Fitness>
13.0517

> <Gold.Chemscore.DG>
-14.6101

> <Gold.Chemscore.ZeroCoef>
-5.4800

> <Gold.Chemscore.Hbond>
1.9747

> <Gold.Chemscore.Metal>
0.0000

> <Gold.Chemscore.Lipo>
63.6529

> <Gold.Chemscore.Internal_Hbond>
0.0000

> <Gold.Chemscore.DEClash>
0.3244

> <Gold.Chemscore.DEInternal>
1.2340

> <Gold.Chemscore.Rot>
1.9190

> <Gold.Chemscore.Internal.Correction>
   9.000000E+99

> <Gold.Chemscore.Hbonds>
donor molecule, donor type, donor heavy atom, donor atom, acceptor molecule, acceptor atom, score
      P1  H  6896  6908       L1     1  0.77
      P1  H  6931  6943       L1    20  0.52
      P1  H  6934  6947       L1    20  0.18

> <Gold.Chemscore.Hbond.Weighted>
-6.5953

> <Gold.Chemscore.Metal.Weighted>
-0.0000

> <Gold.Chemscore.Lipo.Weighted>
-7.4474

> <Gold.Chemscore.Internal_Hbond.Weighted>
0.0000

> <Gold.Chemscore.DEClash.Weighted>
0.3244

> <Gold.Chemscore.DEInternal.Weighted>
1.2340

> <Gold.Chemscore.Rot.Weighted>
4.9126

> <Gold.Chemscore.Internal.Correction.Weighted>
   9.000000E+99

> <Gold.Protein.RotatedTorsions>
[ 6907 6896 6895 6894 ] final  114.77 input  -60.11 | X-H torsion
[ 7974 7965 7964 7962 ] final  125.02 input  175.53 | X-H torsion
[ 8008 7997 7996 7995 ] final  -51.43 input   59.86 | X-H torsion
[ 10167 10162 10161 10158 ] final -163.05 input  -65.29 | X-H torsion
[ 10718 10713 10712 10709 ] final -123.33 input   66.30 | X-H torsion
[ 10763 10752 10751 10750 ] final  118.72 input  -60.55 | X-H torsion
[ 11005 11000 10999 10996 ] final  -49.20 input  -57.11 | X-H torsion

> <Gold.Protein.ActiveResidues>
 VAL166  LYS551  ARG553  GLY616  TRP617  ASP618  TYR619  PRO620  LYS621  CYS622 
 ASP623  PHE694  ASN695  SER759  ASP760  ASP761  ALA762  ILE779  LEU786  VAL792 
 PHE793  MET794  SER795  GLU796  ALA797  LYS798  CYS799  TRP800  GLU811  SER814 

> <Gold.Protein.RotatedAtoms>
  152.4782  133.8190  159.7043 H   0  0  0  0  0  0  0  0  0  0  0  0  # atno 6907 bound_to 6896
  150.8814  133.7358  159.2937 H   0  0  0  0  0  0  0  0  0  0  0  0  # atno 6908 bound_to 6896
  151.4861  135.1058  159.9843 H   0  0  0  0  0  0  0  0  0  0  0  0  # atno 6909 bound_to 6896
  145.0778  139.3680  143.4925 H   0  0  0  0  0  0  0  0  0  0  0  0  # atno 7974 bound_to 7965
  154.4083  140.1248  156.4828 H   0  0  0  0  0  0  0  0  0  0  0  0  # atno 8008 bound_to 7997
  155.7068  140.3494  155.4937 H   0  0  0  0  0  0  0  0  0  0  0  0  # atno 8009 bound_to 7997
  155.9336  140.1074  157.1102 H   0  0  0  0  0  0  0  0  0  0  0  0  # atno 8010 bound_to 7997
  139.6348  144.0370  152.2045 H   0  0  0  0  0  0  0  0  0  0  0  0  # atno 10167 bound_to 10162
  156.1493  130.6523  150.9889 H   0  0  0  0  0  0  0  0  0  0  0  0  # atno 10718 bound_to 10713
  153.5720  135.3500  155.2841 H   0  0  0  0  0  0  0  0  0  0  0  0  # atno 10763 bound_to 10752
  154.8680  135.4161  154.2714 H   0  0  0  0  0  0  0  0  0  0  0  0  # atno 10764 bound_to 10752
  153.3482  135.7053  153.6880 H   0  0  0  0  0  0  0  0  0  0  0  0  # atno 10765 bound_to 10752
  141.0745  133.6669  156.3551 H   0  0  0  0  0  0  0  0  0  0  0  0  # atno 11005 bound_to 11000
  146.3530  140.0554  142.8633 LP  0  0  0  0  0  0  0  0  0  0  0  0  # atno 17320 bound_to 7965
  145.1215  140.9465  143.4598 LP  0  0  0  0  0  0  0  0  0  0  0  0  # atno 17321 bound_to 7965
  140.0045  144.6269  150.7701 LP  0  0  0  0  0  0  0  0  0  0  0  0  # atno 17342 bound_to 10162
  140.7459  143.2883  151.3401 LP  0  0  0  0  0  0  0  0  0  0  0  0  # atno 17343 bound_to 10162
  157.6643  131.0874  150.7764 LP  0  0  0  0  0  0  0  0  0  0  0  0  # atno 17370 bound_to 10713
  156.7834  130.4866  149.5397 LP  0  0  0  0  0  0  0  0  0  0  0  0  # atno 17371 bound_to 10713
  140.5603  134.5941  157.5432 LP  0  0  0  0  0  0  0  0  0  0  0  0  # atno 17394 bound_to 11000
  139.9557  134.7538  156.0346 LP  0  0  0  0  0  0  0  0  0  0  0  0  # atno 17395 bound_to 11000

$$$$
