AV-unprocessed.smi:945|AV-procd|sdf|4233|dock6
  -GOLD-   22720 2143D 1   1.00000     0.00000
 Structure written by MMmdl.
 31 32  0  0  0  0  0  0  0  0  1 V2000
  154.0671  140.3237  160.3887 C   0  0  0  0  0  0  0  0  0  0  0  0
  153.8873  141.4600  161.4011 C   0  0  0  0  0  0  0  0  0  0  0  0
  152.9602  142.5213  160.9108 C   0  0  0  0  0  0  0  0  0  0  0  0
  152.4707  142.5538  159.6685 N   0  0  0  0  0  0  0  0  0  0  0  0
  151.6544  143.6660  159.4400 C   0  0  0  0  0  0  0  0  0  0  0  0
  151.0229  143.8664  158.0960 C   0  0  0  0  0  0  0  0  0  0  0  0
  151.3115  142.6948  157.1428 C   0  0  0  0  0  0  0  0  0  0  0  0
  150.2625  142.5397  156.1415 N   0  0  0  0  0  0  0  0  0  0  0  0
  150.1628  141.5165  155.2795 C   0  0  0  0  0  0  0  0  0  0  0  0
  150.9751  140.5909  155.2397 O   0  0  0  0  0  0  0  0  0  0  0  0
  148.9769  141.6000  154.3749 C   0  0  0  0  0  0  0  0  0  0  0  0
  147.6051  141.6115  155.0181 C   0  0  0  0  0  0  0  0  0  0  0  0
  148.0765  140.3852  154.2782 C   0  0  0  0  0  0  0  0  0  0  0  0
  151.5399  144.4870  160.5340 C   0  0  0  0  0  0  0  0  0  0  0  0
  152.4591  143.8948  161.8903 S   0  0  0  0  0  0  0  0  0  0  0  0
  154.7476  139.5642  160.7736 H   0  0  0  0  0  0  0  0  0  0  0  0
  154.4774  140.6947  159.4490 H   0  0  0  0  0  0  0  0  0  0  0  0
  153.1154  139.8381  160.1703 H   0  0  0  0  0  0  0  0  0  0  0  0
  153.5041  141.0636  162.3420 H   0  0  0  0  0  0  0  0  0  0  0  0
  154.8528  141.9150  161.6238 H   0  0  0  0  0  0  0  0  0  0  0  0
  149.9445  143.9879  158.2078 H   0  0  0  0  0  0  0  0  0  0  0  0
  151.3835  144.7965  157.6554 H   0  0  0  0  0  0  0  0  0  0  0  0
  152.2783  142.8294  156.6544 H   0  0  0  0  0  0  0  0  0  0  0  0
  151.3767  141.7641  157.7071 H   0  0  0  0  0  0  0  0  0  0  0  0
  149.5544  143.2590  156.1083 H   0  0  0  0  0  0  0  0  0  0  0  0
  149.0962  142.1934  153.4697 H   0  0  0  0  0  0  0  0  0  0  0  0
  147.5382  141.5460  156.1028 H   0  0  0  0  0  0  0  0  0  0  0  0
  146.8441  142.2309  154.5477 H   0  0  0  0  0  0  0  0  0  0  0  0
  147.6360  140.1744  153.3061 H   0  0  0  0  0  0  0  0  0  0  0  0
  148.3211  139.5064  154.8722 H   0  0  0  0  0  0  0  0  0  0  0  0
  150.9784  145.4055  160.6211 H   0  0  0  0  0  0  0  0  0  0  0  0
  1  2  1  0  0  0  0
  1 16  1  0  0  0  0
  1 17  1  0  0  0  0
  1 18  1  0  0  0  0
  2  3  1  0  0  0  0
  2 19  1  0  0  0  0
  2 20  1  0  0  0  0
  3 15  1  0  0  0  0
  3  4  2  0  0  0  0
  4  5  1  0  0  0  0
  5  6  1  0  0  0  0
  5 14  2  0  0  0  0
  6  7  1  0  0  0  0
  6 21  1  0  0  0  0
  6 22  1  0  0  0  0
  7  8  1  0  0  0  0
  7 23  1  0  0  0  0
  7 24  1  0  0  0  0
  8  9  1  0  0  0  0
  8 25  1  0  0  0  0
  9 10  2  0  0  0  0
  9 11  1  0  0  0  0
 11 13  1  0  0  0  0
 11 12  1  0  0  0  0
 11 26  1  0  0  0  0
 12 13  1  0  0  0  0
 12 27  1  0  0  0  0
 12 28  1  0  0  0  0
 13 29  1  0  0  0  0
 13 30  1  0  0  0  0
 14 15  1  0  0  0  0
 14 31  1  0  0  0  0
M  END
> <s_m_source_file>
AV-unprocessed.smi

> <i_m_source_file_index>
945

> <i_lp_mmshare_version>
43012

> <i_f3d_flags>
0

> <s_epik_input>
W0NIM11bQ0gyXWMxbmMoW2NIXXMxKVtDSDJdW0NIMl1bTkhdQyg9TylbQ0hdMltDSDJdW0NIMl0y

> <s_epik_cmdline>
J2VwaWtfcHl0aG9uJywgJy1waCcsICc3LjAnLCAnLXRuJywgJzgnLCAnLW1hJywgJzIwMCcsICctbWV0YWxfYmluZGluZycsICctaW1hZScsICc8aW5maWxlLm1hZT4nLCAnLW9tYWUnLCAnPG91dGZpbGUubWFlPic=

> <r_epik_Ionization_Penalty>
0.00109668

> <r_epik_Ionization_Penalty_Charging>
0

> <r_epik_Ionization_Penalty_Neutral>
0.00109668

> <r_epik_State_Penalty>
0.000719322

> <r_epik_Charging_Adjusted_Penalty>
0.000719322

> <i_epik_Tot_Q>
0

> <i_epik_Tot_abs_Q>
0

> <r_epik_Metal_State_Penalty>
-0

> <b_epik_Metal_Only>
0

> <s_lp_Force_Field>
OPLS_2005

> <r_lp_Energy>
-3.93776

> <b_lp_Chiralities_Consistent>
1

> <s_lp_Variant>
AV-unprocessed.smi:945-1

> <Gold.Version>
5.8.1

> <Gold.Id.Protein>
6NUR|6NUR_protein|mol2

> <Gold.PLP.Fitness>
43.4594

> <Gold.PLP.PLP>
-38.2072

> <Gold.PLP.part.hbond>
-2.0000

> <Gold.PLP.part.metal>
0.0000

> <Gold.PLP.part.buried>
-3.8746

> <Gold.PLP.part.nonpolar>
-30.9334

> <Gold.PLP.part.repulsive>
0.1653

> <Gold.PLP.ligand.clash>
0.0000

> <Gold.PLP.ligand.torsion>
0.3206

> <Gold.PLP.Chemscore.Hbond>
1.9280

> <Gold.PLP.Chemscore.CHOScore>
0.0000

> <Gold.PLP.Chemscore.Metal>
0.0000

> <Gold.Chemscore.Hbonds>
donor molecule, donor type, donor heavy atom, donor atom, acceptor molecule, acceptor atom, score
      L1  H     8    25       P1  8028  1.00
      P1  H  7989  7998       L1    10  0.84

> <Gold.PLP.Chemscore.Internal.Correction>
0.1094

> <Gold.Rescore>
     Score         DG    S(hbond)    S(metal)    S(lipo)     H(rot)  DE(clash)    DE(int)     intcor
     18.30     -18.77       1.59        0.00     102.73       1.58       0.16       0.31       ----

> <Gold.Chemscore.Fitness>
18.2990

> <Gold.Chemscore.DG>
-18.7717

> <Gold.Chemscore.ZeroCoef>
-5.4800

> <Gold.Chemscore.Hbond>
1.5887

> <Gold.Chemscore.Metal>
0.0000

> <Gold.Chemscore.Lipo>
102.7338

> <Gold.Chemscore.Internal_Hbond>
0.0000

> <Gold.Chemscore.DEClash>
0.1610

> <Gold.Chemscore.DEInternal>
0.3117

> <Gold.Chemscore.Rot>
1.5760

> <Gold.Chemscore.Internal.Correction>
   9.000000E+99

> <Gold.Chemscore.Hbonds>
donor molecule, donor type, donor heavy atom, donor atom, acceptor molecule, acceptor atom, score
      L1  H     8    25       P1  8028  0.98
      P1  H  7989  7998       L1    10  0.16

> <Gold.Chemscore.Hbond.Weighted>
-5.3064

> <Gold.Chemscore.Metal.Weighted>
-0.0000

> <Gold.Chemscore.Lipo.Weighted>
-12.0199

> <Gold.Chemscore.Internal_Hbond.Weighted>
0.0000

> <Gold.Chemscore.DEClash.Weighted>
0.1610

> <Gold.Chemscore.DEInternal.Weighted>
0.3117

> <Gold.Chemscore.Rot.Weighted>
4.0346

> <Gold.Chemscore.Internal.Correction.Weighted>
   9.000000E+99

> <Gold.Protein.RotatedTorsions>
[ 6907 6896 6895 6894 ] final  170.17 input  -60.11 | X-H torsion
[ 7974 7965 7964 7962 ] final   35.05 input  175.53 | X-H torsion
[ 8008 7997 7996 7995 ] final   34.24 input   59.86 | X-H torsion
[ 10167 10162 10161 10158 ] final -109.32 input  -65.29 | X-H torsion
[ 10718 10713 10712 10709 ] final   27.65 input   66.30 | X-H torsion
[ 10763 10752 10751 10750 ] final  110.28 input  -60.55 | X-H torsion
[ 11005 11000 10999 10996 ] final  -17.60 input  -57.11 | X-H torsion

> <Gold.Protein.ActiveResidues>
 VAL166  LYS551  ARG553  GLY616  TRP617  ASP618  TYR619  PRO620  LYS621  CYS622 
 ASP623  PHE694  ASN695  SER759  ASP760  ASP761  ALA762  ILE779  LEU786  VAL792 
 PHE793  MET794  SER795  GLU796  ALA797  LYS798  CYS799  TRP800  GLU811  SER814 

> <Gold.Protein.RotatedAtoms>
  151.8203  133.3394  159.3581 H   0  0  0  0  0  0  0  0  0  0  0  0  # atno 6907 bound_to 6896
  150.7297  134.5580  159.5837 H   0  0  0  0  0  0  0  0  0  0  0  0  # atno 6908 bound_to 6896
  152.3010  134.7611  160.0409 H   0  0  0  0  0  0  0  0  0  0  0  0  # atno 6909 bound_to 6896
  146.1310  139.6191  142.9227 H   0  0  0  0  0  0  0  0  0  0  0  0  # atno 7974 bound_to 7965
  155.1516  140.3275  155.4430 H   0  0  0  0  0  0  0  0  0  0  0  0  # atno 8008 bound_to 7997
  156.2572  140.1976  156.6578 H   0  0  0  0  0  0  0  0  0  0  0  0  # atno 8009 bound_to 7997
  154.6469  140.0563  156.9897 H   0  0  0  0  0  0  0  0  0  0  0  0  # atno 8010 bound_to 7997
  140.1566  143.4155  152.1456 H   0  0  0  0  0  0  0  0  0  0  0  0  # atno 10167 bound_to 10162
  157.2231  130.6988  149.6279 H   0  0  0  0  0  0  0  0  0  0  0  0  # atno 10718 bound_to 10713
  153.4467  135.3753  155.2260 H   0  0  0  0  0  0  0  0  0  0  0  0  # atno 10763 bound_to 10752
  154.8755  135.3876  154.4088 H   0  0  0  0  0  0  0  0  0  0  0  0  # atno 10764 bound_to 10752
  153.4641  135.7087  153.6096 H   0  0  0  0  0  0  0  0  0  0  0  0  # atno 10765 bound_to 10752
  140.8185  133.8086  155.9635 H   0  0  0  0  0  0  0  0  0  0  0  0  # atno 11005 bound_to 11000
  145.5261  141.0429  143.2409 LP  0  0  0  0  0  0  0  0  0  0  0  0  # atno 17320 bound_to 7965
  144.7690  139.6778  143.7202 LP  0  0  0  0  0  0  0  0  0  0  0  0  # atno 17321 bound_to 7965
  139.5401  144.7248  151.4763 LP  0  0  0  0  0  0  0  0  0  0  0  0  # atno 17342 bound_to 10162
  140.6669  143.8377  150.6953 LP  0  0  0  0  0  0  0  0  0  0  0  0  # atno 17343 bound_to 10162
  155.9681  130.4513  150.5732 LP  0  0  0  0  0  0  0  0  0  0  0  0  # atno 17370 bound_to 10713
  157.3556  131.0741  151.1678 LP  0  0  0  0  0  0  0  0  0  0  0  0  # atno 17371 bound_to 10713
  140.9124  134.2244  157.4977 LP  0  0  0  0  0  0  0  0  0  0  0  0  # atno 17394 bound_to 11000
  139.8710  134.9756  156.4889 LP  0  0  0  0  0  0  0  0  0  0  0  0  # atno 17395 bound_to 11000

$$$$
