AV-unprocessed.smi:1213|AV-procd|sdf|5085|dock3
  -GOLD-   22720 4133D 1   1.00000     0.00000
 Structure written by MMmdl.
 37 38  0  0  0  0  0  0  0  0  2 V2000
  142.8491  132.9010  148.0550 N   0  0  0  0  0  0  0  0  0  0  0  0
  143.8227  132.4451  148.8458 C   0  0  0  0  0  0  0  0  0  0  0  0
  144.9228  132.1140  148.4071 O   0  0  0  0  0  0  0  0  0  0  0  0
  143.5036  132.3301  150.3398 C   0  0  0  0  0  0  0  0  0  0  0  0
  144.2652  133.2984  151.1703 N   0  3  2  0  0  0  0  0  0  0  0  0
  144.0796  134.7019  150.7219 C   0  0  0  0  0  0  0  0  0  0  0  0
  144.7554  135.6871  151.6906 C   0  0  0  0  0  0  0  0  0  0  0  0
  146.2498  135.3675  151.8580 C   0  0  1  0  0  0  0  0  0  0  0  0
  146.8410  136.2637  152.8474 N   0  0  0  0  0  0  0  0  0  0  0  0
  147.0100  137.5845  152.6871 C   0  0  0  0  0  0  0  0  0  0  0  0
  146.6808  138.1904  151.6670 O   0  0  0  0  0  0  0  0  0  0  0  0
  147.5784  138.1386  153.7725 N   0  0  0  0  0  0  0  0  0  0  0  0
  147.9151  139.5009  153.9876 C   0  0  0  0  0  0  0  0  0  0  0  0
  149.0418  139.9156  154.5787 N   0  0  0  0  0  0  0  0  0  0  0  0
  149.1110  141.3090  154.6558 C   0  0  0  0  0  0  0  0  0  0  0  0
  148.0201  141.9435  154.1159 C   0  0  0  0  0  0  0  0  0  0  0  0
  146.8563  140.8100  153.4833 S   0  0  0  0  0  0  0  0  0  0  0  0
  146.4180  133.8959  152.2795 C   0  0  0  0  0  0  0  0  0  0  0  0
  145.7063  132.9523  151.2964 C   0  0  0  0  0  0  0  0  0  0  0  0
  143.0125  132.9918  147.0622 H   0  0  0  0  0  0  0  0  0  0  0  0
  141.9521  133.1524  148.4451 H   0  0  0  0  0  0  0  0  0  0  0  0
  142.4327  132.4470  150.5149 H   0  0  0  0  0  0  0  0  0  0  0  0
  143.7601  131.3117  150.6348 H   0  0  0  0  0  0  0  0  0  0  0  0
  144.4860  134.8212  149.7162 H   0  0  0  0  0  0  0  0  0  0  0  0
  143.0152  134.9330  150.6640 H   0  0  0  0  0  0  0  0  0  0  0  0
  144.6293  136.7072  151.3253 H   0  0  0  0  0  0  0  0  0  0  0  0
  144.2545  135.6414  152.6590 H   0  0  0  0  0  0  0  0  0  0  0  0
  146.7428  135.5225  150.8961 H   0  0  0  0  0  0  0  0  0  0  0  0
  147.1399  135.8491  153.7182 H   0  0  0  0  0  0  0  0  0  0  0  0
  147.7951  137.5146  154.5354 H   0  0  0  0  0  0  0  0  0  0  0  0
  149.9756  141.7669  155.1129 H   0  0  0  0  0  0  0  0  0  0  0  0
  147.8316  143.0049  154.0520 H   0  0  0  0  0  0  0  0  0  0  0  0
  147.4759  133.6361  152.3325 H   0  0  0  0  0  0  0  0  0  0  0  0
  146.0131  133.7468  153.2817 H   0  0  0  0  0  0  0  0  0  0  0  0
  145.8186  131.9252  151.6444 H   0  0  0  0  0  0  0  0  0  0  0  0
  146.1827  133.0059  150.3160 H   0  0  0  0  0  0  0  0  0  0  0  0
  143.8671  133.2421  152.0973 H   0  0  0  0  0  0  0  0  0  0  0  0
  1  2  1  0  0  0  0
  1 20  1  0  0  0  0
  1 21  1  0  0  0  0
  2  3  2  0  0  0  0
  2  4  1  0  0  0  0
  4  5  1  0  0  0  0
  4 22  1  0  0  0  0
  4 23  1  0  0  0  0
  5 19  1  0  0  0  0
  5  6  1  0  0  0  0
  5 37  1  0  0  0  0
  6  7  1  0  0  0  0
  6 24  1  0  0  0  0
  6 25  1  0  0  0  0
  7  8  1  0  0  0  0
  7 26  1  0  0  0  0
  7 27  1  0  0  0  0
  8  9  1  0  0  0  0
  8 18  1  0  0  0  0
  8 28  1  0  0  0  0
  9 10  1  0  0  0  0
  9 29  1  0  0  0  0
 10 11  2  0  0  0  0
 10 12  1  0  0  0  0
 12 13  1  0  0  0  0
 12 30  1  0  0  0  0
 13 17  1  0  0  0  0
 13 14  2  0  0  0  0
 14 15  1  0  0  0  0
 15 16  2  0  0  0  0
 15 31  1  0  0  0  0
 16 17  1  0  0  0  0
 16 32  1  0  0  0  0
 18 19  1  0  0  0  0
 18 33  1  0  0  0  0
 18 34  1  0  0  0  0
 19 35  1  0  0  0  0
 19 36  1  0  0  0  0
M  CHG  1   5   1
M  END
> <s_m_source_file>
AV-unprocessed.smi

> <i_m_source_file_index>
1213

> <i_lp_mmshare_version>
43012

> <i_f3d_flags>
0

> <s_epik_input>
W05IMl1DKD1PKVtDSDJdTjFbQ0gyXVtDSDJdW0NIXShbQ0gyXVtDSDJdMSlbTkhdQyg9TylbTkhdYzJuW2NIXVtjSF1zMg==

> <s_epik_cmdline>
J2VwaWtfcHl0aG9uJywgJy1waCcsICc3LjAnLCAnLXRuJywgJzgnLCAnLW1hJywgJzIwMCcsICctbWV0YWxfYmluZGluZycsICctaW1hZScsICc8aW5maWxlLm1hZT4nLCAnLW9tYWUnLCAnPG91dGZpbGUubWFlPic=

> <r_lp_tautomer_probability>
0.999

> <r_epik_Ionization_Penalty>
0.86253

> <r_epik_Ionization_Penalty_Charging>
0.862349

> <r_epik_Ionization_Penalty_Neutral>
0.000180085

> <r_epik_State_Penalty>
0.898939

> <r_epik_Charging_Adjusted_Penalty>
1.76129

> <i_epik_Tot_Q>
1

> <i_epik_Tot_abs_Q>
1

> <r_epik_Metal_State_Penalty>
0.948529

> <b_epik_Metal_Only>
0

> <s_lp_Force_Field>
OPLS_2005

> <r_lp_Energy>
9.96379

> <b_lp_Chiralities_Consistent>
1

> <s_lp_Variant>
AV-unprocessed.smi:1213-2

> <Gold.Version>
5.8.1

> <Gold.Id.Protein>
6NUR|6NUR_protein|mol2

> <Gold.PLP.Fitness>
37.4987

> <Gold.PLP.PLP>
-29.8247

> <Gold.PLP.part.hbond>
-5.0433

> <Gold.PLP.part.metal>
0.0000

> <Gold.PLP.part.buried>
1.3602

> <Gold.PLP.part.nonpolar>
-28.7255

> <Gold.PLP.part.repulsive>
2.7355

> <Gold.PLP.ligand.clash>
0.0000

> <Gold.PLP.ligand.torsion>
0.5036

> <Gold.PLP.Chemscore.Hbond>
1.9735

> <Gold.PLP.Chemscore.CHOScore>
0.9130

> <Gold.PLP.Chemscore.Metal>
0.0000

> <Gold.Chemscore.Hbonds>
donor molecule, donor type, donor heavy atom, donor atom, acceptor molecule, acceptor atom, score
      L1  H     1    20       P1 10195  0.64
      L1  H     1    21       P1 10186  0.93
      P1  H  7954  7966       L1    11  0.24
      L1  C    16    32       P1  8028  0.89

> <Gold.PLP.Chemscore.Internal.Correction>
0.0217

> <Gold.Rescore>
     Score         DG    S(hbond)    S(metal)    S(lipo)     H(rot)  DE(clash)    DE(int)     intcor
      9.95     -14.28       2.11        0.00      59.98       2.06       3.78       0.55       ----

> <Gold.Chemscore.Fitness>
9.9479

> <Gold.Chemscore.DG>
-14.2770

> <Gold.Chemscore.ZeroCoef>
-5.4800

> <Gold.Chemscore.Hbond>
2.1139

> <Gold.Chemscore.Metal>
0.0000

> <Gold.Chemscore.Lipo>
59.9839

> <Gold.Chemscore.Internal_Hbond>
0.0000

> <Gold.Chemscore.DEClash>
3.7793

> <Gold.Chemscore.DEInternal>
0.5498

> <Gold.Chemscore.Rot>
2.0631

> <Gold.Chemscore.Internal.Correction>
   9.000000E+99

> <Gold.Chemscore.Hbonds>
donor molecule, donor type, donor heavy atom, donor atom, acceptor molecule, acceptor atom, score
      L1  H     1    20       P1 10195  0.63
      L1  H     1    21       P1 10186  0.89
      P1  H  7954  7966       L1    11  0.21

> <Gold.Chemscore.Hbond.Weighted>
-7.0605

> <Gold.Chemscore.Metal.Weighted>
-0.0000

> <Gold.Chemscore.Lipo.Weighted>
-7.0181

> <Gold.Chemscore.Internal_Hbond.Weighted>
0.0000

> <Gold.Chemscore.DEClash.Weighted>
3.7793

> <Gold.Chemscore.DEInternal.Weighted>
0.5498

> <Gold.Chemscore.Rot.Weighted>
5.2816

> <Gold.Chemscore.Internal.Correction.Weighted>
   9.000000E+99

> <Gold.Protein.RotatedTorsions>
[ 6907 6896 6895 6894 ] final    9.87 input  -60.11 | X-H torsion
[ 7974 7965 7964 7962 ] final   62.37 input  175.53 | X-H torsion
[ 8008 7997 7996 7995 ] final   87.06 input   59.86 | X-H torsion
[ 10167 10162 10161 10158 ] final  -67.05 input  -65.29 | X-H torsion
[ 10718 10713 10712 10709 ] final   76.81 input   66.30 | X-H torsion
[ 10763 10752 10751 10750 ] final   25.88 input  -60.55 | X-H torsion
[ 11005 11000 10999 10996 ] final -156.12 input  -57.11 | X-H torsion

> <Gold.Protein.ActiveResidues>
 VAL166  LYS551  ARG553  GLY616  TRP617  ASP618  TYR619  PRO620  LYS621  CYS622 
 ASP623  PHE694  ASN695  SER759  ASP760  ASP761  ALA762  ILE779  LEU786  VAL792 
 PHE793  MET794  SER795  GLU796  ALA797  LYS798  CYS799  TRP800  GLU811  SER814 

> <Gold.Protein.RotatedAtoms>
  151.7291  135.0878  160.0296 H   0  0  0  0  0  0  0  0  0  0  0  0  # atno 6907 bound_to 6896
  152.3553  133.6225  159.5983 H   0  0  0  0  0  0  0  0  0  0  0  0  # atno 6908 bound_to 6896
  150.7567  133.9426  159.3502 H   0  0  0  0  0  0  0  0  0  0  0  0  # atno 6909 bound_to 6896
  145.8741  139.3398  143.0745 H   0  0  0  0  0  0  0  0  0  0  0  0  # atno 7974 bound_to 7965
  155.9706  140.3386  155.6572 H   0  0  0  0  0  0  0  0  0  0  0  0  # atno 8008 bound_to 7997
  155.6679  140.0723  157.2548 H   0  0  0  0  0  0  0  0  0  0  0  0  # atno 8009 bound_to 7997
  154.4165  140.1697  156.1835 H   0  0  0  0  0  0  0  0  0  0  0  0  # atno 8010 bound_to 7997
  140.5612  143.2313  151.6724 H   0  0  0  0  0  0  0  0  0  0  0  0  # atno 10167 bound_to 10162
  157.6687  130.9792  150.1550 H   0  0  0  0  0  0  0  0  0  0  0  0  # atno 10718 bound_to 10713
  153.0661  135.6573  154.0352 H   0  0  0  0  0  0  0  0  0  0  0  0  # atno 10763 bound_to 10752
  154.0008  135.2937  155.3404 H   0  0  0  0  0  0  0  0  0  0  0  0  # atno 10764 bound_to 10752
  154.7019  135.5241  153.8608 H   0  0  0  0  0  0  0  0  0  0  0  0  # atno 10765 bound_to 10752
  140.6791  134.4164  157.5227 H   0  0  0  0  0  0  0  0  0  0  0  0  # atno 11005 bound_to 11000
  145.9101  140.9185  143.0458 LP  0  0  0  0  0  0  0  0  0  0  0  0  # atno 17320 bound_to 7965
  144.6726  140.1149  143.7453 LP  0  0  0  0  0  0  0  0  0  0  0  0  # atno 17321 bound_to 7965
  139.5071  144.3659  152.0518 LP  0  0  0  0  0  0  0  0  0  0  0  0  # atno 17342 bound_to 10162
  140.2785  144.3885  150.6127 LP  0  0  0  0  0  0  0  0  0  0  0  0  # atno 17343 bound_to 10162
  156.2340  130.3684  149.8412 LP  0  0  0  0  0  0  0  0  0  0  0  0  # atno 17370 bound_to 10713
  156.6231  130.8634  151.3479 LP  0  0  0  0  0  0  0  0  0  0  0  0  # atno 17371 bound_to 10713
  139.8957  134.8676  156.2118 LP  0  0  0  0  0  0  0  0  0  0  0  0  # atno 17394 bound_to 11000
  141.0332  133.6977  156.1466 LP  0  0  0  0  0  0  0  0  0  0  0  0  # atno 17395 bound_to 11000

$$$$
