AV-unprocessed.smi:1240|AV-procd|sdf|5214|dock1
  -GOLD-   22720 4303D 1   1.00000     0.00000
 Structure written by MMmdl.
 48 50  0  0  0  0  0  0  0  0  4 V2000
  145.9112  134.0199  154.8943 O   0  0  0  0  0  0  0  0  0  0  0  0
  146.9135  133.6506  154.2720 C   0  0  0  0  0  0  0  0  0  0  0  0
  148.1814  133.5172  154.7450 N   0  5  0  0  0  0  0  0  0  0  0  0
  149.2376  134.5243  154.6264 C   0  0  0  0  0  0  0  0  0  0  0  0
  148.8422  135.8468  155.3746 C   0  0  1  0  0  0  0  0  0  0  0  0
  149.1069  135.8288  156.9167 C   0  0  1  0  0  0  0  0  0  0  0  0
  148.3530  136.9056  157.6846 C   0  0  0  0  0  0  0  0  0  0  0  0
  148.4460  136.4099  159.1219 C   0  0  0  0  0  0  0  0  0  0  0  0
  148.4050  134.9923  159.0326 O   0  0  0  0  0  0  0  0  0  0  0  0
  148.6270  134.5843  157.6861 C   0  0  0  0  0  0  0  0  0  0  0  0
  149.4356  137.0959  154.7783 N   0  3  0  0  0  0  0  0  0  0  0  0
  148.7607  138.3960  155.0542 C   0  0  0  0  0  0  0  0  0  0  0  0
  149.3298  139.4839  154.1295 C   0  0  0  0  0  0  0  0  0  0  0  0
  150.7386  139.5752  154.3072 O   0  0  0  0  0  0  0  0  0  0  0  0
  151.4028  138.3633  153.9681 C   0  0  0  0  0  0  0  0  0  0  0  0
  150.9135  137.2281  154.8823 C   0  0  0  0  0  0  0  0  0  0  0  0
  146.8270  133.3428  152.9653 N   0  0  0  0  0  0  0  0  0  0  0  0
  145.6949  133.4003  152.1087 C   0  0  0  0  0  0  0  0  0  0  0  0
  144.6845  134.3371  152.4185 C   0  0  0  0  0  0  0  0  0  0  0  0
  143.5503  134.4355  151.5874 C   0  0  0  0  0  0  0  0  0  0  0  0
  143.4450  133.6459  150.4970 N   0  3  0  0  0  0  0  0  0  0  0  0
  144.3948  132.7511  150.1489 C   0  0  0  0  0  0  0  0  0  0  0  0
  145.5515  132.6078  150.9420 C   0  0  0  0  0  0  0  0  0  0  0  0
  150.1835  134.1606  155.0276 H   0  0  0  0  0  0  0  0  0  0  0  0
  149.4505  134.7642  153.5844 H   0  0  0  0  0  0  0  0  0  0  0  0
  147.7642  135.9700  155.2555 H   0  0  0  0  0  0  0  0  0  0  0  0
  150.1714  135.9615  157.1216 H   0  0  0  0  0  0  0  0  0  0  0  0
  148.7789  137.9020  157.5639 H   0  0  0  0  0  0  0  0  0  0  0  0
  147.3094  136.9398  157.3682 H   0  0  0  0  0  0  0  0  0  0  0  0
  149.3986  136.7033  159.5644 H   0  0  0  0  0  0  0  0  0  0  0  0
  147.6445  136.7963  159.7519 H   0  0  0  0  0  0  0  0  0  0  0  0
  147.6806  134.2200  157.2841 H   0  0  0  0  0  0  0  0  0  0  0  0
  149.3463  133.7657  157.6477 H   0  0  0  0  0  0  0  0  0  0  0  0
  147.6860  138.3134  154.8953 H   0  0  0  0  0  0  0  0  0  0  0  0
  148.9110  138.6954  156.0923 H   0  0  0  0  0  0  0  0  0  0  0  0
  149.0951  139.2692  153.0855 H   0  0  0  0  0  0  0  0  0  0  0  0
  148.8808  140.4490  154.3642 H   0  0  0  0  0  0  0  0  0  0  0  0
  151.2270  138.1207  152.9187 H   0  0  0  0  0  0  0  0  0  0  0  0
  152.4772  138.5042  154.0867 H   0  0  0  0  0  0  0  0  0  0  0  0
  151.2075  137.4370  155.9115 H   0  0  0  0  0  0  0  0  0  0  0  0
  151.3959  136.2939  154.5930 H   0  0  0  0  0  0  0  0  0  0  0  0
  147.7061  133.1379  152.5132 H   0  0  0  0  0  0  0  0  0  0  0  0
  144.7717  134.9686  153.2910 H   0  0  0  0  0  0  0  0  0  0  0  0
  142.7313  135.1179  151.7607 H   0  0  0  0  0  0  0  0  0  0  0  0
  144.2057  132.1837  149.2494 H   0  0  0  0  0  0  0  0  0  0  0  0
  146.3114  131.9033  150.6392 H   0  0  0  0  0  0  0  0  0  0  0  0
  149.2867  136.9535  153.7901 H   0  0  0  0  0  0  0  0  0  0  0  0
  142.6160  133.7324  149.9088 H   0  0  0  0  0  0  0  0  0  0  0  0
  1  2  2  0  0  0  0
  2  3  1  0  0  0  0
  2 17  1  0  0  0  0
  3  4  1  0  0  0  0
  4  5  1  0  0  0  0
  4 24  1  0  0  0  0
  4 25  1  0  0  0  0
  5  6  1  0  0  0  0
  5 11  1  0  0  0  0
  5 26  1  0  0  0  0
  6 10  1  0  0  0  0
  6  7  1  0  0  0  0
  6 27  1  0  0  0  0
  7  8  1  0  0  0  0
  7 28  1  0  0  0  0
  7 29  1  0  0  0  0
  8  9  1  0  0  0  0
  8 30  1  0  0  0  0
  8 31  1  0  0  0  0
  9 10  1  0  0  0  0
 10 32  1  0  0  0  0
 10 33  1  0  0  0  0
 11 16  1  0  0  0  0
 11 12  1  0  0  0  0
 11 47  1  0  0  0  0
 12 13  1  0  0  0  0
 12 34  1  0  0  0  0
 12 35  1  0  0  0  0
 13 14  1  0  0  0  0
 13 36  1  0  0  0  0
 13 37  1  0  0  0  0
 14 15  1  0  0  0  0
 15 16  1  0  0  0  0
 15 38  1  0  0  0  0
 15 39  1  0  0  0  0
 16 40  1  0  0  0  0
 16 41  1  0  0  0  0
 17 18  1  0  0  0  0
 17 42  1  0  0  0  0
 18 23  1  0  0  0  0
 18 19  2  0  0  0  0
 19 20  1  0  0  0  0
 19 43  1  0  0  0  0
 20 21  2  0  0  0  0
 20 44  1  0  0  0  0
 21 22  1  0  0  0  0
 21 48  1  0  0  0  0
 22 23  2  0  0  0  0
 22 45  1  0  0  0  0
 23 46  1  0  0  0  0
M  CHG  1   3  -1
M  CHG  1  11   1
M  CHG  1  21   1
M  END
> <s_m_source_file>
AV-unprocessed.smi

> <i_m_source_file_index>
1240

> <i_lp_mmshare_version>
43012

> <i_f3d_flags>
0

> <s_epik_input>
W2NIXTFbY0hdbltjSF1bY0hdYzFbTkhdQyg9TylbTkhdW0NIMl1bQ0BIXShbQ0BASF0yW0NIMl1bQ0gyXU9bQ0gyXTIpTjNbQ0gyXVtDSDJdT1tDSDJdW0NIMl0z

> <s_epik_cmdline>
J2VwaWtfcHl0aG9uJywgJy1waCcsICc3LjAnLCAnLXRuJywgJzgnLCAnLW1hJywgJzIwMCcsICctbWV0YWxfYmluZGluZycsICctaW1hZScsICc8aW5maWxlLm1hZT4nLCAnLW9tYWUnLCAnPG91dGZpbGUubWFlPic=

> <r_epik_Ionization_Penalty>
8.41087

> <r_epik_Ionization_Penalty_Charging>
8.41087

> <r_epik_Ionization_Penalty_Neutral>
3.12936e-06

> <r_epik_State_Penalty>
8.81894

> <r_epik_Charging_Adjusted_Penalty>
17.2298

> <i_epik_Tot_Q>
1

> <i_epik_Tot_abs_Q>
3

> <r_epik_Metal_State_Penalty>
4.82983

> <b_epik_Metal_Only>
1

> <s_lp_Force_Field>
OPLS_2005

> <r_lp_Energy>
49.5446

> <b_lp_Chiralities_Consistent>
1

> <s_lp_Variant>
AV-unprocessed.smi:1240-20

> <Gold.Version>
5.8.1

> <Gold.Id.Protein>
6NUR|6NUR_protein|mol2

> <Gold.PLP.Fitness>
44.2290

> <Gold.PLP.PLP>
-29.0483

> <Gold.PLP.part.hbond>
-4.0000

> <Gold.PLP.part.metal>
0.0000

> <Gold.PLP.part.buried>
-5.4499

> <Gold.PLP.part.nonpolar>
-19.6129

> <Gold.PLP.part.repulsive>
0.2961

> <Gold.PLP.ligand.clash>
0.0000

> <Gold.PLP.ligand.torsion>
1.4875

> <Gold.PLP.Chemscore.Hbond>
5.8550

> <Gold.PLP.Chemscore.CHOScore>
0.0000

> <Gold.PLP.Chemscore.Metal>
0.0000

> <Gold.Chemscore.Hbonds>
donor molecule, donor type, donor heavy atom, donor atom, acceptor molecule, acceptor atom, score
      L1  H    11    47       P1  7948  1.82
      L1  H    21    48       P1 10186  2.00
      P1  H  6896  6909       L1     9  0.05
      P1  H  7989  7998       L1    14  1.00

> <Gold.PLP.Chemscore.Internal.Correction>
0.5906

> <Gold.Rescore>
     Score         DG    S(hbond)    S(metal)    S(lipo)     H(rot)  DE(clash)    DE(int)     intcor
     15.53     -18.79       2.69        0.00      74.33       1.70       0.22       3.05       ----

> <Gold.Chemscore.Fitness>
15.5285

> <Gold.Chemscore.DG>
-18.7934

> <Gold.Chemscore.ZeroCoef>
-5.4800

> <Gold.Chemscore.Hbond>
2.6869

> <Gold.Chemscore.Metal>
0.0000

> <Gold.Chemscore.Lipo>
74.3293

> <Gold.Chemscore.Internal_Hbond>
0.0000

> <Gold.Chemscore.DEClash>
0.2169

> <Gold.Chemscore.DEInternal>
3.0480

> <Gold.Chemscore.Rot>
1.7021

> <Gold.Chemscore.Internal.Correction>
   9.000000E+99

> <Gold.Chemscore.Hbonds>
donor molecule, donor type, donor heavy atom, donor atom, acceptor molecule, acceptor atom, score
      L1  H    11    47       P1  7948  0.87
      L1  H    21    48       P1 10186  0.96
      P1  H  7989  7998       L1    14  0.53

> <Gold.Chemscore.Hbond.Weighted>
-8.9744

> <Gold.Chemscore.Metal.Weighted>
-0.0000

> <Gold.Chemscore.Lipo.Weighted>
-8.6965

> <Gold.Chemscore.Internal_Hbond.Weighted>
0.0000

> <Gold.Chemscore.DEClash.Weighted>
0.2169

> <Gold.Chemscore.DEInternal.Weighted>
3.0480

> <Gold.Chemscore.Rot.Weighted>
4.3575

> <Gold.Chemscore.Internal.Correction.Weighted>
   9.000000E+99

> <Gold.Protein.RotatedTorsions>
[ 6907 6896 6895 6894 ] final   31.70 input  -60.11 | X-H torsion
[ 7974 7965 7964 7962 ] final  -48.30 input  175.53 | X-H torsion
[ 8008 7997 7996 7995 ] final  177.66 input   59.86 | X-H torsion
[ 10167 10162 10161 10158 ] final  -38.78 input  -65.29 | X-H torsion
[ 10718 10713 10712 10709 ] final -151.66 input   66.30 | X-H torsion
[ 10763 10752 10751 10750 ] final  156.46 input  -60.55 | X-H torsion
[ 11005 11000 10999 10996 ] final  -46.57 input  -57.11 | X-H torsion

> <Gold.Protein.ActiveResidues>
 VAL166  LYS551  ARG553  GLY616  TRP617  ASP618  TYR619  PRO620  LYS621  CYS622 
 ASP623  PHE694  ASN695  SER759  ASP760  ASP761  ALA762  ILE779  LEU786  VAL792 
 PHE793  MET794  SER795  GLU796  ALA797  LYS798  CYS799  TRP800  GLU811  SER814 

> <Gold.Protein.RotatedAtoms>
  152.0640  134.9576  160.0574 H   0  0  0  0  0  0  0  0  0  0  0  0  # atno 6907 bound_to 6896
  152.0928  133.4204  159.4560 H   0  0  0  0  0  0  0  0  0  0  0  0  # atno 6908 bound_to 6896
  150.6837  134.2771  159.4655 H   0  0  0  0  0  0  0  0  0  0  0  0  # atno 6909 bound_to 6896
  145.9526  140.7557  142.9497 H   0  0  0  0  0  0  0  0  0  0  0  0  # atno 7974 bound_to 7965
  156.0632  140.1353  156.9917 H   0  0  0  0  0  0  0  0  0  0  0  0  # atno 8008 bound_to 7997
  154.4492  140.0987  156.6619 H   0  0  0  0  0  0  0  0  0  0  0  0  # atno 8009 bound_to 7997
  155.5345  140.3459  155.4435 H   0  0  0  0  0  0  0  0  0  0  0  0  # atno 8010 bound_to 7997
  140.7082  143.3255  151.2690 H   0  0  0  0  0  0  0  0  0  0  0  0  # atno 10167 bound_to 10162
  156.4622  130.8218  151.2449 H   0  0  0  0  0  0  0  0  0  0  0  0  # atno 10718 bound_to 10713
  154.1848  135.2798  155.3041 H   0  0  0  0  0  0  0  0  0  0  0  0  # atno 10763 bound_to 10752
  154.5975  135.5540  153.7343 H   0  0  0  0  0  0  0  0  0  0  0  0  # atno 10764 bound_to 10752
  153.0128  135.6383  154.1986 H   0  0  0  0  0  0  0  0  0  0  0  0  # atno 10765 bound_to 10752
  141.0587  133.6717  156.3173 H   0  0  0  0  0  0  0  0  0  0  0  0  # atno 11005 bound_to 11000
  144.6799  140.2459  143.7338 LP  0  0  0  0  0  0  0  0  0  0  0  0  # atno 17320 bound_to 7965
  145.8150  139.2019  143.1971 LP  0  0  0  0  0  0  0  0  0  0  0  0  # atno 17321 bound_to 7965
  139.6722  144.0000  152.2760 LP  0  0  0  0  0  0  0  0  0  0  0  0  # atno 17342 bound_to 10162
  139.9602  144.6563  150.8087 LP  0  0  0  0  0  0  0  0  0  0  0  0  # atno 17343 bound_to 10162
  157.7497  131.0103  150.3303 LP  0  0  0  0  0  0  0  0  0  0  0  0  # atno 17370 bound_to 10713
  156.3705  130.3862  149.7179 LP  0  0  0  0  0  0  0  0  0  0  0  0  # atno 17371 bound_to 10713
  140.5913  134.5648  157.5500 LP  0  0  0  0  0  0  0  0  0  0  0  0  # atno 17394 bound_to 11000
  139.9413  134.7782  156.0672 LP  0  0  0  0  0  0  0  0  0  0  0  0  # atno 17395 bound_to 11000

$$$$
