#       Name:                AV-unprocessed.smi:2099
#       Creating user name   scv26
#       Creation time:       Fri Mar 27 11:30:06 2020


#       File generated by GOLD software.
#

@<TRIPOS>MOLECULE
AV-unprocessed.smi:2099
    36    37     1
SMALL
NO_CHARGES


@<TRIPOS>ATOM
      1 ****        -1.3678  -3.6577   0.7182 C.3            1 S1                 0.0000
      2 ****        -1.7821  -2.1933   0.5168 C.3            1 S1                 0.0000
      3 ****        -1.1654  -1.6061  -0.7671 C.3            1 S1                 0.0000
      4 ****        -1.5725  -0.1362  -0.9705 C.3            1 S1                 0.0000
      5 ****        -1.2164   0.7412   0.2488 C.3            1 S1                 0.0000
      6 ****         0.2305   0.9043   0.3901 N.am           1 S1                 0.0000
      7 ****         1.0129   1.7229  -0.3277 C.2            1 S1                 0.0000
      8 ****         0.5188   2.4380  -1.2025 O.2            1 S1                 0.0000
      9 ****         2.3212   1.6574   0.0094 N.pl3          1 S1                -1.0000
     10 ****         3.2218   2.4083  -0.6456 C.2            1 S1                 0.0000
     11 ****         3.6757   3.5748  -0.1594 N.2            1 S1                 0.0000
     12 ****         4.6059   4.1868  -0.9887 N.2            1 S1                 0.0000
     13 ****         4.8365   3.4582  -2.0808 C.2            1 S1                 0.0000
     14 ****         3.9409   1.9581  -2.1944 S.3            1 S1                 0.0000
     15 ****        -1.8110   0.1432   1.5387 C.3            1 S1                 0.0000
     16 ****        -1.4099  -1.3300   1.7376 C.3            1 S1                 0.0000
     17 ****        -0.2877  -3.7508   0.8370 H              1 S1                 0.0000
     18 ****        -1.6635  -4.2703  -0.1340 H              1 S1                 0.0000
     19 ****        -1.8382  -4.0804   1.6064 H              1 S1                 0.0000
     20 ****        -2.8674  -2.1709   0.4081 H              1 S1                 0.0000
     21 ****        -0.0779  -1.6815  -0.7240 H              1 S1                 0.0000
     22 ****        -1.4782  -2.1917  -1.6321 H              1 S1                 0.0000
     23 ****        -1.1079   0.2565  -1.8753 H              1 S1                 0.0000
     24 ****        -2.6485  -0.0866  -1.1415 H              1 S1                 0.0000
     25 ****        -1.6536   1.7311   0.1073 H              1 S1                 0.0000
     26 ****         0.6815   0.3401   1.0952 H              1 S1                 0.0000
     27 ****         5.5409   3.8045  -2.8224 H              1 S1                 0.0000
     28 ****        -1.5056   0.7335   2.4036 H              1 S1                 0.0000
     29 ****        -2.8987   0.2121   1.4951 H              1 S1                 0.0000
     30 ****        -1.8971  -1.7208   2.6315 H              1 S1                 0.0000
     31 ****        -0.3369  -1.3954   1.9224 H              1 S1                 0.0000
     32 ****        -0.4655   2.4073  -1.3765 LP             1 S1                 0.0000
     33 ****         1.1024   3.0486  -1.7379 LP             1 S1                 0.0000
     34 ****         2.6179   1.0500   0.7463 LP             1 S1                 0.0000
     35 ****         3.3744   3.9632   0.7114 LP             1 S1                 0.0000
     36 ****         5.0467   5.0626  -0.7918 LP             1 S1                 0.0000
@<TRIPOS>BOND
    1    1    2 1     
    2    1   17 1     
    3    1   18 1     
    4    1   19 1     
    5    2   16 1     
    6    2    3 1     
    7    2   20 1     
    8    3    4 1     
    9    3   21 1     
   10    3   22 1     
   11    4    5 1     
   12    4   23 1     
   13    4   24 1     
   14    5    6 1     
   15    5   15 1     
   16    5   25 1     
   17    6    7 am    
   18    6   26 1     
   19    7    8 2     
   20    7    9 1     
   21    9   10 1     
   22   10   14 1     
   23   10   11 2     
   24   11   12 1     
   25   12   13 2     
   26   13   14 1     
   27   13   27 1     
   28   15   16 1     
   29   15   28 1     
   30   15   29 1     
   31   16   30 1     
   32   16   31 1     
   33    8   32 1     
   34    8   33 1     
   35    9   34 1     
   36   11   35 1     
   37   12   36 1     
@<TRIPOS>SUBSTRUCTURE
      1 S1             1
@<TRIPOS>SET
LONE_PAIRS      STATIC     ATOMS    <user>   **** ""
5 32 33 34 35 36
DONOR_HYDROGENS      STATIC     ATOMS    <user>   **** ""
1 26
ATOM$BLUE        STATIC     ATOMS    COLORGROUP SYSTEM
5 32 33 34 35 36
ATOM$RED        STATIC     ATOMS    COLORGROUP SYSTEM
1 26
