#       Name:                AV-unprocessed.smi:3003
#       Creating user name   scv26
#       Creation time:       Fri Mar 27 16:36:40 2020


#       File generated by GOLD software.
#

@<TRIPOS>MOLECULE
AV-unprocessed.smi:3003
    47    48     1
SMALL
NO_CHARGES


@<TRIPOS>ATOM
      1 ****        -3.8908  -0.3684  -0.1599 C.3            1 S1                 0.0000
      2 ****        -4.1950  -2.1494  -0.3132 S.3            1 S1                 0.0000
      3 ****        -3.5219  -2.4761  -1.9706 C.3            1 S1                 0.0000
      4 ****        -3.9673  -3.8634  -2.4589 C.3            1 S1                 0.0000
      5 ****        -1.9942  -2.3480  -2.0056 C.2            1 S1                 0.0000
      6 ****        -1.2879  -3.1728  -1.4244 O.2            1 S1                 0.0000
      7 ****        -1.4958  -1.2997  -2.6800 N.am           1 S1                 0.0000
      8 ****        -0.0763  -0.9867  -2.8014 C.3            1 S1                 0.0000
      9 ****         0.4923  -0.2933  -1.5744 C.ar           1 S1                 0.0000
     10 ****        -0.1551   0.8148  -0.9926 C.ar           1 S1                 0.0000
     11 ****         0.4125   1.4175   0.1459 C.ar           1 S1                 0.0000
     12 ****         1.6205   0.8999   0.6718 C.ar           1 S1                 0.0000
     13 ****         2.2085   1.4877   1.8131 N.3            1 S1                 0.0000
     14 ****         2.4115   2.9331   1.7504 C.3            1 S1                 0.0000
     15 ****         2.7552   3.4864   3.1441 C.3            1 S1                 0.0000
     16 ****         3.8799   2.7936   3.6750 O.3            1 S1                 0.0000
     17 ****         3.6196   1.4029   3.8310 C.3            1 S1                 0.0000
     18 ****         3.3093   0.7767   2.4612 C.3            1 S1                 0.0000
     19 ****         2.2395  -0.1667   0.1070 N.ar           1 S1                 0.0000
     20 ****         1.6907  -0.7412  -0.9839 C.ar           1 S1                 0.0000
     21 ****        -4.3078   0.0025   0.7761 H              1 S1                 0.0000
     22 ****        -4.3565   0.1722  -0.9836 H              1 S1                 0.0000
     23 ****        -2.8219  -0.1593  -0.1628 H              1 S1                 0.0000
     24 ****        -3.9529  -1.7338  -2.6441 H              1 S1                 0.0000
     25 ****        -3.5726  -4.0811  -3.4521 H              1 S1                 0.0000
     26 ****        -5.0545  -3.9227  -2.5197 H              1 S1                 0.0000
     27 ****        -3.6320  -4.6535  -1.7855 H              1 S1                 0.0000
     28 ****        -2.1446  -0.6704  -3.1302 H              1 S1                 0.0000
     29 ****         0.4892  -1.8941  -3.0207 H              1 S1                 0.0000
     30 ****         0.0555  -0.3272  -3.6594 H              1 S1                 0.0000
     31 ****        -1.0763   1.1972  -1.4070 H              1 S1                 0.0000
     32 ****        -0.0902   2.2540   0.6075 H              1 S1                 0.0000
     33 ****         3.2256   3.1434   1.0554 H              1 S1                 0.0000
     34 ****         1.5312   3.4506   1.3720 H              1 S1                 0.0000
     35 ****         2.9918   4.5483   3.0778 H              1 S1                 0.0000
     36 ****         1.9039   3.3923   3.8203 H              1 S1                 0.0000
     37 ****         4.4943   0.9251   4.2721 H              1 S1                 0.0000
     38 ****         2.7907   1.2522   4.5246 H              1 S1                 0.0000
     39 ****         3.0540  -0.2753   2.5951 H              1 S1                 0.0000
     40 ****         4.1926   0.8202   1.8227 H              1 S1                 0.0000
     41 ****         2.2246  -1.5861  -1.3931 H              1 S1                 0.0000
     42 ****        -1.7102  -3.9304  -0.9267 LP             1 S1                 0.0000
     43 ****        -0.2921  -3.0849  -1.4502 LP             1 S1                 0.0000
     44 ****         1.4567   1.3505   2.4580 LP             1 S1                 0.0000
     45 ****         4.1075   3.1823   4.5678 LP             1 S1                 0.0000
     46 ****         4.6546   2.9100   3.0535 LP             1 S1                 0.0000
     47 ****         3.0905  -0.5224   0.4935 LP             1 S1                 0.0000
@<TRIPOS>BOND
    1    1    2 1     
    2    1   21 1     
    3    1   22 1     
    4    1   23 1     
    5    2    3 1     
    6    3    4 1     
    7    3    5 1     
    8    3   24 1     
    9    4   25 1     
   10    4   26 1     
   11    4   27 1     
   12    5    6 2     
   13    5    7 am    
   14    7    8 1     
   15    7   28 1     
   16    8    9 1     
   17    8   29 1     
   18    8   30 1     
   19    9   20 ar    
   20    9   10 ar    
   21   10   11 ar    
   22   10   31 1     
   23   11   12 ar    
   24   11   32 1     
   25   12   13 1     
   26   12   19 ar    
   27   13   18 1     
   28   13   14 1     
   29   14   15 1     
   30   14   33 1     
   31   14   34 1     
   32   15   16 1     
   33   15   35 1     
   34   15   36 1     
   35   16   17 1     
   36   17   18 1     
   37   17   37 1     
   38   17   38 1     
   39   18   39 1     
   40   18   40 1     
   41   19   20 ar    
   42   20   41 1     
   43    6   42 1     
   44    6   43 1     
   45   13   44 1     
   46   16   45 1     
   47   16   46 1     
   48   19   47 1     
@<TRIPOS>SUBSTRUCTURE
      1 S1             1
@<TRIPOS>SET
LONE_PAIRS      STATIC     ATOMS    <user>   **** ""
6 42 43 44 45 46 47
DONOR_HYDROGENS      STATIC     ATOMS    <user>   **** ""
1 28
ATOM$BLUE        STATIC     ATOMS    COLORGROUP SYSTEM
6 42 43 44 45 46 47
ATOM$RED        STATIC     ATOMS    COLORGROUP SYSTEM
1 28
