AV-unprocessed.smi:814|AV-procd|sdf|3821|dock5
  -GOLD-   22720 1263D 1   1.00000     0.00000
 Structure written by MMmdl.
 37 38  0  0  0  0  0  0  0  0  2 V2000
  148.1419  141.5120  155.3422 C   0  0  0  0  0  0  0  0  0  0  0  0
  147.9455  140.6077  154.2074 N   0  0  0  0  0  0  0  0  0  0  0  0
  147.1033  140.8036  153.1427 C   0  0  0  0  0  0  0  0  0  0  0  0
  147.2392  139.7103  152.3276 C   0  0  0  0  0  0  0  0  0  0  0  0
  148.1568  138.8922  152.9285 N   0  3  0  0  0  0  0  0  0  0  0  0
  148.5919  139.4382  154.0701 C   0  0  0  0  0  0  0  0  0  0  0  0
  149.5894  138.8209  154.9992 C   0  0  0  0  0  0  0  0  0  0  0  0
  150.9293  139.5736  155.0156 C   0  0  0  0  0  0  0  0  0  0  0  0
  150.9387  140.6265  156.0234 N   0  0  0  0  0  0  0  0  0  0  0  0
  151.8271  140.7230  157.0247 C   0  0  0  0  0  0  0  0  0  0  0  0
  152.7487  139.9219  157.1853 O   0  0  0  0  0  0  0  0  0  0  0  0
  151.6444  141.8990  157.9933 C   0  0  2  0  0  0  0  0  0  0  0  0
  151.5616  143.2458  157.2378 C   0  0  0  0  0  0  0  0  0  0  0  0
  151.6375  144.4355  158.1790 C   0  0  0  0  0  0  0  0  0  0  0  0
  152.0630  144.3459  159.4508 C   0  0  0  0  0  0  0  0  0  0  0  0
  152.5218  143.0466  160.0887 C   0  0  0  0  0  0  0  0  0  0  0  0
  152.7715  141.9417  159.0444 C   0  0  0  0  0  0  0  0  0  0  0  0
  147.4831  142.3750  155.2399 H   0  0  0  0  0  0  0  0  0  0  0  0
  149.1781  141.8507  155.3599 H   0  0  0  0  0  0  0  0  0  0  0  0
  147.9067  140.9890  156.2692 H   0  0  0  0  0  0  0  0  0  0  0  0
  146.4839  141.6839  153.0458 H   0  0  0  0  0  0  0  0  0  0  0  0
  146.7638  139.4587  151.3906 H   0  0  0  0  0  0  0  0  0  0  0  0
  149.1326  138.8142  155.9898 H   0  0  0  0  0  0  0  0  0  0  0  0
  149.7228  137.7811  154.6996 H   0  0  0  0  0  0  0  0  0  0  0  0
  151.7452  138.8858  155.2374 H   0  0  0  0  0  0  0  0  0  0  0  0
  151.1419  139.9979  154.0327 H   0  0  0  0  0  0  0  0  0  0  0  0
  150.2114  141.3251  155.9646 H   0  0  0  0  0  0  0  0  0  0  0  0
  150.7028  141.7552  158.5272 H   0  0  0  0  0  0  0  0  0  0  0  0
  152.3675  143.3448  156.5092 H   0  0  0  0  0  0  0  0  0  0  0  0
  150.6241  143.3008  156.6829 H   0  0  0  0  0  0  0  0  0  0  0  0
  151.3408  145.3939  157.7785 H   0  0  0  0  0  0  0  0  0  0  0  0
  152.0810  145.2276  160.0746 H   0  0  0  0  0  0  0  0  0  0  0  0
  153.4309  143.2276  160.6628 H   0  0  0  0  0  0  0  0  0  0  0  0
  151.7562  142.7297  160.7974 H   0  0  0  0  0  0  0  0  0  0  0  0
  152.8708  140.9785  159.5469 H   0  0  0  0  0  0  0  0  0  0  0  0
  153.7254  142.1294  158.5485 H   0  0  0  0  0  0  0  0  0  0  0  0
  148.4649  137.9992  152.5643 H   0  0  0  0  0  0  0  0  0  0  0  0
  1  2  1  0  0  0  0
  1 18  1  0  0  0  0
  1 19  1  0  0  0  0
  1 20  1  0  0  0  0
  2  6  1  0  0  0  0
  2  3  1  0  0  0  0
  3  4  2  0  0  0  0
  3 21  1  0  0  0  0
  4  5  1  0  0  0  0
  4 22  1  0  0  0  0
  5  6  2  0  0  0  0
  5 37  1  0  0  0  0
  6  7  1  0  0  0  0
  7  8  1  0  0  0  0
  7 23  1  0  0  0  0
  7 24  1  0  0  0  0
  8  9  1  0  0  0  0
  8 25  1  0  0  0  0
  8 26  1  0  0  0  0
  9 10  1  0  0  0  0
  9 27  1  0  0  0  0
 10 11  2  0  0  0  0
 10 12  1  0  0  0  0
 12 17  1  0  0  0  0
 12 13  1  0  0  0  0
 12 28  1  0  0  0  0
 13 14  1  0  0  0  0
 13 29  1  0  0  0  0
 13 30  1  0  0  0  0
 14 15  2  0  0  0  0
 14 31  1  0  0  0  0
 15 16  1  0  0  0  0
 15 32  1  0  0  0  0
 16 17  1  0  0  0  0
 16 33  1  0  0  0  0
 16 34  1  0  0  0  0
 17 35  1  0  0  0  0
 17 36  1  0  0  0  0
M  CHG  1   5   1
M  END
> <s_m_source_file>
AV-unprocessed.smi

> <i_m_source_file_index>
814

> <i_lp_mmshare_version>
43012

> <i_f3d_flags>
0

> <s_epik_input>
W0NIM11uMVtjSF1bY0hdbmMxW0NIMl1bQ0gyXVtOSF1DKD1PKVtDQEBIXTJbQ0gyXVtDSF09W0NIXVtDSDJdW0NIMl0y

> <s_epik_cmdline>
J2VwaWtfcHl0aG9uJywgJy1waCcsICc3LjAnLCAnLXRuJywgJzgnLCAnLW1hJywgJzIwMCcsICctbWV0YWxfYmluZGluZycsICctaW1hZScsICc8aW5maWxlLm1hZT4nLCAnLW9tYWUnLCAnPG91dGZpbGUubWFlPic=

> <r_lp_tautomer_probability>
1

> <r_epik_Ionization_Penalty>
0.0819619

> <r_epik_Ionization_Penalty_Charging>
0

> <r_epik_Ionization_Penalty_Neutral>
0.0819619

> <r_epik_State_Penalty>
0.0726933

> <r_epik_Charging_Adjusted_Penalty>
0.0726933

> <i_epik_Tot_Q>
1

> <i_epik_Tot_abs_Q>
1

> <r_epik_Metal_State_Penalty>
0.411758

> <b_epik_Metal_Only>
0

> <s_lp_Force_Field>
OPLS_2005

> <r_lp_Energy>
9.54254

> <b_lp_Chiralities_Consistent>
1

> <s_lp_Variant>
AV-unprocessed.smi:814-1

> <Gold.Version>
5.8.1

> <Gold.Id.Protein>
6NUR|6NUR_protein|mol2

> <Gold.PLP.Fitness>
46.6069

> <Gold.PLP.PLP>
-38.2475

> <Gold.PLP.part.hbond>
-3.0000

> <Gold.PLP.part.metal>
0.0000

> <Gold.PLP.part.buried>
-0.1803

> <Gold.PLP.part.nonpolar>
-33.9397

> <Gold.PLP.part.repulsive>
0.1764

> <Gold.PLP.ligand.clash>
0.0000

> <Gold.PLP.ligand.torsion>
0.3335

> <Gold.PLP.Chemscore.Hbond>
3.0000

> <Gold.PLP.Chemscore.CHOScore>
0.0000

> <Gold.PLP.Chemscore.Metal>
0.0000

> <Gold.Chemscore.Hbonds>
donor molecule, donor type, donor heavy atom, donor atom, acceptor molecule, acceptor atom, score
      L1  H     5    37       P1  7948  2.00
      P1  H  7997  8010       L1    11  0.99

> <Gold.PLP.Chemscore.Internal.Correction>
0.0264

> <Gold.Rescore>
     Score         DG    S(hbond)    S(metal)    S(lipo)     H(rot)  DE(clash)    DE(int)     intcor
     17.76     -19.80       1.97        0.00     102.24       1.65       1.60       0.44       ----

> <Gold.Chemscore.Fitness>
17.7581

> <Gold.Chemscore.DG>
-19.8010

> <Gold.Chemscore.ZeroCoef>
-5.4800

> <Gold.Chemscore.Hbond>
1.9722

> <Gold.Chemscore.Metal>
0.0000

> <Gold.Chemscore.Lipo>
102.2432

> <Gold.Chemscore.Internal_Hbond>
0.0000

> <Gold.Chemscore.DEClash>
1.5999

> <Gold.Chemscore.DEInternal>
0.4431

> <Gold.Chemscore.Rot>
1.6518

> <Gold.Chemscore.Internal.Correction>
   9.000000E+99

> <Gold.Chemscore.Hbonds>
donor molecule, donor type, donor heavy atom, donor atom, acceptor molecule, acceptor atom, score
      L1  H     5    37       P1  7948  0.99
      P1  H  7997  8010       L1    11  0.93

> <Gold.Chemscore.Hbond.Weighted>
-6.5872

> <Gold.Chemscore.Metal.Weighted>
-0.0000

> <Gold.Chemscore.Lipo.Weighted>
-11.9625

> <Gold.Chemscore.Internal_Hbond.Weighted>
0.0000

> <Gold.Chemscore.DEClash.Weighted>
1.5999

> <Gold.Chemscore.DEInternal.Weighted>
0.4431

> <Gold.Chemscore.Rot.Weighted>
4.2287

> <Gold.Chemscore.Internal.Correction.Weighted>
   9.000000E+99

> <Gold.Protein.RotatedTorsions>
[ 6907 6896 6895 6894 ] final -121.13 input  -60.11 | X-H torsion
[ 7974 7965 7964 7962 ] final -112.73 input  175.53 | X-H torsion
[ 8008 7997 7996 7995 ] final   42.47 input   59.86 | X-H torsion
[ 10167 10162 10161 10158 ] final   74.43 input  -65.29 | X-H torsion
[ 10718 10713 10712 10709 ] final -168.24 input   66.30 | X-H torsion
[ 10763 10752 10751 10750 ] final  -58.26 input  -60.55 | X-H torsion
[ 11005 11000 10999 10996 ] final   72.24 input  -57.11 | X-H torsion

> <Gold.Protein.ActiveResidues>
 VAL166  LYS551  ARG553  GLY616  TRP617  ASP618  TYR619  PRO620  LYS621  CYS622 
 ASP623  PHE694  ASN695  SER759  ASP760  ASP761  ALA762  ILE779  LEU786  VAL792 
 PHE793  MET794  SER795  GLU796  ALA797  LYS798  CYS799  TRP800  GLU811  SER814 

> <Gold.Protein.RotatedAtoms>
  150.8455  133.7868  159.3044 H   0  0  0  0  0  0  0  0  0  0  0  0  # atno 6907 bound_to 6896
  151.5556  135.1065  159.9970 H   0  0  0  0  0  0  0  0  0  0  0  0  # atno 6908 bound_to 6896
  152.4510  133.7586  159.6790 H   0  0  0  0  0  0  0  0  0  0  0  0  # atno 6909 bound_to 6896
  145.1404  140.8775  143.3705 H   0  0  0  0  0  0  0  0  0  0  0  0  # atno 7974 bound_to 7965
  155.2867  140.3376  155.4255 H   0  0  0  0  0  0  0  0  0  0  0  0  # atno 8008 bound_to 7997
  156.2065  140.1753  156.7829 H   0  0  0  0  0  0  0  0  0  0  0  0  # atno 8009 bound_to 7997
  154.5628  140.0684  156.8829 H   0  0  0  0  0  0  0  0  0  0  0  0  # atno 8010 bound_to 7997
  140.0138  144.5593  150.7637 H   0  0  0  0  0  0  0  0  0  0  0  0  # atno 10167 bound_to 10162
  156.6940  130.9170  151.3072 H   0  0  0  0  0  0  0  0  0  0  0  0  # atno 10718 bound_to 10713
  154.2353  135.6353  153.5189 H   0  0  0  0  0  0  0  0  0  0  0  0  # atno 10763 bound_to 10752
  152.9941  135.5529  154.5969 H   0  0  0  0  0  0  0  0  0  0  0  0  # atno 10764 bound_to 10752
  154.5462  135.2898  155.1025 H   0  0  0  0  0  0  0  0  0  0  0  0  # atno 10765 bound_to 10752
  139.9501  134.7242  156.0884 H   0  0  0  0  0  0  0  0  0  0  0  0  # atno 11005 bound_to 11000
  145.0538  139.3160  143.5915 LP  0  0  0  0  0  0  0  0  0  0  0  0  # atno 17320 bound_to 7965
  146.3505  139.9955  142.8681 LP  0  0  0  0  0  0  0  0  0  0  0  0  # atno 17321 bound_to 7965
  140.7370  143.2760  151.3739 LP  0  0  0  0  0  0  0  0  0  0  0  0  # atno 17342 bound_to 10162
  139.6186  144.0952  152.2370 LP  0  0  0  0  0  0  0  0  0  0  0  0  # atno 17343 bound_to 10162
  157.6998  130.9321  150.0752 LP  0  0  0  0  0  0  0  0  0  0  0  0  # atno 17370 bound_to 10713
  156.1777  130.3649  149.9078 LP  0  0  0  0  0  0  0  0  0  0  0  0  # atno 17371 bound_to 10713
  141.1161  133.6627  156.3098 LP  0  0  0  0  0  0  0  0  0  0  0  0  # atno 17394 bound_to 11000
  140.5740  134.5812  157.5464 LP  0  0  0  0  0  0  0  0  0  0  0  0  # atno 17395 bound_to 11000

$$$$
