#       Name:                AV-unprocessed.smi:1292
#       Creating user name   scv26
#       Creation time:       Fri Mar 27 04:55:36 2020


#       File generated by GOLD software.
#

@<TRIPOS>MOLECULE
AV-unprocessed.smi:1292
    41    42     1
SMALL
NO_CHARGES


@<TRIPOS>ATOM
      1 ****        -1.4659   3.0578  -1.6426 C.3            1 S1                 0.0000
      2 ****        -1.9506   2.3657  -0.3610 C.3            1 S1                 0.0000
      3 ****        -1.5230   3.1398   0.8936 C.3            1 S1                 0.0000
      4 ****        -2.0436   2.4210   2.1412 C.3            1 S1                 0.0000
      5 ****        -1.5490   0.9673   2.1928 C.3            1 S1                 0.0000
      6 ****        -1.8874   0.2375   0.9534 N.pl3          1 S1                 0.0000
      7 ****        -1.8390  -1.4995   0.9924 S.o2           1 S1                 0.0000
      8 ****        -2.4995  -1.9120   2.2415 O.2            1 S1                 0.0000
      9 ****        -2.4252  -1.9569  -0.2786 O.2            1 S1                 0.0000
     10 ****        -0.2262  -1.6378   1.0481 N.pl3          1 S1                -1.0000
     11 ****         0.3870  -2.9498   0.9468 C.3            1 S1                 0.0000
     12 ****         1.9265  -2.8219   0.8637 C.3            1 S1                 0.0000
     13 ****         2.4564  -2.1144  -0.3832 C.ar           1 S1                 0.0000
     14 ****         2.7329  -2.8424  -1.5635 C.ar           1 S1                 0.0000
     15 ****         3.2176  -2.1466  -2.6879 C.ar           1 S1                 0.0000
     16 ****         3.4146  -0.7557  -2.5934 C.ar           1 S1                 0.0000
     17 ****         3.1196  -0.1198  -1.3714 C.ar           1 S1                 0.0000
     18 ****         2.6586  -0.7773  -0.2868 N.ar           1 S1                 0.0000
     19 ****        -1.4523   0.9094  -0.2901 C.3            1 S1                 0.0000
     20 ****        -0.3772   3.1088  -1.6777 H              1 S1                 0.0000
     21 ****        -1.8505   4.0757  -1.7094 H              1 S1                 0.0000
     22 ****        -1.8024   2.5197  -2.5293 H              1 S1                 0.0000
     23 ****        -3.0411   2.3460  -0.3914 H              1 S1                 0.0000
     24 ****        -0.4356   3.2168   0.9363 H              1 S1                 0.0000
     25 ****        -1.9112   4.1583   0.8631 H              1 S1                 0.0000
     26 ****        -1.7234   2.9520   3.0379 H              1 S1                 0.0000
     27 ****        -3.1343   2.4359   2.1459 H              1 S1                 0.0000
     28 ****        -0.4678   0.9413   2.3357 H              1 S1                 0.0000
     29 ****        -1.9929   0.4642   3.0514 H              1 S1                 0.0000
     30 ****         0.1333  -3.5674   1.8088 H              1 S1                 0.0000
     31 ****         0.0308  -3.4994   0.0747 H              1 S1                 0.0000
     32 ****         2.3014  -2.3088   1.7508 H              1 S1                 0.0000
     33 ****         2.3646  -3.8199   0.8968 H              1 S1                 0.0000
     34 ****         2.5682  -3.9088  -1.6078 H              1 S1                 0.0000
     35 ****         3.4329  -2.6706  -3.6074 H              1 S1                 0.0000
     36 ****         3.7829  -0.1896  -3.4359 H              1 S1                 0.0000
     37 ****         3.2600   0.9452  -1.2610 H              1 S1                 0.0000
     38 ****        -1.8257   0.3577  -1.1525 H              1 S1                 0.0000
     39 ****        -0.3632   0.8766  -0.3459 H              1 S1                 0.0000
     40 ****         0.3445  -0.8232   1.1518 LP             1 S1                 0.0000
     41 ****         2.4709  -0.2906   0.5664 LP             1 S1                 0.0000
@<TRIPOS>BOND
    1    1    2 1     
    2    1   20 1     
    3    1   21 1     
    4    1   22 1     
    5    2   19 1     
    6    2    3 1     
    7    2   23 1     
    8    3    4 1     
    9    3   24 1     
   10    3   25 1     
   11    4    5 1     
   12    4   26 1     
   13    4   27 1     
   14    5    6 1     
   15    5   28 1     
   16    5   29 1     
   17    6    7 1     
   18    6   19 1     
   19    7    8 2     
   20    7    9 2     
   21    7   10 1     
   22   10   11 1     
   23   11   12 1     
   24   11   30 1     
   25   11   31 1     
   26   12   13 1     
   27   12   32 1     
   28   12   33 1     
   29   13   18 ar    
   30   13   14 ar    
   31   14   15 ar    
   32   14   34 1     
   33   15   16 ar    
   34   15   35 1     
   35   16   17 ar    
   36   16   36 1     
   37   17   18 ar    
   38   17   37 1     
   39   19   38 1     
   40   19   39 1     
   41   10   40 1     
   42   18   41 1     
@<TRIPOS>SUBSTRUCTURE
      1 S1             1
@<TRIPOS>SET
LONE_PAIRS      STATIC     ATOMS    <user>   **** ""
4 8 9 40 41
ATOM$BLUE        STATIC     ATOMS    COLORGROUP SYSTEM
4 8 9 40 41
