AV-unprocessed.smi:3277|AV-procd|sdf|12537|dock4
  -GOLD-   2272018453D 1   1.00000     0.00000
 Structure written by MMmdl.
 35 37  0  0  0  0  0  0  0  0  1 V2000
  146.8832  142.6747  154.3659 C   0  0  0  0  0  0  0  0  0  0  0  0
  148.2328  142.1500  154.5002 N   0  0  0  0  0  0  0  0  0  0  0  0
  148.5650  140.8619  154.3257 C   0  0  0  0  0  0  0  0  0  0  0  0
  147.7537  139.9895  154.0154 O   0  0  0  0  0  0  0  0  0  0  0  0
  150.0370  140.4996  154.5318 C   0  0  0  0  0  0  0  0  0  0  0  0
  150.4471  140.9935  155.8816 C   0  0  0  0  0  0  0  0  0  0  0  0
  150.5778  142.2877  156.1837 N   0  0  0  0  0  0  0  0  0  0  0  0
  150.9447  142.5062  157.5166 C   0  0  0  0  0  0  0  0  0  0  0  0
  151.1019  143.9003  158.0720 C   0  0  1  0  0  0  0  0  0  0  0  0
  150.2045  144.2317  159.2851 C   0  0  0  0  0  0  0  0  0  0  0  0
  151.2081  144.8424  160.2834 C   0  0  1  0  0  0  0  0  0  0  0  0
  152.1005  143.7249  160.8594 C   0  0  0  0  0  0  0  0  0  0  0  0
  153.0460  143.4037  159.6863 C   0  0  0  0  0  0  0  0  0  0  0  0
  152.5125  144.3149  158.5620 C   0  0  2  0  0  0  0  0  0  0  0  0
  152.1777  145.5727  159.3597 C   0  0  0  0  0  0  0  0  0  0  0  0
  151.1116  141.3372  158.2179 C   0  0  0  0  0  0  0  0  0  0  0  0
  150.8016  139.9306  157.2372 S   0  0  0  0  0  0  0  0  0  0  0  0
  146.8759  143.7414  154.5889 H   0  0  0  0  0  0  0  0  0  0  0  0
  146.2027  142.1777  155.0581 H   0  0  0  0  0  0  0  0  0  0  0  0
  146.5115  142.5350  153.3501 H   0  0  0  0  0  0  0  0  0  0  0  0
  148.9595  142.8021  154.7591 H   0  0  0  0  0  0  0  0  0  0  0  0
  150.1767  139.4195  154.4766 H   0  0  0  0  0  0  0  0  0  0  0  0
  150.6592  140.9567  153.7612 H   0  0  0  0  0  0  0  0  0  0  0  0
  150.8307  144.6005  157.2797 H   0  0  0  0  0  0  0  0  0  0  0  0
  149.4334  144.9512  159.0070 H   0  0  0  0  0  0  0  0  0  0  0  0
  149.7016  143.3619  159.7090 H   0  0  0  0  0  0  0  0  0  0  0  0
  150.7403  145.4642  161.0471 H   0  0  0  0  0  0  0  0  0  0  0  0
  152.6671  144.0800  161.7210 H   0  0  0  0  0  0  0  0  0  0  0  0
  151.5210  142.8564  161.1748 H   0  0  0  0  0  0  0  0  0  0  0  0
  154.0675  143.6877  159.9431 H   0  0  0  0  0  0  0  0  0  0  0  0
  153.0719  142.3467  159.4282 H   0  0  0  0  0  0  0  0  0  0  0  0
  153.2275  144.4636  157.7522 H   0  0  0  0  0  0  0  0  0  0  0  0
  151.7020  146.3538  158.7638 H   0  0  0  0  0  0  0  0  0  0  0  0
  153.0363  145.9983  159.8824 H   0  0  0  0  0  0  0  0  0  0  0  0
  151.3896  141.2188  159.2547 H   0  0  0  0  0  0  0  0  0  0  0  0
  1  2  1  0  0  0  0
  1 18  1  0  0  0  0
  1 19  1  0  0  0  0
  1 20  1  0  0  0  0
  2  3  1  0  0  0  0
  2 21  1  0  0  0  0
  3  4  2  0  0  0  0
  3  5  1  0  0  0  0
  5  6  1  0  0  0  0
  5 22  1  0  0  0  0
  5 23  1  0  0  0  0
  6 17  1  0  0  0  0
  6  7  2  0  0  0  0
  7  8  1  0  0  0  0
  8  9  1  0  0  0  0
  8 16  2  0  0  0  0
  9 14  1  0  0  0  0
  9 10  1  0  0  0  0
  9 24  1  0  0  0  0
 10 11  1  0  0  0  0
 10 25  1  0  0  0  0
 10 26  1  0  0  0  0
 11 15  1  0  0  0  0
 11 12  1  0  0  0  0
 11 27  1  0  0  0  0
 12 13  1  0  0  0  0
 12 28  1  0  0  0  0
 12 29  1  0  0  0  0
 13 14  1  0  0  0  0
 13 30  1  0  0  0  0
 13 31  1  0  0  0  0
 14 15  1  0  0  0  0
 14 32  1  0  0  0  0
 15 33  1  0  0  0  0
 15 34  1  0  0  0  0
 16 17  1  0  0  0  0
 16 35  1  0  0  0  0
M  END
> <s_m_source_file>
AV-unprocessed.smi

> <i_m_source_file_index>
3277

> <i_lp_mmshare_version>
43012

> <i_f3d_flags>
0

> <s_epik_input>
W0NIM11bTkhdQyg9TylbQ0gyXWMxbmMoW2NIXXMxKVtDQEhdKFtDSDJdW0NAQEhdMjMpW0NAQEhdKFtDSDJdMylbQ0gyXVtDSDJdMg==

> <s_epik_cmdline>
J2VwaWtfcHl0aG9uJywgJy1waCcsICc3LjAnLCAnLXRuJywgJzgnLCAnLW1hJywgJzIwMCcsICctbWV0YWxfYmluZGluZycsICctaW1hZScsICc8aW5maWxlLm1hZT4nLCAnLW9tYWUnLCAnPG91dGZpbGUubWFlPic=

> <r_lp_tautomer_probability>
1

> <r_epik_Ionization_Penalty>
8.50008e-05

> <r_epik_Ionization_Penalty_Charging>
0

> <r_epik_Ionization_Penalty_Neutral>
8.50008e-05

> <r_epik_State_Penalty>
-0

> <r_epik_Charging_Adjusted_Penalty>
0

> <i_epik_Tot_Q>
0

> <i_epik_Tot_abs_Q>
0

> <r_epik_Metal_State_Penalty>
-0

> <b_epik_Metal_Only>
0

> <s_lp_Force_Field>
OPLS_2005

> <r_lp_Energy>
45.709

> <b_lp_Chiralities_Consistent>
1

> <s_lp_Variant>
AV-unprocessed.smi:3277-2

> <Gold.Version>
5.8.1

> <Gold.Id.Protein>
6NUR|6NUR_protein|mol2

> <Gold.PLP.Fitness>
42.7142

> <Gold.PLP.PLP>
-41.2293

> <Gold.PLP.part.hbond>
-1.0000

> <Gold.PLP.part.metal>
0.0000

> <Gold.PLP.part.buried>
-3.2373

> <Gold.PLP.part.nonpolar>
-37.9745

> <Gold.PLP.part.repulsive>
1.3508

> <Gold.PLP.ligand.clash>
0.0000

> <Gold.PLP.ligand.torsion>
0.1496

> <Gold.PLP.Chemscore.Hbond>
0.5925

> <Gold.PLP.Chemscore.CHOScore>
0.0000

> <Gold.PLP.Chemscore.Metal>
0.0000

> <Gold.Chemscore.Hbonds>
donor molecule, donor type, donor heavy atom, donor atom, acceptor molecule, acceptor atom, score
      L1  H     2    21       P1  8028  0.51

> <Gold.PLP.Chemscore.Internal.Correction>
0.0064

> <Gold.Rescore>
     Score         DG    S(hbond)    S(metal)    S(lipo)     H(rot)  DE(clash)    DE(int)     intcor
     16.55     -18.45       0.73        0.00     120.80       1.41       0.52       1.38       ----

> <Gold.Chemscore.Fitness>
16.5455

> <Gold.Chemscore.DG>
-18.4490

> <Gold.Chemscore.ZeroCoef>
-5.4800

> <Gold.Chemscore.Hbond>
0.7336

> <Gold.Chemscore.Metal>
0.0000

> <Gold.Chemscore.Lipo>
120.8026

> <Gold.Chemscore.Internal_Hbond>
0.0000

> <Gold.Chemscore.DEClash>
0.5186

> <Gold.Chemscore.DEInternal>
1.3850

> <Gold.Chemscore.Rot>
1.4122

> <Gold.Chemscore.Internal.Correction>
   9.000000E+99

> <Gold.Chemscore.Hbonds>
donor molecule, donor type, donor heavy atom, donor atom, acceptor molecule, acceptor atom, score
      L1  H     2    21       P1  8028  0.50

> <Gold.Chemscore.Hbond.Weighted>
-2.4502

> <Gold.Chemscore.Metal.Weighted>
-0.0000

> <Gold.Chemscore.Lipo.Weighted>
-14.1339

> <Gold.Chemscore.Internal_Hbond.Weighted>
0.0000

> <Gold.Chemscore.DEClash.Weighted>
0.5186

> <Gold.Chemscore.DEInternal.Weighted>
1.3850

> <Gold.Chemscore.Rot.Weighted>
3.6151

> <Gold.Chemscore.Internal.Correction.Weighted>
   9.000000E+99

> <Gold.Protein.RotatedTorsions>
[ 6907 6896 6895 6894 ] final  140.11 input  -60.11 | X-H torsion
[ 7974 7965 7964 7962 ] final  173.07 input  175.53 | X-H torsion
[ 8008 7997 7996 7995 ] final -100.30 input   59.86 | X-H torsion
[ 10167 10162 10161 10158 ] final   68.25 input  -65.29 | X-H torsion
[ 10718 10713 10712 10709 ] final  -18.77 input   66.30 | X-H torsion
[ 10763 10752 10751 10750 ] final   72.83 input  -60.55 | X-H torsion
[ 11005 11000 10999 10996 ] final  -61.56 input  -57.11 | X-H torsion

> <Gold.Protein.ActiveResidues>
 VAL166  LYS551  ARG553  GLY616  TRP617  ASP618  TYR619  PRO620  LYS621  CYS622 
 ASP623  PHE694  ASN695  SER759  ASP760  ASP761  ALA762  ILE779  LEU786  VAL792 
 PHE793  MET794  SER795  GLU796  ALA797  LYS798  CYS799  TRP800  GLU811  SER814 

> <Gold.Protein.RotatedAtoms>
  152.2470  133.5182  159.5302 H   0  0  0  0  0  0  0  0  0  0  0  0  # atno 6907 bound_to 6896
  150.7081  134.1012  159.3975 H   0  0  0  0  0  0  0  0  0  0  0  0  # atno 6908 bound_to 6896
  151.8932  135.0408  160.0550 H   0  0  0  0  0  0  0  0  0  0  0  0  # atno 6909 bound_to 6896
  144.7252  139.9593  143.6434 H   0  0  0  0  0  0  0  0  0  0  0  0  # atno 7974 bound_to 7965
  154.8267  140.0442  157.1449 H   0  0  0  0  0  0  0  0  0  0  0  0  # atno 8008 bound_to 7997
  154.9198  140.3025  155.5202 H   0  0  0  0  0  0  0  0  0  0  0  0  # atno 8009 bound_to 7997
  156.2984  140.2343  156.4246 H   0  0  0  0  0  0  0  0  0  0  0  0  # atno 8010 bound_to 7997
  140.0807  144.5073  150.7164 H   0  0  0  0  0  0  0  0  0  0  0  0  # atno 10167 bound_to 10162
  156.5549  130.4711  149.6434 H   0  0  0  0  0  0  0  0  0  0  0  0  # atno 10718 bound_to 10713
  153.0483  135.5085  154.7803 H   0  0  0  0  0  0  0  0  0  0  0  0  # atno 10763 bound_to 10752
  154.6685  135.2949  154.9775 H   0  0  0  0  0  0  0  0  0  0  0  0  # atno 10764 bound_to 10752
  154.0602  135.6692  153.4863 H   0  0  0  0  0  0  0  0  0  0  0  0  # atno 10765 bound_to 10752
  141.1329  133.6631  156.5394 H   0  0  0  0  0  0  0  0  0  0  0  0  # atno 11005 bound_to 11000
  146.0650  139.3641  143.0558 LP  0  0  0  0  0  0  0  0  0  0  0  0  # atno 17320 bound_to 7965
  145.8043  140.9756  143.0982 LP  0  0  0  0  0  0  0  0  0  0  0  0  # atno 17321 bound_to 7965
  140.7079  143.2482  151.4671 LP  0  0  0  0  0  0  0  0  0  0  0  0  # atno 17342 bound_to 10162
  139.5781  144.1772  152.1931 LP  0  0  0  0  0  0  0  0  0  0  0  0  # atno 17343 bound_to 10162
  156.2851  130.7093  151.1927 LP  0  0  0  0  0  0  0  0  0  0  0  0  # atno 17370 bound_to 10713
  157.7380  131.0545  150.5320 LP  0  0  0  0  0  0  0  0  0  0  0  0  # atno 17371 bound_to 10713
  140.4151  134.7237  157.4858 LP  0  0  0  0  0  0  0  0  0  0  0  0  # atno 17394 bound_to 11000
  140.0399  134.6282  155.8994 LP  0  0  0  0  0  0  0  0  0  0  0  0  # atno 17395 bound_to 11000

$$$$
