#       Name:                AV-unprocessed.smi:2583
#       Creating user name   scv26
#       Creation time:       Fri Mar 27 14:14:59 2020


#       File generated by GOLD software.
#

@<TRIPOS>MOLECULE
AV-unprocessed.smi:2583
    58    60     1
SMALL
NO_CHARGES


@<TRIPOS>ATOM
      1 ****        -5.2980   6.6507   0.7355 C.3            1 S1                 0.0000
      2 ****        -5.3353   5.1949   0.3198 C.ar           1 S1                 0.0000
      3 ****        -6.5360   4.5900  -0.1054 C.ar           1 S1                 0.0000
      4 ****        -6.6229   3.2942  -0.4720 N.ar           1 S1                 0.0000
      5 ****        -5.4978   2.5499  -0.4313 C.ar           1 S1                 0.0000
      6 ****        -4.2398   3.0525  -0.0375 C.ar           1 S1                 0.0000
      7 ****        -3.1396   2.1538  -0.0217 N.am           1 S1                 0.0000
      8 ****        -1.8268   2.4378  -0.0619 C.2            1 S1                 0.0000
      9 ****        -1.3457   3.5660  -0.1624 O.2            1 S1                 0.0000
     10 ****        -1.0904   1.3188   0.0014 N.am           1 S1                 0.0000
     11 ****         0.3686   1.2536  -0.0281 C.3            1 S1                 0.0000
     12 ****         0.8378   0.5398  -1.3099 C.3            1 S1                 0.0000
     13 ****         2.3591   0.2928  -1.2862 C.3            1 S1                 0.0000
     14 ****         2.7773  -0.4832  -0.0828 N.4            1 S1                 1.0000
     15 ****         2.3768  -1.9331  -0.0819 C.3            1 S1                 0.0000
     16 ****         2.8868  -2.6852   1.1739 C.3            1 S1                 0.0000
     17 ****         2.5450  -4.1846   1.1424 C.3            1 S1                 0.0000
     18 ****         3.0823  -4.8301  -0.0770 N.4            1 S1                 1.0000
     19 ****         2.8759  -6.2945  -0.0781 C.3            1 S1                 0.0000
     20 ****         2.5597  -4.1845  -1.3028 C.3            1 S1                 0.0000
     21 ****         2.9031  -2.6854  -1.3304 C.3            1 S1                 0.0000
     22 ****         2.4056   0.2847   1.1405 C.3            1 S1                 0.0000
     23 ****         0.8855   0.5234   1.2253 C.3            1 S1                 0.0000
     24 ****        -4.1651   4.4103   0.3566 C.ar           1 S1                 0.0000
     25 ****        -6.2726   7.1240   0.6132 H              1 S1                 0.0000
     26 ****        -4.5747   7.1984   0.1310 H              1 S1                 0.0000
     27 ****        -5.0059   6.7367   1.7823 H              1 S1                 0.0000
     28 ****        -7.4547   5.1564  -0.1464 H              1 S1                 0.0000
     29 ****        -5.6058   1.5167  -0.7277 H              1 S1                 0.0000
     30 ****        -3.3838   1.1744  -0.0286 H              1 S1                 0.0000
     31 ****        -1.5821   0.4403   0.0762 H              1 S1                 0.0000
     32 ****         0.7966   2.2577  -0.0271 H              1 S1                 0.0000
     33 ****         0.3088  -0.4057  -1.4324 H              1 S1                 0.0000
     34 ****         0.5798   1.1435  -2.1811 H              1 S1                 0.0000
     35 ****         2.6941  -0.1686  -2.2124 H              1 S1                 0.0000
     36 ****         2.8711   1.2559  -1.2616 H              1 S1                 0.0000
     37 ****         1.2887  -1.9970  -0.0872 H              1 S1                 0.0000
     38 ****         3.9664  -2.5593   1.2690 H              1 S1                 0.0000
     39 ****         2.4417  -2.2806   2.0815 H              1 S1                 0.0000
     40 ****         2.9609  -4.6707   2.0261 H              1 S1                 0.0000
     41 ****         1.4632  -4.3238   1.1844 H              1 S1                 0.0000
     42 ****         1.8134  -6.5414  -0.0844 H              1 S1                 0.0000
     43 ****         3.3273  -6.7475   0.8052 H              1 S1                 0.0000
     44 ****         3.3377  -6.7476  -0.9560 H              1 S1                 0.0000
     45 ****         2.9856  -4.6712  -2.1813 H              1 S1                 0.0000
     46 ****         1.4784  -4.3231  -1.3574 H              1 S1                 0.0000
     47 ****         2.4725  -2.2806  -2.2446 H              1 S1                 0.0000
     48 ****         3.9839  -2.5606  -1.4102 H              1 S1                 0.0000
     49 ****         2.7812  -0.1791   2.0500 H              1 S1                 0.0000
     50 ****         2.9116   1.2505   1.1007 H              1 S1                 0.0000
     51 ****         0.6576   1.1136   2.1137 H              1 S1                 0.0000
     52 ****         0.3653  -0.4265   1.3528 H              1 S1                 0.0000
     53 ****        -3.2442   4.8562   0.6990 H              1 S1                 0.0000
     54 ****         3.7875  -0.4885  -0.1010 H              1 S1                 0.0000
     55 ****         4.0818  -4.6835  -0.0709 H              1 S1                 0.0000
     56 ****        -7.4932   2.8980  -0.7645 LP             1 S1                 0.0000
     57 ****        -1.9472   4.3626  -0.2216 LP             1 S1                 0.0000
     58 ****        -0.3532   3.6861  -0.1849 LP             1 S1                 0.0000
@<TRIPOS>BOND
    1    1    2 1     
    2    1   25 1     
    3    1   26 1     
    4    1   27 1     
    5    2   24 ar    
    6    2    3 ar    
    7    3    4 ar    
    8    3   28 1     
    9    4    5 ar    
   10    5    6 ar    
   11    5   29 1     
   12    6    7 1     
   13    6   24 ar    
   14    7    8 am    
   15    7   30 1     
   16    8    9 2     
   17    8   10 am    
   18   10   11 1     
   19   10   31 1     
   20   11   23 1     
   21   11   12 1     
   22   11   32 1     
   23   12   13 1     
   24   12   33 1     
   25   12   34 1     
   26   13   14 1     
   27   13   35 1     
   28   13   36 1     
   29   14   15 1     
   30   14   22 1     
   31   14   54 1     
   32   15   21 1     
   33   15   16 1     
   34   15   37 1     
   35   16   17 1     
   36   16   38 1     
   37   16   39 1     
   38   17   18 1     
   39   17   40 1     
   40   17   41 1     
   41   18   19 1     
   42   18   20 1     
   43   18   55 1     
   44   19   42 1     
   45   19   43 1     
   46   19   44 1     
   47   20   21 1     
   48   20   45 1     
   49   20   46 1     
   50   21   47 1     
   51   21   48 1     
   52   22   23 1     
   53   22   49 1     
   54   22   50 1     
   55   23   51 1     
   56   23   52 1     
   57   24   53 1     
   58    4   56 1     
   59    9   57 1     
   60    9   58 1     
@<TRIPOS>SUBSTRUCTURE
      1 S1             1
@<TRIPOS>SET
LONE_PAIRS      STATIC     ATOMS    <user>   **** ""
3 56 57 58
DONOR_HYDROGENS      STATIC     ATOMS    <user>   **** ""
4 30 31 54 55
ATOM$BLUE        STATIC     ATOMS    COLORGROUP SYSTEM
3 56 57 58
ATOM$RED        STATIC     ATOMS    COLORGROUP SYSTEM
4 30 31 54 55
