AV-unprocessed.smi:528|AV-procd|sdf|2836|dock1
  -GOLD-   2262023323D 1   1.00000     0.00000
 Structure written by MMmdl.
 45 47  0  0  0  0  0  0  0  0  1 V2000
  150.6490  133.4981  155.5954 C   0  0  0  0  0  0  0  0  0  0  0  0
  149.4897  134.3096  154.9933 C   0  0  1  0  0  0  0  0  0  0  0  0
  150.0495  135.4975  154.3500 N   0  0  0  0  0  0  0  0  0  0  0  0
  150.9930  136.3034  154.8614 C   0  0  0  0  0  0  0  0  0  0  0  0
  151.5519  136.1000  155.9398 O   0  0  0  0  0  0  0  0  0  0  0  0
  151.3630  137.5275  154.0139 C   0  0  0  0  0  0  0  0  0  0  0  0
  150.7199  138.7628  154.4919 N   0  0  0  0  0  0  0  0  0  0  0  0
  149.3857  138.9894  154.0994 C   0  0  0  0  0  0  0  0  0  0  0  0
  148.6931  140.0879  154.4573 C   0  0  0  0  0  0  0  0  0  0  0  0
  147.2366  140.2803  154.0639 C   0  0  0  0  0  0  0  0  0  0  0  0
  147.0843  140.2098  152.7414 F   0  0  0  0  0  0  0  0  0  0  0  0
  146.4882  139.3279  154.6188 F   0  0  0  0  0  0  0  0  0  0  0  0
  146.7773  141.4626  154.4758 F   0  0  0  0  0  0  0  0  0  0  0  0
  149.3823  141.0357  155.3108 C   0  0  0  0  0  0  0  0  0  0  0  0
  150.6557  140.8312  155.7007 C   0  0  0  0  0  0  0  0  0  0  0  0
  151.4035  139.6425  155.2847 C   0  0  0  0  0  0  0  0  0  0  0  0
  152.5703  139.4486  155.6281 O   0  0  0  0  0  0  0  0  0  0  0  0
  148.6598  133.5038  153.9615 C   0  0  2  0  0  0  0  0  0  0  0  0
  147.3533  134.2104  153.5157 C   0  0  0  0  0  0  0  0  0  0  0  0
  146.2703  133.1469  153.7637 C   0  0  1  0  0  0  0  0  0  0  0  0
  146.4379  131.9931  152.7586 C   0  0  0  0  0  0  0  0  0  0  0  0
  147.7036  131.2811  153.2711 C   0  0  0  0  0  0  0  0  0  0  0  0
  148.1170  132.1467  154.4775 C   0  0  2  0  0  0  0  0  0  0  0  0
  146.7570  132.5168  155.0613 C   0  0  0  0  0  0  0  0  0  0  0  0
  150.2921  132.6425  156.1674 H   0  0  0  0  0  0  0  0  0  0  0  0
  151.2405  134.1110  156.2765 H   0  0  0  0  0  0  0  0  0  0  0  0
  151.3186  133.1248  154.8199 H   0  0  0  0  0  0  0  0  0  0  0  0
  148.8323  134.6038  155.8129 H   0  0  0  0  0  0  0  0  0  0  0  0
  149.6582  135.7478  153.4536 H   0  0  0  0  0  0  0  0  0  0  0  0
  152.4493  137.6250  154.0176 H   0  0  0  0  0  0  0  0  0  0  0  0
  151.0950  137.3525  152.9701 H   0  0  0  0  0  0  0  0  0  0  0  0
  148.9593  138.2115  153.4828 H   0  0  0  0  0  0  0  0  0  0  0  0
  148.8711  141.9289  155.6385 H   0  0  0  0  0  0  0  0  0  0  0  0
  151.1393  141.5608  156.3337 H   0  0  0  0  0  0  0  0  0  0  0  0
  149.2916  133.3324  153.0883 H   0  0  0  0  0  0  0  0  0  0  0  0
  147.1413  135.0903  154.1243 H   0  0  0  0  0  0  0  0  0  0  0  0
  147.3906  134.5333  152.4747 H   0  0  0  0  0  0  0  0  0  0  0  0
  145.2593  133.5536  153.7991 H   0  0  0  0  0  0  0  0  0  0  0  0
  145.5796  131.3207  152.7897 H   0  0  0  0  0  0  0  0  0  0  0  0
  146.5473  132.3517  151.7344 H   0  0  0  0  0  0  0  0  0  0  0  0
  147.4676  130.2646  153.5885 H   0  0  0  0  0  0  0  0  0  0  0  0
  148.4844  131.2185  152.5121 H   0  0  0  0  0  0  0  0  0  0  0  0
  148.7778  131.6203  155.1647 H   0  0  0  0  0  0  0  0  0  0  0  0
  146.8147  133.2225  155.8916 H   0  0  0  0  0  0  0  0  0  0  0  0
  146.1677  131.6512  155.3691 H   0  0  0  0  0  0  0  0  0  0  0  0
  1  2  1  0  0  0  0
  1 25  1  0  0  0  0
  1 26  1  0  0  0  0
  1 27  1  0  0  0  0
  2  3  1  0  0  0  0
  2 18  1  0  0  0  0
  2 28  1  0  0  0  0
  3  4  1  0  0  0  0
  3 29  1  0  0  0  0
  4  5  2  0  0  0  0
  4  6  1  0  0  0  0
  6  7  1  0  0  0  0
  6 30  1  0  0  0  0
  6 31  1  0  0  0  0
  7 16  1  0  0  0  0
  7  8  1  0  0  0  0
  8  9  2  0  0  0  0
  8 32  1  0  0  0  0
  9 10  1  0  0  0  0
  9 14  1  0  0  0  0
 10 11  1  0  0  0  0
 10 12  1  0  0  0  0
 10 13  1  0  0  0  0
 14 15  2  0  0  0  0
 14 33  1  0  0  0  0
 15 16  1  0  0  0  0
 15 34  1  0  0  0  0
 16 17  2  0  0  0  0
 18 23  1  0  0  0  0
 18 19  1  0  0  0  0
 18 35  1  0  0  0  0
 19 20  1  0  0  0  0
 19 36  1  0  0  0  0
 19 37  1  0  0  0  0
 20 24  1  0  0  0  0
 20 21  1  0  0  0  0
 20 38  1  0  0  0  0
 21 22  1  0  0  0  0
 21 39  1  0  0  0  0
 21 40  1  0  0  0  0
 22 23  1  0  0  0  0
 22 41  1  0  0  0  0
 22 42  1  0  0  0  0
 23 24  1  0  0  0  0
 23 43  1  0  0  0  0
 24 44  1  0  0  0  0
 24 45  1  0  0  0  0
M  END
> <s_m_source_file>
AV-unprocessed.smi

> <i_m_source_file_index>
528

> <i_lp_mmshare_version>
43012

> <i_f3d_flags>
0

> <s_epik_input>
W0NIMl0xW0NIMl1bQ0BASF0oW0NIMl0yKVtDQEBIXShbQ0gyXVtDQEhdMTIpW0NASF0oW0NIM10pW05IXUMoPU8pW0NIMl1uM1tjSF1jKEMoRikoRilGKVtjSF1bY0hdYzM9Tw==

> <s_epik_cmdline>
J2VwaWtfcHl0aG9uJywgJy1waCcsICc3LjAnLCAnLXRuJywgJzgnLCAnLW1hJywgJzIwMCcsICctbWV0YWxfYmluZGluZycsICctaW1hZScsICc8aW5maWxlLm1hZT4nLCAnLW9tYWUnLCAnPG91dGZpbGUubWFlPic=

> <r_lp_tautomer_probability>
1

> <r_epik_Ionization_Penalty>
4.09479e-08

> <r_epik_Ionization_Penalty_Charging>
1.9321e-08

> <r_epik_Ionization_Penalty_Neutral>
2.16269e-08

> <r_epik_State_Penalty>
-0

> <r_epik_Charging_Adjusted_Penalty>
1.9321e-08

> <i_epik_Tot_Q>
0

> <i_epik_Tot_abs_Q>
0

> <r_epik_Metal_State_Penalty>
-0

> <b_epik_Metal_Only>
0

> <s_lp_Force_Field>
OPLS_2005

> <r_lp_Energy>
62.8614

> <b_lp_Chiralities_Consistent>
1

> <s_lp_Variant>
AV-unprocessed.smi:528-6

> <Gold.Version>
5.8.1

> <Gold.Id.Protein>
6NUR|6NUR_protein|mol2

> <Gold.PLP.Fitness>
48.0322

> <Gold.PLP.PLP>
-38.8522

> <Gold.PLP.part.hbond>
-3.7812

> <Gold.PLP.part.metal>
0.0000

> <Gold.PLP.part.buried>
4.0384

> <Gold.PLP.part.nonpolar>
-38.5419

> <Gold.PLP.part.repulsive>
0.0970

> <Gold.PLP.ligand.clash>
0.0000

> <Gold.PLP.ligand.torsion>
0.8961

> <Gold.PLP.Chemscore.Hbond>
2.6296

> <Gold.PLP.Chemscore.CHOScore>
0.9911

> <Gold.PLP.Chemscore.Metal>
0.0000

> <Gold.Chemscore.Hbonds>
donor molecule, donor type, donor heavy atom, donor atom, acceptor molecule, acceptor atom, score
      L1  H     3    29       P1  7948  0.75
      P1  H  7997  8008       L1    17  1.00
      P1  H 10752 10764       L1     5  0.83
      L1  C     8    32       P1  7948  0.99

> <Gold.PLP.Chemscore.Internal.Correction>
0.1101

> <Gold.Rescore>
     Score         DG    S(hbond)    S(metal)    S(lipo)     H(rot)  DE(clash)    DE(int)     intcor
     14.09     -16.39       2.10        0.00      70.83       1.71       0.24       2.06       ----

> <Gold.Chemscore.Fitness>
14.0859

> <Gold.Chemscore.DG>
-16.3900

> <Gold.Chemscore.ZeroCoef>
-5.4800

> <Gold.Chemscore.Hbond>
2.0977

> <Gold.Chemscore.Metal>
0.0000

> <Gold.Chemscore.Lipo>
70.8333

> <Gold.Chemscore.Internal_Hbond>
0.0000

> <Gold.Chemscore.DEClash>
0.2434

> <Gold.Chemscore.DEInternal>
2.0607

> <Gold.Chemscore.Rot>
1.7125

> <Gold.Chemscore.Internal.Correction>
   9.000000E+99

> <Gold.Chemscore.Hbonds>
donor molecule, donor type, donor heavy atom, donor atom, acceptor molecule, acceptor atom, score
      L1  H     3    29       P1  7948  0.09
      P1  H  7997  8008       L1    17  0.97
      P1  H 10752 10764       L1     5  0.13

> <Gold.Chemscore.Hbond.Weighted>
-7.0065

> <Gold.Chemscore.Metal.Weighted>
-0.0000

> <Gold.Chemscore.Lipo.Weighted>
-8.2875

> <Gold.Chemscore.Internal_Hbond.Weighted>
0.0000

> <Gold.Chemscore.DEClash.Weighted>
0.2434

> <Gold.Chemscore.DEInternal.Weighted>
2.0607

> <Gold.Chemscore.Rot.Weighted>
4.3840

> <Gold.Chemscore.Internal.Correction.Weighted>
   9.000000E+99

> <Gold.Protein.RotatedTorsions>
[ 6907 6896 6895 6894 ] final   75.06 input  -60.11 | X-H torsion
[ 7974 7965 7964 7962 ] final  177.62 input  175.53 | X-H torsion
[ 8008 7997 7996 7995 ] final  -34.87 input   59.86 | X-H torsion
[ 10167 10162 10161 10158 ] final   71.86 input  -65.29 | X-H torsion
[ 10718 10713 10712 10709 ] final  146.74 input   66.30 | X-H torsion
[ 10763 10752 10751 10750 ] final  -16.64 input  -60.55 | X-H torsion
[ 11005 11000 10999 10996 ] final  103.46 input  -57.11 | X-H torsion

> <Gold.Protein.ActiveResidues>
 VAL166  LYS551  ARG553  GLY616  TRP617  ASP618  TYR619  PRO620  LYS621  CYS622 
 ASP623  PHE694  ASN695  SER759  ASP760  ASP761  ALA762  ILE779  LEU786  VAL792 
 PHE793  MET794  SER795  GLU796  ALA797  LYS798  CYS799  TRP800  GLU811  SER814 

> <Gold.Protein.RotatedAtoms>
  152.5007  134.4177  159.9469 H   0  0  0  0  0  0  0  0  0  0  0  0  # atno 6907 bound_to 6896
  151.4148  133.3710  159.2756 H   0  0  0  0  0  0  0  0  0  0  0  0  # atno 6908 bound_to 6896
  150.9265  134.8703  159.7582 H   0  0  0  0  0  0  0  0  0  0  0  0  # atno 6909 bound_to 6896
  144.7166  140.0274  143.6439 H   0  0  0  0  0  0  0  0  0  0  0  0  # atno 7974 bound_to 7965
  154.4110  140.1672  156.2119 H   0  0  0  0  0  0  0  0  0  0  0  0  # atno 8008 bound_to 7997
  155.9437  140.3406  155.6326 H   0  0  0  0  0  0  0  0  0  0  0  0  # atno 8009 bound_to 7997
  155.6957  140.0739  157.2421 H   0  0  0  0  0  0  0  0  0  0  0  0  # atno 8010 bound_to 7997
  140.0415  144.5385  150.7430 H   0  0  0  0  0  0  0  0  0  0  0  0  # atno 10167 bound_to 10162
  157.3295  131.0918  151.1174 H   0  0  0  0  0  0  0  0  0  0  0  0  # atno 10718 bound_to 10713
  153.5617  135.7009  153.5544 H   0  0  0  0  0  0  0  0  0  0  0  0  # atno 10763 bound_to 10752
  153.3424  135.4017  155.1582 H   0  0  0  0  0  0  0  0  0  0  0  0  # atno 10764 bound_to 10752
  154.8647  135.3745  154.5134 H   0  0  0  0  0  0  0  0  0  0  0  0  # atno 10765 bound_to 10752
  139.8784  134.9264  156.5213 H   0  0  0  0  0  0  0  0  0  0  0  0  # atno 11005 bound_to 11000
  146.0130  139.3186  143.0858 LP  0  0  0  0  0  0  0  0  0  0  0  0  # atno 17320 bound_to 7965
  145.8659  140.9448  143.0676 LP  0  0  0  0  0  0  0  0  0  0  0  0  # atno 17321 bound_to 7965
  140.7258  143.2634  151.4126 LP  0  0  0  0  0  0  0  0  0  0  0  0  # atno 17342 bound_to 10162
  139.6010  144.1295  152.2198 LP  0  0  0  0  0  0  0  0  0  0  0  0  # atno 17343 bound_to 10162
  157.2428  130.6577  149.5897 LP  0  0  0  0  0  0  0  0  0  0  0  0  # atno 17370 bound_to 10713
  155.9694  130.4563  150.5919 LP  0  0  0  0  0  0  0  0  0  0  0  0  # atno 17371 bound_to 10713
  140.8448  133.8177  155.9110 LP  0  0  0  0  0  0  0  0  0  0  0  0  # atno 17394 bound_to 11000
  140.9202  134.2151  157.4931 LP  0  0  0  0  0  0  0  0  0  0  0  0  # atno 17395 bound_to 11000

$$$$
