AV-unprocessed.smi:1840|AV-procd|sdf|7491|dock5
  -GOLD-   22720 9193D 1   1.00000     0.00000
 Structure written by MMmdl.
 43 44  0  0  0  0  0  0  0  0  1 V2000
  151.6712  138.0927  155.6333 C   0  0  0  0  0  0  0  0  0  0  0  0
  150.2325  138.4467  155.2332 C   0  0  1  0  0  0  0  0  0  0  0  0
  150.1877  139.7125  154.3491 C   0  0  0  0  0  0  0  0  0  0  0  0
  148.8695  140.3218  154.3067 N   0  0  0  0  0  0  0  0  0  0  0  0
  148.5070  141.6054  154.6595 C   0  0  0  0  0  0  0  0  0  0  0  0
  147.1685  141.7296  154.4213 C   0  0  0  0  0  0  0  0  0  0  0  0
  146.7945  140.4502  153.9235 C   0  0  0  0  0  0  0  0  0  0  0  0
  147.8139  139.6086  153.8595 N   0  0  0  0  0  0  0  0  0  0  0  0
  149.6383  137.3097  154.5314 N   0  0  0  0  0  0  0  0  0  0  0  0
  149.1394  136.2107  155.1155 C   0  0  0  0  0  0  0  0  0  0  0  0
  149.2040  135.9755  156.3221 O   0  0  0  0  0  0  0  0  0  0  0  0
  148.5175  135.4210  154.2302 N   0  0  0  0  0  0  0  0  0  0  0  0
  147.7708  134.2059  154.5575 C   0  0  1  0  0  0  0  0  0  0  0  0
  146.3002  134.3146  154.0921 C   0  0  0  0  0  0  0  0  0  0  0  0
  146.1762  134.3021  152.5594 C   0  0  0  0  0  0  0  0  0  0  0  0
  146.8484  133.0576  151.9611 C   0  0  0  0  0  0  0  0  0  0  0  0
  148.3155  132.9427  152.4064 C   0  0  0  0  0  0  0  0  0  0  0  0
  148.4481  132.9552  153.9442 C   0  0  1  0  0  0  0  0  0  0  0  0
  149.9123  132.7912  154.3873 C   0  0  0  0  0  0  0  0  0  0  0  0
  152.1367  138.9106  156.1839 H   0  0  0  0  0  0  0  0  0  0  0  0
  152.2889  137.8867  154.7584 H   0  0  0  0  0  0  0  0  0  0  0  0
  151.6945  137.2106  156.2742 H   0  0  0  0  0  0  0  0  0  0  0  0
  149.6814  138.6443  156.1545 H   0  0  0  0  0  0  0  0  0  0  0  0
  150.8934  140.4567  154.7214 H   0  0  0  0  0  0  0  0  0  0  0  0
  150.4949  139.4773  153.3292 H   0  0  0  0  0  0  0  0  0  0  0  0
  149.2259  142.3187  155.0346 H   0  0  0  0  0  0  0  0  0  0  0  0
  146.5515  142.6022  154.5754 H   0  0  0  0  0  0  0  0  0  0  0  0
  145.8191  140.1106  153.6078 H   0  0  0  0  0  0  0  0  0  0  0  0
  149.5373  137.3995  153.5310 H   0  0  0  0  0  0  0  0  0  0  0  0
  148.5190  135.7020  153.2606 H   0  0  0  0  0  0  0  0  0  0  0  0
  147.7781  134.0934  155.6433 H   0  0  0  0  0  0  0  0  0  0  0  0
  145.7347  133.4763  154.5011 H   0  0  0  0  0  0  0  0  0  0  0  0
  145.8318  135.2135  154.4947 H   0  0  0  0  0  0  0  0  0  0  0  0
  145.1246  134.3303  152.2727 H   0  0  0  0  0  0  0  0  0  0  0  0
  146.6311  135.2024  152.1440 H   0  0  0  0  0  0  0  0  0  0  0  0
  146.3030  132.1651  152.2705 H   0  0  0  0  0  0  0  0  0  0  0  0
  146.7919  133.0919  150.8727 H   0  0  0  0  0  0  0  0  0  0  0  0
  148.7441  132.0241  152.0044 H   0  0  0  0  0  0  0  0  0  0  0  0
  148.8917  133.7623  151.9751 H   0  0  0  0  0  0  0  0  0  0  0  0
  147.9094  132.0841  154.3205 H   0  0  0  0  0  0  0  0  0  0  0  0
  150.5433  133.5957  154.0084 H   0  0  0  0  0  0  0  0  0  0  0  0
  150.3267  131.8506  154.0234 H   0  0  0  0  0  0  0  0  0  0  0  0
  149.9941  132.7869  155.4745 H   0  0  0  0  0  0  0  0  0  0  0  0
  1  2  1  0  0  0  0
  1 20  1  0  0  0  0
  1 21  1  0  0  0  0
  1 22  1  0  0  0  0
  2  3  1  0  0  0  0
  2  9  1  0  0  0  0
  2 23  1  0  0  0  0
  3  4  1  0  0  0  0
  3 24  1  0  0  0  0
  3 25  1  0  0  0  0
  4  8  1  0  0  0  0
  4  5  1  0  0  0  0
  5  6  2  0  0  0  0
  5 26  1  0  0  0  0
  6  7  1  0  0  0  0
  6 27  1  0  0  0  0
  7  8  2  0  0  0  0
  7 28  1  0  0  0  0
  9 10  1  0  0  0  0
  9 29  1  0  0  0  0
 10 11  2  0  0  0  0
 10 12  1  0  0  0  0
 12 13  1  0  0  0  0
 12 30  1  0  0  0  0
 13 18  1  0  0  0  0
 13 14  1  0  0  0  0
 13 31  1  0  0  0  0
 14 15  1  0  0  0  0
 14 32  1  0  0  0  0
 14 33  1  0  0  0  0
 15 16  1  0  0  0  0
 15 34  1  0  0  0  0
 15 35  1  0  0  0  0
 16 17  1  0  0  0  0
 16 36  1  0  0  0  0
 16 37  1  0  0  0  0
 17 18  1  0  0  0  0
 17 38  1  0  0  0  0
 17 39  1  0  0  0  0
 18 19  1  0  0  0  0
 18 40  1  0  0  0  0
 19 41  1  0  0  0  0
 19 42  1  0  0  0  0
 19 43  1  0  0  0  0
M  END
> <s_m_source_file>
AV-unprocessed.smi

> <i_m_source_file_index>
1840

> <i_lp_mmshare_version>
43012

> <i_f3d_flags>
0

> <s_epik_input>
bjFbY0hdW2NIXVtjSF1uMVtDSDJdW0NAQEhdKFtDSDNdKVtOSF1DKD1PKVtOSF1bQ0BASF0yW0NIMl1bQ0gyXVtDSDJdW0NIMl1bQ0BIXTJbQ0gzXQ==

> <s_epik_cmdline>
J2VwaWtfcHl0aG9uJywgJy1waCcsICc3LjAnLCAnLXRuJywgJzgnLCAnLW1hJywgJzIwMCcsICctbWV0YWxfYmluZGluZycsICctaW1hZScsICc8aW5maWxlLm1hZT4nLCAnLW9tYWUnLCAnPG91dGZpbGUubWFlPic=

> <r_lp_tautomer_probability>
1

> <r_epik_Ionization_Penalty>
7.38659e-05

> <r_epik_Ionization_Penalty_Charging>
0

> <r_epik_Ionization_Penalty_Neutral>
7.38659e-05

> <r_epik_State_Penalty>
-0

> <r_epik_Charging_Adjusted_Penalty>
0

> <i_epik_Tot_Q>
0

> <i_epik_Tot_abs_Q>
0

> <r_epik_Metal_State_Penalty>
-0

> <b_epik_Metal_Only>
0

> <s_lp_Force_Field>
OPLS_2005

> <r_lp_Energy>
6.83703

> <b_lp_Chiralities_Consistent>
1

> <s_lp_Variant>
AV-unprocessed.smi:1840-4

> <Gold.Version>
5.8.1

> <Gold.Id.Protein>
6NUR|6NUR_protein|mol2

> <Gold.PLP.Fitness>
39.5048

> <Gold.PLP.PLP>
-29.0408

> <Gold.PLP.part.hbond>
-2.0000

> <Gold.PLP.part.metal>
0.0000

> <Gold.PLP.part.buried>
1.8591

> <Gold.PLP.part.nonpolar>
-29.0997

> <Gold.PLP.part.repulsive>
0.4574

> <Gold.PLP.ligand.clash>
0.0000

> <Gold.PLP.ligand.torsion>
0.4580

> <Gold.PLP.Chemscore.Hbond>
1.8112

> <Gold.PLP.Chemscore.CHOScore>
1.9691

> <Gold.PLP.Chemscore.Metal>
0.0000

> <Gold.Chemscore.Hbonds>
donor molecule, donor type, donor heavy atom, donor atom, acceptor molecule, acceptor atom, score
      L1  H     9    29       P1  7948  0.69
      L1  H    12    30       P1  7948  1.00
      L1  C     5    26       P1  8028  0.97
      L1  C     7    28       P1 10175  1.00

> <Gold.PLP.Chemscore.Internal.Correction>
0.0391

> <Gold.Rescore>
     Score         DG    S(hbond)    S(metal)    S(lipo)     H(rot)  DE(clash)    DE(int)     intcor
     14.83     -15.92       1.82        0.00      71.32       1.56       0.46       0.63       ----

> <Gold.Chemscore.Fitness>
14.8292

> <Gold.Chemscore.DG>
-15.9176

> <Gold.Chemscore.ZeroCoef>
-5.4800

> <Gold.Chemscore.Hbond>
1.8204

> <Gold.Chemscore.Metal>
0.0000

> <Gold.Chemscore.Lipo>
71.3240

> <Gold.Chemscore.Internal_Hbond>
0.0000

> <Gold.Chemscore.DEClash>
0.4609

> <Gold.Chemscore.DEInternal>
0.6275

> <Gold.Chemscore.Rot>
1.5576

> <Gold.Chemscore.Internal.Correction>
   9.000000E+99

> <Gold.Chemscore.Hbonds>
donor molecule, donor type, donor heavy atom, donor atom, acceptor molecule, acceptor atom, score
      L1  H     9    29       P1  7948  0.61
      L1  H    12    30       P1  7948  0.94

> <Gold.Chemscore.Hbond.Weighted>
-6.0802

> <Gold.Chemscore.Metal.Weighted>
-0.0000

> <Gold.Chemscore.Lipo.Weighted>
-8.3449

> <Gold.Chemscore.Internal_Hbond.Weighted>
0.0000

> <Gold.Chemscore.DEClash.Weighted>
0.4609

> <Gold.Chemscore.DEInternal.Weighted>
0.6275

> <Gold.Chemscore.Rot.Weighted>
3.9875

> <Gold.Chemscore.Internal.Correction.Weighted>
   9.000000E+99

> <Gold.Protein.RotatedTorsions>
[ 6907 6896 6895 6894 ] final   24.11 input  -60.11 | X-H torsion
[ 7974 7965 7964 7962 ] final    0.56 input  175.53 | X-H torsion
[ 8008 7997 7996 7995 ] final -116.51 input   59.86 | X-H torsion
[ 10167 10162 10161 10158 ] final -121.56 input  -65.29 | X-H torsion
[ 10718 10713 10712 10709 ] final  -44.00 input   66.30 | X-H torsion
[ 10763 10752 10751 10750 ] final -174.10 input  -60.55 | X-H torsion
[ 11005 11000 10999 10996 ] final   59.04 input  -57.11 | X-H torsion

> <Gold.Protein.ActiveResidues>
 VAL166  LYS551  ARG553  GLY616  TRP617  ASP618  TYR619  PRO620  LYS621  CYS622 
 ASP623  PHE694  ASN695  SER759  ASP760  ASP761  ALA762  ILE779  LEU786  VAL792 
 PHE793  MET794  SER795  GLU796  ALA797  LYS798  CYS799  TRP800  GLU811  SER814 

> <Gold.Protein.RotatedAtoms>
  151.9526  135.0162  160.0542 H   0  0  0  0  0  0  0  0  0  0  0  0  # atno 6907 bound_to 6896
  152.1940  133.4788  159.5031 H   0  0  0  0  0  0  0  0  0  0  0  0  # atno 6908 bound_to 6896
  150.6940  134.1593  159.4213 H   0  0  0  0  0  0  0  0  0  0  0  0  # atno 6909 bound_to 6896
  146.2435  140.1120  142.8343 H   0  0  0  0  0  0  0  0  0  0  0  0  # atno 7974 bound_to 7965
  155.0691  140.0393  157.2602 H   0  0  0  0  0  0  0  0  0  0  0  0  # atno 8008 bound_to 7997
  154.6997  140.2671  155.6707 H   0  0  0  0  0  0  0  0  0  0  0  0  # atno 8009 bound_to 7997
  156.2756  140.2743  156.1604 H   0  0  0  0  0  0  0  0  0  0  0  0  # atno 8010 bound_to 7997
  140.0238  143.5318  152.2208 H   0  0  0  0  0  0  0  0  0  0  0  0  # atno 10167 bound_to 10162
  156.2431  130.4181  149.8737 H   0  0  0  0  0  0  0  0  0  0  0  0  # atno 10718 bound_to 10713
  154.6002  135.2854  155.0543 H   0  0  0  0  0  0  0  0  0  0  0  0  # atno 10763 bound_to 10752
  154.1811  135.6456  153.5038 H   0  0  0  0  0  0  0  0  0  0  0  0  # atno 10764 bound_to 10752
  153.0154  135.5424  154.6718 H   0  0  0  0  0  0  0  0  0  0  0  0  # atno 10765 bound_to 10752
  140.0333  134.5980  155.9478 H   0  0  0  0  0  0  0  0  0  0  0  0  # atno 11005 bound_to 11000
  145.0479  140.8995  143.5013 LP  0  0  0  0  0  0  0  0  0  0  0  0  # atno 17320 bound_to 7965
  145.1212  139.2692  143.5587 LP  0  0  0  0  0  0  0  0  0  0  0  0  # atno 17321 bound_to 7965
  139.6122  144.7611  151.2926 LP  0  0  0  0  0  0  0  0  0  0  0  0  # atno 17342 bound_to 10162
  140.7331  143.6803  150.8006 LP  0  0  0  0  0  0  0  0  0  0  0  0  # atno 17343 bound_to 10162
  156.6311  130.8666  151.3495 LP  0  0  0  0  0  0  0  0  0  0  0  0  # atno 17370 bound_to 10713
  157.7184  130.9526  150.1341 LP  0  0  0  0  0  0  0  0  0  0  0  0  # atno 17371 bound_to 10713
  141.1843  133.6552  156.5152 LP  0  0  0  0  0  0  0  0  0  0  0  0  # atno 17394 bound_to 11000
  140.4189  134.7205  157.4879 LP  0  0  0  0  0  0  0  0  0  0  0  0  # atno 17395 bound_to 11000

$$$$
