AV-unprocessed.smi:1|AV-procd|sdf|20|dock4
  -GOLD-   2262015123D 1   1.00000     0.00000
 Structure written by MMmdl.
 56 61  0  0  0  0  0  0  0  0  2 V2000
  153.2215  140.2142  158.3537 O   0  0  0  0  0  0  0  0  0  0  0  0
  152.3580  141.0204  158.0006 C   0  0  0  0  0  0  0  0  0  0  0  0
  151.6565  141.0335  156.8388 N   0  5  0  0  0  0  0  0  0  0  0  0
  151.1850  139.8832  156.3334 C   0  0  0  0  0  0  0  0  0  0  0  0
  150.7500  139.8257  155.0490 N   0  0  0  0  0  0  0  0  0  0  0  0
  150.2862  138.6774  154.5433 C   0  0  0  0  0  0  0  0  0  0  0  0
  150.1697  137.4854  155.1359 N   0  0  0  0  0  0  0  0  0  0  0  0
  150.5917  137.5306  156.4329 C   0  0  0  0  0  0  0  0  0  0  0  0
  151.1014  138.6854  157.0958 C   0  0  0  0  0  0  0  0  0  0  0  0
  151.4347  138.3923  158.4092 N   0  0  0  0  0  0  0  0  0  0  0  0
  151.1250  137.1003  158.4827 C   0  0  0  0  0  0  0  0  0  0  0  0
  150.6357  136.5120  157.3729 N   0  0  0  0  0  0  0  0  0  0  0  0
  150.2204  135.0834  157.2233 C   0  0  1  0  0  0  0  0  0  0  0  0
  150.5687  134.3792  158.3785 O   0  0  0  0  0  0  0  0  0  0  0  0
  149.4042  133.8979  159.0444 C   0  0  2  0  0  0  0  0  0  0  0  0
  149.6992  132.5960  159.7974 C   0  0  0  0  0  0  0  0  0  0  0  0
  148.5162  132.1735  160.4546 O   0  0  0  0  0  0  0  0  0  0  0  0
  148.0756  132.8283  161.5448 C   0  0  0  0  0  0  0  0  0  0  0  0
  148.7862  133.5645  162.2322 O   0  0  0  0  0  0  0  0  0  0  0  0
  146.6357  132.5676  161.8330 C   0  0  0  0  0  0  0  0  0  0  0  0
  146.0054  133.2561  162.8957 C   0  0  0  0  0  0  0  0  0  0  0  0
  144.6465  133.0318  163.1897 C   0  0  0  0  0  0  0  0  0  0  0  0
  143.9010  132.1160  162.4250 C   0  0  0  0  0  0  0  0  0  0  0  0
  144.5164  131.4242  161.3656 C   0  0  0  0  0  0  0  0  0  0  0  0
  145.8753  131.6472  161.0697 C   0  0  0  0  0  0  0  0  0  0  0  0
  148.3665  133.7691  157.9313 C   0  0  2  0  0  0  0  0  0  0  0  0
  148.5458  132.5718  157.1925 O   0  0  0  0  0  0  0  0  0  0  0  0
  148.3929  132.9283  155.5675 S   0  0  0  0  0  0  0  0  0  0  0  0
  149.6257  132.5055  154.8859 O   0  0  0  0  0  0  0  0  0  0  0  0
  147.0559  132.5045  155.1248 O   0  0  0  0  0  0  0  0  0  0  0  0
  148.4004  134.5957  155.6816 O   0  0  0  0  0  0  0  0  0  0  0  0
  148.7032  134.9517  157.0187 C   0  0  2  0  0  0  0  0  0  0  0  0
  152.0453  142.1875  158.8982 C   0  0  0  0  0  0  0  0  0  0  0  0
  151.4775  143.3601  158.3497 C   0  0  0  0  0  0  0  0  0  0  0  0
  151.2029  144.4734  159.1677 C   0  0  0  0  0  0  0  0  0  0  0  0
  151.5027  144.4296  160.5422 C   0  0  0  0  0  0  0  0  0  0  0  0
  152.0805  143.2726  161.0972 C   0  0  0  0  0  0  0  0  0  0  0  0
  152.3549  142.1586  160.2800 C   0  0  0  0  0  0  0  0  0  0  0  0
  149.9648  138.7191  153.5133 H   0  0  0  0  0  0  0  0  0  0  0  0
  151.2675  136.5467  159.3991 H   0  0  0  0  0  0  0  0  0  0  0  0
  150.8056  134.7074  156.3829 H   0  0  0  0  0  0  0  0  0  0  0  0
  149.0597  134.6542  159.7492 H   0  0  0  0  0  0  0  0  0  0  0  0
  150.0087  131.8228  159.0930 H   0  0  0  0  0  0  0  0  0  0  0  0
  150.5101  132.7375  160.5132 H   0  0  0  0  0  0  0  0  0  0  0  0
  146.5576  133.9643  163.4962 H   0  0  0  0  0  0  0  0  0  0  0  0
  144.1762  133.5635  164.0037 H   0  0  0  0  0  0  0  0  0  0  0  0
  142.8588  131.9444  162.6507 H   0  0  0  0  0  0  0  0  0  0  0  0
  143.9458  130.7211  160.7768 H   0  0  0  0  0  0  0  0  0  0  0  0
  146.3160  131.1003  160.2490 H   0  0  0  0  0  0  0  0  0  0  0  0
  147.3434  133.8082  158.3062 H   0  0  0  0  0  0  0  0  0  0  0  0
  148.1804  135.8571  157.3285 H   0  0  0  0  0  0  0  0  0  0  0  0
  151.2438  143.4106  157.2960 H   0  0  0  0  0  0  0  0  0  0  0  0
  150.7635  145.3619  158.7390 H   0  0  0  0  0  0  0  0  0  0  0  0
  151.2934  145.2834  161.1691 H   0  0  0  0  0  0  0  0  0  0  0  0
  152.3177  143.2394  162.1503 H   0  0  0  0  0  0  0  0  0  0  0  0
  152.8091  141.2842  160.7235 H   0  0  0  0  0  0  0  0  0  0  0  0
  1  2  2  0  0  0  0
  2  3  1  0  0  0  0
  2 33  1  0  0  0  0
  3  4  1  0  0  0  0
  4  9  1  0  0  0  0
  4  5  2  0  0  0  0
  5  6  1  0  0  0  0
  6  7  2  0  0  0  0
  6 39  1  0  0  0  0
  7  8  1  0  0  0  0
  8 12  1  0  0  0  0
  8  9  2  0  0  0  0
  9 10  1  0  0  0  0
 10 11  2  0  0  0  0
 11 12  1  0  0  0  0
 11 40  1  0  0  0  0
 12 13  1  0  0  0  0
 13 32  1  0  0  0  0
 13 14  1  0  0  0  0
 13 41  1  0  0  0  0
 14 15  1  0  0  0  0
 15 16  1  0  0  0  0
 15 26  1  0  0  0  0
 15 42  1  0  0  0  0
 16 17  1  0  0  0  0
 16 43  1  0  0  0  0
 16 44  1  0  0  0  0
 17 18  1  0  0  0  0
 18 19  2  0  0  0  0
 18 20  1  0  0  0  0
 20 25  1  0  0  0  0
 20 21  2  0  0  0  0
 21 22  1  0  0  0  0
 21 45  1  0  0  0  0
 22 23  2  0  0  0  0
 22 46  1  0  0  0  0
 23 24  1  0  0  0  0
 23 47  1  0  0  0  0
 24 25  2  0  0  0  0
 24 48  1  0  0  0  0
 25 49  1  0  0  0  0
 26 32  1  0  0  0  0
 26 27  1  0  0  0  0
 26 50  1  0  0  0  0
 27 28  1  0  0  0  0
 28 29  2  0  0  0  0
 28 30  2  0  0  0  0
 28 31  1  0  0  0  0
 31 32  1  0  0  0  0
 32 51  1  0  0  0  0
 33 38  1  0  0  0  0
 33 34  2  0  0  0  0
 34 35  1  0  0  0  0
 34 52  1  0  0  0  0
 35 36  2  0  0  0  0
 35 53  1  0  0  0  0
 36 37  1  0  0  0  0
 36 54  1  0  0  0  0
 37 38  2  0  0  0  0
 37 55  1  0  0  0  0
 38 56  1  0  0  0  0
M  CHG  1   3  -1
M  END
> <s_m_source_file>
AV-unprocessed.smi

> <i_m_source_file_index>
1

> <i_lp_mmshare_version>
43012

> <i_f3d_flags>
0

> <s_epik_input>
W2NIXTFbY0hdW2NIXVtjSF1bY0hdYzFDKD1PKVtOSF1jKG5bY0hdbjIpYyhjMjMpbltjSF1uM1tDQEBIXShbQ0BIXShbQ0BIXTQ1KU9TKE81KSg9Tyk9TylPW0NASF00W0NIMl1PQyg9TyljNltjSF1bY0hdW2NIXVtjSF1bY0hdNg==

> <s_epik_cmdline>
J2VwaWtfcHl0aG9uJywgJy1waCcsICc3LjAnLCAnLXRuJywgJzgnLCAnLW1hJywgJzIwMCcsICctbWV0YWxfYmluZGluZycsICctaW1hZScsICc8aW5maWxlLm1hZT4nLCAnLW9tYWUnLCAnPG91dGZpbGUubWFlPic=

> <r_lp_tautomer_probability>
1

> <r_epik_Ionization_Penalty>
4.39121

> <r_epik_Ionization_Penalty_Charging>
3.39398

> <r_epik_Ionization_Penalty_Neutral>
0.997232

> <r_epik_State_Penalty>
3.39839

> <r_epik_Charging_Adjusted_Penalty>
6.79237

> <i_epik_Tot_Q>
-1

> <i_epik_Tot_abs_Q>
1

> <r_epik_Metal_State_Penalty>
0.497663

> <b_epik_Metal_Only>
1

> <s_epik_Chemistry_Notes>
This compound has an ester and may undergo hydrolysis at high or low pH. This compound contains an acetal/aminal-like group ( X-CH(R)-Y where X, Y are N, S, or O) that may be acid/base labile, releasing an aldehyde.

> <s_lp_Force_Field>
OPLS_2005

> <r_lp_Energy>
42.8802

> <b_lp_Chiralities_Consistent>
1

> <s_lp_Variant>
AV-unprocessed.smi:1-20

> <Gold.Version>
5.8.1

> <Gold.Id.Protein>
6NUR|6NUR_protein|mol2

> <Gold.PLP.Fitness>
61.7329

> <Gold.PLP.PLP>
-51.0622

> <Gold.PLP.part.hbond>
-3.0000

> <Gold.PLP.part.metal>
0.0000

> <Gold.PLP.part.buried>
-7.7860

> <Gold.PLP.part.nonpolar>
-39.5927

> <Gold.PLP.part.repulsive>
0.3455

> <Gold.PLP.ligand.clash>
0.0000

> <Gold.PLP.ligand.torsion>
0.9826

> <Gold.PLP.Chemscore.Hbond>
3.0000

> <Gold.PLP.Chemscore.CHOScore>
1.0000

> <Gold.PLP.Chemscore.Metal>
0.0000

> <Gold.Chemscore.Hbonds>
donor molecule, donor type, donor heavy atom, donor atom, acceptor molecule, acceptor atom, score
      P1  H  7989  7998       L1     5  0.91
      P1  H  7997  8009       L1     1  0.96
      L1  C     6    39       P1  7957  0.55

> <Gold.PLP.Chemscore.Internal.Correction>
0.6358

> <Gold.Rescore>
     Score         DG    S(hbond)    S(metal)    S(lipo)     H(rot)  DE(clash)    DE(int)     intcor
     17.34     -22.15       2.47        0.00     118.22       2.11       0.04       4.78       ----

> <Gold.Chemscore.Fitness>
17.3361

> <Gold.Chemscore.DG>
-22.1492

> <Gold.Chemscore.ZeroCoef>
-5.4800

> <Gold.Chemscore.Hbond>
2.4695

> <Gold.Chemscore.Metal>
0.0000

> <Gold.Chemscore.Lipo>
118.2218

> <Gold.Chemscore.Internal_Hbond>
0.0000

> <Gold.Chemscore.DEClash>
0.0351

> <Gold.Chemscore.DEInternal>
4.7781

> <Gold.Chemscore.Rot>
2.1136

> <Gold.Chemscore.Internal.Correction>
   9.000000E+99

> <Gold.Chemscore.Hbonds>
donor molecule, donor type, donor heavy atom, donor atom, acceptor molecule, acceptor atom, score
      P1  H  7989  7998       L1     5  0.52
      P1  H  7997  8009       L1     1  0.72

> <Gold.Chemscore.Hbond.Weighted>
-8.2480

> <Gold.Chemscore.Metal.Weighted>
-0.0000

> <Gold.Chemscore.Lipo.Weighted>
-13.8319

> <Gold.Chemscore.Internal_Hbond.Weighted>
0.0000

> <Gold.Chemscore.DEClash.Weighted>
0.0351

> <Gold.Chemscore.DEInternal.Weighted>
4.7781

> <Gold.Chemscore.Rot.Weighted>
5.4107

> <Gold.Chemscore.Internal.Correction.Weighted>
   9.000000E+99

> <Gold.Protein.RotatedTorsions>
[ 6907 6896 6895 6894 ] final  136.54 input  -60.11 | X-H torsion
[ 7974 7965 7964 7962 ] final   76.36 input  175.53 | X-H torsion
[ 8008 7997 7996 7995 ] final  153.20 input   59.86 | X-H torsion
[ 10167 10162 10161 10158 ] final -150.67 input  -65.29 | X-H torsion
[ 10718 10713 10712 10709 ] final  -16.72 input   66.30 | X-H torsion
[ 10763 10752 10751 10750 ] final  -87.59 input  -60.55 | X-H torsion
[ 11005 11000 10999 10996 ] final  121.22 input  -57.11 | X-H torsion

> <Gold.Protein.ActiveResidues>
 VAL166  LYS551  ARG553  GLY616  TRP617  ASP618  TYR619  PRO620  LYS621  CYS622 
 ASP623  PHE694  ASN695  SER759  ASP760  ASP761  ALA762  ILE779  LEU786  VAL792 
 PHE793  MET794  SER795  GLU796  ALA797  LYS798  CYS799  TRP800  GLU811  SER814 

> <Gold.Protein.RotatedAtoms>
  152.2882  133.5535  159.5540 H   0  0  0  0  0  0  0  0  0  0  0  0  # atno 6907 bound_to 6896
  150.7224  134.0467  159.3793 H   0  0  0  0  0  0  0  0  0  0  0  0  # atno 6908 bound_to 6896
  151.8374  135.0602  160.0495 H   0  0  0  0  0  0  0  0  0  0  0  0  # atno 6909 bound_to 6896
  145.7038  139.2591  143.1690 H   0  0  0  0  0  0  0  0  0  0  0  0  # atno 7974 bound_to 7965
  156.2593  140.2000  156.6453 H   0  0  0  0  0  0  0  0  0  0  0  0  # atno 8008 bound_to 7997
  154.6578  140.0564  157.0053 H   0  0  0  0  0  0  0  0  0  0  0  0  # atno 8009 bound_to 7997
  155.1322  140.3235  155.4474 H   0  0  0  0  0  0  0  0  0  0  0  0  # atno 8010 bound_to 7997
  139.7334  143.8773  152.2541 H   0  0  0  0  0  0  0  0  0  0  0  0  # atno 10167 bound_to 10162
  156.5836  130.4780  149.6309 H   0  0  0  0  0  0  0  0  0  0  0  0  # atno 10718 bound_to 10713
  154.6353  135.5407  153.7727 H   0  0  0  0  0  0  0  0  0  0  0  0  # atno 10763 bound_to 10752
  153.0305  135.6446  154.1240 H   0  0  0  0  0  0  0  0  0  0  0  0  # atno 10764 bound_to 10752
  154.1168  135.2923  155.3198 H   0  0  0  0  0  0  0  0  0  0  0  0  # atno 10765 bound_to 10752
  139.9217  134.9638  156.7926 H   0  0  0  0  0  0  0  0  0  0  0  0  # atno 11005 bound_to 11000
  146.0774  140.7802  142.9658 LP  0  0  0  0  0  0  0  0  0  0  0  0  # atno 17320 bound_to 7965
  144.6961  140.3435  143.7195 LP  0  0  0  0  0  0  0  0  0  0  0  0  # atno 17321 bound_to 7965
  139.8703  144.7072  150.8996 LP  0  0  0  0  0  0  0  0  0  0  0  0  # atno 17342 bound_to 10162
  140.7775  143.3744  151.1590 LP  0  0  0  0  0  0  0  0  0  0  0  0  # atno 17343 bound_to 10162
  156.2610  130.6962  151.1731 LP  0  0  0  0  0  0  0  0  0  0  0  0  # atno 17370 bound_to 10713
  157.7320  131.0603  150.5647 LP  0  0  0  0  0  0  0  0  0  0  0  0  # atno 17371 bound_to 10713
  140.6455  133.9779  155.7728 LP  0  0  0  0  0  0  0  0  0  0  0  0  # atno 17394 bound_to 11000
  141.0743  134.0158  157.3481 LP  0  0  0  0  0  0  0  0  0  0  0  0  # atno 17395 bound_to 11000

$$$$
