AV-unprocessed.smi:2281|AV-procd|sdf|9193|dock10
  -GOLD-   2272012413D 1   1.00000     0.00000
 Structure written by MMmdl.
 40 41  0  0  0  0  0  0  0  0  1 V2000
  146.8188  141.5590  153.4733 C   0  0  0  0  0  0  0  0  0  0  0  0
  148.0861  141.0329  154.1236 C   0  0  0  0  0  0  0  0  0  0  0  0
  148.8840  141.9910  154.7545 N   0  0  0  0  0  0  0  0  0  0  0  0
  149.9878  141.6357  155.3259 C   0  0  0  0  0  0  0  0  0  0  0  0
  150.4248  140.3003  155.3281 N   0  0  0  0  0  0  0  0  0  0  0  0
  151.6993  140.0366  156.0274 C   0  0  0  0  0  0  0  0  0  0  0  0
  151.5604  139.5163  157.4918 C   0  0  1  0  0  0  0  0  0  0  0  0
  150.1142  139.1959  157.9305 C   0  0  0  0  0  0  0  0  0  0  0  0
  152.2430  138.2750  157.5386 O   0  0  0  0  0  0  0  0  0  0  0  0
  152.1871  140.5389  158.4518 C   0  0  0  0  0  0  0  0  0  0  0  0
  153.2225  140.1835  159.3501 C   0  0  0  0  0  0  0  0  0  0  0  0
  153.7821  141.1439  160.2136 C   0  0  0  0  0  0  0  0  0  0  0  0
  153.3168  142.4711  160.1920 C   0  0  0  0  0  0  0  0  0  0  0  0
  152.2848  142.8462  159.3074 C   0  0  0  0  0  0  0  0  0  0  0  0
  151.7930  144.2859  159.2765 C   0  0  0  0  0  0  0  0  0  0  0  0
  152.5039  145.0225  158.4220 F   0  0  0  0  0  0  0  0  0  0  0  0
  150.5133  144.3362  158.9050 F   0  0  0  0  0  0  0  0  0  0  0  0
  151.9074  144.8134  160.4948 F   0  0  0  0  0  0  0  0  0  0  0  0
  151.7321  141.8786  158.4405 C   0  0  0  0  0  0  0  0  0  0  0  0
  149.6907  139.2987  154.7588 C   0  0  0  0  0  0  0  0  0  0  0  0
  150.0632  138.1243  154.7876 O   0  0  0  0  0  0  0  0  0  0  0  0
  148.4403  139.7192  154.1061 C   0  0  0  0  0  0  0  0  0  0  0  0
  147.6126  138.6318  153.4321 C   0  0  0  0  0  0  0  0  0  0  0  0
  146.8164  141.3371  152.4058 H   0  0  0  0  0  0  0  0  0  0  0  0
  146.7314  142.6400  153.5897 H   0  0  0  0  0  0  0  0  0  0  0  0
  145.9391  141.1021  153.9271 H   0  0  0  0  0  0  0  0  0  0  0  0
  150.6434  142.3437  155.8357 H   0  0  0  0  0  0  0  0  0  0  0  0
  152.3229  139.3509  155.4494 H   0  0  0  0  0  0  0  0  0  0  0  0
  152.2808  140.9596  156.0260 H   0  0  0  0  0  0  0  0  0  0  0  0
  149.4636  140.0673  157.8634 H   0  0  0  0  0  0  0  0  0  0  0  0
  150.0877  138.8503  158.9646 H   0  0  0  0  0  0  0  0  0  0  0  0
  149.6675  138.4096  157.3212 H   0  0  0  0  0  0  0  0  0  0  0  0
  152.1834  137.9317  158.4168 H   0  0  0  0  0  0  0  0  0  0  0  0
  153.6066  139.1754  159.3916 H   0  0  0  0  0  0  0  0  0  0  0  0
  154.5727  140.8616  160.8931 H   0  0  0  0  0  0  0  0  0  0  0  0
  153.7579  143.2010  160.8547 H   0  0  0  0  0  0  0  0  0  0  0  0
  150.9531  142.1698  157.7516 H   0  0  0  0  0  0  0  0  0  0  0  0
  148.1859  138.1683  152.6287 H   0  0  0  0  0  0  0  0  0  0  0  0
  146.6839  139.0031  153.0019 H   0  0  0  0  0  0  0  0  0  0  0  0
  147.3513  137.8560  154.1526 H   0  0  0  0  0  0  0  0  0  0  0  0
  1  2  1  0  0  0  0
  1 24  1  0  0  0  0
  1 25  1  0  0  0  0
  1 26  1  0  0  0  0
  2 22  2  0  0  0  0
  2  3  1  0  0  0  0
  3  4  2  0  0  0  0
  4  5  1  0  0  0  0
  4 27  1  0  0  0  0
  5  6  1  0  0  0  0
  5 20  1  0  0  0  0
  6  7  1  0  0  0  0
  6 28  1  0  0  0  0
  6 29  1  0  0  0  0
  7  8  1  0  0  0  0
  7  9  1  0  0  0  0
  7 10  1  0  0  0  0
  8 30  1  0  0  0  0
  8 31  1  0  0  0  0
  8 32  1  0  0  0  0
  9 33  1  0  0  0  0
 10 19  1  0  0  0  0
 10 11  2  0  0  0  0
 11 12  1  0  0  0  0
 11 34  1  0  0  0  0
 12 13  2  0  0  0  0
 12 35  1  0  0  0  0
 13 14  1  0  0  0  0
 13 36  1  0  0  0  0
 14 15  1  0  0  0  0
 14 19  2  0  0  0  0
 15 16  1  0  0  0  0
 15 17  1  0  0  0  0
 15 18  1  0  0  0  0
 19 37  1  0  0  0  0
 20 21  2  0  0  0  0
 20 22  1  0  0  0  0
 22 23  1  0  0  0  0
 23 38  1  0  0  0  0
 23 39  1  0  0  0  0
 23 40  1  0  0  0  0
M  END
> <s_m_source_file>
AV-unprocessed.smi

> <i_m_source_file_index>
2281

> <i_lp_mmshare_version>
43012

> <i_f3d_flags>
0

> <s_epik_input>
W0NIM11jMW5bY0hdbihjKD1PKWMxW0NIM10pW0NIMl1bQ0BAXShbQ0gzXSkoW09IXSljMltjSF1bY0hdW2NIXWMoQyhGKShGKUYpW2NIXTI=

> <s_epik_cmdline>
J2VwaWtfcHl0aG9uJywgJy1waCcsICc3LjAnLCAnLXRuJywgJzgnLCAnLW1hJywgJzIwMCcsICctbWV0YWxfYmluZGluZycsICctaW1hZScsICc8aW5maWxlLm1hZT4nLCAnLW9tYWUnLCAnPG91dGZpbGUubWFlPic=

> <r_lp_tautomer_probability>
1

> <r_epik_Ionization_Penalty>
5.68222e-05

> <r_epik_Ionization_Penalty_Charging>
9.07816e-08

> <r_epik_Ionization_Penalty_Neutral>
5.67314e-05

> <r_epik_State_Penalty>
-0

> <r_epik_Charging_Adjusted_Penalty>
9.07816e-08

> <i_epik_Tot_Q>
0

> <i_epik_Tot_abs_Q>
0

> <r_epik_Metal_State_Penalty>
-0

> <b_epik_Metal_Only>
0

> <s_lp_Force_Field>
OPLS_2005

> <r_lp_Energy>
23.727

> <b_lp_Chiralities_Consistent>
1

> <s_lp_Variant>
AV-unprocessed.smi:2281-1

> <Gold.Version>
5.8.1

> <Gold.Id.Protein>
6NUR|6NUR_protein|mol2

> <Gold.PLP.Fitness>
46.6551

> <Gold.PLP.PLP>
-50.9757

> <Gold.PLP.part.hbond>
-0.4072

> <Gold.PLP.part.metal>
0.0000

> <Gold.PLP.part.buried>
-5.3616

> <Gold.PLP.part.nonpolar>
-46.9741

> <Gold.PLP.part.repulsive>
2.2694

> <Gold.PLP.ligand.clash>
0.0000

> <Gold.PLP.ligand.torsion>
2.6888

> <Gold.PLP.Chemscore.Hbond>
0.0000

> <Gold.PLP.Chemscore.CHOScore>
0.0000

> <Gold.PLP.Chemscore.Metal>
0.0000

> <Gold.PLP.Chemscore.Internal.Correction>
1.0571

> <Gold.Rescore>
     Score         DG    S(hbond)    S(metal)    S(lipo)     H(rot)  DE(clash)    DE(int)     intcor
     10.18     -13.10       0.00        0.00     110.74       2.09       1.10       1.81       ----

> <Gold.Chemscore.Fitness>
10.1820

> <Gold.Chemscore.DG>
-13.0964

> <Gold.Chemscore.ZeroCoef>
-5.4800

> <Gold.Chemscore.Hbond>
0.0001

> <Gold.Chemscore.Metal>
0.0000

> <Gold.Chemscore.Lipo>
110.7386

> <Gold.Chemscore.Internal_Hbond>
0.0000

> <Gold.Chemscore.DEClash>
1.1031

> <Gold.Chemscore.DEInternal>
1.8113

> <Gold.Chemscore.Rot>
2.0860

> <Gold.Chemscore.Internal.Correction>
   9.000000E+99

> <Gold.Chemscore.Hbond.Weighted>
-0.0002

> <Gold.Chemscore.Metal.Weighted>
-0.0000

> <Gold.Chemscore.Lipo.Weighted>
-12.9564

> <Gold.Chemscore.Internal_Hbond.Weighted>
0.0000

> <Gold.Chemscore.DEClash.Weighted>
1.1031

> <Gold.Chemscore.DEInternal.Weighted>
1.8113

> <Gold.Chemscore.Rot.Weighted>
5.3402

> <Gold.Chemscore.Internal.Correction.Weighted>
   9.000000E+99

> <Gold.Protein.RotatedTorsions>
[ 6907 6896 6895 6894 ] final   30.63 input  -60.11 | X-H torsion
[ 7974 7965 7964 7962 ] final  123.99 input  175.53 | X-H torsion
[ 8008 7997 7996 7995 ] final  146.56 input   59.86 | X-H torsion
[ 10167 10162 10161 10158 ] final    0.51 input  -65.29 | X-H torsion
[ 10718 10713 10712 10709 ] final  -15.76 input   66.30 | X-H torsion
[ 10763 10752 10751 10750 ] final  -94.84 input  -60.55 | X-H torsion
[ 11005 11000 10999 10996 ] final  -25.69 input  -57.11 | X-H torsion

> <Gold.Protein.ActiveResidues>
 VAL166  LYS551  ARG553  GLY616  TRP617  ASP618  TYR619  PRO620  LYS621  CYS622 
 ASP623  PHE694  ASN695  SER759  ASP760  ASP761  ALA762  ILE779  LEU786  VAL792 
 PHE793  MET794  SER795  GLU796  ALA797  LYS798  CYS799  TRP800  GLU811  SER814 

> <Gold.Protein.RotatedAtoms>
  152.0488  134.9666  160.0574 H   0  0  0  0  0  0  0  0  0  0  0  0  # atno 6907 bound_to 6896
  152.1076  133.4278  159.4624 H   0  0  0  0  0  0  0  0  0  0  0  0  # atno 6908 bound_to 6896
  150.6842  134.2606  159.4591 H   0  0  0  0  0  0  0  0  0  0  0  0  # atno 6909 bound_to 6896
  145.0896  139.3597  143.4867 H   0  0  0  0  0  0  0  0  0  0  0  0  # atno 7974 bound_to 7965
  156.2852  140.2179  156.5396 H   0  0  0  0  0  0  0  0  0  0  0  0  # atno 8008 bound_to 7997
  154.7381  140.0490  157.0809 H   0  0  0  0  0  0  0  0  0  0  0  0  # atno 8009 bound_to 7997
  155.0266  140.3130  155.4776 H   0  0  0  0  0  0  0  0  0  0  0  0  # atno 8010 bound_to 7997
  140.6725  143.7009  150.7953 H   0  0  0  0  0  0  0  0  0  0  0  0  # atno 10167 bound_to 10162
  156.5972  130.4814  149.6254 H   0  0  0  0  0  0  0  0  0  0  0  0  # atno 10718 bound_to 10713
  154.7093  135.5142  153.8642 H   0  0  0  0  0  0  0  0  0  0  0  0  # atno 10763 bound_to 10752
  153.0767  135.6618  154.0140 H   0  0  0  0  0  0  0  0  0  0  0  0  # atno 10764 bound_to 10752
  153.9985  135.3013  155.3384 H   0  0  0  0  0  0  0  0  0  0  0  0  # atno 10765 bound_to 10752
  140.8961  133.7555  156.0483 H   0  0  0  0  0  0  0  0  0  0  0  0  # atno 11005 bound_to 11000
  146.3531  140.0723  142.8622 LP  0  0  0  0  0  0  0  0  0  0  0  0  # atno 17320 bound_to 7965
  145.1082  140.9388  143.4672 LP  0  0  0  0  0  0  0  0  0  0  0  0  # atno 17321 bound_to 7965
  140.0696  143.5074  152.2586 LP  0  0  0  0  0  0  0  0  0  0  0  0  # atno 17342 bound_to 10162
  139.6000  144.7579  151.3194 LP  0  0  0  0  0  0  0  0  0  0  0  0  # atno 17343 bound_to 10162
  156.2499  130.6901  151.1635 LP  0  0  0  0  0  0  0  0  0  0  0  0  # atno 17370 bound_to 10713
  157.7289  131.0628  150.5800 LP  0  0  0  0  0  0  0  0  0  0  0  0  # atno 17371 bound_to 10713
  140.8287  134.3204  157.5356 LP  0  0  0  0  0  0  0  0  0  0  0  0  # atno 17394 bound_to 11000
  139.8736  134.9351  156.3624 LP  0  0  0  0  0  0  0  0  0  0  0  0  # atno 17395 bound_to 11000

$$$$
