AV-unprocessed.smi:3187|AV-procd|sdf|12179|dock1
  -GOLD-   2272018 13D 1   1.00000     0.00000
 Structure written by MMmdl.
 42 43  0  0  0  0  0  0  0  0  3 V2000
  152.0262  145.7181  160.2505 C   0  0  0  0  0  0  0  0  0  0  0  0
  151.9100  144.2446  159.8967 C   0  0  0  0  0  0  0  0  0  0  0  0
  152.6351  143.3191  160.5558 C   0  0  0  0  0  0  0  0  0  0  0  0
  152.6325  141.8327  160.2444 C   0  0  0  0  0  0  0  0  0  0  0  0
  151.5629  141.4340  159.2147 C   0  0  0  0  0  0  0  0  0  0  0  0
  151.4084  142.5068  158.1231 C   0  0  1  0  0  0  0  0  0  0  0  0
  150.5281  142.0253  156.9568 C   0  0  0  0  0  0  0  0  0  0  0  0
  150.9770  143.8688  158.7372 C   0  0  1  0  0  0  0  0  0  0  0  0
  149.4826  143.9008  159.1534 C   0  0  0  0  0  0  0  0  0  0  0  0
  149.0161  145.2558  159.5081 N   0  3  0  0  0  0  0  0  0  0  0  0
  148.4171  145.3572  160.8530 C   0  0  0  0  0  0  0  0  0  0  0  0
  147.6294  144.0867  161.2034 C   0  0  0  0  0  0  0  0  0  0  0  0
  146.1999  144.2358  160.9205 N   0  0  0  0  0  0  0  0  0  0  0  0
  145.1920  143.3687  161.2573 C   0  0  0  0  0  0  0  0  0  0  0  0
  144.0285  143.9191  160.7844 C   0  0  0  0  0  0  0  0  0  0  0  0
  144.3747  145.0982  160.1805 N   0  3  0  0  0  0  0  0  0  0  0  0
  145.6955  145.2896  160.2647 C   0  0  0  0  0  0  0  0  0  0  0  0
  152.1749  146.3181  159.3524 H   0  0  0  0  0  0  0  0  0  0  0  0
  152.8765  145.8958  160.9100 H   0  0  0  0  0  0  0  0  0  0  0  0
  151.1381  146.0765  160.7681 H   0  0  0  0  0  0  0  0  0  0  0  0
  153.2995  143.6278  161.3500 H   0  0  0  0  0  0  0  0  0  0  0  0
  153.6216  141.5785  159.8620 H   0  0  0  0  0  0  0  0  0  0  0  0
  152.4971  141.2668  161.1666 H   0  0  0  0  0  0  0  0  0  0  0  0
  151.8291  140.4732  158.7727 H   0  0  0  0  0  0  0  0  0  0  0  0
  150.6084  141.2787  159.7180 H   0  0  0  0  0  0  0  0  0  0  0  0
  152.4004  142.6612  157.6944 H   0  0  0  0  0  0  0  0  0  0  0  0
  149.5463  141.6933  157.2943 H   0  0  0  0  0  0  0  0  0  0  0  0
  150.9928  141.1807  156.4471 H   0  0  0  0  0  0  0  0  0  0  0  0
  150.3862  142.8139  156.2174 H   0  0  0  0  0  0  0  0  0  0  0  0
  151.1200  144.6171  157.9560 H   0  0  0  0  0  0  0  0  0  0  0  0
  148.8468  143.5531  158.3403 H   0  0  0  0  0  0  0  0  0  0  0  0
  149.3127  143.2323  159.9983 H   0  0  0  0  0  0  0  0  0  0  0  0
  149.8063  145.8834  159.4606 H   0  0  0  0  0  0  0  0  0  0  0  0
  149.2069  145.5230  161.5872 H   0  0  0  0  0  0  0  0  0  0  0  0
  147.7575  146.2257  160.8855 H   0  0  0  0  0  0  0  0  0  0  0  0
  147.9952  143.2356  160.6268 H   0  0  0  0  0  0  0  0  0  0  0  0
  147.7452  143.8342  162.2587 H   0  0  0  0  0  0  0  0  0  0  0  0
  145.3706  142.4483  161.7945 H   0  0  0  0  0  0  0  0  0  0  0  0
  143.0072  143.5696  160.8314 H   0  0  0  0  0  0  0  0  0  0  0  0
  146.2437  146.1301  159.8776 H   0  0  0  0  0  0  0  0  0  0  0  0
  148.3324  145.5462  158.8234 H   0  0  0  0  0  0  0  0  0  0  0  0
  143.7264  145.7355  159.7348 H   0  0  0  0  0  0  0  0  0  0  0  0
  1  2  1  0  0  0  0
  1 18  1  0  0  0  0
  1 19  1  0  0  0  0
  1 20  1  0  0  0  0
  2  8  1  0  0  0  0
  2  3  2  0  0  0  0
  3  4  1  0  0  0  0
  3 21  1  0  0  0  0
  4  5  1  0  0  0  0
  4 22  1  0  0  0  0
  4 23  1  0  0  0  0
  5  6  1  0  0  0  0
  5 24  1  0  0  0  0
  5 25  1  0  0  0  0
  6  7  1  0  0  0  0
  6  8  1  0  0  0  0
  6 26  1  0  0  0  0
  7 27  1  0  0  0  0
  7 28  1  0  0  0  0
  7 29  1  0  0  0  0
  8  9  1  0  0  0  0
  8 30  1  0  0  0  0
  9 10  1  0  0  0  0
  9 31  1  0  0  0  0
  9 32  1  0  0  0  0
 10 11  1  0  0  0  0
 10 33  1  0  0  0  0
 10 41  1  0  0  0  0
 11 12  1  0  0  0  0
 11 34  1  0  0  0  0
 11 35  1  0  0  0  0
 12 13  1  0  0  0  0
 12 36  1  0  0  0  0
 12 37  1  0  0  0  0
 13 17  1  0  0  0  0
 13 14  1  0  0  0  0
 14 15  2  0  0  0  0
 14 38  1  0  0  0  0
 15 16  1  0  0  0  0
 15 39  1  0  0  0  0
 16 17  2  0  0  0  0
 16 42  1  0  0  0  0
 17 40  1  0  0  0  0
M  CHG  1  10   1
M  CHG  1  16   1
M  END
> <s_m_source_file>
AV-unprocessed.smi

> <i_m_source_file_index>
3187

> <i_lp_mmshare_version>
43012

> <i_f3d_flags>
0

> <s_epik_input>
W0NIM11DMT1bQ0hdW0NIMl1bQ0gyXVtDQEBIXShbQ0gzXSlbQ0BIXTFbQ0gyXVtOSF1bQ0gyXVtDSDJdbjJbY0hdW2NIXW5bY0hdMg==

> <s_epik_cmdline>
J2VwaWtfcHl0aG9uJywgJy1waCcsICc3LjAnLCAnLXRuJywgJzgnLCAnLW1hJywgJzIwMCcsICctbWV0YWxfYmluZGluZycsICctaW1hZScsICc8aW5maWxlLm1hZT4nLCAnLW9tYWUnLCAnPG91dGZpbGUubWFlPic=

> <r_lp_tautomer_probability>
1

> <r_epik_Ionization_Penalty>
1.51066

> <r_epik_Ionization_Penalty_Charging>
0.0026721

> <r_epik_Ionization_Penalty_Neutral>
1.50798

> <r_epik_State_Penalty>
1.12593

> <r_epik_Charging_Adjusted_Penalty>
1.12861

> <i_epik_Tot_Q>
2

> <i_epik_Tot_abs_Q>
2

> <r_epik_Metal_State_Penalty>
5.12155

> <b_epik_Metal_Only>
0

> <s_lp_Force_Field>
OPLS_2005

> <r_lp_Energy>
24.2531

> <b_lp_Chiralities_Consistent>
1

> <s_lp_Variant>
AV-unprocessed.smi:3187-5

> <Gold.Version>
5.8.1

> <Gold.Id.Protein>
6NUR|6NUR_protein|mol2

> <Gold.PLP.Fitness>
44.4882

> <Gold.PLP.PLP>
-41.2118

> <Gold.PLP.part.hbond>
-2.0000

> <Gold.PLP.part.metal>
0.0000

> <Gold.PLP.part.buried>
-2.7745

> <Gold.PLP.part.nonpolar>
-37.2737

> <Gold.PLP.part.repulsive>
0.2745

> <Gold.PLP.ligand.clash>
0.0000

> <Gold.PLP.ligand.torsion>
0.8485

> <Gold.PLP.Chemscore.Hbond>
1.6320

> <Gold.PLP.Chemscore.CHOScore>
0.0000

> <Gold.PLP.Chemscore.Metal>
0.0000

> <Gold.Chemscore.Hbonds>
donor molecule, donor type, donor heavy atom, donor atom, acceptor molecule, acceptor atom, score
      L1  H    10    41       P1  8029  2.00

> <Gold.PLP.Chemscore.Internal.Correction>
0.0774

> <Gold.Rescore>
     Score         DG    S(hbond)    S(metal)    S(lipo)     H(rot)  DE(clash)    DE(int)     intcor
     15.05     -15.80       0.98        0.00     103.44       1.97       0.09       0.65       ----

> <Gold.Chemscore.Fitness>
15.0544

> <Gold.Chemscore.DG>
-15.7957

> <Gold.Chemscore.ZeroCoef>
-5.4800

> <Gold.Chemscore.Hbond>
0.9773

> <Gold.Chemscore.Metal>
0.0000

> <Gold.Chemscore.Lipo>
103.4424

> <Gold.Chemscore.Internal_Hbond>
0.0000

> <Gold.Chemscore.DEClash>
0.0880

> <Gold.Chemscore.DEInternal>
0.6533

> <Gold.Chemscore.Rot>
1.9732

> <Gold.Chemscore.Internal.Correction>
   9.000000E+99

> <Gold.Chemscore.Hbonds>
donor molecule, donor type, donor heavy atom, donor atom, acceptor molecule, acceptor atom, score
      L1  H    10    41       P1  8029  0.96

> <Gold.Chemscore.Hbond.Weighted>
-3.2643

> <Gold.Chemscore.Metal.Weighted>
-0.0000

> <Gold.Chemscore.Lipo.Weighted>
-12.1028

> <Gold.Chemscore.Internal_Hbond.Weighted>
0.0000

> <Gold.Chemscore.DEClash.Weighted>
0.0880

> <Gold.Chemscore.DEInternal.Weighted>
0.6533

> <Gold.Chemscore.Rot.Weighted>
5.0514

> <Gold.Chemscore.Internal.Correction.Weighted>
   9.000000E+99

> <Gold.Protein.RotatedTorsions>
[ 6907 6896 6895 6894 ] final   93.62 input  -60.11 | X-H torsion
[ 7974 7965 7964 7962 ] final   36.06 input  175.53 | X-H torsion
[ 8008 7997 7996 7995 ] final  -38.24 input   59.86 | X-H torsion
[ 10167 10162 10161 10158 ] final  -47.94 input  -65.29 | X-H torsion
[ 10718 10713 10712 10709 ] final  -44.17 input   66.30 | X-H torsion
[ 10763 10752 10751 10750 ] final   -4.01 input  -60.55 | X-H torsion
[ 11005 11000 10999 10996 ] final  169.64 input  -57.11 | X-H torsion

> <Gold.Protein.ActiveResidues>
 VAL166  LYS551  ARG553  GLY616  TRP617  ASP618  TYR619  PRO620  LYS621  CYS622 
 ASP623  PHE694  ASN695  SER759  ASP760  ASP761  ALA762  ILE779  LEU786  VAL792 
 PHE793  MET794  SER795  GLU796  ALA797  LYS798  CYS799  TRP800  GLU811  SER814 

> <Gold.Protein.RotatedAtoms>
  152.5452  134.1319  159.8442 H   0  0  0  0  0  0  0  0  0  0  0  0  # atno 6907 bound_to 6896
  151.1364  133.4994  159.2605 H   0  0  0  0  0  0  0  0  0  0  0  0  # atno 6908 bound_to 6896
  151.1620  135.0288  159.8769 H   0  0  0  0  0  0  0  0  0  0  0  0  # atno 6909 bound_to 6896
  146.1238  139.6065  142.9272 H   0  0  0  0  0  0  0  0  0  0  0  0  # atno 7974 bound_to 7965
  154.4040  140.1583  156.2668 H   0  0  0  0  0  0  0  0  0  0  0  0  # atno 8008 bound_to 7997
  155.8988  140.3434  155.5988 H   0  0  0  0  0  0  0  0  0  0  0  0  # atno 8009 bound_to 7997
  155.7472  140.0800  157.2209 H   0  0  0  0  0  0  0  0  0  0  0  0  # atno 8010 bound_to 7997
  140.6753  143.2762  151.3999 H   0  0  0  0  0  0  0  0  0  0  0  0  # atno 10167 bound_to 10162
  156.2413  130.4180  149.8757 H   0  0  0  0  0  0  0  0  0  0  0  0  # atno 10718 bound_to 10713
  153.3790  135.6997  153.6579 H   0  0  0  0  0  0  0  0  0  0  0  0  # atno 10763 bound_to 10752
  153.5198  135.3614  155.2627 H   0  0  0  0  0  0  0  0  0  0  0  0  # atno 10764 bound_to 10752
  154.8690  135.4155  154.3084 H   0  0  0  0  0  0  0  0  0  0  0  0  # atno 10765 bound_to 10752
  140.3000  134.7603  157.3908 H   0  0  0  0  0  0  0  0  0  0  0  0  # atno 11005 bound_to 11000
  145.5408  141.0421  143.2331 LP  0  0  0  0  0  0  0  0  0  0  0  0  # atno 17320 bound_to 7965
  144.7623  139.6928  143.7229 LP  0  0  0  0  0  0  0  0  0  0  0  0  # atno 17321 bound_to 7965
  139.6042  144.1232  152.2231 LP  0  0  0  0  0  0  0  0  0  0  0  0  # atno 17342 bound_to 10162
  140.0626  144.5844  150.7251 LP  0  0  0  0  0  0  0  0  0  0  0  0  # atno 17343 bound_to 10162
  156.6337  130.8676  151.3500 LP  0  0  0  0  0  0  0  0  0  0  0  0  # atno 17370 bound_to 10713
  157.7176  130.9517  150.1315 LP  0  0  0  0  0  0  0  0  0  0  0  0  # atno 17371 bound_to 10713
  140.1118  134.5335  155.8259 LP  0  0  0  0  0  0  0  0  0  0  0  0  # atno 17394 bound_to 11000
  141.2130  133.6727  156.6703 LP  0  0  0  0  0  0  0  0  0  0  0  0  # atno 17395 bound_to 11000

$$$$
