AV-unprocessed.smi:2932|AV-procd|sdf|11251|dock10
  -GOLD-   2272016143D 1   1.00000     0.00000
 Structure written by MMmdl.
 30 30  0  0  0  0  0  0  0  0  2 V2000
  154.2668  141.3146  160.9085 C   0  0  0  0  0  0  0  0  0  0  0  0
  153.1817  141.9953  160.1259 C   0  0  0  0  0  0  0  0  0  0  0  0
  152.8246  141.5235  158.9414 N   0  0  0  0  0  0  0  0  0  0  0  0
  151.8469  142.3558  158.5002 N   0  0  0  0  0  0  0  0  0  0  0  0
  151.2482  142.1099  157.1959 C   0  0  0  0  0  0  0  0  0  0  0  0
  151.0168  140.6164  156.9528 C   0  0  0  0  0  0  0  0  0  0  0  0
  150.0402  140.0587  157.4535 O   0  0  0  0  0  0  0  0  0  0  0  0
  151.9168  139.9862  156.1816 N   0  0  0  0  0  0  0  0  0  0  0  0
  151.8841  138.5767  155.8038 C   0  0  1  0  0  0  0  0  0  0  0  0
  152.0812  138.4137  154.2872 C   0  0  0  0  0  0  0  0  0  0  0  0
  152.8894  137.7826  156.6426 C   0  0  0  0  0  0  0  0  0  0  0  0
  153.6352  138.4294  157.4100 O   0  0  0  0  0  0  0  0  0  0  0  0
  152.8965  136.5391  156.5029 O   0  5  0  0  0  0  0  0  0  0  0  0
  151.5676  143.3632  159.4110 C   0  0  0  0  0  0  0  0  0  0  0  0
  150.5340  144.4178  159.1800 C   0  0  0  0  0  0  0  0  0  0  0  0
  152.4180  143.1453  160.4541 C   0  0  0  0  0  0  0  0  0  0  0  0
  152.5458  144.0887  161.8940 Cl  0  0  0  0  0  0  0  0  0  0  0  0
  150.8950  138.1851  156.0501 H   0  0  0  0  0  0  0  0  0  0  0  0
  154.2313  141.5953  161.9611 H   0  0  0  0  0  0  0  0  0  0  0  0
  155.2510  141.5845  160.5253 H   0  0  0  0  0  0  0  0  0  0  0  0
  154.1735  140.2297  160.8536 H   0  0  0  0  0  0  0  0  0  0  0  0
  150.2979  142.6407  157.1209 H   0  0  0  0  0  0  0  0  0  0  0  0
  151.9032  142.5195  156.4262 H   0  0  0  0  0  0  0  0  0  0  0  0
  152.6910  140.5249  155.8193 H   0  0  0  0  0  0  0  0  0  0  0  0
  152.0653  137.3617  154.0007 H   0  0  0  0  0  0  0  0  0  0  0  0
  153.0346  138.8326  153.9632 H   0  0  0  0  0  0  0  0  0  0  0  0
  151.2910  138.9168  153.7292 H   0  0  0  0  0  0  0  0  0  0  0  0
  150.3911  145.0298  160.0705 H   0  0  0  0  0  0  0  0  0  0  0  0
  149.5727  143.9726  158.9235 H   0  0  0  0  0  0  0  0  0  0  0  0
  150.8308  145.0781  158.3650 H   0  0  0  0  0  0  0  0  0  0  0  0
  1  2  1  0  0  0  0
  1 19  1  0  0  0  0
  1 20  1  0  0  0  0
  1 21  1  0  0  0  0
  2 16  1  0  0  0  0
  2  3  2  0  0  0  0
  3  4  1  0  0  0  0
  4  5  1  0  0  0  0
  4 14  1  0  0  0  0
  5  6  1  0  0  0  0
  5 22  1  0  0  0  0
  5 23  1  0  0  0  0
  6  7  2  0  0  0  0
  6  8  1  0  0  0  0
  8  9  1  0  0  0  0
  8 24  1  0  0  0  0
  9 18  1  0  0  0  0
  9 10  1  0  0  0  0
  9 11  1  0  0  0  0
 10 25  1  0  0  0  0
 10 26  1  0  0  0  0
 10 27  1  0  0  0  0
 11 12  2  0  0  0  0
 11 13  1  0  0  0  0
 14 15  1  0  0  0  0
 14 16  2  0  0  0  0
 15 28  1  0  0  0  0
 15 29  1  0  0  0  0
 15 30  1  0  0  0  0
 16 17  1  0  0  0  0
M  CHG  1  13  -1
M  END
> <s_m_source_file>
AV-unprocessed.smi

> <i_m_source_file_index>
2932

> <i_lp_mmshare_version>
43012

> <i_f3d_flags>
0

> <s_epik_input>
W0NIM11jMW5uKGMoW0NIM10pYzFDbClbQ0gyXUMoPU8pW05IXVtDQEhdKFtDSDNdKUMoPU8pW09IXQ==

> <s_epik_cmdline>
J2VwaWtfcHl0aG9uJywgJy1waCcsICc3LjAnLCAnLXRuJywgJzgnLCAnLW1hJywgJzIwMCcsICctbWV0YWxfYmluZGluZycsICctaW1hZScsICc8aW5maWxlLm1hZT4nLCAnLW9tYWUnLCAnPG91dGZpbGUubWFlPic=

> <r_lp_tautomer_probability>
1

> <r_epik_Ionization_Penalty>
0.000148999

> <r_epik_Ionization_Penalty_Charging>
0.000144005

> <r_epik_Ionization_Penalty_Neutral>
4.99331e-06

> <r_epik_State_Penalty>
-0

> <r_epik_Charging_Adjusted_Penalty>
0.000144005

> <i_epik_Tot_Q>
-1

> <i_epik_Tot_abs_Q>
1

> <r_epik_Metal_State_Penalty>
-0

> <b_epik_Metal_Only>
0

> <s_lp_Force_Field>
OPLS_2005

> <r_lp_Energy>
1.5608

> <b_lp_Chiralities_Consistent>
1

> <s_lp_Variant>
AV-unprocessed.smi:2932-2

> <Gold.Version>
5.8.1

> <Gold.Id.Protein>
6NUR|6NUR_protein|mol2

> <Gold.PLP.Fitness>
44.9413

> <Gold.PLP.PLP>
-34.3738

> <Gold.PLP.part.hbond>
-2.0000

> <Gold.PLP.part.metal>
0.0000

> <Gold.PLP.part.buried>
-5.9688

> <Gold.PLP.part.nonpolar>
-25.7983

> <Gold.PLP.part.repulsive>
0.1567

> <Gold.PLP.ligand.clash>
0.0000

> <Gold.PLP.ligand.torsion>
0.7453

> <Gold.PLP.Chemscore.Hbond>
4.0000

> <Gold.PLP.Chemscore.CHOScore>
0.0000

> <Gold.PLP.Chemscore.Metal>
0.0000

> <Gold.Chemscore.Hbonds>
donor molecule, donor type, donor heavy atom, donor atom, acceptor molecule, acceptor atom, score
      P1  H  7997  8009       L1    12  1.98
      P1  H 10752 10765       L1    13  2.00

> <Gold.PLP.Chemscore.Internal.Correction>
0.0581

> <Gold.Rescore>
     Score         DG    S(hbond)    S(metal)    S(lipo)     H(rot)  DE(clash)    DE(int)     intcor
     15.97     -16.71       1.94        0.00      87.62       2.15       0.07       0.67       ----

> <Gold.Chemscore.Fitness>
15.9715

> <Gold.Chemscore.DG>
-16.7112

> <Gold.Chemscore.ZeroCoef>
-5.4800

> <Gold.Chemscore.Hbond>
1.9443

> <Gold.Chemscore.Metal>
0.0000

> <Gold.Chemscore.Lipo>
87.6223

> <Gold.Chemscore.Internal_Hbond>
0.0000

> <Gold.Chemscore.DEClash>
0.0712

> <Gold.Chemscore.DEInternal>
0.6685

> <Gold.Chemscore.Rot>
2.1542

> <Gold.Chemscore.Internal.Correction>
   9.000000E+99

> <Gold.Chemscore.Hbonds>
donor molecule, donor type, donor heavy atom, donor atom, acceptor molecule, acceptor atom, score
      P1  H  7997  8009       L1    12  0.94
      P1  H 10752 10765       L1    13  0.97

> <Gold.Chemscore.Hbond.Weighted>
-6.4941

> <Gold.Chemscore.Metal.Weighted>
-0.0000

> <Gold.Chemscore.Lipo.Weighted>
-10.2518

> <Gold.Chemscore.Internal_Hbond.Weighted>
0.0000

> <Gold.Chemscore.DEClash.Weighted>
0.0712

> <Gold.Chemscore.DEInternal.Weighted>
0.6685

> <Gold.Chemscore.Rot.Weighted>
5.5146

> <Gold.Chemscore.Internal.Correction.Weighted>
   9.000000E+99

> <Gold.Protein.RotatedTorsions>
[ 6907 6896 6895 6894 ] final  -26.57 input  -60.11 | X-H torsion
[ 7974 7965 7964 7962 ] final  -26.52 input  175.53 | X-H torsion
[ 8008 7997 7996 7995 ] final  163.39 input   59.86 | X-H torsion
[ 10167 10162 10161 10158 ] final  -59.96 input  -65.29 | X-H torsion
[ 10718 10713 10712 10709 ] final  103.71 input   66.30 | X-H torsion
[ 10763 10752 10751 10750 ] final -129.03 input  -60.55 | X-H torsion
[ 11005 11000 10999 10996 ] final  128.60 input  -57.11 | X-H torsion

> <Gold.Protein.ActiveResidues>
 VAL166  LYS551  ARG553  GLY616  TRP617  ASP618  TYR619  PRO620  LYS621  CYS622 
 ASP623  PHE694  ASN695  SER759  ASP760  ASP761  ALA762  ILE779  LEU786  VAL792 
 PHE793  MET794  SER795  GLU796  ALA797  LYS798  CYS799  TRP800  GLU811  SER814 

> <Gold.Protein.RotatedAtoms>
  151.1592  135.0265  159.8702 H   0  0  0  0  0  0  0  0  0  0  0  0  # atno 6907 bound_to 6896
  152.5452  134.1299  159.8445 H   0  0  0  0  0  0  0  0  0  0  0  0  # atno 6908 bound_to 6896
  151.1393  133.4936  159.2630 H   0  0  0  0  0  0  0  0  0  0  0  0  # atno 6909 bound_to 6896
  146.1420  140.5030  142.8648 H   0  0  0  0  0  0  0  0  0  0  0  0  # atno 7974 bound_to 7965
  156.1961  140.1725  156.7995 H   0  0  0  0  0  0  0  0  0  0  0  0  # atno 8008 bound_to 7997
  154.5531  140.0714  156.8731 H   0  0  0  0  0  0  0  0  0  0  0  0  # atno 8009 bound_to 7997
  155.2990  140.3360  155.4251 H   0  0  0  0  0  0  0  0  0  0  0  0  # atno 8010 bound_to 7997
  140.6102  143.2385  151.5728 H   0  0  0  0  0  0  0  0  0  0  0  0  # atno 10167 bound_to 10162
  157.6764  131.0786  150.5597 H   0  0  0  0  0  0  0  0  0  0  0  0  # atno 10718 bound_to 10713
  154.8757  135.3909  154.3853 H   0  0  0  0  0  0  0  0  0  0  0  0  # atno 10763 bound_to 10752
  153.4595  135.7029  153.6064 H   0  0  0  0  0  0  0  0  0  0  0  0  # atno 10764 bound_to 10752
  153.4569  135.3821  155.2284 H   0  0  0  0  0  0  0  0  0  0  0  0  # atno 10765 bound_to 10752
  139.9569  134.9611  156.9025 H   0  0  0  0  0  0  0  0  0  0  0  0  # atno 11005 bound_to 11000
  144.7803  140.5826  143.6610 LP  0  0  0  0  0  0  0  0  0  0  0  0  # atno 17320 bound_to 7965
  145.5025  139.1482  143.3649 LP  0  0  0  0  0  0  0  0  0  0  0  0  # atno 17321 bound_to 7965
  139.5355  144.2793  152.1242 LP  0  0  0  0  0  0  0  0  0  0  0  0  # atno 17342 bound_to 10162
  140.1991  144.4676  150.6440 LP  0  0  0  0  0  0  0  0  0  0  0  0  # atno 17343 bound_to 10162
  156.5900  130.4327  149.5941 LP  0  0  0  0  0  0  0  0  0  0  0  0  # atno 17370 bound_to 10713
  156.2591  130.6952  151.1715 LP  0  0  0  0  0  0  0  0  0  0  0  0  # atno 17371 bound_to 10713
  140.5588  134.0555  155.7392 LP  0  0  0  0  0  0  0  0  0  0  0  0  # atno 17394 bound_to 11000
  141.1242  133.9411  157.2669 LP  0  0  0  0  0  0  0  0  0  0  0  0  # atno 17395 bound_to 11000

$$$$
