#       Name:                AV-unprocessed.smi:620
#       Creating user name   scv26
#       Creation time:       Fri Mar 27 00:01:09 2020


#       File generated by GOLD software.
#

@<TRIPOS>MOLECULE
AV-unprocessed.smi:620
    37    39     1
SMALL
NO_CHARGES


@<TRIPOS>ATOM
      1 ****        -6.1629   3.2125   0.0001 C.3            1 S1                 0.0000
      2 ****        -4.8000   2.6096  -0.0013 C.2            1 S1                 0.0000
      3 ****        -3.6831   3.3385  -0.0106 N.2            1 S1                 0.0000
      4 ****        -2.5453   2.5467  -0.0124 N.2            1 S1                 0.0000
      5 ****        -2.8061   1.2261  -0.0029 C.2            1 S1                 0.0000
      6 ****        -1.8932   0.2284  -0.0046 N.pl3          1 S1                -1.0000
      7 ****        -0.5453   0.3923   0.0035 C.2            1 S1                 0.0000
      8 ****         0.0787   1.4551   0.0135 O.2            1 S1                 0.0000
      9 ****         0.1214  -0.7722  -0.0012 N.am           1 S1                 0.0000
     10 ****         1.5702  -0.9616   0.0004 C.3            1 S1                 0.0000
     11 ****         2.0432  -1.6865  -1.2464 C.3            1 S1                 0.0000
     12 ****         3.4473  -1.5127  -1.7755 C.3            1 S1                 0.0000
     13 ****         2.2735  -0.9408  -2.5387 C.3            1 S1                 0.0000
     14 ****         2.0417  -1.6860   1.2482 C.3            1 S1                 0.0000
     15 ****         2.2720  -0.9399   2.5402 C.3            1 S1                 0.0000
     16 ****         3.4457  -1.5128   1.7776 C.3            1 S1                 0.0000
     17 ****        -4.5349   0.8759   0.0085 S.3            1 S1                 0.0000
     18 ****        -6.1022   4.3014   0.0001 H              1 S1                 0.0000
     19 ****        -6.7105   2.8931   0.8867 H              1 S1                 0.0000
     20 ****        -6.7119   2.8933  -0.8858 H              1 S1                 0.0000
     21 ****        -0.4379  -1.6124  -0.0080 H              1 S1                 0.0000
     22 ****         2.0635   0.0119   0.0003 H              1 S1                 0.0000
     23 ****         1.6245  -2.6862  -1.3494 H              1 S1                 0.0000
     24 ****         4.1021  -0.8078  -1.2673 H              1 S1                 0.0000
     25 ****         3.9390  -2.3899  -2.1906 H              1 S1                 0.0000
     26 ****         1.9812  -1.4366  -3.4621 H              1 S1                 0.0000
     27 ****         2.1448   0.1399  -2.5285 H              1 S1                 0.0000
     28 ****         1.6225  -2.6854   1.3514 H              1 S1                 0.0000
     29 ****         2.1440   0.1409   2.5295 H              1 S1                 0.0000
     30 ****         1.9793  -1.4351   3.4637 H              1 S1                 0.0000
     31 ****         3.9367  -2.3901   2.1932 H              1 S1                 0.0000
     32 ****         4.1011  -0.8085   1.2694 H              1 S1                 0.0000
     33 ****        -3.6682   4.3383  -0.0157 LP             1 S1                 0.0000
     34 ****        -1.6181   2.9212  -0.0201 LP             1 S1                 0.0000
     35 ****        -2.2402  -0.7095  -0.0125 LP             1 S1                 0.0000
     36 ****        -0.4149   2.3247   0.0164 LP             1 S1                 0.0000
     37 ****         1.0787   1.4477   0.0187 LP             1 S1                 0.0000
@<TRIPOS>BOND
    1    1    2 1     
    2    1   18 1     
    3    1   19 1     
    4    1   20 1     
    5    2   17 1     
    6    2    3 2     
    7    3    4 1     
    8    4    5 2     
    9    5    6 1     
   10    5   17 1     
   11    6    7 1     
   12    7    8 2     
   13    7    9 am    
   14    9   10 1     
   15    9   21 1     
   16   10   11 1     
   17   10   14 1     
   18   10   22 1     
   19   11   13 1     
   20   11   12 1     
   21   11   23 1     
   22   12   13 1     
   23   12   24 1     
   24   12   25 1     
   25   13   26 1     
   26   13   27 1     
   27   14   16 1     
   28   14   15 1     
   29   14   28 1     
   30   15   16 1     
   31   15   29 1     
   32   15   30 1     
   33   16   31 1     
   34   16   32 1     
   35    3   33 1     
   36    4   34 1     
   37    6   35 1     
   38    8   36 1     
   39    8   37 1     
@<TRIPOS>SUBSTRUCTURE
      1 S1             1
@<TRIPOS>SET
LONE_PAIRS      STATIC     ATOMS    <user>   **** ""
5 33 34 35 36 37
DONOR_HYDROGENS      STATIC     ATOMS    <user>   **** ""
1 21
ATOM$BLUE        STATIC     ATOMS    COLORGROUP SYSTEM
5 33 34 35 36 37
ATOM$RED        STATIC     ATOMS    COLORGROUP SYSTEM
1 21
