AV-unprocessed.smi:72|AV-procd|sdf|684|dock1
  -GOLD-   2262016593D 1   1.00000     0.00000
 Structure written by MMmdl.
 29 30  0  0  0  0  0  0  0  0  1 V2000
  151.5544  138.0028  159.5626 N   0  0  0  0  0  0  0  0  0  0  0  0
  151.0455  138.4200  158.4591 C   0  0  0  0  0  0  0  0  0  0  0  0
  149.6741  138.5063  158.1785 N   0  0  0  0  0  0  0  0  0  0  0  0
  149.3052  138.9338  157.0104 C   0  0  0  0  0  0  0  0  0  0  0  0
  150.2586  139.3105  155.9786 N   0  0  0  0  0  0  0  0  0  0  0  0
  149.7299  139.8253  154.6487 C   0  0  1  0  0  0  0  0  0  0  0  0
  148.8082  138.9174  154.1177 O   0  0  0  0  0  0  0  0  0  0  0  0
  147.5493  139.5516  153.8881 C   0  0  2  0  0  0  0  0  0  0  0  0
  146.8182  138.9120  152.6939 C   0  0  0  0  0  0  0  0  0  0  0  0
  147.6822  138.8266  151.5808 O   0  0  0  0  0  0  0  0  0  0  0  0
  147.8918  141.0417  153.7373 C   0  0  2  0  0  0  0  0  0  0  0  0
  148.2717  141.3484  152.4072 O   0  0  0  0  0  0  0  0  0  0  0  0
  149.0787  141.2269  154.6719 C   0  0  1  0  0  0  0  0  0  0  0  0
  148.6586  141.6696  155.9484 O   0  0  0  0  0  0  0  0  0  0  0  0
  151.6499  139.2649  156.2638 C   0  0  0  0  0  0  0  0  0  0  0  0
  152.5119  139.6079  155.4578 O   0  0  0  0  0  0  0  0  0  0  0  0
  151.9793  138.8099  157.4920 N   0  0  0  0  0  0  0  0  0  0  0  0
  150.5839  139.8089  153.9700 H   0  0  0  0  0  0  0  0  0  0  0  0
  146.9339  139.4499  154.7821 H   0  0  0  0  0  0  0  0  0  0  0  0
  147.0479  141.6811  153.9999 H   0  0  0  0  0  0  0  0  0  0  0  0
  149.7910  141.9611  154.2925 H   0  0  0  0  0  0  0  0  0  0  0  0
  150.8211  137.7414  160.2061 H   0  0  0  0  0  0  0  0  0  0  0  0
  148.2562  139.0322  156.7272 H   0  0  0  0  0  0  0  0  0  0  0  0
  146.5114  137.8954  152.9418 H   0  0  0  0  0  0  0  0  0  0  0  0
  145.9192  139.4705  152.4312 H   0  0  0  0  0  0  0  0  0  0  0  0
  148.3647  139.4728  151.6793 H   0  0  0  0  0  0  0  0  0  0  0  0
  148.5918  140.5596  151.9970 H   0  0  0  0  0  0  0  0  0  0  0  0
  148.6180  142.6134  155.9407 H   0  0  0  0  0  0  0  0  0  0  0  0
  152.9606  138.7567  157.7230 H   0  0  0  0  0  0  0  0  0  0  0  0
  1  2  2  0  0  0  0
  1 22  1  0  0  0  0
  2 17  1  0  0  0  0
  2  3  1  0  0  0  0
  3  4  2  0  0  0  0
  4  5  1  0  0  0  0
  4 23  1  0  0  0  0
  5  6  1  0  0  0  0
  5 15  1  0  0  0  0
  6 18  1  0  0  0  0
  6 13  1  0  0  0  0
  6  7  1  0  0  0  0
  7  8  1  0  0  0  0
  8 19  1  0  0  0  0
  8  9  1  0  0  0  0
  8 11  1  0  0  0  0
  9 10  1  0  0  0  0
  9 24  1  0  0  0  0
  9 25  1  0  0  0  0
 10 26  1  0  0  0  0
 11 20  1  0  0  0  0
 11 12  1  0  0  0  0
 11 13  1  0  0  0  0
 12 27  1  0  0  0  0
 13 21  1  0  0  0  0
 13 14  1  0  0  0  0
 14 28  1  0  0  0  0
 15 16  2  0  0  0  0
 15 17  1  0  0  0  0
 17 29  1  0  0  0  0
M  END
> <s_m_source_file>
AV-unprocessed.smi

> <i_m_source_file_index>
72

> <i_lp_mmshare_version>
43012

> <i_f3d_flags>
0

> <s_epik_input>
W05IMl1jMW5bY0hdbihjKD1PKW4xKVtDQEBIXTJPW0NASF0oW0NIMl1bT0hdKVtDQEBIXShbT0hdKVtDQEhdMltPSF0=

> <s_epik_cmdline>
J2VwaWtfcHl0aG9uJywgJy1waCcsICc3LjAnLCAnLXRuJywgJzgnLCAnLW1hJywgJzIwMCcsICctbWV0YWxfYmluZGluZycsICctaW1hZScsICc8aW5maWxlLm1hZT4nLCAnLW9tYWUnLCAnPG91dGZpbGUubWFlPic=

> <r_lp_tautomer_probability>
7.17554e-07

> <r_epik_Ionization_Penalty>
0.0066451

> <r_epik_Ionization_Penalty_Charging>
0.00663793

> <r_epik_Ionization_Penalty_Neutral>
7.17052e-06

> <r_epik_State_Penalty>
0.419231

> <r_epik_Charging_Adjusted_Penalty>
0.425868

> <i_epik_Tot_Q>
0

> <i_epik_Tot_abs_Q>
0

> <r_epik_Metal_State_Penalty>
1.44144

> <b_epik_Metal_Only>
0

> <s_epik_Chemistry_Notes>
This compound contains an acetal/aminal-like group ( X-CH(R)-Y where X, Y are N, S, or O) that may be acid/base labile, releasing an aldehyde.

> <s_lp_Force_Field>
OPLS_2005

> <r_lp_Energy>
43.3095

> <b_lp_Chiralities_Consistent>
1

> <s_lp_Variant>
AV-unprocessed.smi:72-22

> <Gold.Version>
5.8.1

> <Gold.Id.Protein>
6NUR|6NUR_protein|mol2

> <Gold.PLP.Fitness>
38.1304

> <Gold.PLP.PLP>
-21.7405

> <Gold.PLP.part.hbond>
-6.9762

> <Gold.PLP.part.metal>
0.0000

> <Gold.PLP.part.buried>
3.5215

> <Gold.PLP.part.nonpolar>
-17.5082

> <Gold.PLP.part.repulsive>
0.3172

> <Gold.PLP.ligand.clash>
0.0000

> <Gold.PLP.ligand.torsion>
0.2616

> <Gold.PLP.Chemscore.Hbond>
5.6279

> <Gold.PLP.Chemscore.CHOScore>
0.0000

> <Gold.PLP.Chemscore.Metal>
0.0000

> <Gold.Chemscore.Hbonds>
donor molecule, donor type, donor heavy atom, donor atom, acceptor molecule, acceptor atom, score
      L1  H    10    26       P1  7957  0.68
      L1  H    12    27       P1  7957  0.58
      L1  H    14    28       P1  8028  0.73
      P1  H  7954  7966       L1    10  0.85
      P1  H  7997  8010       L1    16  0.93
      P1  H  8011  8017       L1    12  0.77

> <Gold.PLP.Chemscore.Internal.Correction>
0.0295

> <Gold.Rescore>
     Score         DG    S(hbond)    S(metal)    S(lipo)     H(rot)  DE(clash)    DE(int)     intcor
      9.49     -12.19       4.15        0.00      27.84       4.06       2.21       0.49       ----

> <Gold.Chemscore.Fitness>
9.4857

> <Gold.Chemscore.DG>
-12.1903

> <Gold.Chemscore.ZeroCoef>
-5.4800

> <Gold.Chemscore.Hbond>
4.1457

> <Gold.Chemscore.Metal>
0.0000

> <Gold.Chemscore.Lipo>
27.8384

> <Gold.Chemscore.Internal_Hbond>
0.0000

> <Gold.Chemscore.DEClash>
2.2123

> <Gold.Chemscore.DEInternal>
0.4923

> <Gold.Chemscore.Rot>
4.0600

> <Gold.Chemscore.Internal.Correction>
   9.000000E+99

> <Gold.Chemscore.Hbonds>
donor molecule, donor type, donor heavy atom, donor atom, acceptor molecule, acceptor atom, score
      L1  H    10    26       P1  7957  0.66
      L1  H    12    27       P1  7957  0.57
      L1  H    14    28       P1  8028  0.73
      P1  H  7954  7966       L1    10  0.32
      P1  H  7989  7998       L1    16  0.02
      P1  H  7997  8010       L1    16  0.88
      P1  H  8011  8017       L1    12  0.20

> <Gold.Chemscore.Hbond.Weighted>
-13.8468

> <Gold.Chemscore.Metal.Weighted>
-0.0000

> <Gold.Chemscore.Lipo.Weighted>
-3.2571

> <Gold.Chemscore.Internal_Hbond.Weighted>
0.0000

> <Gold.Chemscore.DEClash.Weighted>
2.2123

> <Gold.Chemscore.DEInternal.Weighted>
0.4923

> <Gold.Chemscore.Rot.Weighted>
10.3936

> <Gold.Chemscore.Internal.Correction.Weighted>
   9.000000E+99

> <Gold.Protein.RotatedTorsions>
[ 6907 6896 6895 6894 ] final  -12.66 input  -60.11 | X-H torsion
[ 7974 7965 7964 7962 ] final  111.53 input  175.53 | X-H torsion
[ 8008 7997 7996 7995 ] final  102.15 input   59.86 | X-H torsion
[ 10167 10162 10161 10158 ] final   40.78 input  -65.29 | X-H torsion
[ 10718 10713 10712 10709 ] final  -94.81 input   66.30 | X-H torsion
[ 10763 10752 10751 10750 ] final  -80.34 input  -60.55 | X-H torsion
[ 11005 11000 10999 10996 ] final   -7.54 input  -57.11 | X-H torsion

> <Gold.Protein.ActiveResidues>
 VAL166  LYS551  ARG553  GLY616  TRP617  ASP618  TYR619  PRO620  LYS621  CYS622 
 ASP623  PHE694  ASN695  SER759  ASP760  ASP761  ALA762  ILE779  LEU786  VAL792 
 PHE793  MET794  SER795  GLU796  ALA797  LYS798  CYS799  TRP800  GLU811  SER814 

> <Gold.Protein.RotatedAtoms>
  151.3670  135.0915  159.9452 H   0  0  0  0  0  0  0  0  0  0  0  0  # atno 6907 bound_to 6896
  152.5146  133.9202  159.7541 H   0  0  0  0  0  0  0  0  0  0  0  0  # atno 6908 bound_to 6896
  150.9608  133.6393  159.2784 H   0  0  0  0  0  0  0  0  0  0  0  0  # atno 6909 bound_to 6896
  145.2410  139.2779  143.4118 H   0  0  0  0  0  0  0  0  0  0  0  0  # atno 7974 bound_to 7965
  156.1366  140.3186  155.8430 H   0  0  0  0  0  0  0  0  0  0  0  0  # atno 8008 bound_to 7997
  155.4233  140.0514  157.3041 H   0  0  0  0  0  0  0  0  0  0  0  0  # atno 8009 bound_to 7997
  154.4942  140.2104  155.9496 H   0  0  0  0  0  0  0  0  0  0  0  0  # atno 8010 bound_to 7997
  140.3708  144.2107  150.6133 H   0  0  0  0  0  0  0  0  0  0  0  0  # atno 10167 bound_to 10162
  156.0033  130.5083  150.5982 H   0  0  0  0  0  0  0  0  0  0  0  0  # atno 10718 bound_to 10713
  154.5499  135.5664  153.6913 H   0  0  0  0  0  0  0  0  0  0  0  0  # atno 10763 bound_to 10752
  152.9987  135.6248  154.2388 H   0  0  0  0  0  0  0  0  0  0  0  0  # atno 10764 bound_to 10752
  154.2322  135.2865  155.2865 H   0  0  0  0  0  0  0  0  0  0  0  0  # atno 10765 bound_to 10752
  140.7138  133.8886  155.8770 H   0  0  0  0  0  0  0  0  0  0  0  0  # atno 11005 bound_to 11000
  146.3328  140.2773  142.8608 LP  0  0  0  0  0  0  0  0  0  0  0  0  # atno 17320 bound_to 7965
  144.9589  140.8255  143.5526 LP  0  0  0  0  0  0  0  0  0  0  0  0  # atno 17321 bound_to 7965
  140.5035  143.2311  151.8643 LP  0  0  0  0  0  0  0  0  0  0  0  0  # atno 17342 bound_to 10162
  139.4804  144.5032  151.9032 LP  0  0  0  0  0  0  0  0  0  0  0  0  # atno 17343 bound_to 10162
  157.3836  131.0784  151.1456 LP  0  0  0  0  0  0  0  0  0  0  0  0  # atno 17370 bound_to 10713
  157.2170  130.6464  149.5796 LP  0  0  0  0  0  0  0  0  0  0  0  0  # atno 17371 bound_to 10713
  141.0061  134.1084  157.4268 LP  0  0  0  0  0  0  0  0  0  0  0  0  # atno 17394 bound_to 11000
  139.8865  135.0082  156.6501 LP  0  0  0  0  0  0  0  0  0  0  0  0  # atno 17395 bound_to 11000

$$$$
