#       Name:                AV-unprocessed.smi:302
#       Creating user name   scv26
#       Creation time:       Thu Mar 26 22:16:30 2020


#       File generated by GOLD software.
#

@<TRIPOS>MOLECULE
AV-unprocessed.smi:302
    52    53     1
SMALL
NO_CHARGES


@<TRIPOS>ATOM
      1 ****        -5.2763  -1.6477  -2.2937 C.3            1 S1                 0.0000
      2 ****        -3.7735  -1.3663  -2.3538 C.3            1 S1                 0.0000
      3 ****        -3.0816  -2.6048  -2.4705 O.3            1 S1                 0.0000
      4 ****        -1.6690  -2.5087  -2.6438 C.3            1 S1                 0.0000
      5 ****        -1.1711  -3.9011  -3.0836 C.3            1 S1                 0.0000
      6 ****         0.3228  -3.9522  -3.4384 C.3            1 S1                 0.0000
      7 ****        -1.0095  -2.0304  -1.3375 C.2            1 S1                 0.0000
      8 ****        -0.9993  -2.7694  -0.3533 O.2            1 S1                 0.0000
      9 ****        -0.5036  -0.7835  -1.3625 N.am           1 S1                 0.0000
     10 ****         0.1295  -0.0641  -0.3140 C.ar           1 S1                 0.0000
     11 ****         0.7782  -0.6668   0.7882 C.ar           1 S1                 0.0000
     12 ****         1.3781   0.1569   1.7599 C.ar           1 S1                 0.0000
     13 ****         1.3259   1.5626   1.6058 C.ar           1 S1                 0.0000
     14 ****         1.9123   2.4070   2.5737 N.3            1 S1                 0.0000
     15 ****         3.3006   2.1158   2.9226 C.3            1 S1                 0.0000
     16 ****         3.7011   2.8763   4.1986 C.3            1 S1                 0.0000
     17 ****         3.4533   4.2683   4.0300 O.3            1 S1                 0.0000
     18 ****         2.0741   4.5365   3.8010 C.3            1 S1                 0.0000
     19 ****         1.6181   3.8375   2.5093 C.3            1 S1                 0.0000
     20 ****         0.7125   2.1354   0.5410 N.ar           1 S1                 0.0000
     21 ****         0.1412   1.3425  -0.3891 C.ar           1 S1                 0.0000
     22 ****        -5.8432  -0.7203  -2.2078 H              1 S1                 0.0000
     23 ****        -5.5235  -2.2715  -1.4340 H              1 S1                 0.0000
     24 ****        -5.6140  -2.1647  -3.1923 H              1 S1                 0.0000
     25 ****        -3.5515  -0.7298  -3.2116 H              1 S1                 0.0000
     26 ****        -3.4701  -0.8276  -1.4555 H              1 S1                 0.0000
     27 ****        -1.4580  -1.8005  -3.4477 H              1 S1                 0.0000
     28 ****        -1.3856  -4.6387  -2.3090 H              1 S1                 0.0000
     29 ****        -1.7429  -4.2153  -3.9573 H              1 S1                 0.0000
     30 ****         0.5996  -4.9440  -3.7963 H              1 S1                 0.0000
     31 ****         0.9504  -3.7291  -2.5754 H              1 S1                 0.0000
     32 ****         0.5651  -3.2367  -4.2245 H              1 S1                 0.0000
     33 ****        -0.6586  -0.2625  -2.2135 H              1 S1                 0.0000
     34 ****         0.8353  -1.7379   0.9044 H              1 S1                 0.0000
     35 ****         1.8555  -0.2986   2.6144 H              1 S1                 0.0000
     36 ****         3.4653   1.0510   3.0788 H              1 S1                 0.0000
     37 ****         3.9413   2.4171   2.0929 H              1 S1                 0.0000
     38 ****         3.1513   2.5008   5.0632 H              1 S1                 0.0000
     39 ****         4.7607   2.7273   4.4064 H              1 S1                 0.0000
     40 ****         1.4808   4.2028   4.6539 H              1 S1                 0.0000
     41 ****         1.9305   5.6137   3.7158 H              1 S1                 0.0000
     42 ****         2.1283   4.2725   1.6487 H              1 S1                 0.0000
     43 ****         0.5481   3.9985   2.3717 H              1 S1                 0.0000
     44 ****        -0.3307   1.8513  -1.2171 H              1 S1                 0.0000
     45 ****        -3.4556  -3.0929  -3.2590 LP             1 S1                 0.0000
     46 ****        -3.2541  -3.1330  -1.6390 LP             1 S1                 0.0000
     47 ****        -1.4181  -3.6760  -0.4044 LP             1 S1                 0.0000
     48 ****        -0.5721  -2.4633   0.4975 LP             1 S1                 0.0000
     49 ****         1.3744   2.1150   3.3645 LP             1 S1                 0.0000
     50 ****         3.9814   4.5985   3.2477 LP             1 S1                 0.0000
     51 ****         3.7441   4.7511   4.8561 LP             1 S1                 0.0000
     52 ****         0.6840   3.1305   0.4465 LP             1 S1                 0.0000
@<TRIPOS>BOND
    1    1    2 1     
    2    1   22 1     
    3    1   23 1     
    4    1   24 1     
    5    2    3 1     
    6    2   25 1     
    7    2   26 1     
    8    3    4 1     
    9    4    5 1     
   10    4    7 1     
   11    4   27 1     
   12    5    6 1     
   13    5   28 1     
   14    5   29 1     
   15    6   30 1     
   16    6   31 1     
   17    6   32 1     
   18    7    8 2     
   19    7    9 am    
   20    9   10 1     
   21    9   33 1     
   22   10   21 ar    
   23   10   11 ar    
   24   11   12 ar    
   25   11   34 1     
   26   12   13 ar    
   27   12   35 1     
   28   13   14 1     
   29   13   20 ar    
   30   14   19 1     
   31   14   15 1     
   32   15   16 1     
   33   15   36 1     
   34   15   37 1     
   35   16   17 1     
   36   16   38 1     
   37   16   39 1     
   38   17   18 1     
   39   18   19 1     
   40   18   40 1     
   41   18   41 1     
   42   19   42 1     
   43   19   43 1     
   44   20   21 ar    
   45   21   44 1     
   46    3   45 1     
   47    3   46 1     
   48    8   47 1     
   49    8   48 1     
   50   14   49 1     
   51   17   50 1     
   52   17   51 1     
   53   20   52 1     
@<TRIPOS>SUBSTRUCTURE
      1 S1             1
@<TRIPOS>SET
LONE_PAIRS      STATIC     ATOMS    <user>   **** ""
8 45 46 47 48 49 50 51 52
DONOR_HYDROGENS      STATIC     ATOMS    <user>   **** ""
1 33
ATOM$BLUE        STATIC     ATOMS    COLORGROUP SYSTEM
8 45 46 47 48 49 50 51 52
ATOM$RED        STATIC     ATOMS    COLORGROUP SYSTEM
1 33
