#       Name:                AV-unprocessed.smi:112
#       Creating user name   scv26
#       Creation time:       Thu Mar 26 18:18:19 2020


#       File generated by GOLD software.
#

@<TRIPOS>MOLECULE
AV-unprocessed.smi:112
    68    71     1
SMALL
NO_CHARGES


@<TRIPOS>ATOM
      1 ****        -1.4404   4.0727  -1.3175 C.3            1 S1                 0.0000
      2 ****        -0.6390   2.7839  -1.2298 C.2            1 S1                 0.0000
      3 ****         0.7119   2.7715  -1.2927 C.2            1 S1                 0.0000
      4 ****         1.4696   1.6188  -1.2153 N.am           1 S1                 0.0000
      5 ****         2.9754   1.6938  -1.2819 C.3            1 S1                 0.0000
      6 ****         3.4535   1.9641  -2.7058 C.3            1 S1                 0.0000
      7 ****         4.7760   2.6678  -2.4577 C.3            1 S1                 0.0000
      8 ****         5.8345   1.7290  -2.4428 O.3            1 S1                 0.0000
      9 ****         4.5989   3.2984  -1.0606 C.3            1 S1                 0.0000
     10 ****         4.5183   4.8359  -1.0312 C.3            1 S1                 0.0000
     11 ****         3.6226   5.3350  -2.0041 O.3            1 S1                 0.0000
     12 ****         3.4006   2.7646  -0.5024 O.3            1 S1                 0.0000
     13 ****         0.8325   0.3687  -1.0800 C.2            1 S1                 0.0000
     14 ****         1.4864  -0.6748  -1.0185 O.2            1 S1                 0.0000
     15 ****        -0.5797   0.3455  -1.0225 N.am           1 S1                 0.0000
     16 ****        -1.2652  -0.9604  -0.8872 C.3            1 S1                 0.0000
     17 ****        -1.5209  -1.3886   0.5747 C.2            1 S1                 0.0000
     18 ****        -1.0996  -0.6759   1.4863 O.2            1 S1                 0.0000
     19 ****        -2.2019  -2.5429   0.7858 N.am           1 S1                 0.0000
     20 ****        -2.7057  -3.3992  -0.3024 C.3            1 S1                 0.0000
     21 ****        -3.4112  -4.5937   0.3755 C.3            1 S1                 0.0000
     22 ****        -3.2410  -4.3031   1.8370 C.ar           1 S1                 0.0000
     23 ****        -3.7044  -5.0870   2.9070 C.ar           1 S1                 0.0000
     24 ****        -3.4493  -4.6554   4.2323 C.ar           1 S1                 0.0000
     25 ****        -3.9201  -5.4540   5.3814 N.pl3          1 S1                 1.0000
     26 ****        -3.6712  -5.0490   6.5124 O.2            1 S1                 0.0000
     27 ****        -4.5398  -6.4883   5.1547 O.2            1 S1                -1.0000
     28 ****        -2.7352  -3.4450   4.4386 C.ar           1 S1                 0.0000
     29 ****        -2.2780  -2.6687   3.3511 C.ar           1 S1                 0.0000
     30 ****        -2.5424  -3.1183   2.0392 C.ar           1 S1                 0.0000
     31 ****        -1.3677   1.5224  -1.0770 C.2            1 S1                 0.0000
     32 ****        -2.5960   1.4594  -0.9955 O.2            1 S1                 0.0000
     33 ****        -0.7951   4.9439  -1.4334 H              1 S1                 0.0000
     34 ****        -2.0338   4.2150  -0.4137 H              1 S1                 0.0000
     35 ****        -2.1175   4.0434  -2.1719 H              1 S1                 0.0000
     36 ****         1.2279   3.7136  -1.4127 H              1 S1                 0.0000
     37 ****         3.3892   0.7781  -0.8577 H              1 S1                 0.0000
     38 ****         3.5240   1.0439  -3.2871 H              1 S1                 0.0000
     39 ****         2.7595   2.6442  -3.2015 H              1 S1                 0.0000
     40 ****         4.9898   3.4041  -3.2334 H              1 S1                 0.0000
     41 ****         5.6638   1.0920  -1.7660 H              1 S1                 0.0000
     42 ****         5.4168   2.9932  -0.4054 H              1 S1                 0.0000
     43 ****         4.2186   5.1871  -0.0435 H              1 S1                 0.0000
     44 ****         5.5021   5.2589  -1.2356 H              1 S1                 0.0000
     45 ****         3.6163   6.2785  -1.9504 H              1 S1                 0.0000
     46 ****        -2.2140  -0.9388  -1.4243 H              1 S1                 0.0000
     47 ****        -0.6959  -1.7456  -1.3865 H              1 S1                 0.0000
     48 ****        -3.4113  -2.8533  -0.9301 H              1 S1                 0.0000
     49 ****        -1.8859  -3.7491  -0.9313 H              1 S1                 0.0000
     50 ****        -4.4695  -4.6401   0.1172 H              1 S1                 0.0000
     51 ****        -2.9421  -5.5438   0.1176 H              1 S1                 0.0000
     52 ****        -4.2443  -6.0010   2.7068 H              1 S1                 0.0000
     53 ****        -2.5293  -3.0972   5.4402 H              1 S1                 0.0000
     54 ****        -1.7404  -1.7556   3.5517 H              1 S1                 0.0000
     55 ****         6.6976   2.1976  -2.2543 LP             1 S1                 0.0000
     56 ****         5.8908   1.2709  -3.3299 LP             1 S1                 0.0000
     57 ****         2.7037   4.9812  -1.8296 LP             1 S1                 0.0000
     58 ****         3.9217   5.0511  -2.9151 LP             1 S1                 0.0000
     59 ****         3.5761   2.4511   0.4308 LP             1 S1                 0.0000
     60 ****         2.6932   3.4713  -0.4891 LP             1 S1                 0.0000
     61 ****         2.4848  -0.6426  -1.0646 LP             1 S1                 0.0000
     62 ****         1.0183  -1.5532  -0.9225 LP             1 S1                 0.0000
     63 ****        -0.6011   0.1647   1.2742 LP             1 S1                 0.0000
     64 ****        -1.2560  -0.9377   2.4387 LP             1 S1                 0.0000
     65 ****        -3.1615  -4.1978   6.6378 LP             1 S1                 0.0000
     66 ****        -3.9781  -5.5700   7.3089 LP             1 S1                 0.0000
     67 ****        -3.1431   2.2956  -1.0329 LP             1 S1                 0.0000
     68 ****        -3.0454   0.5721  -0.8919 LP             1 S1                 0.0000
@<TRIPOS>BOND
    1    1    2 1     
    2    1   33 1     
    3    1   34 1     
    4    1   35 1     
    5    2   31 1     
    6    2    3 2     
    7    3    4 1     
    8    3   36 1     
    9    4    5 1     
   10    4   13 am    
   11    5   12 1     
   12    5    6 1     
   13    5   37 1     
   14    6    7 1     
   15    6   38 1     
   16    6   39 1     
   17    7    8 1     
   18    7    9 1     
   19    7   40 1     
   20    8   41 1     
   21    9   10 1     
   22    9   12 1     
   23    9   42 1     
   24   10   11 1     
   25   10   43 1     
   26   10   44 1     
   27   11   45 1     
   28   13   14 2     
   29   13   15 am    
   30   15   16 1     
   31   15   31 am    
   32   16   17 1     
   33   16   46 1     
   34   16   47 1     
   35   17   18 2     
   36   17   19 am    
   37   19   30 1     
   38   19   20 1     
   39   20   21 1     
   40   20   48 1     
   41   20   49 1     
   42   21   22 1     
   43   21   50 1     
   44   21   51 1     
   45   22   30 ar    
   46   22   23 ar    
   47   23   24 ar    
   48   23   52 1     
   49   24   25 1     
   50   24   28 ar    
   51   25   26 2     
   52   25   27 1     
   53   28   29 ar    
   54   28   53 1     
   55   29   30 ar    
   56   29   54 1     
   57   31   32 2     
   58    8   55 1     
   59    8   56 1     
   60   11   57 1     
   61   11   58 1     
   62   12   59 1     
   63   12   60 1     
   64   14   61 1     
   65   14   62 1     
   66   18   63 1     
   67   18   64 1     
   68   26   65 1     
   69   26   66 1     
   70   32   67 1     
   71   32   68 1     
@<TRIPOS>SUBSTRUCTURE
      1 S1             1
@<TRIPOS>SET
LONE_PAIRS      STATIC     ATOMS    <user>   **** ""
15 55 56 57 58 59 60 61 62 63 64 65 66 27 67 68
DONOR_HYDROGENS      STATIC     ATOMS    <user>   **** ""
2 41 45
ATOM$BLUE        STATIC     ATOMS    COLORGROUP SYSTEM
15 55 56 57 58 59 60 61 62 63 64 65 66 27 67 68
ATOM$RED        STATIC     ATOMS    COLORGROUP SYSTEM
2 41 45
