#       Name:                AV-unprocessed.smi:2032
#       Creating user name   scv26
#       Creation time:       Fri Mar 27 10:52:11 2020


#       File generated by GOLD software.
#

@<TRIPOS>MOLECULE
AV-unprocessed.smi:2032
    48    49     1
SMALL
NO_CHARGES


@<TRIPOS>ATOM
      1 ****        -4.3009   2.0161   0.7855 C.3            1 S1                 0.0000
      2 ****        -3.4513   2.4119  -0.4346 C.3            1 S1                 0.0000
      3 ****        -1.9341   2.3620  -0.1653 C.3            1 S1                 0.0000
      4 ****        -1.3941   0.9998  -0.0863 N.3            1 S1                 0.0000
      5 ****         0.0689   0.9809   0.1540 C.3            1 S1                 0.0000
      6 ****         0.4764   1.7691   1.4256 C.3            1 S1                 0.0000
      7 ****         0.6603  -0.4535   0.2436 C.3            1 S1                 0.0000
      8 ****         2.1093  -0.4508   0.4166 N.am           1 S1                 0.0000
      9 ****         2.8708  -1.5399   0.5852 C.2            1 S1                 0.0000
     10 ****         2.3496  -2.6577   0.5936 O.2            1 S1                 0.0000
     11 ****         4.1876  -1.2673   0.7329 N.pl3          1 S1                -1.0000
     12 ****         5.0632  -2.2687   0.9178 C.2            1 S1                 0.0000
     13 ****         5.5307  -2.6159   2.1227 N.2            1 S1                 0.0000
     14 ****         6.4319  -3.6814   2.0826 C.2            1 S1                 0.0000
     15 ****         6.6649  -4.1491   0.8165 C.2            1 S1                 0.0000
     16 ****         5.7529  -3.2609  -0.3704 S.3            1 S1                 0.0000
     17 ****        -1.7789   0.2922  -1.3111 C.3            1 S1                 0.0000
     18 ****        -3.2995   0.2947  -1.5518 C.3            1 S1                 0.0000
     19 ****        -3.6729  -0.3731  -2.8795 C.3            1 S1                 0.0000
     20 ****        -3.7769   1.6353  -1.5847 O.3            1 S1                 0.0000
     21 ****        -4.1289   2.7012   1.6158 H              1 S1                 0.0000
     22 ****        -4.0686   1.0121   1.1401 H              1 S1                 0.0000
     23 ****        -5.3640   2.0493   0.5462 H              1 S1                 0.0000
     24 ****        -3.7124   3.4416  -0.6806 H              1 S1                 0.0000
     25 ****        -1.4169   2.9091  -0.9550 H              1 S1                 0.0000
     26 ****        -1.7530   2.9061   0.7598 H              1 S1                 0.0000
     27 ****         0.5538   1.4706  -0.6921 H              1 S1                 0.0000
     28 ****         1.5431   1.7015   1.6365 H              1 S1                 0.0000
     29 ****        -0.0531   1.3992   2.3041 H              1 S1                 0.0000
     30 ****         0.2751   2.8352   1.3334 H              1 S1                 0.0000
     31 ****         0.1954  -0.9977   1.0673 H              1 S1                 0.0000
     32 ****         0.4734  -1.0225  -0.6657 H              1 S1                 0.0000
     33 ****         2.5709   0.4468   0.4161 H              1 S1                 0.0000
     34 ****         6.8611  -4.0423   3.0056 H              1 S1                 0.0000
     35 ****         7.3130  -4.9563   0.5105 H              1 S1                 0.0000
     36 ****        -1.2690   0.7354  -2.1680 H              1 S1                 0.0000
     37 ****        -1.4739  -0.7508  -1.2659 H              1 S1                 0.0000
     38 ****        -3.7953  -0.2483  -0.7468 H              1 S1                 0.0000
     39 ****        -3.3415  -1.4116  -2.9034 H              1 S1                 0.0000
     40 ****        -3.2157   0.1440  -3.7235 H              1 S1                 0.0000
     41 ****        -4.7528  -0.3653  -3.0290 H              1 S1                 0.0000
     42 ****        -1.7820   0.5284   0.7058 LP             1 S1                 0.0000
     43 ****         1.3610  -2.7493   0.4748 LP             1 S1                 0.0000
     44 ****         2.9157  -3.4724   0.7193 LP             1 S1                 0.0000
     45 ****         4.5089  -0.3207   0.7045 LP             1 S1                 0.0000
     46 ****         5.2609  -2.1570   2.9692 LP             1 S1                 0.0000
     47 ****        -3.3843   2.0861  -2.3863 LP             1 S1                 0.0000
     48 ****        -4.7728   1.6092  -1.6712 LP             1 S1                 0.0000
@<TRIPOS>BOND
    1    1    2 1     
    2    1   21 1     
    3    1   22 1     
    4    1   23 1     
    5    2   20 1     
    6    2    3 1     
    7    2   24 1     
    8    3    4 1     
    9    3   25 1     
   10    3   26 1     
   11    4    5 1     
   12    4   17 1     
   13    5    6 1     
   14    5    7 1     
   15    5   27 1     
   16    6   28 1     
   17    6   29 1     
   18    6   30 1     
   19    7    8 1     
   20    7   31 1     
   21    7   32 1     
   22    8    9 am    
   23    8   33 1     
   24    9   10 2     
   25    9   11 1     
   26   11   12 1     
   27   12   16 1     
   28   12   13 2     
   29   13   14 1     
   30   14   15 2     
   31   14   34 1     
   32   15   16 1     
   33   15   35 1     
   34   17   18 1     
   35   17   36 1     
   36   17   37 1     
   37   18   19 1     
   38   18   20 1     
   39   18   38 1     
   40   19   39 1     
   41   19   40 1     
   42   19   41 1     
   43    4   42 1     
   44   10   43 1     
   45   10   44 1     
   46   11   45 1     
   47   13   46 1     
   48   20   47 1     
   49   20   48 1     
@<TRIPOS>SUBSTRUCTURE
      1 S1             1
@<TRIPOS>SET
LONE_PAIRS      STATIC     ATOMS    <user>   **** ""
7 42 43 44 45 46 47 48
DONOR_HYDROGENS      STATIC     ATOMS    <user>   **** ""
1 33
ATOM$BLUE        STATIC     ATOMS    COLORGROUP SYSTEM
7 42 43 44 45 46 47 48
ATOM$RED        STATIC     ATOMS    COLORGROUP SYSTEM
1 33
