AV-unprocessed.smi:1667|AV-procd|sdf|6680|dock6
  -GOLD-   22720 7393D 1   1.00000     0.00000
 Structure written by MMmdl.
 46 48  0  0  0  0  0  0  0  0  2 V2000
  146.4471  142.7024  153.6972 C   0  0  0  0  0  0  0  0  0  0  0  0
  147.2297  141.5538  154.3235 C   0  0  0  0  0  0  0  0  0  0  0  0
  146.9258  140.3898  154.0705 O   0  0  0  0  0  0  0  0  0  0  0  0
  148.2409  141.8952  155.1366 N   0  0  0  0  0  0  0  0  0  0  0  0
  149.0899  140.9619  155.8752 C   0  0  2  0  0  0  0  0  0  0  0  0
  148.2035  140.0601  156.7460 C   0  0  0  0  0  0  0  0  0  0  0  0
  150.1320  141.6422  156.7193 C   0  0  0  0  0  0  0  0  0  0  0  0
  150.4481  142.9698  156.6950 N   0  3  0  0  0  0  0  0  0  0  0  0
  151.4402  143.2411  157.6359 C   0  0  0  0  0  0  0  0  0  0  0  0
  152.0780  144.4317  157.9698 C   0  0  0  0  0  0  0  0  0  0  0  0
  153.0457  144.3651  158.9936 C   0  0  0  0  0  0  0  0  0  0  0  0
  153.3441  143.1499  159.6437 C   0  0  0  0  0  0  0  0  0  0  0  0
  152.6905  141.9495  159.2954 C   0  0  0  0  0  0  0  0  0  0  0  0
  151.7396  142.0228  158.2775 C   0  0  0  0  0  0  0  0  0  0  0  0
  150.9165  141.0634  157.6767 N   0  0  0  0  0  0  0  0  0  0  0  0
  150.9873  139.6696  158.1459 C   0  0  0  0  0  0  0  0  0  0  0  0
  151.9515  138.7927  157.3202 C   0  0  1  0  0  0  0  0  0  0  0  0
  152.6958  139.6453  156.4759 O   0  0  0  0  0  0  0  0  0  0  0  0
  152.8513  137.9222  158.1849 C   0  0  0  0  0  0  0  0  0  0  0  0
  153.7735  137.0304  157.5939 C   0  0  0  0  0  0  0  0  0  0  0  0
  154.5939  136.2193  158.4017 C   0  0  0  0  0  0  0  0  0  0  0  0
  154.4928  136.2906  159.8043 C   0  0  0  0  0  0  0  0  0  0  0  0
  153.5769  137.1798  160.3991 C   0  0  0  0  0  0  0  0  0  0  0  0
  153.4836  137.2544  161.7478 F   0  0  0  0  0  0  0  0  0  0  0  0
  152.7616  137.9961  159.5915 C   0  0  0  0  0  0  0  0  0  0  0  0
  149.6007  140.3344  155.1441 H   0  0  0  0  0  0  0  0  0  0  0  0
  147.1240  143.4490  153.2809 H   0  0  0  0  0  0  0  0  0  0  0  0
  145.8187  143.1839  154.4467 H   0  0  0  0  0  0  0  0  0  0  0  0
  145.8048  142.3399  152.8936 H   0  0  0  0  0  0  0  0  0  0  0  0
  148.4153  142.8790  155.2829 H   0  0  0  0  0  0  0  0  0  0  0  0
  148.7936  139.3056  157.2662 H   0  0  0  0  0  0  0  0  0  0  0  0
  147.4628  139.5353  156.1417 H   0  0  0  0  0  0  0  0  0  0  0  0
  147.6688  140.6386  157.5003 H   0  0  0  0  0  0  0  0  0  0  0  0
  151.8476  145.3643  157.4761 H   0  0  0  0  0  0  0  0  0  0  0  0
  153.5671  145.2644  159.2881 H   0  0  0  0  0  0  0  0  0  0  0  0
  154.0887  143.1382  160.4263 H   0  0  0  0  0  0  0  0  0  0  0  0
  152.9251  141.0245  159.8014 H   0  0  0  0  0  0  0  0  0  0  0  0
  151.2891  139.6906  159.1943 H   0  0  0  0  0  0  0  0  0  0  0  0
  149.9815  139.2499  158.1285 H   0  0  0  0  0  0  0  0  0  0  0  0
  151.3765  138.1431  156.6602 H   0  0  0  0  0  0  0  0  0  0  0  0
  152.1150  139.9984  155.8192 H   0  0  0  0  0  0  0  0  0  0  0  0
  153.8547  136.9669  156.5185 H   0  0  0  0  0  0  0  0  0  0  0  0
  155.2991  135.5401  157.9456 H   0  0  0  0  0  0  0  0  0  0  0  0
  155.1213  135.6678  160.4238 H   0  0  0  0  0  0  0  0  0  0  0  0
  152.0644  138.6771  160.0572 H   0  0  0  0  0  0  0  0  0  0  0  0
  150.0147  143.6384  156.0715 H   0  0  0  0  0  0  0  0  0  0  0  0
  1  2  1  0  0  0  0
  1 27  1  0  0  0  0
  1 28  1  0  0  0  0
  1 29  1  0  0  0  0
  2  3  2  0  0  0  0
  2  4  1  0  0  0  0
  4  5  1  0  0  0  0
  4 30  1  0  0  0  0
  5 26  1  0  0  0  0
  5  6  1  0  0  0  0
  5  7  1  0  0  0  0
  6 31  1  0  0  0  0
  6 32  1  0  0  0  0
  6 33  1  0  0  0  0
  7 15  1  0  0  0  0
  7  8  2  0  0  0  0
  8  9  1  0  0  0  0
  8 46  1  0  0  0  0
  9 14  2  0  0  0  0
  9 10  1  0  0  0  0
 10 11  2  0  0  0  0
 10 34  1  0  0  0  0
 11 12  1  0  0  0  0
 11 35  1  0  0  0  0
 12 13  2  0  0  0  0
 12 36  1  0  0  0  0
 13 14  1  0  0  0  0
 13 37  1  0  0  0  0
 14 15  1  0  0  0  0
 15 16  1  0  0  0  0
 16 17  1  0  0  0  0
 16 38  1  0  0  0  0
 16 39  1  0  0  0  0
 17 18  1  0  0  0  0
 17 19  1  0  0  0  0
 17 40  1  0  0  0  0
 18 41  1  0  0  0  0
 19 25  1  0  0  0  0
 19 20  2  0  0  0  0
 20 21  1  0  0  0  0
 20 42  1  0  0  0  0
 21 22  2  0  0  0  0
 21 43  1  0  0  0  0
 22 23  1  0  0  0  0
 22 44  1  0  0  0  0
 23 24  1  0  0  0  0
 23 25  2  0  0  0  0
 25 45  1  0  0  0  0
M  CHG  1   8   1
M  END
> <s_m_source_file>
AV-unprocessed.smi

> <i_m_source_file_index>
1667

> <i_lp_mmshare_version>
43012

> <i_f3d_flags>
0

> <s_epik_input>
W0NIM11DKD1PKVtOSF1bQ0BASF0oW0NIM10pYyhuMSluKGMoYzEyKVtjSF1bY0hdW2NIXVtjSF0yKVtDSDJdW0NASF0oW09IXSljM1tjSF1bY0hdW2NIXWMoRilbY0hdMw==

> <s_epik_cmdline>
J2VwaWtfcHl0aG9uJywgJy1waCcsICc3LjAnLCAnLXRuJywgJzgnLCAnLW1hJywgJzIwMCcsICctbWV0YWxfYmluZGluZycsICctaW1hZScsICc8aW5maWxlLm1hZT4nLCAnLW9tYWUnLCAnPG91dGZpbGUubWFlPic=

> <r_epik_Ionization_Penalty>
0.950383

> <r_epik_Ionization_Penalty_Charging>
0.950379

> <r_epik_Ionization_Penalty_Neutral>
3.60962e-06

> <r_epik_State_Penalty>
0.994584

> <r_epik_Charging_Adjusted_Penalty>
1.94496

> <i_epik_Tot_Q>
1

> <i_epik_Tot_abs_Q>
1

> <r_epik_Metal_State_Penalty>
1.10485

> <b_epik_Metal_Only>
0

> <s_lp_Force_Field>
OPLS_2005

> <r_lp_Energy>
10.8153

> <b_lp_Chiralities_Consistent>
1

> <s_lp_Variant>
AV-unprocessed.smi:1667-8

> <Gold.Version>
5.8.1

> <Gold.Id.Protein>
6NUR|6NUR_protein|mol2

> <Gold.PLP.Fitness>
54.8087

> <Gold.PLP.PLP>
-45.3591

> <Gold.PLP.part.hbond>
-3.0000

> <Gold.PLP.part.metal>
0.0000

> <Gold.PLP.part.buried>
-8.1385

> <Gold.PLP.part.nonpolar>
-34.1921

> <Gold.PLP.part.repulsive>
0.2936

> <Gold.PLP.ligand.clash>
0.0000

> <Gold.PLP.ligand.torsion>
1.2973

> <Gold.PLP.Chemscore.Hbond>
4.0000

> <Gold.PLP.Chemscore.CHOScore>
0.0000

> <Gold.PLP.Chemscore.Metal>
0.0000

> <Gold.Chemscore.Hbonds>
donor molecule, donor type, donor heavy atom, donor atom, acceptor molecule, acceptor atom, score
      L1  H     4    30       P1  8028  1.00
      L1  H     8    46       P1  8028  2.00
      P1  H  7997  8009       L1    18  1.00

> <Gold.PLP.Chemscore.Internal.Correction>
0.0442

> <Gold.Rescore>
     Score         DG    S(hbond)    S(metal)    S(lipo)     H(rot)  DE(clash)    DE(int)     intcor
     21.11     -22.36       2.96        0.00     115.22       2.53       0.06       1.19       ----

> <Gold.Chemscore.Fitness>
21.1141

> <Gold.Chemscore.DG>
-22.3649

> <Gold.Chemscore.ZeroCoef>
-5.4800

> <Gold.Chemscore.Hbond>
2.9610

> <Gold.Chemscore.Metal>
0.0000

> <Gold.Chemscore.Lipo>
115.2212

> <Gold.Chemscore.Internal_Hbond>
0.0000

> <Gold.Chemscore.DEClash>
0.0621

> <Gold.Chemscore.DEInternal>
1.1887

> <Gold.Chemscore.Rot>
2.5335

> <Gold.Chemscore.Internal.Correction>
   9.000000E+99

> <Gold.Chemscore.Hbonds>
donor molecule, donor type, donor heavy atom, donor atom, acceptor molecule, acceptor atom, score
      L1  H     4    30       P1  8028  1.00
      L1  H     8    46       P1  8028  0.97
      P1  H  7997  8009       L1    18  0.82

> <Gold.Chemscore.Hbond.Weighted>
-9.8896

> <Gold.Chemscore.Metal.Weighted>
-0.0000

> <Gold.Chemscore.Lipo.Weighted>
-13.4809

> <Gold.Chemscore.Internal_Hbond.Weighted>
0.0000

> <Gold.Chemscore.DEClash.Weighted>
0.0621

> <Gold.Chemscore.DEInternal.Weighted>
1.1887

> <Gold.Chemscore.Rot.Weighted>
6.4856

> <Gold.Chemscore.Internal.Correction.Weighted>
   9.000000E+99

> <Gold.Protein.RotatedTorsions>
[ 6907 6896 6895 6894 ] final -130.27 input  -60.11 | X-H torsion
[ 7974 7965 7964 7962 ] final  150.07 input  175.53 | X-H torsion
[ 8008 7997 7996 7995 ] final -155.33 input   59.86 | X-H torsion
[ 10167 10162 10161 10158 ] final   65.10 input  -65.29 | X-H torsion
[ 10718 10713 10712 10709 ] final  -89.29 input   66.30 | X-H torsion
[ 10763 10752 10751 10750 ] final -154.72 input  -60.55 | X-H torsion
[ 11005 11000 10999 10996 ] final  150.65 input  -57.11 | X-H torsion

> <Gold.Protein.ActiveResidues>
 VAL166  LYS551  ARG553  GLY616  TRP617  ASP618  TYR619  PRO620  LYS621  CYS622 
 ASP623  PHE694  ASN695  SER759  ASP760  ASP761  ALA762  ILE779  LEU786  VAL792 
 PHE793  MET794  SER795  GLU796  ALA797  LYS798  CYS799  TRP800  GLU811  SER814 

> <Gold.Protein.RotatedAtoms>
  150.9378  133.6691  159.2796 H   0  0  0  0  0  0  0  0  0  0  0  0  # atno 6907 bound_to 6896
  151.4091  135.0981  159.9589 H   0  0  0  0  0  0  0  0  0  0  0  0  # atno 6908 bound_to 6896
  152.5056  133.8855  159.7423 H   0  0  0  0  0  0  0  0  0  0  0  0  # atno 6909 bound_to 6896
  144.8391  139.6361  143.6024 H   0  0  0  0  0  0  0  0  0  0  0  0  # atno 7974 bound_to 7965
  155.7001  140.0766  157.2413 H   0  0  0  0  0  0  0  0  0  0  0  0  # atno 8008 bound_to 7997
  154.4074  140.1649  156.2235 H   0  0  0  0  0  0  0  0  0  0  0  0  # atno 8009 bound_to 7997
  155.9375  140.3387  155.6303 H   0  0  0  0  0  0  0  0  0  0  0  0  # atno 8010 bound_to 7997
  140.1149  144.4784  150.6955 H   0  0  0  0  0  0  0  0  0  0  0  0  # atno 10167 bound_to 10162
  155.9984  130.4867  150.5148 H   0  0  0  0  0  0  0  0  0  0  0  0  # atno 10718 bound_to 10713
  154.7838  135.3183  154.7930 H   0  0  0  0  0  0  0  0  0  0  0  0  # atno 10763 bound_to 10752
  153.8635  135.6851  153.4785 H   0  0  0  0  0  0  0  0  0  0  0  0  # atno 10764 bound_to 10752
  153.1483  135.4710  154.9538 H   0  0  0  0  0  0  0  0  0  0  0  0  # atno 10765 bound_to 10752
  140.1150  134.8900  157.1991 H   0  0  0  0  0  0  0  0  0  0  0  0  # atno 11005 bound_to 11000
  146.2686  139.6580  142.9312 LP  0  0  0  0  0  0  0  0  0  0  0  0  # atno 17320 bound_to 7965
  145.4732  141.0436  143.2687 LP  0  0  0  0  0  0  0  0  0  0  0  0  # atno 17321 bound_to 7965
  140.6905  143.2373  151.5145 LP  0  0  0  0  0  0  0  0  0  0  0  0  # atno 17342 bound_to 10162
  139.5599  144.2182  152.1674 LP  0  0  0  0  0  0  0  0  0  0  0  0  # atno 17343 bound_to 10162
  157.3117  131.0665  151.1996 LP  0  0  0  0  0  0  0  0  0  0  0  0  # atno 17370 bound_to 10713
  157.2940  130.6810  149.6129 LP  0  0  0  0  0  0  0  0  0  0  0  0  # atno 17371 bound_to 10713
  140.3040  134.3099  155.7282 LP  0  0  0  0  0  0  0  0  0  0  0  0  # atno 17394 bound_to 11000
  141.2139  133.7609  156.9682 LP  0  0  0  0  0  0  0  0  0  0  0  0  # atno 17395 bound_to 11000

$$$$
