AV-unprocessed.smi:1420|AV-procd|sdf|5787|dock1
  -GOLD-   22720 5433D 1   1.00000     0.00000
 Structure written by MMmdl.
 38 39  0  0  0  0  0  0  0  0  1 V2000
  146.9365  139.1719  151.6960 C   0  0  0  0  0  0  0  0  0  0  0  0
  146.6390  138.8662  153.1863 C   0  0  1  0  0  0  0  0  0  0  0  0
  146.4407  137.3311  153.3531 C   0  0  0  0  0  0  0  0  0  0  0  0
  145.8001  136.7002  152.2026 N   0  0  0  0  0  0  0  0  0  0  0  0
  144.5687  136.1662  152.2013 C   0  0  0  0  0  0  0  0  0  0  0  0
  143.8356  136.1485  153.1897 O   0  0  0  0  0  0  0  0  0  0  0  0
  144.0859  135.5654  150.8805 C   0  0  0  0  0  0  0  0  0  0  0  0
  144.6978  134.2715  150.6354 N   0  0  0  0  0  0  0  0  0  0  0  0
  144.0995  133.1116  150.1885 C   0  0  0  0  0  0  0  0  0  0  0  0
  145.0717  132.1556  150.1130 C   0  0  0  0  0  0  0  0  0  0  0  0
  146.2473  132.8344  150.5398 C   0  0  0  0  0  0  0  0  0  0  0  0
  146.0208  134.1003  150.8521 N   0  0  0  0  0  0  0  0  0  0  0  0
  147.6593  139.4293  154.1016 N   0  0  0  0  0  0  0  0  0  0  0  0
  148.9063  138.6553  154.0966 C   0  0  0  0  0  0  0  0  0  0  0  0
  149.9828  139.2481  155.0221 C   0  0  0  0  0  0  0  0  0  0  0  0
  150.2454  140.5936  154.6490 O   0  0  0  0  0  0  0  0  0  0  0  0
  149.0788  141.4014  154.7147 C   0  0  0  0  0  0  0  0  0  0  0  0
  147.9934  140.8240  153.7894 C   0  0  0  0  0  0  0  0  0  0  0  0
  146.2142  138.7106  151.0237 H   0  0  0  0  0  0  0  0  0  0  0  0
  147.9258  138.8128  151.4099 H   0  0  0  0  0  0  0  0  0  0  0  0
  146.8871  140.2372  151.4751 H   0  0  0  0  0  0  0  0  0  0  0  0
  145.6852  139.3407  153.4217 H   0  0  0  0  0  0  0  0  0  0  0  0
  147.4054  136.8479  153.5108 H   0  0  0  0  0  0  0  0  0  0  0  0
  145.8303  137.0870  154.2212 H   0  0  0  0  0  0  0  0  0  0  0  0
  146.3323  136.6662  151.3447 H   0  0  0  0  0  0  0  0  0  0  0  0
  143.0024  135.4405  150.9009 H   0  0  0  0  0  0  0  0  0  0  0  0
  144.3149  136.2436  150.0567 H   0  0  0  0  0  0  0  0  0  0  0  0
  143.0436  133.0644  149.9657 H   0  0  0  0  0  0  0  0  0  0  0  0
  144.9601  131.1279  149.8005 H   0  0  0  0  0  0  0  0  0  0  0  0
  147.2515  132.4473  150.6312 H   0  0  0  0  0  0  0  0  0  0  0  0
  148.7265  137.6355  154.4311 H   0  0  0  0  0  0  0  0  0  0  0  0
  149.2984  138.5922  153.0804 H   0  0  0  0  0  0  0  0  0  0  0  0
  149.6631  139.2060  156.0644 H   0  0  0  0  0  0  0  0  0  0  0  0
  150.9052  138.6721  154.9468 H   0  0  0  0  0  0  0  0  0  0  0  0
  148.7205  141.4552  155.7441 H   0  0  0  0  0  0  0  0  0  0  0  0
  149.3329  142.4171  154.4114 H   0  0  0  0  0  0  0  0  0  0  0  0
  148.3226  140.9026  152.7520 H   0  0  0  0  0  0  0  0  0  0  0  0
  147.1202  141.4641  153.8945 H   0  0  0  0  0  0  0  0  0  0  0  0
  1  2  1  0  0  0  0
  1 19  1  0  0  0  0
  1 20  1  0  0  0  0
  1 21  1  0  0  0  0
  2  3  1  0  0  0  0
  2 13  1  0  0  0  0
  2 22  1  0  0  0  0
  3  4  1  0  0  0  0
  3 23  1  0  0  0  0
  3 24  1  0  0  0  0
  4  5  1  0  0  0  0
  4 25  1  0  0  0  0
  5  6  2  0  0  0  0
  5  7  1  0  0  0  0
  7  8  1  0  0  0  0
  7 26  1  0  0  0  0
  7 27  1  0  0  0  0
  8 12  1  0  0  0  0
  8  9  1  0  0  0  0
  9 10  2  0  0  0  0
  9 28  1  0  0  0  0
 10 11  1  0  0  0  0
 10 29  1  0  0  0  0
 11 12  2  0  0  0  0
 11 30  1  0  0  0  0
 13 18  1  0  0  0  0
 13 14  1  0  0  0  0
 14 15  1  0  0  0  0
 14 31  1  0  0  0  0
 14 32  1  0  0  0  0
 15 16  1  0  0  0  0
 15 33  1  0  0  0  0
 15 34  1  0  0  0  0
 16 17  1  0  0  0  0
 17 18  1  0  0  0  0
 17 35  1  0  0  0  0
 17 36  1  0  0  0  0
 18 37  1  0  0  0  0
 18 38  1  0  0  0  0
M  END
> <s_m_source_file>
AV-unprocessed.smi

> <i_m_source_file_index>
1420

> <i_lp_mmshare_version>
43012

> <i_f3d_flags>
0

> <s_epik_input>
W0NIMl0xW0NIMl1PW0NIMl1bQ0gyXU4xW0NASF0oW0NIM10pW0NIMl1bTkhdQyg9TylbQ0gyXW4yW2NIXVtjSF1bY0hdbjI=

> <s_epik_cmdline>
J2VwaWtfcHl0aG9uJywgJy1waCcsICc3LjAnLCAnLXRuJywgJzgnLCAnLW1hJywgJzIwMCcsICctbWV0YWxfYmluZGluZycsICctaW1hZScsICc8aW5maWxlLm1hZT4nLCAnLW9tYWUnLCAnPG91dGZpbGUubWFlPic=

> <r_lp_tautomer_probability>
1

> <r_epik_Ionization_Penalty>
0.196927

> <r_epik_Ionization_Penalty_Charging>
0

> <r_epik_Ionization_Penalty_Neutral>
0.196927

> <r_epik_State_Penalty>
0.186684

> <r_epik_Charging_Adjusted_Penalty>
0.186684

> <i_epik_Tot_Q>
0

> <i_epik_Tot_abs_Q>
0

> <r_epik_Metal_State_Penalty>
0.186682

> <b_epik_Metal_Only>
0

> <s_lp_Force_Field>
OPLS_2005

> <r_lp_Energy>
28.9216

> <b_lp_Chiralities_Consistent>
1

> <s_lp_Variant>
AV-unprocessed.smi:1420-2

> <Gold.Version>
5.8.1

> <Gold.Id.Protein>
6NUR|6NUR_protein|mol2

> <Gold.PLP.Fitness>
38.8928

> <Gold.PLP.PLP>
-31.7042

> <Gold.PLP.part.hbond>
-1.4985

> <Gold.PLP.part.metal>
0.0000

> <Gold.PLP.part.buried>
-1.2499

> <Gold.PLP.part.nonpolar>
-30.1728

> <Gold.PLP.part.repulsive>
0.5508

> <Gold.PLP.ligand.clash>
0.0000

> <Gold.PLP.ligand.torsion>
0.8352

> <Gold.PLP.Chemscore.Hbond>
0.8960

> <Gold.PLP.Chemscore.CHOScore>
2.0000

> <Gold.PLP.Chemscore.Metal>
0.0000

> <Gold.Chemscore.Hbonds>
donor molecule, donor type, donor heavy atom, donor atom, acceptor molecule, acceptor atom, score
      P1  H  7989  7998       L1    16  0.90
      L1  C     9    28       P1 10186  1.00
      L1  C    11    30       P1 10747  1.00

> <Gold.PLP.Chemscore.Internal.Correction>
0.1710

> <Gold.Rescore>
     Score         DG    S(hbond)    S(metal)    S(lipo)     H(rot)  DE(clash)    DE(int)     intcor
     11.22     -13.09       0.84        0.00      81.83       1.87       0.15       1.73       ----

> <Gold.Chemscore.Fitness>
11.2173

> <Gold.Chemscore.DG>
-13.0944

> <Gold.Chemscore.ZeroCoef>
-5.4800

> <Gold.Chemscore.Hbond>
0.8441

> <Gold.Chemscore.Metal>
0.0000

> <Gold.Chemscore.Lipo>
81.8311

> <Gold.Chemscore.Internal_Hbond>
0.0000

> <Gold.Chemscore.DEClash>
0.1481

> <Gold.Chemscore.DEInternal>
1.7290

> <Gold.Chemscore.Rot>
1.8669

> <Gold.Chemscore.Internal.Correction>
   9.000000E+99

> <Gold.Chemscore.Hbonds>
donor molecule, donor type, donor heavy atom, donor atom, acceptor molecule, acceptor atom, score
      P1  H  7989  7998       L1    16  0.84

> <Gold.Chemscore.Hbond.Weighted>
-2.8193

> <Gold.Chemscore.Metal.Weighted>
-0.0000

> <Gold.Chemscore.Lipo.Weighted>
-9.5742

> <Gold.Chemscore.Internal_Hbond.Weighted>
0.0000

> <Gold.Chemscore.DEClash.Weighted>
0.1481

> <Gold.Chemscore.DEInternal.Weighted>
1.7290

> <Gold.Chemscore.Rot.Weighted>
4.7792

> <Gold.Chemscore.Internal.Correction.Weighted>
   9.000000E+99

> <Gold.Protein.RotatedTorsions>
[ 6907 6896 6895 6894 ] final  149.80 input  -60.11 | X-H torsion
[ 7974 7965 7964 7962 ] final  145.25 input  175.53 | X-H torsion
[ 8008 7997 7996 7995 ] final   80.32 input   59.86 | X-H torsion
[ 10167 10162 10161 10158 ] final   64.37 input  -65.29 | X-H torsion
[ 10718 10713 10712 10709 ] final -100.29 input   66.30 | X-H torsion
[ 10763 10752 10751 10750 ] final  123.29 input  -60.55 | X-H torsion
[ 11005 11000 10999 10996 ] final   78.72 input  -57.11 | X-H torsion

> <Gold.Protein.ActiveResidues>
 VAL166  LYS551  ARG553  GLY616  TRP617  ASP618  TYR619  PRO620  LYS621  CYS622 
 ASP623  PHE694  ASN695  SER759  ASP760  ASP761  ALA762  ILE779  LEU786  VAL792 
 PHE793  MET794  SER795  GLU796  ALA797  LYS798  CYS799  TRP800  GLU811  SER814 

> <Gold.Protein.RotatedAtoms>
  152.1232  133.4365  159.4684 H   0  0  0  0  0  0  0  0  0  0  0  0  # atno 6907 bound_to 6896
  150.6873  134.2510  159.4520 H   0  0  0  0  0  0  0  0  0  0  0  0  # atno 6908 bound_to 6896
  152.0388  134.9723  160.0624 H   0  0  0  0  0  0  0  0  0  0  0  0  # atno 6909 bound_to 6896
  144.8768  139.5761  143.5861 H   0  0  0  0  0  0  0  0  0  0  0  0  # atno 7974 bound_to 7965
  155.8818  140.3443  155.5893 H   0  0  0  0  0  0  0  0  0  0  0  0  # atno 8008 bound_to 7997
  155.7711  140.0845  157.2126 H   0  0  0  0  0  0  0  0  0  0  0  0  # atno 8009 bound_to 7997
  154.4025  140.1518  156.2930 H   0  0  0  0  0  0  0  0  0  0  0  0  # atno 8010 bound_to 7997
  140.1229  144.4714  150.6909 H   0  0  0  0  0  0  0  0  0  0  0  0  # atno 10167 bound_to 10162
  156.0158  130.5321  150.6795 H   0  0  0  0  0  0  0  0  0  0  0  0  # atno 10718 bound_to 10713
  153.6431  135.3376  155.3077 H   0  0  0  0  0  0  0  0  0  0  0  0  # atno 10763 bound_to 10752
  154.8555  135.4323  154.1983 H   0  0  0  0  0  0  0  0  0  0  0  0  # atno 10764 bound_to 10752
  153.2907  135.7017  153.7370 H   0  0  0  0  0  0  0  0  0  0  0  0  # atno 10765 bound_to 10752
  139.9201  134.7785  156.1685 H   0  0  0  0  0  0  0  0  0  0  0  0  # atno 11005 bound_to 11000
  146.2968  139.7301  142.9121 LP  0  0  0  0  0  0  0  0  0  0  0  0  # atno 17320 bound_to 7965
  145.4028  141.0387  143.3060 LP  0  0  0  0  0  0  0  0  0  0  0  0  # atno 17321 bound_to 7965
  140.6861  143.2351  151.5256 LP  0  0  0  0  0  0  0  0  0  0  0  0  # atno 17342 bound_to 10162
  139.5559  144.2277  152.1611 LP  0  0  0  0  0  0  0  0  0  0  0  0  # atno 17343 bound_to 10162
  157.4500  131.0871  151.0855 LP  0  0  0  0  0  0  0  0  0  0  0  0  # atno 17370 bound_to 10713
  157.1374  130.6128  149.5546 LP  0  0  0  0  0  0  0  0  0  0  0  0  # atno 17371 bound_to 10713
  141.0714  133.6795  156.2149 LP  0  0  0  0  0  0  0  0  0  0  0  0  # atno 17394 bound_to 11000
  140.6500  134.5077  157.5576 LP  0  0  0  0  0  0  0  0  0  0  0  0  # atno 17395 bound_to 11000

$$$$
