AV-unprocessed.smi:313|AV-procd|sdf|2312|dock5
  -GOLD-   2262022213D 1   1.00000     0.00000
 Structure written by MMmdl.
 50 51  0  0  0  0  0  0  0  0  1 V2000
  151.9931  131.4129  164.7833 C   0  0  0  0  0  0  0  0  0  0  0  0
  152.9954  132.2113  163.9371 C   0  0  0  0  0  0  0  0  0  0  0  0
  153.7604  133.2862  164.7321 C   0  0  1  0  0  0  0  0  0  0  0  0
  154.6743  132.6581  165.7963 C   0  0  0  0  0  0  0  0  0  0  0  0
  154.5471  134.1187  163.8250 N   0  0  0  0  0  0  0  0  0  0  0  0
  154.2805  135.3949  163.5071 C   0  0  0  0  0  0  0  0  0  0  0  0
  153.3179  136.0178  163.9585 O   0  0  0  0  0  0  0  0  0  0  0  0
  155.2459  136.0561  162.5100 C   0  0  1  0  0  0  0  0  0  0  0  0
  155.3279  135.1604  161.2628 C   0  0  0  0  0  0  0  0  0  0  0  0
  154.7491  137.3665  162.0933 N   0  0  0  0  0  0  0  0  0  0  0  0
  153.7294  137.5760  161.2436 C   0  0  0  0  0  0  0  0  0  0  0  0
  153.0976  136.6683  160.7027 O   0  0  0  0  0  0  0  0  0  0  0  0
  153.4356  139.0138  160.9276 C   0  0  0  0  0  0  0  0  0  0  0  0
  153.8974  140.0649  161.7485 C   0  0  0  0  0  0  0  0  0  0  0  0
  153.5723  141.3933  161.4136 C   0  0  0  0  0  0  0  0  0  0  0  0
  152.7837  141.6459  160.2622 C   0  0  0  0  0  0  0  0  0  0  0  0
  152.4170  142.9551  159.8718 N   0  0  0  0  0  0  0  0  0  0  0  0
  153.0795  143.4936  158.6833 C   0  0  0  0  0  0  0  0  0  0  0  0
  152.3579  144.7560  158.1824 C   0  0  0  0  0  0  0  0  0  0  0  0
  152.2510  145.7017  159.2399 O   0  0  0  0  0  0  0  0  0  0  0  0
  151.4763  145.1930  160.3191 C   0  0  0  0  0  0  0  0  0  0  0  0
  152.1605  143.9496  160.9113 C   0  0  0  0  0  0  0  0  0  0  0  0
  152.3327  140.6307  159.4859 N   0  0  0  0  0  0  0  0  0  0  0  0
  152.6451  139.3587  159.8116 C   0  0  0  0  0  0  0  0  0  0  0  0
  151.5140  130.6381  164.1848 H   0  0  0  0  0  0  0  0  0  0  0  0
  151.2060  132.0518  165.1842 H   0  0  0  0  0  0  0  0  0  0  0  0
  152.4890  130.9245  165.6226 H   0  0  0  0  0  0  0  0  0  0  0  0
  153.7104  131.5144  163.4983 H   0  0  0  0  0  0  0  0  0  0  0  0
  152.4716  132.6734  163.0993 H   0  0  0  0  0  0  0  0  0  0  0  0
  153.0239  133.9109  165.2410 H   0  0  0  0  0  0  0  0  0  0  0  0
  154.1008  132.0458  166.4925 H   0  0  0  0  0  0  0  0  0  0  0  0
  155.1868  133.4233  166.3801 H   0  0  0  0  0  0  0  0  0  0  0  0
  155.4343  132.0216  165.3419 H   0  0  0  0  0  0  0  0  0  0  0  0
  155.3566  133.6877  163.4026 H   0  0  0  0  0  0  0  0  0  0  0  0
  156.2377  136.1582  162.9551 H   0  0  0  0  0  0  0  0  0  0  0  0
  155.6997  134.1657  161.5125 H   0  0  0  0  0  0  0  0  0  0  0  0
  156.0090  135.5840  160.5242 H   0  0  0  0  0  0  0  0  0  0  0  0
  154.3551  135.0413  160.7828 H   0  0  0  0  0  0  0  0  0  0  0  0
  155.2320  138.1727  162.4618 H   0  0  0  0  0  0  0  0  0  0  0  0
  154.4934  139.8681  162.6278 H   0  0  0  0  0  0  0  0  0  0  0  0
  153.9422  142.1865  162.0448 H   0  0  0  0  0  0  0  0  0  0  0  0
  154.1143  143.7288  158.9353 H   0  0  0  0  0  0  0  0  0  0  0  0
  153.1059  142.7667  157.8717 H   0  0  0  0  0  0  0  0  0  0  0  0
  152.9158  145.2048  157.3607 H   0  0  0  0  0  0  0  0  0  0  0  0
  151.3674  144.5096  157.7964 H   0  0  0  0  0  0  0  0  0  0  0  0
  151.3780  145.9657  161.0817 H   0  0  0  0  0  0  0  0  0  0  0  0
  150.4676  144.9553  159.9762 H   0  0  0  0  0  0  0  0  0  0  0  0
  151.5118  143.5336  161.6827 H   0  0  0  0  0  0  0  0  0  0  0  0
  153.1033  144.2279  161.3843 H   0  0  0  0  0  0  0  0  0  0  0  0
  152.2529  138.5979  159.1524 H   0  0  0  0  0  0  0  0  0  0  0  0
  1  2  1  0  0  0  0
  1 25  1  0  0  0  0
  1 26  1  0  0  0  0
  1 27  1  0  0  0  0
  2  3  1  0  0  0  0
  2 28  1  0  0  0  0
  2 29  1  0  0  0  0
  3  4  1  0  0  0  0
  3  5  1  0  0  0  0
  3 30  1  0  0  0  0
  4 31  1  0  0  0  0
  4 32  1  0  0  0  0
  4 33  1  0  0  0  0
  5  6  1  0  0  0  0
  5 34  1  0  0  0  0
  6  7  2  0  0  0  0
  6  8  1  0  0  0  0
  8  9  1  0  0  0  0
  8 10  1  0  0  0  0
  8 35  1  0  0  0  0
  9 36  1  0  0  0  0
  9 37  1  0  0  0  0
  9 38  1  0  0  0  0
 10 11  1  0  0  0  0
 10 39  1  0  0  0  0
 11 12  2  0  0  0  0
 11 13  1  0  0  0  0
 13 24  1  0  0  0  0
 13 14  2  0  0  0  0
 14 15  1  0  0  0  0
 14 40  1  0  0  0  0
 15 16  2  0  0  0  0
 15 41  1  0  0  0  0
 16 17  1  0  0  0  0
 16 23  1  0  0  0  0
 17 22  1  0  0  0  0
 17 18  1  0  0  0  0
 18 19  1  0  0  0  0
 18 42  1  0  0  0  0
 18 43  1  0  0  0  0
 19 20  1  0  0  0  0
 19 44  1  0  0  0  0
 19 45  1  0  0  0  0
 20 21  1  0  0  0  0
 21 22  1  0  0  0  0
 21 46  1  0  0  0  0
 21 47  1  0  0  0  0
 22 48  1  0  0  0  0
 22 49  1  0  0  0  0
 23 24  2  0  0  0  0
 24 50  1  0  0  0  0
M  END
> <s_m_source_file>
AV-unprocessed.smi

> <i_m_source_file_index>
313

> <i_lp_mmshare_version>
43012

> <i_f3d_flags>
0

> <s_epik_input>
W0NIM11bQ0gyXVtDQEhdKFtDSDNdKVtOSF1DKD1PKVtDQEhdKFtDSDNdKVtOSF1DKD1PKWMxW2NIXVtjSF1jKG5bY0hdMSlOMltDSDJdW0NIMl1PW0NIMl1bQ0gyXTI=

> <s_epik_cmdline>
J2VwaWtfcHl0aG9uJywgJy1waCcsICc3LjAnLCAnLXRuJywgJzgnLCAnLW1hJywgJzIwMCcsICctbWV0YWxfYmluZGluZycsICctaW1hZScsICc8aW5maWxlLm1hZT4nLCAnLW9tYWUnLCAnPG91dGZpbGUubWFlPic=

> <r_lp_tautomer_probability>
1

> <r_epik_Ionization_Penalty>
9.96442e-06

> <r_epik_Ionization_Penalty_Charging>
0

> <r_epik_Ionization_Penalty_Neutral>
9.96442e-06

> <r_epik_State_Penalty>
-0

> <r_epik_Charging_Adjusted_Penalty>
0

> <i_epik_Tot_Q>
0

> <i_epik_Tot_abs_Q>
0

> <r_epik_Metal_State_Penalty>
-0

> <b_epik_Metal_Only>
0

> <s_lp_Force_Field>
OPLS_2005

> <r_lp_Energy>
19.952

> <b_lp_Chiralities_Consistent>
1

> <s_lp_Variant>
AV-unprocessed.smi:313-4

> <Gold.Version>
5.8.1

> <Gold.Id.Protein>
6NUR|6NUR_protein|mol2

> <Gold.PLP.Fitness>
45.2051

> <Gold.PLP.PLP>
-44.6340

> <Gold.PLP.part.hbond>
-1.1738

> <Gold.PLP.part.metal>
0.0000

> <Gold.PLP.part.buried>
-6.7190

> <Gold.PLP.part.nonpolar>
-36.8065

> <Gold.PLP.part.repulsive>
0.1437

> <Gold.PLP.ligand.clash>
0.0064

> <Gold.PLP.ligand.torsion>
1.0077

> <Gold.PLP.Chemscore.Hbond>
0.6988

> <Gold.PLP.Chemscore.CHOScore>
0.0000

> <Gold.PLP.Chemscore.Metal>
0.0000

> <Gold.Chemscore.Hbonds>
donor molecule, donor type, donor heavy atom, donor atom, acceptor molecule, acceptor atom, score
      P1  H  6896  6908       L1    12  0.99

> <Gold.PLP.Chemscore.Internal.Correction>
0.4967

> <Gold.Rescore>
     Score         DG    S(hbond)    S(metal)    S(lipo)     H(rot)  DE(clash)    DE(int)     intcor
     14.89     -17.41       0.98        0.00     113.05       1.79       0.03       2.49       ----

> <Gold.Chemscore.Fitness>
14.8941

> <Gold.Chemscore.DG>
-17.4098

> <Gold.Chemscore.ZeroCoef>
-5.4800

> <Gold.Chemscore.Hbond>
0.9826

> <Gold.Chemscore.Metal>
0.0000

> <Gold.Chemscore.Lipo>
113.0538

> <Gold.Chemscore.Internal_Hbond>
0.0000

> <Gold.Chemscore.DEClash>
0.0273

> <Gold.Chemscore.DEInternal>
2.4884

> <Gold.Chemscore.Rot>
1.7888

> <Gold.Chemscore.Internal.Correction>
   9.000000E+99

> <Gold.Chemscore.Hbonds>
donor molecule, donor type, donor heavy atom, donor atom, acceptor molecule, acceptor atom, score
      P1  H  6896  6908       L1    12  0.92

> <Gold.Chemscore.Hbond.Weighted>
-3.2818

> <Gold.Chemscore.Metal.Weighted>
-0.0000

> <Gold.Chemscore.Lipo.Weighted>
-13.2273

> <Gold.Chemscore.Internal_Hbond.Weighted>
0.0000

> <Gold.Chemscore.DEClash.Weighted>
0.0273

> <Gold.Chemscore.DEInternal.Weighted>
2.4884

> <Gold.Chemscore.Rot.Weighted>
4.5793

> <Gold.Chemscore.Internal.Correction.Weighted>
   9.000000E+99

> <Gold.Protein.RotatedTorsions>
[ 6907 6896 6895 6894 ] final  -84.42 input  -60.11 | X-H torsion
[ 7974 7965 7964 7962 ] final   16.31 input  175.53 | X-H torsion
[ 8008 7997 7996 7995 ] final   -9.10 input   59.86 | X-H torsion
[ 10167 10162 10161 10158 ] final -109.97 input  -65.29 | X-H torsion
[ 10718 10713 10712 10709 ] final -117.10 input   66.30 | X-H torsion
[ 10763 10752 10751 10750 ] final    8.48 input  -60.55 | X-H torsion
[ 11005 11000 10999 10996 ] final  171.21 input  -57.11 | X-H torsion

> <Gold.Protein.ActiveResidues>
 VAL166  LYS551  ARG553  GLY616  TRP617  ASP618  TYR619  PRO620  LYS621  CYS622 
 ASP623  PHE694  ASN695  SER759  ASP760  ASP761  ALA762  ILE779  LEU786  VAL792 
 PHE793  MET794  SER795  GLU796  ALA797  LYS798  CYS799  TRP800  GLU811  SER814 

> <Gold.Protein.RotatedAtoms>
  150.6877  134.3361  159.4847 H   0  0  0  0  0  0  0  0  0  0  0  0  # atno 6907 bound_to 6896
  152.1220  134.9196  160.0572 H   0  0  0  0  0  0  0  0  0  0  0  0  # atno 6908 bound_to 6896
  152.0398  133.3938  159.4369 H   0  0  0  0  0  0  0  0  0  0  0  0  # atno 6909 bound_to 6896
  146.2253  139.8766  142.8578 H   0  0  0  0  0  0  0  0  0  0  0  0  # atno 7974 bound_to 7965
  154.5679  140.2364  155.8236 H   0  0  0  0  0  0  0  0  0  0  0  0  # atno 8008 bound_to 7997
  156.2083  140.3033  155.9634 H   0  0  0  0  0  0  0  0  0  0  0  0  # atno 8009 bound_to 7997
  155.2767  140.0420  157.3002 H   0  0  0  0  0  0  0  0  0  0  0  0  # atno 8010 bound_to 7997
  140.1495  143.4210  152.1504 H   0  0  0  0  0  0  0  0  0  0  0  0  # atno 10167 bound_to 10162
  156.1010  130.6172  150.9121 H   0  0  0  0  0  0  0  0  0  0  0  0  # atno 10718 bound_to 10713
  153.2246  135.6885  153.7960 H   0  0  0  0  0  0  0  0  0  0  0  0  # atno 10763 bound_to 10752
  153.7147  135.3277  155.3255 H   0  0  0  0  0  0  0  0  0  0  0  0  # atno 10764 bound_to 10752
  154.8286  135.4599  154.1107 H   0  0  0  0  0  0  0  0  0  0  0  0  # atno 10765 bound_to 10752
  140.3166  134.7472  157.4032 H   0  0  0  0  0  0  0  0  0  0  0  0  # atno 11005 bound_to 11000
  145.2555  141.0059  143.3856 LP  0  0  0  0  0  0  0  0  0  0  0  0  # atno 17320 bound_to 7965
  144.9340  139.4265  143.6481 LP  0  0  0  0  0  0  0  0  0  0  0  0  # atno 17321 bound_to 7965
  139.5432  144.7276  151.4665 LP  0  0  0  0  0  0  0  0  0  0  0  0  # atno 17342 bound_to 10162
  140.6711  143.8292  150.7000 LP  0  0  0  0  0  0  0  0  0  0  0  0  # atno 17343 bound_to 10162
  157.6180  131.0932  150.8675 LP  0  0  0  0  0  0  0  0  0  0  0  0  # atno 17370 bound_to 10713
  156.8803  130.5177  149.5291 LP  0  0  0  0  0  0  0  0  0  0  0  0  # atno 17371 bound_to 10713
  140.0978  134.5513  155.8381 LP  0  0  0  0  0  0  0  0  0  0  0  0  # atno 17394 bound_to 11000
  141.2096  133.6686  156.6452 LP  0  0  0  0  0  0  0  0  0  0  0  0  # atno 17395 bound_to 11000

$$$$
