AV-unprocessed.smi:1911|AV-procd|sdf|7738|dock2
  -GOLD-   22720 9473D 1   1.00000     0.00000
 Structure written by MMmdl.
 51 53  0  0  0  0  0  0  0  0  1 V2000
  147.1495  130.5829  151.9838 N   0  0  0  0  0  0  0  0  0  0  0  0
  147.2872  130.4951  153.3091 C   0  0  0  0  0  0  0  0  0  0  0  0
  146.3225  130.5001  154.0709 O   0  0  0  0  0  0  0  0  0  0  0  0
  148.7142  130.3793  153.8594 C   0  0  0  0  0  0  0  0  0  0  0  0
  149.1169  131.4815  154.7629 N   0  0  0  0  0  0  0  0  0  0  0  0
  149.1993  132.7287  153.9953 C   0  0  0  0  0  0  0  0  0  0  0  0
  149.4856  133.9212  154.9240 C   0  0  0  0  0  0  0  0  0  0  0  0
  150.7908  133.7104  155.7086 C   0  0  0  0  0  0  0  0  0  0  0  0
  150.9924  134.7775  156.6840 N   0  0  0  0  0  0  0  0  0  0  0  0
  150.9970  136.0889  156.4055 C   0  0  0  0  0  0  0  0  0  0  0  0
  150.8302  136.5431  155.2739 O   0  0  0  0  0  0  0  0  0  0  0  0
  151.2214  136.8174  157.5125 N   0  0  0  0  0  0  0  0  0  0  0  0
  151.3031  138.2300  157.6449 C   0  0  0  0  0  0  0  0  0  0  0  0
  151.5459  139.1215  156.5742 C   0  0  0  0  0  0  0  0  0  0  0  0
  151.5883  140.5048  156.8345 C   0  0  0  0  0  0  0  0  0  0  0  0
  151.3769  140.9659  158.1555 C   0  0  0  0  0  0  0  0  0  0  0  0
  151.4200  142.3409  158.4593 N   0  0  0  0  0  0  0  0  0  0  0  0
  151.2581  143.3612  157.4353 C   0  0  0  0  0  0  0  0  0  0  0  0
  151.4877  144.6821  158.1677 C   0  0  0  0  0  0  0  0  0  0  0  0
  152.5093  144.3094  159.2425 C   0  0  0  0  0  0  0  0  0  0  0  0
  152.1685  142.8570  159.5970 C   0  0  0  0  0  0  0  0  0  0  0  0
  151.1360  140.1105  159.1773 N   0  0  0  0  0  0  0  0  0  0  0  0
  151.0953  138.7862  158.9226 C   0  0  0  0  0  0  0  0  0  0  0  0
  150.7275  132.3541  156.4244 C   0  0  0  0  0  0  0  0  0  0  0  0
  150.3938  131.2173  155.4423 C   0  0  0  0  0  0  0  0  0  0  0  0
  146.2266  130.6601  151.5814 H   0  0  0  0  0  0  0  0  0  0  0  0
  147.9650  130.5716  151.3888 H   0  0  0  0  0  0  0  0  0  0  0  0
  148.8362  129.4228  154.3715 H   0  0  0  0  0  0  0  0  0  0  0  0
  149.3835  130.3558  152.9982 H   0  0  0  0  0  0  0  0  0  0  0  0
  149.9724  132.6534  153.2282 H   0  0  0  0  0  0  0  0  0  0  0  0
  148.2559  132.9073  153.4772 H   0  0  0  0  0  0  0  0  0  0  0  0
  149.5439  134.8372  154.3351 H   0  0  0  0  0  0  0  0  0  0  0  0
  148.6511  134.0507  155.6151 H   0  0  0  0  0  0  0  0  0  0  0  0
  151.6307  133.6927  155.0111 H   0  0  0  0  0  0  0  0  0  0  0  0
  151.1393  134.4942  157.6417 H   0  0  0  0  0  0  0  0  0  0  0  0
  151.4130  136.2944  158.3546 H   0  0  0  0  0  0  0  0  0  0  0  0
  151.6890  138.7791  155.5613 H   0  0  0  0  0  0  0  0  0  0  0  0
  151.7847  141.1878  156.0217 H   0  0  0  0  0  0  0  0  0  0  0  0
  152.0081  143.2169  156.6563 H   0  0  0  0  0  0  0  0  0  0  0  0
  150.2693  143.3204  156.9771 H   0  0  0  0  0  0  0  0  0  0  0  0
  151.8310  145.4794  157.5081 H   0  0  0  0  0  0  0  0  0  0  0  0
  150.5599  145.0092  158.6396 H   0  0  0  0  0  0  0  0  0  0  0  0
  153.5136  144.3553  158.8194 H   0  0  0  0  0  0  0  0  0  0  0  0
  152.4799  144.9737  160.1065 H   0  0  0  0  0  0  0  0  0  0  0  0
  151.5357  142.8134  160.4841 H   0  0  0  0  0  0  0  0  0  0  0  0
  153.0740  142.2809  159.7907 H   0  0  0  0  0  0  0  0  0  0  0  0
  150.8945  138.1493  159.7720 H   0  0  0  0  0  0  0  0  0  0  0  0
  151.6790  132.1474  156.9159 H   0  0  0  0  0  0  0  0  0  0  0  0
  149.9730  132.3817  157.2123 H   0  0  0  0  0  0  0  0  0  0  0  0
  150.3497  130.2871  156.0086 H   0  0  0  0  0  0  0  0  0  0  0  0
  151.1938  131.1026  154.7088 H   0  0  0  0  0  0  0  0  0  0  0  0
  1  2  1  0  0  0  0
  1 26  1  0  0  0  0
  1 27  1  0  0  0  0
  2  3  2  0  0  0  0
  2  4  1  0  0  0  0
  4  5  1  0  0  0  0
  4 28  1  0  0  0  0
  4 29  1  0  0  0  0
  5 25  1  0  0  0  0
  5  6  1  0  0  0  0
  6  7  1  0  0  0  0
  6 30  1  0  0  0  0
  6 31  1  0  0  0  0
  7  8  1  0  0  0  0
  7 32  1  0  0  0  0
  7 33  1  0  0  0  0
  8  9  1  0  0  0  0
  8 24  1  0  0  0  0
  8 34  1  0  0  0  0
  9 10  1  0  0  0  0
  9 35  1  0  0  0  0
 10 11  2  0  0  0  0
 10 12  1  0  0  0  0
 12 13  1  0  0  0  0
 12 36  1  0  0  0  0
 13 23  1  0  0  0  0
 13 14  2  0  0  0  0
 14 15  1  0  0  0  0
 14 37  1  0  0  0  0
 15 16  2  0  0  0  0
 15 38  1  0  0  0  0
 16 17  1  0  0  0  0
 16 22  1  0  0  0  0
 17 21  1  0  0  0  0
 17 18  1  0  0  0  0
 18 19  1  0  0  0  0
 18 39  1  0  0  0  0
 18 40  1  0  0  0  0
 19 20  1  0  0  0  0
 19 41  1  0  0  0  0
 19 42  1  0  0  0  0
 20 21  1  0  0  0  0
 20 43  1  0  0  0  0
 20 44  1  0  0  0  0
 21 45  1  0  0  0  0
 21 46  1  0  0  0  0
 22 23  2  0  0  0  0
 23 47  1  0  0  0  0
 24 25  1  0  0  0  0
 24 48  1  0  0  0  0
 24 49  1  0  0  0  0
 25 50  1  0  0  0  0
 25 51  1  0  0  0  0
M  END
> <s_m_source_file>
AV-unprocessed.smi

> <i_m_source_file_index>
1911

> <i_lp_mmshare_version>
43012

> <i_f3d_flags>
0

> <s_epik_input>
W05IMl1DKD1PKVtDSDJdTjFbQ0gyXVtDSDJdW0NIXShbQ0gyXVtDSDJdMSlbTkhdQyg9TylbTkhdYzJbY0hdW2NIXWMobltjSF0yKU4zW0NIMl1bQ0gyXVtDSDJdW0NIMl0z

> <s_epik_cmdline>
J2VwaWtfcHl0aG9uJywgJy1waCcsICc3LjAnLCAnLXRuJywgJzgnLCAnLW1hJywgJzIwMCcsICctbWV0YWxfYmluZGluZycsICctaW1hZScsICc8aW5maWxlLm1hZT4nLCAnLW9tYWUnLCAnPG91dGZpbGUubWFlPic=

> <r_lp_tautomer_probability>
1

> <r_epik_Ionization_Penalty>
0.268698

> <r_epik_Ionization_Penalty_Charging>
0

> <r_epik_Ionization_Penalty_Neutral>
0.268698

> <r_epik_State_Penalty>
0.247497

> <r_epik_Charging_Adjusted_Penalty>
0.247497

> <i_epik_Tot_Q>
0

> <i_epik_Tot_abs_Q>
0

> <r_epik_Metal_State_Penalty>
0.244803

> <b_epik_Metal_Only>
0

> <s_lp_Force_Field>
OPLS_2005

> <r_lp_Energy>
37.3051

> <b_lp_Chiralities_Consistent>
1

> <s_lp_Variant>
AV-unprocessed.smi:1911-1

> <Gold.Version>
5.8.1

> <Gold.Id.Protein>
6NUR|6NUR_protein|mol2

> <Gold.PLP.Fitness>
42.5201

> <Gold.PLP.PLP>
-40.5919

> <Gold.PLP.part.hbond>
-0.9983

> <Gold.PLP.part.metal>
0.0000

> <Gold.PLP.part.buried>
-6.6939

> <Gold.PLP.part.nonpolar>
-32.8293

> <Gold.PLP.part.repulsive>
0.5955

> <Gold.PLP.ligand.clash>
0.0000

> <Gold.PLP.ligand.torsion>
0.6369

> <Gold.PLP.Chemscore.Hbond>
1.0000

> <Gold.PLP.Chemscore.CHOScore>
0.0000

> <Gold.PLP.Chemscore.Metal>
0.0000

> <Gold.Chemscore.Hbonds>
donor molecule, donor type, donor heavy atom, donor atom, acceptor molecule, acceptor atom, score
      L1  H     1    27       P1 10747  0.98

> <Gold.PLP.Chemscore.Internal.Correction>
0.2019

> <Gold.Rescore>
     Score         DG    S(hbond)    S(metal)    S(lipo)     H(rot)  DE(clash)    DE(int)     intcor
     13.92     -15.62       1.00        0.00      99.36       1.89       0.00       1.70       ----

> <Gold.Chemscore.Fitness>
13.9218

> <Gold.Chemscore.DG>
-15.6193

> <Gold.Chemscore.ZeroCoef>
-5.4800

> <Gold.Chemscore.Hbond>
1.0006

> <Gold.Chemscore.Metal>
0.0000

> <Gold.Chemscore.Lipo>
99.3585

> <Gold.Chemscore.Internal_Hbond>
0.0000

> <Gold.Chemscore.DEClash>
0.0004

> <Gold.Chemscore.DEInternal>
1.6971

> <Gold.Chemscore.Rot>
1.8857

> <Gold.Chemscore.Internal.Correction>
   9.000000E+99

> <Gold.Chemscore.Hbonds>
donor molecule, donor type, donor heavy atom, donor atom, acceptor molecule, acceptor atom, score
      L1  H     1    27       P1 10747  0.91

> <Gold.Chemscore.Hbond.Weighted>
-3.3419

> <Gold.Chemscore.Metal.Weighted>
-0.0000

> <Gold.Chemscore.Lipo.Weighted>
-11.6249

> <Gold.Chemscore.Internal_Hbond.Weighted>
0.0000

> <Gold.Chemscore.DEClash.Weighted>
0.0004

> <Gold.Chemscore.DEInternal.Weighted>
1.6971

> <Gold.Chemscore.Rot.Weighted>
4.8275

> <Gold.Chemscore.Internal.Correction.Weighted>
   9.000000E+99

> <Gold.Protein.RotatedTorsions>
[ 6907 6896 6895 6894 ] final  147.42 input  -60.11 | X-H torsion
[ 7974 7965 7964 7962 ] final -101.96 input  175.53 | X-H torsion
[ 8008 7997 7996 7995 ] final -123.98 input   59.86 | X-H torsion
[ 10167 10162 10161 10158 ] final   66.96 input  -65.29 | X-H torsion
[ 10718 10713 10712 10709 ] final -155.81 input   66.30 | X-H torsion
[ 10763 10752 10751 10750 ] final   31.00 input  -60.55 | X-H torsion
[ 11005 11000 10999 10996 ] final  -30.60 input  -57.11 | X-H torsion

> <Gold.Protein.ActiveResidues>
 VAL166  LYS551  ARG553  GLY616  TRP617  ASP618  TYR619  PRO620  LYS621  CYS622 
 ASP623  PHE694  ASN695  SER759  ASP760  ASP761  ALA762  ILE779  LEU786  VAL792 
 PHE793  MET794  SER795  GLU796  ALA797  LYS798  CYS799  TRP800  GLU811  SER814 

> <Gold.Protein.RotatedAtoms>
  152.1550  133.4545  159.4831 H   0  0  0  0  0  0  0  0  0  0  0  0  # atno 6907 bound_to 6896
  150.6900  134.2142  159.4380 H   0  0  0  0  0  0  0  0  0  0  0  0  # atno 6908 bound_to 6896
  152.0041  134.9912  160.0616 H   0  0  0  0  0  0  0  0  0  0  0  0  # atno 6909 bound_to 6896
  145.2748  140.9309  143.2965 H   0  0  0  0  0  0  0  0  0  0  0  0  # atno 7974 bound_to 7965
  155.1894  140.0413  157.2897 H   0  0  0  0  0  0  0  0  0  0  0  0  # atno 8008 bound_to 7997
  154.6149  140.2486  155.7594 H   0  0  0  0  0  0  0  0  0  0  0  0  # atno 8009 bound_to 7997
  156.2400  140.2907  156.0429 H   0  0  0  0  0  0  0  0  0  0  0  0  # atno 8010 bound_to 7997
  140.0947  144.4956  150.7076 H   0  0  0  0  0  0  0  0  0  0  0  0  # atno 10167 bound_to 10162
  156.5179  130.8465  151.2671 H   0  0  0  0  0  0  0  0  0  0  0  0  # atno 10718 bound_to 10713
  153.0340  135.6450  154.1132 H   0  0  0  0  0  0  0  0  0  0  0  0  # atno 10763 bound_to 10752
  154.0849  135.2870  155.3284 H   0  0  0  0  0  0  0  0  0  0  0  0  # atno 10764 bound_to 10752
  154.6504  135.5428  153.7959 H   0  0  0  0  0  0  0  0  0  0  0  0  # atno 10765 bound_to 10752
  140.9397  133.7286  156.1057 H   0  0  0  0  0  0  0  0  0  0  0  0  # atno 11005 bound_to 11000
  144.9303  139.4306  143.6498 LP  0  0  0  0  0  0  0  0  0  0  0  0  # atno 17320 bound_to 7965
  146.3235  139.8211  142.8926 LP  0  0  0  0  0  0  0  0  0  0  0  0  # atno 17321 bound_to 7965
  140.7010  143.2434  151.4865 LP  0  0  0  0  0  0  0  0  0  0  0  0  # atno 17342 bound_to 10162
  139.5704  144.1941  152.1828 LP  0  0  0  0  0  0  0  0  0  0  0  0  # atno 17343 bound_to 10162
  157.7441  130.9927  150.2646 LP  0  0  0  0  0  0  0  0  0  0  0  0  # atno 17370 bound_to 10713
  156.3177  130.3781  149.7603 LP  0  0  0  0  0  0  0  0  0  0  0  0  # atno 17371 bound_to 10713
  140.7751  134.3788  157.5499 LP  0  0  0  0  0  0  0  0  0  0  0  0  # atno 17394 bound_to 11000
  139.8817  134.9047  156.2882 LP  0  0  0  0  0  0  0  0  0  0  0  0  # atno 17395 bound_to 11000

$$$$
