AV-unprocessed.smi:1998|AV-procd|sdf|8090|dock6
  -GOLD-   2272010303D 1   1.00000     0.00000
 Structure written by MMmdl.
 47 48  0  0  0  0  0  0  0  0  1 V2000
  154.1806  140.9606  160.8554 C   0  0  0  0  0  0  0  0  0  0  0  0
  153.4043  142.0622  160.1960 C   0  0  0  0  0  0  0  0  0  0  0  0
  153.0909  143.3491  160.7154 C   0  0  0  0  0  0  0  0  0  0  0  0
  152.3611  143.9446  159.7259 C   0  0  0  0  0  0  0  0  0  0  0  0
  151.7412  145.3025  159.6724 C   0  0  0  0  0  0  0  0  0  0  0  0
  152.2710  143.0325  158.6886 N   0  0  0  0  0  0  0  0  0  0  0  0
  151.6194  143.1764  157.3934 C   0  0  0  0  0  0  0  0  0  0  0  0
  150.7645  141.9494  157.0722 C   0  0  0  0  0  0  0  0  0  0  0  0
  151.2330  140.8186  157.1993 O   0  0  0  0  0  0  0  0  0  0  0  0
  149.5012  142.1942  156.6949 N   0  0  0  0  0  0  0  0  0  0  0  0
  148.4361  141.2049  156.5506 C   0  0  0  0  0  0  0  0  0  0  0  0
  147.7363  141.2983  155.1609 C   0  0  0  0  0  0  0  0  0  0  0  0
  148.8362  141.1775  154.0795 C   0  0  0  0  0  0  0  0  0  0  0  0
  146.8334  140.0447  155.0325 C   0  0  0  0  0  0  0  0  0  0  0  0
  146.9335  142.5479  155.0402 N   0  0  0  0  0  0  0  0  0  0  0  0
  146.2998  142.7498  153.7325 C   0  0  0  0  0  0  0  0  0  0  0  0
  145.6160  144.1226  153.6307 C   0  0  0  0  0  0  0  0  0  0  0  0
  144.6622  144.2630  154.6770 O   0  0  0  0  0  0  0  0  0  0  0  0
  145.2432  144.1220  155.9679 C   0  0  0  0  0  0  0  0  0  0  0  0
  145.9252  142.7480  156.0857 C   0  0  0  0  0  0  0  0  0  0  0  0
  152.9135  141.8795  158.9810 N   0  0  0  0  0  0  0  0  0  0  0  0
  154.6090  141.2931  161.8009 H   0  0  0  0  0  0  0  0  0  0  0  0
  155.0007  140.6200  160.2242 H   0  0  0  0  0  0  0  0  0  0  0  0
  153.5418  140.1020  161.0640 H   0  0  0  0  0  0  0  0  0  0  0  0
  153.3584  143.7700  161.6733 H   0  0  0  0  0  0  0  0  0  0  0  0
  151.9317  145.8537  160.5934 H   0  0  0  0  0  0  0  0  0  0  0  0
  150.6613  145.2322  159.5413 H   0  0  0  0  0  0  0  0  0  0  0  0
  152.1465  145.8855  158.8453 H   0  0  0  0  0  0  0  0  0  0  0  0
  150.9948  144.0710  157.3926 H   0  0  0  0  0  0  0  0  0  0  0  0
  152.3823  143.3169  156.6270 H   0  0  0  0  0  0  0  0  0  0  0  0
  149.2218  143.1618  156.6198 H   0  0  0  0  0  0  0  0  0  0  0  0
  148.8780  140.2197  156.6987 H   0  0  0  0  0  0  0  0  0  0  0  0
  147.7067  141.3022  157.3569 H   0  0  0  0  0  0  0  0  0  0  0  0
  149.3884  140.2433  154.1878 H   0  0  0  0  0  0  0  0  0  0  0  0
  149.5672  141.9830  154.1442 H   0  0  0  0  0  0  0  0  0  0  0  0
  148.4239  141.1846  153.0707 H   0  0  0  0  0  0  0  0  0  0  0  0
  147.3659  139.1354  155.3137 H   0  0  0  0  0  0  0  0  0  0  0  0
  146.4864  139.8897  154.0110 H   0  0  0  0  0  0  0  0  0  0  0  0
  145.9516  140.1161  155.6696 H   0  0  0  0  0  0  0  0  0  0  0  0
  147.0305  142.6824  152.9287 H   0  0  0  0  0  0  0  0  0  0  0  0
  145.5567  141.9732  153.5506 H   0  0  0  0  0  0  0  0  0  0  0  0
  146.3547  144.9224  153.6873 H   0  0  0  0  0  0  0  0  0  0  0  0
  145.1091  144.2229  152.6709 H   0  0  0  0  0  0  0  0  0  0  0  0
  145.9620  144.9239  156.1419 H   0  0  0  0  0  0  0  0  0  0  0  0
  144.4628  144.2231  156.7221 H   0  0  0  0  0  0  0  0  0  0  0  0
  145.1656  141.9680  156.0318 H   0  0  0  0  0  0  0  0  0  0  0  0
  146.3731  142.6875  157.0758 H   0  0  0  0  0  0  0  0  0  0  0  0
  1  2  1  0  0  0  0
  1 22  1  0  0  0  0
  1 23  1  0  0  0  0
  1 24  1  0  0  0  0
  2 21  2  0  0  0  0
  2  3  1  0  0  0  0
  3  4  2  0  0  0  0
  3 25  1  0  0  0  0
  4  5  1  0  0  0  0
  4  6  1  0  0  0  0
  5 26  1  0  0  0  0
  5 27  1  0  0  0  0
  5 28  1  0  0  0  0
  6  7  1  0  0  0  0
  6 21  1  0  0  0  0
  7  8  1  0  0  0  0
  7 29  1  0  0  0  0
  7 30  1  0  0  0  0
  8  9  2  0  0  0  0
  8 10  1  0  0  0  0
 10 11  1  0  0  0  0
 10 31  1  0  0  0  0
 11 12  1  0  0  0  0
 11 32  1  0  0  0  0
 11 33  1  0  0  0  0
 12 13  1  0  0  0  0
 12 14  1  0  0  0  0
 12 15  1  0  0  0  0
 13 34  1  0  0  0  0
 13 35  1  0  0  0  0
 13 36  1  0  0  0  0
 14 37  1  0  0  0  0
 14 38  1  0  0  0  0
 14 39  1  0  0  0  0
 15 20  1  0  0  0  0
 15 16  1  0  0  0  0
 16 17  1  0  0  0  0
 16 40  1  0  0  0  0
 16 41  1  0  0  0  0
 17 18  1  0  0  0  0
 17 42  1  0  0  0  0
 17 43  1  0  0  0  0
 18 19  1  0  0  0  0
 19 20  1  0  0  0  0
 19 44  1  0  0  0  0
 19 45  1  0  0  0  0
 20 46  1  0  0  0  0
 20 47  1  0  0  0  0
M  END
> <s_m_source_file>
AV-unprocessed.smi

> <i_m_source_file_index>
1998

> <i_lp_mmshare_version>
43012

> <i_f3d_flags>
0

> <s_epik_input>
W0NIM11jMVtjSF1jKFtDSDNdKW4objEpW0NIMl1DKD1PKVtOSF1bQ0gyXUMoW0NIM10pKFtDSDNdKU4yW0NIMl1bQ0gyXU9bQ0gyXVtDSDJdMg==

> <s_epik_cmdline>
J2VwaWtfcHl0aG9uJywgJy1waCcsICc3LjAnLCAnLXRuJywgJzgnLCAnLW1hJywgJzIwMCcsICctbWV0YWxfYmluZGluZycsICctaW1hZScsICc8aW5maWxlLm1hZT4nLCAnLW9tYWUnLCAnPG91dGZpbGUubWFlPic=

> <r_lp_tautomer_probability>
1

> <r_epik_Ionization_Penalty>
0.197271

> <r_epik_Ionization_Penalty_Charging>
0

> <r_epik_Ionization_Penalty_Neutral>
0.197271

> <r_epik_State_Penalty>
0.186684

> <r_epik_Charging_Adjusted_Penalty>
0.186684

> <i_epik_Tot_Q>
0

> <i_epik_Tot_abs_Q>
0

> <r_epik_Metal_State_Penalty>
0.186642

> <b_epik_Metal_Only>
0

> <s_lp_Force_Field>
OPLS_2005

> <r_lp_Energy>
37.8286

> <b_lp_Chiralities_Consistent>
1

> <s_lp_Variant>
AV-unprocessed.smi:1998-1

> <Gold.Version>
5.8.1

> <Gold.Id.Protein>
6NUR|6NUR_protein|mol2

> <Gold.PLP.Fitness>
47.2280

> <Gold.PLP.PLP>
-44.9269

> <Gold.PLP.part.hbond>
-1.0000

> <Gold.PLP.part.metal>
0.0000

> <Gold.PLP.part.buried>
-7.7390

> <Gold.PLP.part.nonpolar>
-36.7845

> <Gold.PLP.part.repulsive>
0.4308

> <Gold.PLP.ligand.clash>
0.0000

> <Gold.PLP.ligand.torsion>
0.3558

> <Gold.PLP.Chemscore.Hbond>
0.9760

> <Gold.PLP.Chemscore.CHOScore>
0.0000

> <Gold.PLP.Chemscore.Metal>
0.0000

> <Gold.Chemscore.Hbonds>
donor molecule, donor type, donor heavy atom, donor atom, acceptor molecule, acceptor atom, score
      L1  H    10    31       P1  8028  1.00

> <Gold.PLP.Chemscore.Internal.Correction>
0.0848

> <Gold.Rescore>
     Score         DG    S(hbond)    S(metal)    S(lipo)     H(rot)  DE(clash)    DE(int)     intcor
     14.94     -17.35       0.93        0.00     111.50       1.67       0.07       2.34       ----

> <Gold.Chemscore.Fitness>
14.9427

> <Gold.Chemscore.DG>
-17.3485

> <Gold.Chemscore.ZeroCoef>
-5.4800

> <Gold.Chemscore.Hbond>
0.9250

> <Gold.Chemscore.Metal>
0.0000

> <Gold.Chemscore.Lipo>
111.5005

> <Gold.Chemscore.Internal_Hbond>
0.0000

> <Gold.Chemscore.DEClash>
0.0676

> <Gold.Chemscore.DEInternal>
2.3383

> <Gold.Chemscore.Rot>
1.6666

> <Gold.Chemscore.Internal.Correction>
   9.000000E+99

> <Gold.Chemscore.Hbonds>
donor molecule, donor type, donor heavy atom, donor atom, acceptor molecule, acceptor atom, score
      L1  H    10    31       P1  8028  0.97

> <Gold.Chemscore.Hbond.Weighted>
-3.0896

> <Gold.Chemscore.Metal.Weighted>
-0.0000

> <Gold.Chemscore.Lipo.Weighted>
-13.0456

> <Gold.Chemscore.Internal_Hbond.Weighted>
0.0000

> <Gold.Chemscore.DEClash.Weighted>
0.0676

> <Gold.Chemscore.DEInternal.Weighted>
2.3383

> <Gold.Chemscore.Rot.Weighted>
4.2666

> <Gold.Chemscore.Internal.Correction.Weighted>
   9.000000E+99

> <Gold.Protein.RotatedTorsions>
[ 6907 6896 6895 6894 ] final  -31.94 input  -60.11 | X-H torsion
[ 7974 7965 7964 7962 ] final   92.37 input  175.53 | X-H torsion
[ 8008 7997 7996 7995 ] final -179.95 input   59.86 | X-H torsion
[ 10167 10162 10161 10158 ] final -165.28 input  -65.29 | X-H torsion
[ 10718 10713 10712 10709 ] final   72.81 input   66.30 | X-H torsion
[ 10763 10752 10751 10750 ] final  -97.33 input  -60.55 | X-H torsion
[ 11005 11000 10999 10996 ] final  -90.62 input  -57.11 | X-H torsion

> <Gold.Protein.ActiveResidues>
 VAL166  LYS551  ARG553  GLY616  TRP617  ASP618  TYR619  PRO620  LYS621  CYS622 
 ASP623  PHE694  ASN695  SER759  ASP760  ASP761  ALA762  ILE779  LEU786  VAL792 
 PHE793  MET794  SER795  GLU796  ALA797  LYS798  CYS799  TRP800  GLU811  SER814 

> <Gold.Protein.RotatedAtoms>
  151.0854  134.9884  159.8376 H   0  0  0  0  0  0  0  0  0  0  0  0  # atno 6907 bound_to 6896
  152.5424  134.2131  159.8768 H   0  0  0  0  0  0  0  0  0  0  0  0  # atno 6908 bound_to 6896
  151.2163  133.4483  159.2633 H   0  0  0  0  0  0  0  0  0  0  0  0  # atno 6909 bound_to 6896
  145.4931  139.2276  143.2818 H   0  0  0  0  0  0  0  0  0  0  0  0  # atno 7974 bound_to 7965
  156.0364  140.1293  157.0203 H   0  0  0  0  0  0  0  0  0  0  0  0  # atno 8008 bound_to 7997
  154.4371  140.1039  156.6243 H   0  0  0  0  0  0  0  0  0  0  0  0  # atno 8009 bound_to 7997
  155.5732  140.3467  155.4523 H   0  0  0  0  0  0  0  0  0  0  0  0  # atno 8010 bound_to 7997
  139.6192  144.0657  152.1917 H   0  0  0  0  0  0  0  0  0  0  0  0  # atno 10167 bound_to 10162
  157.6519  130.9597  150.0981 H   0  0  0  0  0  0  0  0  0  0  0  0  # atno 10718 bound_to 10713
  154.7319  135.5050  153.8977 H   0  0  0  0  0  0  0  0  0  0  0  0  # atno 10763 bound_to 10752
  153.0957  135.6671  153.9775 H   0  0  0  0  0  0  0  0  0  0  0  0  # atno 10764 bound_to 10752
  153.9574  135.3051  155.3414 H   0  0  0  0  0  0  0  0  0  0  0  0  # atno 10765 bound_to 10752
  141.1562  133.7703  156.9763 H   0  0  0  0  0  0  0  0  0  0  0  0  # atno 11005 bound_to 11000
  146.2272  140.5727  142.8991 LP  0  0  0  0  0  0  0  0  0  0  0  0  # atno 17320 bound_to 7965
  144.7822  140.5864  143.6598 LP  0  0  0  0  0  0  0  0  0  0  0  0  # atno 17321 bound_to 7965
  140.0295  144.6091  150.7499 LP  0  0  0  0  0  0  0  0  0  0  0  0  # atno 17342 bound_to 10162
  140.7371  143.2761  151.3737 LP  0  0  0  0  0  0  0  0  0  0  0  0  # atno 17343 bound_to 10162
  156.1911  130.3655  149.8908 LP  0  0  0  0  0  0  0  0  0  0  0  0  # atno 17370 bound_to 10713
  156.6836  130.8868  151.3579 LP  0  0  0  0  0  0  0  0  0  0  0  0  # atno 17371 bound_to 10713
  140.1096  134.9485  157.2045 LP  0  0  0  0  0  0  0  0  0  0  0  0  # atno 17394 bound_to 11000
  140.3211  134.2915  155.7246 LP  0  0  0  0  0  0  0  0  0  0  0  0  # atno 17395 bound_to 11000

$$$$
