AV-unprocessed.smi:24|AV-procd|sdf|178|dock8
  -GOLD-   2262015443D 1   1.00000     0.00000
 Structure written by MMmdl.
 61 65  0  0  0  0  0  0  0  0  1 V2000
  146.2036  131.7866  149.2687 C   0  0  0  0  0  0  0  0  0  0  0  0
  144.9519  131.8055  149.9392 O   0  0  0  0  0  0  0  0  0  0  0  0
  144.7002  132.8420  150.8123 C   0  0  0  0  0  0  0  0  0  0  0  0
  143.4232  132.8829  151.4076 C   0  0  0  0  0  0  0  0  0  0  0  0
  143.0772  133.9113  152.3048 C   0  0  0  0  0  0  0  0  0  0  0  0
  144.0062  134.9226  152.6215 C   0  0  0  0  0  0  0  0  0  0  0  0
  143.6059  136.0330  153.5923 C   0  0  1  0  0  0  0  0  0  0  0  0
  142.4464  136.8791  153.0591 C   0  0  0  0  0  0  0  0  0  0  0  0
  141.4469  136.7481  154.1593 C   0  0  0  0  0  0  0  0  0  0  0  0
  140.1268  137.4142  154.0960 C   0  0  0  0  0  0  0  0  0  0  0  0
  139.0592  136.9152  154.8769 C   0  0  0  0  0  0  0  0  0  0  0  0
  137.8044  137.5531  154.8237 C   0  0  0  0  0  0  0  0  0  0  0  0
  137.6175  138.6795  153.9984 C   0  0  0  0  0  0  0  0  0  0  0  0
  138.6844  139.1728  153.2213 C   0  0  0  0  0  0  0  0  0  0  0  0
  139.9442  138.5432  153.2656 C   0  0  0  0  0  0  0  0  0  0  0  0
  141.8439  136.0185  155.1351 N   0  0  0  0  0  0  0  0  0  0  0  0
  143.0999  135.5678  154.8907 N   0  0  0  0  0  0  0  0  0  0  0  0
  143.8233  134.8672  155.7921 C   0  0  0  0  0  0  0  0  0  0  0  0
  143.3355  134.4714  156.8525 O   0  0  0  0  0  0  0  0  0  0  0  0
  145.2991  134.5578  155.4632 C   0  0  0  0  0  0  0  0  0  0  0  0
  146.2290  134.9016  156.5607 N   0  0  0  0  0  0  0  0  0  0  0  0
  147.1936  135.9169  156.3474 C   0  0  0  0  0  0  0  0  0  0  0  0
  147.2636  136.5171  155.2739 O   0  0  0  0  0  0  0  0  0  0  0  0
  148.0838  136.1853  157.4714 C   0  0  0  0  0  0  0  0  0  0  0  0
  149.0221  137.1413  157.3635 F   0  0  0  0  0  0  0  0  0  0  0  0
  147.9815  135.4883  158.6219 C   0  0  0  0  0  0  0  0  0  0  0  0
  147.0447  134.4878  158.8099 N   0  0  0  0  0  0  0  0  0  0  0  0
  146.9534  133.7031  160.1009 C   0  0  1  0  0  0  0  0  0  0  0  0
  148.1404  134.0396  161.0222 C   0  0  0  0  0  0  0  0  0  0  0  0
  147.4600  134.3477  162.3407 C   0  0  0  0  0  0  0  0  0  0  0  0
  146.1197  134.9005  161.8799 C   0  0  0  0  0  0  0  0  0  0  0  0
  145.7854  134.0521  160.7889 O   0  0  0  0  0  0  0  0  0  0  0  0
  146.1412  134.1747  157.7718 C   0  0  0  0  0  0  0  0  0  0  0  0
  145.3028  133.2818  157.9173 O   0  0  0  0  0  0  0  0  0  0  0  0
  145.2931  134.8800  152.0410 C   0  0  0  0  0  0  0  0  0  0  0  0
  145.6376  133.8529  151.1415 C   0  0  0  0  0  0  0  0  0  0  0  0
  146.2422  130.9235  148.6044 H   0  0  0  0  0  0  0  0  0  0  0  0
  147.0316  131.6977  149.9734 H   0  0  0  0  0  0  0  0  0  0  0  0
  146.3427  132.6794  148.6573 H   0  0  0  0  0  0  0  0  0  0  0  0
  142.6983  132.1180  151.1705 H   0  0  0  0  0  0  0  0  0  0  0  0
  142.0911  133.9236  152.7455 H   0  0  0  0  0  0  0  0  0  0  0  0
  144.4700  136.6748  153.7754 H   0  0  0  0  0  0  0  0  0  0  0  0
  142.7449  137.9176  152.9114 H   0  0  0  0  0  0  0  0  0  0  0  0
  142.0449  136.4919  152.1214 H   0  0  0  0  0  0  0  0  0  0  0  0
  139.1826  136.0535  155.5171 H   0  0  0  0  0  0  0  0  0  0  0  0
  136.9841  137.1780  155.4179 H   0  0  0  0  0  0  0  0  0  0  0  0
  136.6539  139.1662  153.9617 H   0  0  0  0  0  0  0  0  0  0  0  0
  138.5364  140.0369  152.5902 H   0  0  0  0  0  0  0  0  0  0  0  0
  140.7461  138.9416  152.6621 H   0  0  0  0  0  0  0  0  0  0  0  0
  145.3774  133.5047  155.1894 H   0  0  0  0  0  0  0  0  0  0  0  0
  145.5848  135.0921  154.5553 H   0  0  0  0  0  0  0  0  0  0  0  0
  148.6692  135.7378  159.4151 H   0  0  0  0  0  0  0  0  0  0  0  0
  146.8975  132.6529  159.8086 H   0  0  0  0  0  0  0  0  0  0  0  0
  148.8403  133.2057  161.0809 H   0  0  0  0  0  0  0  0  0  0  0  0
  148.6678  134.9203  160.6519 H   0  0  0  0  0  0  0  0  0  0  0  0
  147.3103  133.4298  162.9104 H   0  0  0  0  0  0  0  0  0  0  0  0
  148.0215  135.0488  162.9589 H   0  0  0  0  0  0  0  0  0  0  0  0
  145.3586  134.8697  162.6597 H   0  0  0  0  0  0  0  0  0  0  0  0
  146.2227  135.9312  161.5380 H   0  0  0  0  0  0  0  0  0  0  0  0
  146.0249  135.6383  152.2783 H   0  0  0  0  0  0  0  0  0  0  0  0
  146.6298  133.8636  150.7166 H   0  0  0  0  0  0  0  0  0  0  0  0
  1  2  1  0  0  0  0
  1 37  1  0  0  0  0
  1 38  1  0  0  0  0
  1 39  1  0  0  0  0
  2  3  1  0  0  0  0
  3 36  1  0  0  0  0
  3  4  2  0  0  0  0
  4  5  1  0  0  0  0
  4 40  1  0  0  0  0
  5  6  2  0  0  0  0
  5 41  1  0  0  0  0
  6  7  1  0  0  0  0
  6 35  1  0  0  0  0
  7 17  1  0  0  0  0
  7  8  1  0  0  0  0
  7 42  1  0  0  0  0
  8  9  1  0  0  0  0
  8 43  1  0  0  0  0
  8 44  1  0  0  0  0
  9 10  1  0  0  0  0
  9 16  2  0  0  0  0
 10 15  1  0  0  0  0
 10 11  2  0  0  0  0
 11 12  1  0  0  0  0
 11 45  1  0  0  0  0
 12 13  2  0  0  0  0
 12 46  1  0  0  0  0
 13 14  1  0  0  0  0
 13 47  1  0  0  0  0
 14 15  2  0  0  0  0
 14 48  1  0  0  0  0
 15 49  1  0  0  0  0
 16 17  1  0  0  0  0
 17 18  1  0  0  0  0
 18 19  2  0  0  0  0
 18 20  1  0  0  0  0
 20 21  1  0  0  0  0
 20 50  1  0  0  0  0
 20 51  1  0  0  0  0
 21 33  1  0  0  0  0
 21 22  1  0  0  0  0
 22 23  2  0  0  0  0
 22 24  1  0  0  0  0
 24 25  1  0  0  0  0
 24 26  2  0  0  0  0
 26 27  1  0  0  0  0
 26 52  1  0  0  0  0
 27 28  1  0  0  0  0
 27 33  1  0  0  0  0
 28 32  1  0  0  0  0
 28 29  1  0  0  0  0
 28 53  1  0  0  0  0
 29 30  1  0  0  0  0
 29 54  1  0  0  0  0
 29 55  1  0  0  0  0
 30 31  1  0  0  0  0
 30 56  1  0  0  0  0
 30 57  1  0  0  0  0
 31 32  1  0  0  0  0
 31 58  1  0  0  0  0
 31 59  1  0  0  0  0
 33 34  2  0  0  0  0
 35 36  2  0  0  0  0
 35 60  1  0  0  0  0
 36 61  1  0  0  0  0
M  END
> <s_m_source_file>
AV-unprocessed.smi

> <i_m_source_file_index>
24

> <i_lp_mmshare_version>
43012

> <i_f3d_flags>
0

> <s_epik_input>
W0NIM11PYzFbY0hdW2NIXWMoW2NIXVtjSF0xKVtDQEBIXTJbQ0gyXUMoYzNbY0hdW2NIXVtjSF1bY0hdW2NIXTMpPU5OMkMoPU8pW0NIMl1uNGMoPU8pYyhGKVtjSF1uKGM0PU8pW0NAQEhdNVtDSDJdW0NIMl1bQ0gyXU81

> <s_epik_cmdline>
J2VwaWtfcHl0aG9uJywgJy1waCcsICc3LjAnLCAnLXRuJywgJzgnLCAnLW1hJywgJzIwMCcsICctbWV0YWxfYmluZGluZycsICctaW1hZScsICc8aW5maWxlLm1hZT4nLCAnLW9tYWUnLCAnPG91dGZpbGUubWFlPic=

> <r_lp_tautomer_probability>
1

> <r_epik_Ionization_Penalty>
1.46326e-08

> <r_epik_Ionization_Penalty_Charging>
4.53232e-09

> <r_epik_Ionization_Penalty_Neutral>
1.01002e-08

> <r_epik_State_Penalty>
-0

> <r_epik_Charging_Adjusted_Penalty>
4.53232e-09

> <i_epik_Tot_Q>
0

> <i_epik_Tot_abs_Q>
0

> <r_epik_Metal_State_Penalty>
-0

> <b_epik_Metal_Only>
0

> <s_epik_Chemistry_Notes>
This compound has an imine and may undergo hydrolysis. This compound contains an acetal/aminal-like group ( X-CH(R)-Y where X, Y are N, S, or O) that may be acid/base labile, releasing an aldehyde.

> <s_lp_Force_Field>
OPLS_2005

> <r_lp_Energy>
49.9994

> <b_lp_Chiralities_Consistent>
1

> <s_lp_Variant>
AV-unprocessed.smi:24-4

> <Gold.Version>
5.8.1

> <Gold.Id.Protein>
6NUR|6NUR_protein|mol2

> <Gold.PLP.Fitness>
49.0620

> <Gold.PLP.PLP>
-47.7705

> <Gold.PLP.part.hbond>
-2.2871

> <Gold.PLP.part.metal>
0.0000

> <Gold.PLP.part.buried>
-6.3376

> <Gold.PLP.part.nonpolar>
-40.3349

> <Gold.PLP.part.repulsive>
0.3809

> <Gold.PLP.ligand.clash>
0.0000

> <Gold.PLP.ligand.torsion>
0.5705

> <Gold.PLP.Chemscore.Hbond>
0.7840

> <Gold.PLP.Chemscore.CHOScore>
0.0000

> <Gold.PLP.Chemscore.Metal>
0.0000

> <Gold.Chemscore.Hbonds>
donor molecule, donor type, donor heavy atom, donor atom, acceptor molecule, acceptor atom, score
      P1  H 11000 11005       L1    19  0.38

> <Gold.PLP.Chemscore.Internal.Correction>
0.0805

> <Gold.Rescore>
     Score         DG    S(hbond)    S(metal)    S(lipo)     H(rot)  DE(clash)    DE(int)     intcor
     13.94     -18.05       0.74        0.00     129.63       1.98       1.11       3.00       ----

> <Gold.Chemscore.Fitness>
13.9398

> <Gold.Chemscore.DG>
-18.0542

> <Gold.Chemscore.ZeroCoef>
-5.4800

> <Gold.Chemscore.Hbond>
0.7375

> <Gold.Chemscore.Metal>
0.0000

> <Gold.Chemscore.Lipo>
129.6317

> <Gold.Chemscore.Internal_Hbond>
0.0000

> <Gold.Chemscore.DEClash>
1.1144

> <Gold.Chemscore.DEInternal>
3.0000

> <Gold.Chemscore.Rot>
1.9750

> <Gold.Chemscore.Internal.Correction>
   9.000000E+99

> <Gold.Chemscore.Hbonds>
donor molecule, donor type, donor heavy atom, donor atom, acceptor molecule, acceptor atom, score
      P1  H 11000 11005       L1    19  0.36

> <Gold.Chemscore.Hbond.Weighted>
-2.4633

> <Gold.Chemscore.Metal.Weighted>
-0.0000

> <Gold.Chemscore.Lipo.Weighted>
-15.1669

> <Gold.Chemscore.Internal_Hbond.Weighted>
0.0000

> <Gold.Chemscore.DEClash.Weighted>
1.1144

> <Gold.Chemscore.DEInternal.Weighted>
3.0000

> <Gold.Chemscore.Rot.Weighted>
5.0561

> <Gold.Chemscore.Internal.Correction.Weighted>
   9.000000E+99

> <Gold.Protein.RotatedTorsions>
[ 6907 6896 6895 6894 ] final  153.85 input  -60.11 | X-H torsion
[ 7974 7965 7964 7962 ] final  -40.70 input  175.53 | X-H torsion
[ 8008 7997 7996 7995 ] final -179.99 input   59.86 | X-H torsion
[ 10167 10162 10161 10158 ] final  128.76 input  -65.29 | X-H torsion
[ 10718 10713 10712 10709 ] final  115.47 input   66.30 | X-H torsion
[ 10763 10752 10751 10750 ] final  -12.77 input  -60.55 | X-H torsion
[ 11005 11000 10999 10996 ] final  -84.57 input  -57.11 | X-H torsion

> <Gold.Protein.ActiveResidues>
 VAL166  LYS551  ARG553  GLY616  TRP617  ASP618  TYR619  PRO620  LYS621  CYS622 
 ASP623  PHE694  ASN695  SER759  ASP760  ASP761  ALA762  ILE779  LEU786  VAL792 
 PHE793  MET794  SER795  GLU796  ALA797  LYS798  CYS799  TRP800  GLU811  SER814 

> <Gold.Protein.RotatedAtoms>
  152.0668  133.4088  159.4441 H   0  0  0  0  0  0  0  0  0  0  0  0  # atno 6907 bound_to 6896
  150.6864  134.3137  159.4766 H   0  0  0  0  0  0  0  0  0  0  0  0  # atno 6908 bound_to 6896
  152.0964  134.9371  160.0621 H   0  0  0  0  0  0  0  0  0  0  0  0  # atno 6909 bound_to 6896
  146.0280  140.6767  142.9146 H   0  0  0  0  0  0  0  0  0  0  0  0  # atno 7974 bound_to 7965
  156.0369  140.1294  157.0198 H   0  0  0  0  0  0  0  0  0  0  0  0  # atno 8008 bound_to 7997
  154.4374  140.1038  156.6250 H   0  0  0  0  0  0  0  0  0  0  0  0  # atno 8009 bound_to 7997
  155.5725  140.3466  155.4521 H   0  0  0  0  0  0  0  0  0  0  0  0  # atno 8010 bound_to 7997
  139.5511  144.6813  151.4321 H   0  0  0  0  0  0  0  0  0  0  0  0  # atno 10167 bound_to 10162
  157.6220  131.1013  150.7334 H   0  0  0  0  0  0  0  0  0  0  0  0  # atno 10718 bound_to 10713
  153.5034  135.7017  153.5819 H   0  0  0  0  0  0  0  0  0  0  0  0  # atno 10763 bound_to 10752
  153.3941  135.3888  155.1943 H   0  0  0  0  0  0  0  0  0  0  0  0  # atno 10764 bound_to 10752
  154.8709  135.3865  154.4507 H   0  0  0  0  0  0  0  0  0  0  0  0  # atno 10765 bound_to 10752
  141.1649  133.7353  156.8888 H   0  0  0  0  0  0  0  0  0  0  0  0  # atno 11005 bound_to 11000
  144.7018  140.3685  143.7150 LP  0  0  0  0  0  0  0  0  0  0  0  0  # atno 17320 bound_to 7965
  145.7086  139.1679  143.2551 LP  0  0  0  0  0  0  0  0  0  0  0  0  # atno 17321 bound_to 7965
  140.6773  143.8160  150.7075 LP  0  0  0  0  0  0  0  0  0  0  0  0  # atno 17342 bound_to 10162
  140.1603  143.4281  152.2072 LP  0  0  0  0  0  0  0  0  0  0  0  0  # atno 17343 bound_to 10162
  156.7690  130.4822  149.5422 LP  0  0  0  0  0  0  0  0  0  0  0  0  # atno 17370 bound_to 10713
  156.1370  130.6218  151.0415 LP  0  0  0  0  0  0  0  0  0  0  0  0  # atno 17371 bound_to 10713
  140.1663  134.9131  157.2778 LP  0  0  0  0  0  0  0  0  0  0  0  0  # atno 17394 bound_to 11000
  140.2553  134.3635  155.7427 LP  0  0  0  0  0  0  0  0  0  0  0  0  # atno 17395 bound_to 11000

$$$$
