AV-unprocessed.smi:1844|AV-procd|sdf|7510|dock8
  -GOLD-   22720 9213D 1   1.00000     0.00000
 Structure written by MMmdl.
 45 46  0  0  0  0  0  0  0  0  1 V2000
  143.6313  144.6287  154.7766 C   0  0  0  0  0  0  0  0  0  0  0  0
  144.8671  143.8612  154.7452 N   0  0  0  0  0  0  0  0  0  0  0  0
  145.3413  143.1395  155.7740 C   0  0  0  0  0  0  0  0  0  0  0  0
  144.7431  143.0763  156.8496 O   0  0  0  0  0  0  0  0  0  0  0  0
  146.6050  142.4563  155.4858 C   0  0  0  0  0  0  0  0  0  0  0  0
  147.0013  142.0467  154.1465 C   0  0  0  0  0  0  0  0  0  0  0  0
  148.1796  141.4266  153.9398 C   0  0  0  0  0  0  0  0  0  0  0  0
  149.1034  141.1370  155.0403 C   0  0  0  0  0  0  0  0  0  0  0  0
  150.1823  140.5726  154.8565 O   0  0  0  0  0  0  0  0  0  0  0  0
  148.6905  141.5328  156.2825 N   0  0  0  0  0  0  0  0  0  0  0  0
  149.5331  141.2958  157.4668 C   0  0  0  0  0  0  0  0  0  0  0  0
  150.7896  142.1771  157.5087 C   0  0  0  0  0  0  0  0  0  0  0  0
  151.2133  142.7231  156.4892 O   0  0  0  0  0  0  0  0  0  0  0  0
  151.3596  142.3186  158.7155 N   0  0  0  0  0  0  0  0  0  0  0  0
  152.5588  143.1016  159.0214 C   0  0  2  0  0  0  0  0  0  0  0  0
  153.5775  142.2231  159.7754 C   0  0  0  0  0  0  0  0  0  0  0  0
  153.1153  141.8915  161.2052 C   0  0  0  0  0  0  0  0  0  0  0  0
  152.7936  143.1682  161.9959 C   0  0  0  0  0  0  0  0  0  0  0  0
  151.7589  144.0357  161.2613 C   0  0  0  0  0  0  0  0  0  0  0  0
  152.2207  144.3805  159.8299 C   0  0  2  0  0  0  0  0  0  0  0  0
  151.2125  145.2972  159.1160 C   0  0  0  0  0  0  0  0  0  0  0  0
  147.4593  142.1850  156.4921 C   0  0  0  0  0  0  0  0  0  0  0  0
  143.4671  145.1075  153.8114 H   0  0  0  0  0  0  0  0  0  0  0  0
  143.6772  145.4068  155.5395 H   0  0  0  0  0  0  0  0  0  0  0  0
  142.7776  143.9835  154.9871 H   0  0  0  0  0  0  0  0  0  0  0  0
  145.3990  143.8780  153.8872 H   0  0  0  0  0  0  0  0  0  0  0  0
  146.3668  142.2293  153.2918 H   0  0  0  0  0  0  0  0  0  0  0  0
  148.4525  141.1332  152.9368 H   0  0  0  0  0  0  0  0  0  0  0  0
  148.9662  141.4714  158.3820 H   0  0  0  0  0  0  0  0  0  0  0  0
  149.8273  140.2455  157.5127 H   0  0  0  0  0  0  0  0  0  0  0  0
  150.9296  141.8391  159.4933 H   0  0  0  0  0  0  0  0  0  0  0  0
  153.0331  143.4108  158.0884 H   0  0  0  0  0  0  0  0  0  0  0  0
  153.7664  141.3029  159.2210 H   0  0  0  0  0  0  0  0  0  0  0  0
  154.5330  142.7469  159.8244 H   0  0  0  0  0  0  0  0  0  0  0  0
  152.2336  141.2505  161.1704 H   0  0  0  0  0  0  0  0  0  0  0  0
  153.8882  141.3208  161.7207 H   0  0  0  0  0  0  0  0  0  0  0  0
  152.4234  142.9077  162.9877 H   0  0  0  0  0  0  0  0  0  0  0  0
  153.7082  143.7422  162.1489 H   0  0  0  0  0  0  0  0  0  0  0  0
  150.8016  143.5141  161.2288 H   0  0  0  0  0  0  0  0  0  0  0  0
  151.5883  144.9518  161.8280 H   0  0  0  0  0  0  0  0  0  0  0  0
  153.1465  144.9504  159.9215 H   0  0  0  0  0  0  0  0  0  0  0  0
  150.2287  144.8336  159.0386 H   0  0  0  0  0  0  0  0  0  0  0  0
  151.5481  145.5375  158.1068 H   0  0  0  0  0  0  0  0  0  0  0  0
  151.0903  146.2369  159.6550 H   0  0  0  0  0  0  0  0  0  0  0  0
  147.2669  142.4514  157.5220 H   0  0  0  0  0  0  0  0  0  0  0  0
  1  2  1  0  0  0  0
  1 23  1  0  0  0  0
  1 24  1  0  0  0  0
  1 25  1  0  0  0  0
  2  3  1  0  0  0  0
  2 26  1  0  0  0  0
  3  4  2  0  0  0  0
  3  5  1  0  0  0  0
  5 22  2  0  0  0  0
  5  6  1  0  0  0  0
  6  7  2  0  0  0  0
  6 27  1  0  0  0  0
  7  8  1  0  0  0  0
  7 28  1  0  0  0  0
  8  9  2  0  0  0  0
  8 10  1  0  0  0  0
 10 11  1  0  0  0  0
 10 22  1  0  0  0  0
 11 12  1  0  0  0  0
 11 29  1  0  0  0  0
 11 30  1  0  0  0  0
 12 13  2  0  0  0  0
 12 14  1  0  0  0  0
 14 15  1  0  0  0  0
 14 31  1  0  0  0  0
 15 20  1  0  0  0  0
 15 16  1  0  0  0  0
 15 32  1  0  0  0  0
 16 17  1  0  0  0  0
 16 33  1  0  0  0  0
 16 34  1  0  0  0  0
 17 18  1  0  0  0  0
 17 35  1  0  0  0  0
 17 36  1  0  0  0  0
 18 19  1  0  0  0  0
 18 37  1  0  0  0  0
 18 38  1  0  0  0  0
 19 20  1  0  0  0  0
 19 39  1  0  0  0  0
 19 40  1  0  0  0  0
 20 21  1  0  0  0  0
 20 41  1  0  0  0  0
 21 42  1  0  0  0  0
 21 43  1  0  0  0  0
 21 44  1  0  0  0  0
 22 45  1  0  0  0  0
M  END
> <s_m_source_file>
AV-unprocessed.smi

> <i_m_source_file_index>
1844

> <i_lp_mmshare_version>
43012

> <i_f3d_flags>
0

> <s_epik_input>
W0NIM11bTkhdQyg9TyljMVtjSF1bY0hdYyg9TyluKFtjSF0xKVtDSDJdQyg9TylbTkhdW0NAQEhdMltDSDJdW0NIMl1bQ0gyXVtDSDJdW0NASF0yW0NIM10=

> <s_epik_cmdline>
J2VwaWtfcHl0aG9uJywgJy1waCcsICc3LjAnLCAnLXRuJywgJzgnLCAnLW1hJywgJzIwMCcsICctbWV0YWxfYmluZGluZycsICctaW1hZScsICc8aW5maWxlLm1hZT4nLCAnLW9tYWUnLCAnPG91dGZpbGUubWFlPic=

> <r_lp_tautomer_probability>
1

> <r_epik_Ionization_Penalty>
3.66612e-07

> <r_epik_Ionization_Penalty_Charging>
5.18929e-08

> <r_epik_Ionization_Penalty_Neutral>
3.14719e-07

> <r_epik_State_Penalty>
-0

> <r_epik_Charging_Adjusted_Penalty>
5.18929e-08

> <i_epik_Tot_Q>
0

> <i_epik_Tot_abs_Q>
0

> <r_epik_Metal_State_Penalty>
-0

> <b_epik_Metal_Only>
0

> <s_lp_Force_Field>
OPLS_2005

> <r_lp_Energy>
22.5965

> <b_lp_Chiralities_Consistent>
1

> <s_lp_Variant>
AV-unprocessed.smi:1844-3

> <Gold.Version>
5.8.1

> <Gold.Id.Protein>
6NUR|6NUR_protein|mol2

> <Gold.PLP.Fitness>
49.0670

> <Gold.PLP.PLP>
-47.6523

> <Gold.PLP.part.hbond>
-1.0000

> <Gold.PLP.part.metal>
0.0000

> <Gold.PLP.part.buried>
-3.6074

> <Gold.PLP.part.nonpolar>
-42.5681

> <Gold.PLP.part.repulsive>
0.3607

> <Gold.PLP.ligand.clash>
0.0000

> <Gold.PLP.ligand.torsion>
0.7862

> <Gold.PLP.Chemscore.Hbond>
0.9920

> <Gold.PLP.Chemscore.CHOScore>
0.0000

> <Gold.PLP.Chemscore.Metal>
0.0000

> <Gold.Chemscore.Hbonds>
donor molecule, donor type, donor heavy atom, donor atom, acceptor molecule, acceptor atom, score
      P1  H  7989  7998       L1     9  0.91

> <Gold.PLP.Chemscore.Internal.Correction>
0.0111

> <Gold.Rescore>
     Score         DG    S(hbond)    S(metal)    S(lipo)     H(rot)  DE(clash)    DE(int)     intcor
     15.67     -18.11       0.97        0.00     112.91       1.49       1.38       1.07       ----

> <Gold.Chemscore.Fitness>
15.6667

> <Gold.Chemscore.DG>
-18.1135

> <Gold.Chemscore.ZeroCoef>
-5.4800

> <Gold.Chemscore.Hbond>
0.9710

> <Gold.Chemscore.Metal>
0.0000

> <Gold.Chemscore.Lipo>
112.9125

> <Gold.Chemscore.Internal_Hbond>
0.0000

> <Gold.Chemscore.DEClash>
1.3782

> <Gold.Chemscore.DEInternal>
1.0686

> <Gold.Chemscore.Rot>
1.4923

> <Gold.Chemscore.Internal.Correction>
   9.000000E+99

> <Gold.Chemscore.Hbonds>
donor molecule, donor type, donor heavy atom, donor atom, acceptor molecule, acceptor atom, score
      P1  H  7989  7998       L1     9  0.86

> <Gold.Chemscore.Hbond.Weighted>
-3.2432

> <Gold.Chemscore.Metal.Weighted>
-0.0000

> <Gold.Chemscore.Lipo.Weighted>
-13.2108

> <Gold.Chemscore.Internal_Hbond.Weighted>
0.0000

> <Gold.Chemscore.DEClash.Weighted>
1.3782

> <Gold.Chemscore.DEInternal.Weighted>
1.0686

> <Gold.Chemscore.Rot.Weighted>
3.8204

> <Gold.Chemscore.Internal.Correction.Weighted>
   9.000000E+99

> <Gold.Protein.RotatedTorsions>
[ 6907 6896 6895 6894 ] final  153.24 input  -60.11 | X-H torsion
[ 7974 7965 7964 7962 ] final   52.57 input  175.53 | X-H torsion
[ 8008 7997 7996 7995 ] final  144.14 input   59.86 | X-H torsion
[ 10167 10162 10161 10158 ] final  172.19 input  -65.29 | X-H torsion
[ 10718 10713 10712 10709 ] final   81.67 input   66.30 | X-H torsion
[ 10763 10752 10751 10750 ] final -162.30 input  -60.55 | X-H torsion
[ 11005 11000 10999 10996 ] final  163.02 input  -57.11 | X-H torsion

> <Gold.Protein.ActiveResidues>
 VAL166  LYS551  ARG553  GLY616  TRP617  ASP618  TYR619  PRO620  LYS621  CYS622 
 ASP623  PHE694  ASN695  SER759  ASP760  ASP761  ALA762  ILE779  LEU786  VAL792 
 PHE793  MET794  SER795  GLU796  ALA797  LYS798  CYS799  TRP800  GLU811  SER814 

> <Gold.Protein.RotatedAtoms>
  152.0754  133.4127  159.4477 H   0  0  0  0  0  0  0  0  0  0  0  0  # atno 6907 bound_to 6896
  150.6863  134.3043  159.4728 H   0  0  0  0  0  0  0  0  0  0  0  0  # atno 6908 bound_to 6896
  152.0879  134.9426  160.0623 H   0  0  0  0  0  0  0  0  0  0  0  0  # atno 6909 bound_to 6896
  145.9800  139.4233  143.0138 H   0  0  0  0  0  0  0  0  0  0  0  0  # atno 7974 bound_to 7965
  156.2915  140.2243  156.5005 H   0  0  0  0  0  0  0  0  0  0  0  0  # atno 8008 bound_to 7997
  154.7693  140.0468  157.1060 H   0  0  0  0  0  0  0  0  0  0  0  0  # atno 8009 bound_to 7997
  154.9893  140.3088  155.4916 H   0  0  0  0  0  0  0  0  0  0  0  0  # atno 8010 bound_to 7997
  139.5069  144.3402  152.0026 H   0  0  0  0  0  0  0  0  0  0  0  0  # atno 10167 bound_to 10162
  157.6839  131.0014  150.2261 H   0  0  0  0  0  0  0  0  0  0  0  0  # atno 10718 bound_to 10713
  154.7226  135.3029  154.9022 H   0  0  0  0  0  0  0  0  0  0  0  0  # atno 10763 bound_to 10752
  153.9889  135.6721  153.4757 H   0  0  0  0  0  0  0  0  0  0  0  0  # atno 10764 bound_to 10752
  153.0847  135.4990  154.8492 H   0  0  0  0  0  0  0  0  0  0  0  0  # atno 10765 bound_to 10752
  140.2315  134.8120  157.3322 H   0  0  0  0  0  0  0  0  0  0  0  0  # atno 11005 bound_to 11000
  145.7783  140.9867  143.1113 LP  0  0  0  0  0  0  0  0  0  0  0  0  # atno 17320 bound_to 7965
  144.6859  139.9532  143.7478 LP  0  0  0  0  0  0  0  0  0  0  0  0  # atno 17321 bound_to 7965
  140.2840  144.3828  150.6110 LP  0  0  0  0  0  0  0  0  0  0  0  0  # atno 17342 bound_to 10162
  140.5997  143.2167  151.7096 LP  0  0  0  0  0  0  0  0  0  0  0  0  # atno 17343 bound_to 10162
  156.2903  130.3745  149.7848 LP  0  0  0  0  0  0  0  0  0  0  0  0  # atno 17370 bound_to 10713
  156.5509  130.8341  151.3299 LP  0  0  0  0  0  0  0  0  0  0  0  0  # atno 17371 bound_to 10713
  140.1745  134.4567  155.7810 LP  0  0  0  0  0  0  0  0  0  0  0  0  # atno 17394 bound_to 11000
  141.2217  133.6956  156.7764 LP  0  0  0  0  0  0  0  0  0  0  0  0  # atno 17395 bound_to 11000

$$$$
