AV-unprocessed.smi:2083|AV-procd|sdf|8504|dock4
  -GOLD-   2272011213D 1   1.00000     0.00000
 Structure written by MMmdl.
 44 45  0  0  0  0  0  0  0  0  3 V2000
  145.7841  134.4842  162.3439 C   0  0  0  0  0  0  0  0  0  0  0  0
  146.7448  134.7489  161.2352 C   0  0  0  0  0  0  0  0  0  0  0  0
  147.3018  133.9475  160.2793 C   0  0  0  0  0  0  0  0  0  0  0  0
  148.1223  134.8440  159.5416 C   0  0  0  0  0  0  0  0  0  0  0  0
  148.8987  134.5254  158.4944 N   0  5  0  0  0  0  0  0  0  0  0  0
  148.7594  135.1777  157.3179 C   0  0  0  0  0  0  0  0  0  0  0  0
  149.1790  136.3054  157.0490 O   0  0  0  0  0  0  0  0  0  0  0  0
  148.0908  134.4773  156.3930 N   0  0  0  0  0  0  0  0  0  0  0  0
  147.8032  134.9292  155.0369 C   0  0  0  0  0  0  0  0  0  0  0  0
  147.9345  133.7826  154.0065 C   0  0  2  0  0  0  0  0  0  0  0  0
  149.4261  133.4233  153.7945 C   0  0  0  0  0  0  0  0  0  0  0  0
  147.2069  134.1495  152.7468 N   0  3  2  0  0  0  0  0  0  0  0  0
  145.9212  134.8475  153.0338 C   0  0  0  0  0  0  0  0  0  0  0  0
  145.2797  135.4040  151.7547 C   0  0  0  0  0  0  0  0  0  0  0  0
  145.0436  134.2852  150.7366 C   0  0  0  0  0  0  0  0  0  0  0  0
  146.3624  133.5520  150.4509 C   0  0  2  0  0  0  0  0  0  0  0  0
  146.1595  132.4083  149.4465 C   0  0  0  0  0  0  0  0  0  0  0  0
  146.9991  133.0458  151.7625 C   0  0  0  0  0  0  0  0  0  0  0  0
  148.0799  136.0768  160.0179 N   0  0  0  0  0  0  0  0  0  0  0  0
  147.1933  136.0259  161.1002 O   0  0  0  0  0  0  0  0  0  0  0  0
  146.1744  133.7221  163.0183 H   0  0  0  0  0  0  0  0  0  0  0  0
  144.8305  134.1324  161.9507 H   0  0  0  0  0  0  0  0  0  0  0  0
  145.5967  135.3866  162.9266 H   0  0  0  0  0  0  0  0  0  0  0  0
  147.1453  132.8899  160.1292 H   0  0  0  0  0  0  0  0  0  0  0  0
  147.7625  133.5588  156.6539 H   0  0  0  0  0  0  0  0  0  0  0  0
  146.8011  135.3563  155.0412 H   0  0  0  0  0  0  0  0  0  0  0  0
  148.4859  135.7381  154.7699 H   0  0  0  0  0  0  0  0  0  0  0  0
  147.4580  132.8904  154.4170 H   0  0  0  0  0  0  0  0  0  0  0  0
  149.9166  133.1700  154.7344 H   0  0  0  0  0  0  0  0  0  0  0  0
  149.9792  134.2547  153.3564 H   0  0  0  0  0  0  0  0  0  0  0  0
  149.5507  132.5504  153.1536 H   0  0  0  0  0  0  0  0  0  0  0  0
  145.2337  134.1537  153.5207 H   0  0  0  0  0  0  0  0  0  0  0  0
  146.0710  135.6709  153.7302 H   0  0  0  0  0  0  0  0  0  0  0  0
  144.3345  135.8918  151.9951 H   0  0  0  0  0  0  0  0  0  0  0  0
  145.9236  136.1708  151.3220 H   0  0  0  0  0  0  0  0  0  0  0  0
  144.3014  133.5852  151.1229 H   0  0  0  0  0  0  0  0  0  0  0  0
  144.6324  134.7011  149.8162 H   0  0  0  0  0  0  0  0  0  0  0  0
  147.0516  134.2663  149.9973 H   0  0  0  0  0  0  0  0  0  0  0  0
  145.4828  131.6491  149.8403 H   0  0  0  0  0  0  0  0  0  0  0  0
  147.1052  131.9205  149.2093 H   0  0  0  0  0  0  0  0  0  0  0  0
  145.7373  132.7775  148.5114 H   0  0  0  0  0  0  0  0  0  0  0  0
  147.9512  132.5883  151.4957 H   0  0  0  0  0  0  0  0  0  0  0  0
  146.3791  132.2687  152.2128 H   0  0  0  0  0  0  0  0  0  0  0  0
  147.8012  134.8173  152.2764 H   0  0  0  0  0  0  0  0  0  0  0  0
  1  2  1  0  0  0  0
  1 21  1  0  0  0  0
  1 22  1  0  0  0  0
  1 23  1  0  0  0  0
  2 20  1  0  0  0  0
  2  3  2  0  0  0  0
  3  4  1  0  0  0  0
  3 24  1  0  0  0  0
  4  5  1  0  0  0  0
  4 19  2  0  0  0  0
  5  6  1  0  0  0  0
  6  7  2  0  0  0  0
  6  8  1  0  0  0  0
  8  9  1  0  0  0  0
  8 25  1  0  0  0  0
  9 10  1  0  0  0  0
  9 26  1  0  0  0  0
  9 27  1  0  0  0  0
 10 11  1  0  0  0  0
 10 12  1  0  0  0  0
 10 28  1  0  0  0  0
 11 29  1  0  0  0  0
 11 30  1  0  0  0  0
 11 31  1  0  0  0  0
 12 18  1  0  0  0  0
 12 13  1  0  0  0  0
 12 44  1  0  0  0  0
 13 14  1  0  0  0  0
 13 32  1  0  0  0  0
 13 33  1  0  0  0  0
 14 15  1  0  0  0  0
 14 34  1  0  0  0  0
 14 35  1  0  0  0  0
 15 16  1  0  0  0  0
 15 36  1  0  0  0  0
 15 37  1  0  0  0  0
 16 17  1  0  0  0  0
 16 18  1  0  0  0  0
 16 38  1  0  0  0  0
 17 39  1  0  0  0  0
 17 40  1  0  0  0  0
 17 41  1  0  0  0  0
 18 42  1  0  0  0  0
 18 43  1  0  0  0  0
 19 20  1  0  0  0  0
M  CHG  1   5  -1
M  CHG  1  12   1
M  END
> <s_m_source_file>
AV-unprocessed.smi

> <i_m_source_file_index>
2083

> <i_lp_mmshare_version>
43012

> <i_f3d_flags>
0

> <s_epik_input>
W0NIM11jMVtjSF1jKG5vMSlbTkhdQyg9TylbTkhdW0NIMl1bQ0BIXShbQ0gzXSlOMltDSDJdW0NIMl1bQ0gyXVtDQEBIXShbQ0gzXSlbQ0gyXTI=

> <s_epik_cmdline>
J2VwaWtfcHl0aG9uJywgJy1waCcsICc3LjAnLCAnLXRuJywgJzgnLCAnLW1hJywgJzIwMCcsICctbWV0YWxfYmluZGluZycsICctaW1hZScsICc8aW5maWxlLm1hZT4nLCAnLW9tYWUnLCAnPG91dGZpbGUubWFlPic=

> <r_epik_Ionization_Penalty>
6.22434

> <r_epik_Ionization_Penalty_Charging>
6.22425

> <r_epik_Ionization_Penalty_Neutral>
9.62407e-05

> <r_epik_State_Penalty>
6.22423

> <r_epik_Charging_Adjusted_Penalty>
12.4485

> <i_epik_Tot_Q>
0

> <i_epik_Tot_abs_Q>
2

> <r_epik_Metal_State_Penalty>
2.16764

> <b_epik_Metal_Only>
1

> <s_lp_Force_Field>
OPLS_2005

> <r_lp_Energy>
11.4066

> <b_lp_Chiralities_Consistent>
1

> <s_lp_Variant>
AV-unprocessed.smi:2083-15

> <Gold.Version>
5.8.1

> <Gold.Id.Protein>
6NUR|6NUR_protein|mol2

> <Gold.PLP.Fitness>
46.2643

> <Gold.PLP.PLP>
-32.6017

> <Gold.PLP.part.hbond>
-4.4258

> <Gold.PLP.part.metal>
0.0000

> <Gold.PLP.part.buried>
-3.5914

> <Gold.PLP.part.nonpolar>
-24.2460

> <Gold.PLP.part.repulsive>
0.0104

> <Gold.PLP.ligand.clash>
0.0102

> <Gold.PLP.ligand.torsion>
1.7126

> <Gold.PLP.Chemscore.Hbond>
5.6640

> <Gold.PLP.Chemscore.CHOScore>
0.0000

> <Gold.PLP.Chemscore.Metal>
0.0000

> <Gold.Chemscore.Hbonds>
donor molecule, donor type, donor heavy atom, donor atom, acceptor molecule, acceptor atom, score
      L1  H    12    44       P1  7948  2.00
      P1  H  6896  6908       L1     5  2.00

> <Gold.PLP.Chemscore.Internal.Correction>
0.1061

> <Gold.Rescore>
     Score         DG    S(hbond)    S(metal)    S(lipo)     H(rot)  DE(clash)    DE(int)     intcor
     15.70     -17.67       2.70        0.00      60.46       1.52       0.12       1.85       ----

> <Gold.Chemscore.Fitness>
15.6966

> <Gold.Chemscore.DG>
-17.6724

> <Gold.Chemscore.ZeroCoef>
-5.4800

> <Gold.Chemscore.Hbond>
2.6969

> <Gold.Chemscore.Metal>
0.0000

> <Gold.Chemscore.Lipo>
60.4556

> <Gold.Chemscore.Internal_Hbond>
0.0000

> <Gold.Chemscore.DEClash>
0.1229

> <Gold.Chemscore.DEInternal>
1.8529

> <Gold.Chemscore.Rot>
1.5190

> <Gold.Chemscore.Internal.Correction>
   9.000000E+99

> <Gold.Chemscore.Hbonds>
donor molecule, donor type, donor heavy atom, donor atom, acceptor molecule, acceptor atom, score
      L1  H    12    44       P1  7948  0.74
      P1  H  6896  6908       L1     5  0.29

> <Gold.Chemscore.Hbond.Weighted>
-9.0077

> <Gold.Chemscore.Metal.Weighted>
-0.0000

> <Gold.Chemscore.Lipo.Weighted>
-7.0733

> <Gold.Chemscore.Internal_Hbond.Weighted>
0.0000

> <Gold.Chemscore.DEClash.Weighted>
0.1229

> <Gold.Chemscore.DEInternal.Weighted>
1.8529

> <Gold.Chemscore.Rot.Weighted>
3.8886

> <Gold.Chemscore.Internal.Correction.Weighted>
   9.000000E+99

> <Gold.Protein.RotatedTorsions>
[ 6907 6896 6895 6894 ] final  146.41 input  -60.11 | X-H torsion
[ 7974 7965 7964 7962 ] final  -17.72 input  175.53 | X-H torsion
[ 8008 7997 7996 7995 ] final  100.41 input   59.86 | X-H torsion
[ 10167 10162 10161 10158 ] final  142.80 input  -65.29 | X-H torsion
[ 10718 10713 10712 10709 ] final  116.00 input   66.30 | X-H torsion
[ 10763 10752 10751 10750 ] final -106.25 input  -60.55 | X-H torsion
[ 11005 11000 10999 10996 ] final  105.75 input  -57.11 | X-H torsion

> <Gold.Protein.ActiveResidues>
 VAL166  LYS551  ARG553  GLY616  TRP617  ASP618  TYR619  PRO620  LYS621  CYS622 
 ASP623  PHE694  ASN695  SER759  ASP760  ASP761  ALA762  ILE779  LEU786  VAL792 
 PHE793  MET794  SER795  GLU796  ALA797  LYS798  CYS799  TRP800  GLU811  SER814 

> <Gold.Protein.RotatedAtoms>
  152.1682  133.4626  159.4895 H   0  0  0  0  0  0  0  0  0  0  0  0  # atno 6907 bound_to 6896
  150.6916  134.1986  159.4322 H   0  0  0  0  0  0  0  0  0  0  0  0  # atno 6908 bound_to 6896
  151.9892  134.9988  160.0611 H   0  0  0  0  0  0  0  0  0  0  0  0  # atno 6909 bound_to 6896
  146.1927  140.3819  142.8452 H   0  0  0  0  0  0  0  0  0  0  0  0  # atno 7974 bound_to 7965
  156.1200  140.3214  155.8194 H   0  0  0  0  0  0  0  0  0  0  0  0  # atno 8008 bound_to 7997
  155.4521  140.0533  157.3017 H   0  0  0  0  0  0  0  0  0  0  0  0  # atno 8009 bound_to 7997
  154.4820  140.2057  155.9754 H   0  0  0  0  0  0  0  0  0  0  0  0  # atno 8010 bound_to 7997
  139.4985  144.6083  151.6329 H   0  0  0  0  0  0  0  0  0  0  0  0  # atno 10167 bound_to 10162
  157.6187  131.1020  150.7411 H   0  0  0  0  0  0  0  0  0  0  0  0  # atno 10718 bound_to 10713
  154.8000  135.4719  154.0253 H   0  0  0  0  0  0  0  0  0  0  0  0  # atno 10763 bound_to 10752
  153.1766  135.6834  153.8542 H   0  0  0  0  0  0  0  0  0  0  0  0  # atno 10764 bound_to 10752
  153.8106  135.3217  155.3378 H   0  0  0  0  0  0  0  0  0  0  0  0  # atno 10765 bound_to 10752
  139.8806  134.9346  156.5562 H   0  0  0  0  0  0  0  0  0  0  0  0  # atno 11005 bound_to 11000
  144.8519  140.7013  143.6163 LP  0  0  0  0  0  0  0  0  0  0  0  0  # atno 17320 bound_to 7965
  145.3741  139.1652  143.4316 LP  0  0  0  0  0  0  0  0  0  0  0  0  # atno 17321 bound_to 7965
  140.5751  144.0043  150.6237 LP  0  0  0  0  0  0  0  0  0  0  0  0  # atno 17342 bound_to 10162
  140.3173  143.3159  152.0819 LP  0  0  0  0  0  0  0  0  0  0  0  0  # atno 17343 bound_to 10162
  156.7772  130.4848  149.5407 LP  0  0  0  0  0  0  0  0  0  0  0  0  # atno 17370 bound_to 10713
  156.1322  130.6186  151.0349 LP  0  0  0  0  0  0  0  0  0  0  0  0  # atno 17371 bound_to 10713
  140.8203  133.8359  155.8890 LP  0  0  0  0  0  0  0  0  0  0  0  0  # atno 17394 bound_to 11000
  140.9424  134.1884  157.4788 LP  0  0  0  0  0  0  0  0  0  0  0  0  # atno 17395 bound_to 11000

$$$$
