#       Name:                AV-unprocessed.smi:193
#       Creating user name   scv26
#       Creation time:       Thu Mar 26 19:34:51 2020


#       File generated by GOLD software.
#

@<TRIPOS>MOLECULE
AV-unprocessed.smi:193
    70    74     1
SMALL
NO_CHARGES


@<TRIPOS>ATOM
      1 ****        -2.4861  -2.0006   1.1786 C.3            1 S1                 0.0000
      2 ****        -2.7058  -0.6489   1.8733 C.3            1 S1                 0.0000
      3 ****        -1.3651   0.0423   2.2053 C.3            1 S1                 0.0000
      4 ****        -0.8573   0.9285   1.1588 N.3            1 S1                 0.0000
      5 ****         0.4893   0.8347   1.0142 C.ar           1 S1                 0.0000
      6 ****         1.2994   1.8232   1.4814 N.ar           1 S1                 0.0000
      7 ****         2.6267   1.7165   1.3700 C.ar           1 S1                 0.0000
      8 ****         3.3422   0.7235   0.8391 N.ar           1 S1                 0.0000
      9 ****         2.5359  -0.2696   0.3663 C.ar           1 S1                 0.0000
     10 ****         1.1134  -0.2953   0.4167 C.ar           1 S1                 0.0000
     11 ****         0.6407  -1.4691  -0.1559 N.2            1 S1                 0.0000
     12 ****         1.7210  -2.1028  -0.5217 C.2            1 S1                 0.0000
     13 ****         2.9039  -1.4509  -0.2543 N.pl3          1 S1                 0.0000
     14 ****         4.2456  -1.9263  -0.5560 C.3            1 S1                 0.0000
     15 ****         4.7991  -1.4371  -1.9180 C.3            1 S1                 0.0000
     16 ****         4.9648  -0.0323  -1.8383 O.3            1 S1                 0.0000
     17 ****         6.1761  -2.0729  -2.1967 C.3            1 S1                 0.0000
     18 ****         6.6904  -1.7489  -3.6106 C.3            1 S1                 0.0000
     19 ****         5.7298  -2.1470  -4.5812 O.3            1 S1                 0.0000
     20 ****         4.4997  -1.4436  -4.4579 C.3            1 S1                 0.0000
     21 ****         3.8498  -1.7475  -3.0962 C.3            1 S1                 0.0000
     22 ****        -1.4161   2.2817   1.1801 C.3            1 S1                 0.0000
     23 ****        -2.8601   2.3590   0.6643 C.3            1 S1                 0.0000
     24 ****        -3.8005   1.5931   1.4840 N.3            1 S1                 0.0000
     25 ****        -5.1396   2.0839   1.1950 C.3            1 S1                 0.0000
     26 ****        -5.6387   3.2638   1.9983 C.3            1 S1                 0.0000
     27 ****        -6.1976   1.8848   2.2593 C.3            1 S1                 0.0000
     28 ****        -7.6210   1.5438   1.8764 C.3            1 S1                 0.0000
     29 ****        -3.7435   0.1843   1.0902 C.3            1 S1                 0.0000
     30 ****        -2.0687  -1.8682   0.1808 H              1 S1                 0.0000
     31 ****        -3.4262  -2.5429   1.0728 H              1 S1                 0.0000
     32 ****        -1.8041  -2.6343   1.7466 H              1 S1                 0.0000
     33 ****        -3.1566  -0.8787   2.8396 H              1 S1                 0.0000
     34 ****        -1.5035   0.6437   3.1048 H              1 S1                 0.0000
     35 ****        -0.6265  -0.7104   2.4861 H              1 S1                 0.0000
     36 ****         3.1970   2.5436   1.7661 H              1 S1                 0.0000
     37 ****         1.6844  -3.0675  -1.0066 H              1 S1                 0.0000
     38 ****         4.9086  -1.6238   0.2561 H              1 S1                 0.0000
     39 ****         4.2227  -3.0166  -0.5358 H              1 S1                 0.0000
     40 ****         5.3186   0.2762  -2.6583 H              1 S1                 0.0000
     41 ****         6.9040  -1.7523  -1.4503 H              1 S1                 0.0000
     42 ****         6.0989  -3.1567  -2.1009 H              1 S1                 0.0000
     43 ****         6.9126  -0.6859  -3.7157 H              1 S1                 0.0000
     44 ****         7.6207  -2.2848  -3.7995 H              1 S1                 0.0000
     45 ****         4.6654  -0.3726  -4.5848 H              1 S1                 0.0000
     46 ****         3.8358  -1.7557  -5.2641 H              1 S1                 0.0000
     47 ****         3.5773  -2.8033  -3.0691 H              1 S1                 0.0000
     48 ****         2.9186  -1.1871  -3.0050 H              1 S1                 0.0000
     49 ****        -1.3604   2.6862   2.1918 H              1 S1                 0.0000
     50 ****        -0.8117   2.9386   0.5528 H              1 S1                 0.0000
     51 ****        -3.1472   3.4109   0.6990 H              1 S1                 0.0000
     52 ****        -2.9174   2.0717  -0.3867 H              1 S1                 0.0000
     53 ****        -5.4970   2.0401   0.1673 H              1 S1                 0.0000
     54 ****        -4.9747   3.6858   2.7505 H              1 S1                 0.0000
     55 ****        -6.2752   3.9823   1.4859 H              1 S1                 0.0000
     56 ****        -5.8702   1.4070   3.1811 H              1 S1                 0.0000
     57 ****        -7.9083   2.0528   0.9559 H              1 S1                 0.0000
     58 ****        -8.3040   1.8470   2.6699 H              1 S1                 0.0000
     59 ****        -7.7188   0.4690   1.7244 H              1 S1                 0.0000
     60 ****        -3.5774   0.0956   0.0154 H              1 S1                 0.0000
     61 ****        -4.7149  -0.2809   1.2674 H              1 S1                 0.0000
     62 ****        -1.2219   0.5832   0.2940 LP             1 S1                 0.0000
     63 ****         0.8996   2.6333   1.9101 LP             1 S1                 0.0000
     64 ****         4.3411   0.7092   0.7937 LP             1 S1                 0.0000
     65 ****        -0.3095  -1.7614  -0.2632 LP             1 S1                 0.0000
     66 ****         5.5946   0.1911  -1.0943 LP             1 S1                 0.0000
     67 ****         4.0804   0.4022  -1.6682 LP             1 S1                 0.0000
     68 ****         5.5513  -3.1249  -4.4721 LP             1 S1                 0.0000
     69 ****         6.1059  -1.9764  -5.4920 LP             1 S1                 0.0000
     70 ****        -3.5751   1.6892   2.4535 LP             1 S1                 0.0000
@<TRIPOS>BOND
    1    1    2 1     
    2    1   30 1     
    3    1   31 1     
    4    1   32 1     
    5    2   29 1     
    6    2    3 1     
    7    2   33 1     
    8    3    4 1     
    9    3   34 1     
   10    3   35 1     
   11    4    5 1     
   12    4   22 1     
   13    5   10 ar    
   14    5    6 ar    
   15    6    7 ar    
   16    7    8 ar    
   17    7   36 1     
   18    8    9 ar    
   19    9   13 1     
   20    9   10 ar    
   21   10   11 1     
   22   11   12 2     
   23   12   13 1     
   24   12   37 1     
   25   13   14 1     
   26   14   15 1     
   27   14   38 1     
   28   14   39 1     
   29   15   21 1     
   30   15   16 1     
   31   15   17 1     
   32   16   40 1     
   33   17   18 1     
   34   17   41 1     
   35   17   42 1     
   36   18   19 1     
   37   18   43 1     
   38   18   44 1     
   39   19   20 1     
   40   20   21 1     
   41   20   45 1     
   42   20   46 1     
   43   21   47 1     
   44   21   48 1     
   45   22   23 1     
   46   22   49 1     
   47   22   50 1     
   48   23   24 1     
   49   23   51 1     
   50   23   52 1     
   51   24   25 1     
   52   24   29 1     
   53   25   27 1     
   54   25   26 1     
   55   25   53 1     
   56   26   27 1     
   57   26   54 1     
   58   26   55 1     
   59   27   28 1     
   60   27   56 1     
   61   28   57 1     
   62   28   58 1     
   63   28   59 1     
   64   29   60 1     
   65   29   61 1     
   66    4   62 1     
   67    6   63 1     
   68    8   64 1     
   69   11   65 1     
   70   16   66 1     
   71   16   67 1     
   72   19   68 1     
   73   19   69 1     
   74   24   70 1     
@<TRIPOS>SUBSTRUCTURE
      1 S1             1
@<TRIPOS>SET
LONE_PAIRS      STATIC     ATOMS    <user>   **** ""
9 62 63 64 65 66 67 68 69 70
DONOR_HYDROGENS      STATIC     ATOMS    <user>   **** ""
1 40
ATOM$BLUE        STATIC     ATOMS    COLORGROUP SYSTEM
9 62 63 64 65 66 67 68 69 70
ATOM$RED        STATIC     ATOMS    COLORGROUP SYSTEM
1 40
