AV-unprocessed.smi:2138|AV-procd|sdf|8710|dock3
  -GOLD-   2272011473D 1   1.00000     0.00000
 Structure written by MMmdl.
 46 47  0  0  0  0  0  0  0  0  1 V2000
  140.9990  145.8960  160.9296 C   0  0  0  0  0  0  0  0  0  0  0  0
  140.7880  144.5524  161.3261 O   0  0  0  0  0  0  0  0  0  0  0  0
  140.9286  143.6395  160.2505 C   0  0  0  0  0  0  0  0  0  0  0  0
  142.3055  143.8317  159.6080 C   0  0  0  0  0  0  0  0  0  0  0  0
  142.6519  142.6431  158.9107 O   0  0  0  0  0  0  0  0  0  0  0  0
  143.9549  142.4942  158.4897 C   0  0  0  0  0  0  0  0  0  0  0  0
  144.4966  141.2983  157.9561 C   0  0  0  0  0  0  0  0  0  0  0  0
  145.8491  141.2855  157.5654 C   0  0  0  0  0  0  0  0  0  0  0  0
  146.6248  142.4504  157.7253 C   0  0  0  0  0  0  0  0  0  0  0  0
  147.9821  142.4149  157.3067 N   0  0  0  0  0  0  0  0  0  0  0  0
  148.8582  141.3978  157.4014 C   0  0  0  0  0  0  0  0  0  0  0  0
  148.5912  140.2880  157.8625 O   0  0  0  0  0  0  0  0  0  0  0  0
  150.2709  141.6771  156.8632 C   0  0  2  0  0  0  0  0  0  0  0  0
  151.1916  140.4538  157.0306 C   0  0  0  0  0  0  0  0  0  0  0  0
  152.2442  140.9139  158.0240 C   0  0  0  0  0  0  0  0  0  0  0  0
  153.1236  140.1647  158.4471 O   0  0  0  0  0  0  0  0  0  0  0  0
  152.0810  142.2028  158.3501 N   0  0  0  0  0  0  0  0  0  0  0  0
  152.9584  142.9648  159.2510 C   0  0  0  0  0  0  0  0  0  0  0  0
  153.0844  142.3266  160.6456 C   0  0  0  0  0  0  0  0  0  0  0  0
  152.5017  144.4300  159.3306 C   0  0  0  0  0  0  0  0  0  0  0  0
  150.9753  142.8201  157.6263 C   0  0  0  0  0  0  0  0  0  0  0  0
  145.9867  143.5973  158.2552 C   0  0  0  0  0  0  0  0  0  0  0  0
  144.6904  143.6179  158.6299 N   0  0  0  0  0  0  0  0  0  0  0  0
  140.8805  146.5546  161.7900 H   0  0  0  0  0  0  0  0  0  0  0  0
  140.2770  146.2006  160.1710 H   0  0  0  0  0  0  0  0  0  0  0  0
  142.0052  146.0376  160.5330 H   0  0  0  0  0  0  0  0  0  0  0  0
  140.8060  142.6101  160.5906 H   0  0  0  0  0  0  0  0  0  0  0  0
  140.1509  143.8356  159.5109 H   0  0  0  0  0  0  0  0  0  0  0  0
  142.2598  144.6632  158.9030 H   0  0  0  0  0  0  0  0  0  0  0  0
  143.0454  144.0747  160.3724 H   0  0  0  0  0  0  0  0  0  0  0  0
  143.9087  140.4007  157.8392 H   0  0  0  0  0  0  0  0  0  0  0  0
  146.2841  140.3865  157.1532 H   0  0  0  0  0  0  0  0  0  0  0  0
  148.3094  143.2387  156.8233 H   0  0  0  0  0  0  0  0  0  0  0  0
  150.2046  141.9396  155.8057 H   0  0  0  0  0  0  0  0  0  0  0  0
  150.6803  139.5656  157.4058 H   0  0  0  0  0  0  0  0  0  0  0  0
  151.6714  140.1911  156.0874 H   0  0  0  0  0  0  0  0  0  0  0  0
  153.9612  142.9574  158.8202 H   0  0  0  0  0  0  0  0  0  0  0  0
  153.8188  142.8598  161.2499 H   0  0  0  0  0  0  0  0  0  0  0  0
  153.4118  141.2888  160.5764 H   0  0  0  0  0  0  0  0  0  0  0  0
  152.1392  142.3493  161.1890 H   0  0  0  0  0  0  0  0  0  0  0  0
  153.1779  145.0173  159.9525 H   0  0  0  0  0  0  0  0  0  0  0  0
  151.5021  144.5103  159.7587 H   0  0  0  0  0  0  0  0  0  0  0  0
  152.4795  144.8932  158.3437 H   0  0  0  0  0  0  0  0  0  0  0  0
  151.3695  143.5620  156.9307 H   0  0  0  0  0  0  0  0  0  0  0  0
  150.2972  143.3384  158.3058 H   0  0  0  0  0  0  0  0  0  0  0  0
  146.5043  144.5371  158.3697 H   0  0  0  0  0  0  0  0  0  0  0  0
  1  2  1  0  0  0  0
  1 24  1  0  0  0  0
  1 25  1  0  0  0  0
  1 26  1  0  0  0  0
  2  3  1  0  0  0  0
  3  4  1  0  0  0  0
  3 27  1  0  0  0  0
  3 28  1  0  0  0  0
  4  5  1  0  0  0  0
  4 29  1  0  0  0  0
  4 30  1  0  0  0  0
  5  6  1  0  0  0  0
  6 23  1  0  0  0  0
  6  7  2  0  0  0  0
  7  8  1  0  0  0  0
  7 31  1  0  0  0  0
  8  9  2  0  0  0  0
  8 32  1  0  0  0  0
  9 10  1  0  0  0  0
  9 22  1  0  0  0  0
 10 11  1  0  0  0  0
 10 33  1  0  0  0  0
 11 12  2  0  0  0  0
 11 13  1  0  0  0  0
 13 21  1  0  0  0  0
 13 14  1  0  0  0  0
 13 34  1  0  0  0  0
 14 15  1  0  0  0  0
 14 35  1  0  0  0  0
 14 36  1  0  0  0  0
 15 16  2  0  0  0  0
 15 17  1  0  0  0  0
 17 18  1  0  0  0  0
 17 21  1  0  0  0  0
 18 19  1  0  0  0  0
 18 20  1  0  0  0  0
 18 37  1  0  0  0  0
 19 38  1  0  0  0  0
 19 39  1  0  0  0  0
 19 40  1  0  0  0  0
 20 41  1  0  0  0  0
 20 42  1  0  0  0  0
 20 43  1  0  0  0  0
 21 44  1  0  0  0  0
 21 45  1  0  0  0  0
 22 23  2  0  0  0  0
 22 46  1  0  0  0  0
M  END
> <s_m_source_file>
AV-unprocessed.smi

> <i_m_source_file_index>
2138

> <i_lp_mmshare_version>
43012

> <i_f3d_flags>
0

> <s_epik_input>
W0NIM11PW0NIMl1bQ0gyXU9jMVtjSF1bY0hdYyhbY0hdbjEpW05IXUMoPU8pW0NAQEhdMltDSDJdQyg9TylOKFtDSDJdMilbQ0hdKFtDSDNdKVtDSDNd

> <s_epik_cmdline>
J2VwaWtfcHl0aG9uJywgJy1waCcsICc3LjAnLCAnLXRuJywgJzgnLCAnLW1hJywgJzIwMCcsICctbWV0YWxfYmluZGluZycsICctaW1hZScsICc8aW5maWxlLm1hZT4nLCAnLW9tYWUnLCAnPG91dGZpbGUubWFlPic=

> <r_lp_tautomer_probability>
1

> <r_epik_Ionization_Penalty>
1.72652e-05

> <r_epik_Ionization_Penalty_Charging>
0

> <r_epik_Ionization_Penalty_Neutral>
1.72652e-05

> <r_epik_State_Penalty>
-0

> <r_epik_Charging_Adjusted_Penalty>
0

> <i_epik_Tot_Q>
0

> <i_epik_Tot_abs_Q>
0

> <r_epik_Metal_State_Penalty>
-0

> <b_epik_Metal_Only>
0

> <s_lp_Force_Field>
OPLS_2005

> <r_lp_Energy>
27.6576

> <b_lp_Chiralities_Consistent>
1

> <s_lp_Variant>
AV-unprocessed.smi:2138-1

> <Gold.Version>
5.8.1

> <Gold.Id.Protein>
6NUR|6NUR_protein|mol2

> <Gold.PLP.Fitness>
40.8730

> <Gold.PLP.PLP>
-32.8047

> <Gold.PLP.part.hbond>
-3.0000

> <Gold.PLP.part.metal>
0.0000

> <Gold.PLP.part.buried>
-3.5967

> <Gold.PLP.part.nonpolar>
-25.2716

> <Gold.PLP.part.repulsive>
0.1157

> <Gold.PLP.ligand.clash>
0.0000

> <Gold.PLP.ligand.torsion>
0.5460

> <Gold.PLP.Chemscore.Hbond>
1.9920

> <Gold.PLP.Chemscore.CHOScore>
1.0000

> <Gold.PLP.Chemscore.Metal>
0.0000

> <Gold.Chemscore.Hbonds>
donor molecule, donor type, donor heavy atom, donor atom, acceptor molecule, acceptor atom, score
      L1  H    10    33       P1  8028  1.00
      P1  H  7997  8010       L1    16  0.95
      L1  C    22    46       P1  8029  1.00

> <Gold.PLP.Chemscore.Internal.Correction>
0.1844

> <Gold.Rescore>
     Score         DG    S(hbond)    S(metal)    S(lipo)     H(rot)  DE(clash)    DE(int)     intcor
     11.89     -13.74       1.53        0.00      70.84       2.00       0.11       1.74       ----

> <Gold.Chemscore.Fitness>
11.8857

> <Gold.Chemscore.DG>
-13.7407

> <Gold.Chemscore.ZeroCoef>
-5.4800

> <Gold.Chemscore.Hbond>
1.5273

> <Gold.Chemscore.Metal>
0.0000

> <Gold.Chemscore.Lipo>
70.8419

> <Gold.Chemscore.Internal_Hbond>
0.0000

> <Gold.Chemscore.DEClash>
0.1142

> <Gold.Chemscore.DEInternal>
1.7409

> <Gold.Chemscore.Rot>
2.0035

> <Gold.Chemscore.Internal.Correction>
   9.000000E+99

> <Gold.Chemscore.Hbonds>
donor molecule, donor type, donor heavy atom, donor atom, acceptor molecule, acceptor atom, score
      L1  H    10    33       P1  8028  0.25
      P1  H  7997  8010       L1    16  0.56

> <Gold.Chemscore.Hbond.Weighted>
-5.1013

> <Gold.Chemscore.Metal.Weighted>
-0.0000

> <Gold.Chemscore.Lipo.Weighted>
-8.2885

> <Gold.Chemscore.Internal_Hbond.Weighted>
0.0000

> <Gold.Chemscore.DEClash.Weighted>
0.1142

> <Gold.Chemscore.DEInternal.Weighted>
1.7409

> <Gold.Chemscore.Rot.Weighted>
5.1290

> <Gold.Chemscore.Internal.Correction.Weighted>
   9.000000E+99

> <Gold.Protein.RotatedTorsions>
[ 6907 6896 6895 6894 ] final   30.13 input  -60.11 | X-H torsion
[ 7974 7965 7964 7962 ] final  169.48 input  175.53 | X-H torsion
[ 8008 7997 7996 7995 ] final   35.60 input   59.86 | X-H torsion
[ 10167 10162 10161 10158 ] final   32.34 input  -65.29 | X-H torsion
[ 10718 10713 10712 10709 ] final  161.55 input   66.30 | X-H torsion
[ 10763 10752 10751 10750 ] final    4.10 input  -60.55 | X-H torsion
[ 11005 11000 10999 10996 ] final   62.81 input  -57.11 | X-H torsion

> <Gold.Protein.ActiveResidues>
 VAL166  LYS551  ARG553  GLY616  TRP617  ASP618  TYR619  PRO620  LYS621  CYS622 
 ASP623  PHE694  ASN695  SER759  ASP760  ASP761  ALA762  ILE779  LEU786  VAL792 
 PHE793  MET794  SER795  GLU796  ALA797  LYS798  CYS799  TRP800  GLU811  SER814 

> <Gold.Protein.RotatedAtoms>
  152.0416  134.9708  160.0573 H   0  0  0  0  0  0  0  0  0  0  0  0  # atno 6907 bound_to 6896
  152.1144  133.4314  159.4654 H   0  0  0  0  0  0  0  0  0  0  0  0  # atno 6908 bound_to 6896
  150.6845  134.2528  159.4561 H   0  0  0  0  0  0  0  0  0  0  0  0  # atno 6909 bound_to 6896
  144.7354  139.9061  143.6412 H   0  0  0  0  0  0  0  0  0  0  0  0  # atno 7974 bound_to 7965
  155.1737  140.3294  155.4388 H   0  0  0  0  0  0  0  0  0  0  0  0  # atno 8008 bound_to 7997
  156.2501  140.1939  156.6789 H   0  0  0  0  0  0  0  0  0  0  0  0  # atno 8009 bound_to 7997
  154.6319  140.0581  156.9729 H   0  0  0  0  0  0  0  0  0  0  0  0  # atno 8010 bound_to 7997
  140.4507  144.1052  150.6191 H   0  0  0  0  0  0  0  0  0  0  0  0  # atno 10167 bound_to 10162
  157.1350  131.0526  151.2354 H   0  0  0  0  0  0  0  0  0  0  0  0  # atno 10718 bound_to 10713
  153.2753  135.6936  153.7439 H   0  0  0  0  0  0  0  0  0  0  0  0  # atno 10763 bound_to 10752
  153.6447  135.3387  155.3083 H   0  0  0  0  0  0  0  0  0  0  0  0  # atno 10764 bound_to 10752
  154.8477  135.4440  154.1789 H   0  0  0  0  0  0  0  0  0  0  0  0  # atno 10765 bound_to 10752
  140.0067  134.6359  155.9844 H   0  0  0  0  0  0  0  0  0  0  0  0  # atno 11005 bound_to 11000
  146.1036  139.4033  143.0331 LP  0  0  0  0  0  0  0  0  0  0  0  0  # atno 17320 bound_to 7965
  145.7544  140.9960  143.1233 LP  0  0  0  0  0  0  0  0  0  0  0  0  # atno 17321 bound_to 7965
  140.4210  143.2611  151.9715 LP  0  0  0  0  0  0  0  0  0  0  0  0  # atno 17342 bound_to 10162
  139.4796  144.5830  151.7900 LP  0  0  0  0  0  0  0  0  0  0  0  0  # atno 17343 bound_to 10162
  157.4358  130.7516  149.7028 LP  0  0  0  0  0  0  0  0  0  0  0  0  # atno 17370 bound_to 10713
  155.9800  130.4034  150.3554 LP  0  0  0  0  0  0  0  0  0  0  0  0  # atno 17371 bound_to 10713
  141.1682  133.6537  156.4555 LP  0  0  0  0  0  0  0  0  0  0  0  0  # atno 17394 bound_to 11000
  140.4628  134.6825  157.5093 LP  0  0  0  0  0  0  0  0  0  0  0  0  # atno 17395 bound_to 11000

$$$$
