#       Name:                AV-unprocessed.smi:1433
#       Creating user name   scv26
#       Creation time:       Fri Mar 27 05:50:34 2020


#       File generated by GOLD software.
#

@<TRIPOS>MOLECULE
AV-unprocessed.smi:1433
    50    51     1
SMALL
NO_CHARGES


@<TRIPOS>ATOM
      1 ****        -0.6999  -3.6128  -2.9336 C.3            1 S1                 0.0000
      2 ****        -1.1189  -2.1405  -2.8575 C.3            1 S1                 0.0000
      3 ****        -0.6125  -1.4641  -1.5701 C.3            1 S1                 0.0000
      4 ****        -1.1069  -0.0645  -1.4738 N.4            1 S1                 1.0000
      5 ****        -0.6104   0.7347  -0.3060 C.3            1 S1                 0.0000
      6 ****        -0.6456   2.2395  -0.6528 C.3            1 S1                 0.0000
      7 ****         0.8058   0.3257   0.1895 C.3            1 S1                 0.0000
      8 ****         1.2692   1.1161   1.3262 N.am           1 S1                 0.0000
      9 ****         0.8330   0.9820   2.5887 C.2            1 S1                 0.0000
     10 ****        -0.0379   0.1792   2.9236 O.2            1 S1                 0.0000
     11 ****         1.4825   1.8877   3.6352 C.3            1 S1                 0.0000
     12 ****         2.6589   1.2583   4.2067 N.pl3          1 S1                 0.0000
     13 ****         2.7354   0.4151   5.2958 C.2            1 S1                 0.0000
     14 ****         4.0471   0.0684   5.4501 C.2            1 S1                 0.0000
     15 ****         4.7053   0.7571   4.3931 C.2            1 S1                 0.0000
     16 ****         3.8724   1.4684   3.6501 N.2            1 S1                 0.0000
     17 ****        -2.5914  -0.0569  -1.5703 C.3            1 S1                 0.0000
     18 ****        -3.0866  -0.7726  -2.8412 C.3            1 S1                 0.0000
     19 ****        -2.8484   0.0286  -4.1336 C.3            1 S1                 0.0000
     20 ****        -2.5404  -2.0879  -2.9047 O.3            1 S1                 0.0000
     21 ****         0.3856  -3.7140  -2.9139 H              1 S1                 0.0000
     22 ****        -1.0588  -4.0729  -3.8546 H              1 S1                 0.0000
     23 ****        -1.1046  -4.1830  -2.0969 H              1 S1                 0.0000
     24 ****        -0.7034  -1.6293  -3.7262 H              1 S1                 0.0000
     25 ****        -0.9310  -2.0264  -0.6905 H              1 S1                 0.0000
     26 ****         0.4763  -1.4881  -1.6007 H              1 S1                 0.0000
     27 ****        -1.2998   0.5597   0.5213 H              1 S1                 0.0000
     28 ****        -0.3610   2.8574   0.1988 H              1 S1                 0.0000
     29 ****        -1.6368   2.5752  -0.9530 H              1 S1                 0.0000
     30 ****         0.0398   2.4693  -1.4692 H              1 S1                 0.0000
     31 ****         0.8350  -0.7223   0.4916 H              1 S1                 0.0000
     32 ****         1.5334   0.4430  -0.6144 H              1 S1                 0.0000
     33 ****         1.9930   1.7974   1.1461 H              1 S1                 0.0000
     34 ****         1.7601   2.8464   3.1938 H              1 S1                 0.0000
     35 ****         0.7715   2.0974   4.4356 H              1 S1                 0.0000
     36 ****         1.8593   0.1343   5.8620 H              1 S1                 0.0000
     37 ****         4.4718  -0.5795   6.2025 H              1 S1                 0.0000
     38 ****         5.7564   0.7603   4.1448 H              1 S1                 0.0000
     39 ****        -3.0034  -0.5587  -0.6930 H              1 S1                 0.0000
     40 ****        -2.9844   0.9586  -1.5562 H              1 S1                 0.0000
     41 ****        -4.1654  -0.9019  -2.7477 H              1 S1                 0.0000
     42 ****        -3.3915   0.9736  -4.1072 H              1 S1                 0.0000
     43 ****        -3.1982  -0.5263  -5.0044 H              1 S1                 0.0000
     44 ****        -1.7963   0.2660  -4.2880 H              1 S1                 0.0000
     45 ****        -0.7565   0.4026  -2.2980 H              1 S1                 0.0000
     46 ****        -0.4590  -0.4161   2.2393 LP             1 S1                 0.0000
     47 ****        -0.3244   0.1223   3.8800 LP             1 S1                 0.0000
     48 ****         4.0917   2.0342   2.8554 LP             1 S1                 0.0000
     49 ****        -2.8981  -2.6121  -2.1318 LP             1 S1                 0.0000
     50 ****        -2.8402  -2.5094  -3.7605 LP             1 S1                 0.0000
@<TRIPOS>BOND
    1    1    2 1     
    2    1   21 1     
    3    1   22 1     
    4    1   23 1     
    5    2   20 1     
    6    2    3 1     
    7    2   24 1     
    8    3    4 1     
    9    3   25 1     
   10    3   26 1     
   11    4    5 1     
   12    4   17 1     
   13    4   45 1     
   14    5    6 1     
   15    5    7 1     
   16    5   27 1     
   17    6   28 1     
   18    6   29 1     
   19    6   30 1     
   20    7    8 1     
   21    7   31 1     
   22    7   32 1     
   23    8    9 am    
   24    8   33 1     
   25    9   10 2     
   26    9   11 1     
   27   11   12 1     
   28   11   34 1     
   29   11   35 1     
   30   12   16 1     
   31   12   13 1     
   32   13   14 2     
   33   13   36 1     
   34   14   15 1     
   35   14   37 1     
   36   15   16 2     
   37   15   38 1     
   38   17   18 1     
   39   17   39 1     
   40   17   40 1     
   41   18   19 1     
   42   18   20 1     
   43   18   41 1     
   44   19   42 1     
   45   19   43 1     
   46   19   44 1     
   47   10   46 1     
   48   10   47 1     
   49   16   48 1     
   50   20   49 1     
   51   20   50 1     
@<TRIPOS>SUBSTRUCTURE
      1 S1             1
@<TRIPOS>SET
LONE_PAIRS      STATIC     ATOMS    <user>   **** ""
5 46 47 48 49 50
DONOR_HYDROGENS      STATIC     ATOMS    <user>   **** ""
2 45 33
ATOM$BLUE        STATIC     ATOMS    COLORGROUP SYSTEM
5 46 47 48 49 50
ATOM$RED        STATIC     ATOMS    COLORGROUP SYSTEM
2 45 33
