AV-unprocessed.smi:198|AV-procd|sdf|1556|dock8
  -GOLD-   2262019423D 1   1.00000     0.00000
 Structure written by MMmdl.
 59 63  0  0  0  0  0  0  0  0  2 V2000
  145.6602  132.4037  150.0377 C   0  0  0  0  0  0  0  0  0  0  0  0
  146.5149  131.9449  151.1540 N   0  3  1  0  0  0  0  0  0  0  0  0
  147.1504  133.0733  151.8772 C   0  0  0  0  0  0  0  0  0  0  0  0
  148.1426  132.5604  152.9311 C   0  0  0  0  0  0  0  0  0  0  0  0
  147.4469  131.6021  153.9219 C   0  0  1  0  0  0  0  0  0  0  0  0
  146.7247  130.4614  153.1667 C   0  0  2  0  0  0  0  0  0  0  0  0
  147.7181  129.4132  152.6235 C   0  0  0  0  0  0  0  0  0  0  0  0
  148.6210  128.8983  153.7532 C   0  0  0  0  0  0  0  0  0  0  0  0
  149.3337  130.0579  154.4654 C   0  0  0  0  0  0  0  0  0  0  0  0
  148.3687  131.0592  154.9279 N   0  0  0  0  0  0  0  0  0  0  0  0
  148.7840  131.9394  155.8764 C   0  0  0  0  0  0  0  0  0  0  0  0
  149.9789  132.5725  155.7302 N   0  0  0  0  0  0  0  0  0  0  0  0
  150.3909  133.4580  156.6416 C   0  0  0  0  0  0  0  0  0  0  0  0
  149.7745  133.8558  157.7555 N   0  0  0  0  0  0  0  0  0  0  0  0
  148.5778  133.2209  157.9143 C   0  0  0  0  0  0  0  0  0  0  0  0
  148.0146  132.2546  157.0328 C   0  0  0  0  0  0  0  0  0  0  0  0
  146.7956  131.8139  157.5340 N   0  0  0  0  0  0  0  0  0  0  0  0
  146.6440  132.4852  158.6427 C   0  0  0  0  0  0  0  0  0  0  0  0
  147.6590  133.3675  158.9400 N   0  0  0  0  0  0  0  0  0  0  0  0
  147.7553  134.2167  160.0942 C   0  0  0  0  0  0  0  0  0  0  0  0
  147.4349  133.6743  161.4874 C   0  0  0  0  0  0  0  0  0  0  0  0
  146.8000  135.0274  161.8821 C   0  0  0  0  0  0  0  0  0  0  0  0
  145.4317  134.9258  162.5733 C   0  0  0  0  0  0  0  0  0  0  0  0
  144.5885  134.0024  161.9147 O   0  0  0  0  0  0  0  0  0  0  0  0
  147.6631  135.9951  162.7226 C   0  0  0  0  0  0  0  0  0  0  0  0
  147.4000  137.3565  162.4504 O   0  0  0  0  0  0  0  0  0  0  0  0
  146.7290  135.3218  160.3661 C   0  0  0  0  0  0  0  0  0  0  0  0
  145.7959  131.0257  152.0721 C   0  0  0  0  0  0  0  0  0  0  0  0
  144.8209  132.9957  150.4054 H   0  0  0  0  0  0  0  0  0  0  0  0
  145.2624  131.5536  149.4825 H   0  0  0  0  0  0  0  0  0  0  0  0
  146.2322  133.0169  149.3405 H   0  0  0  0  0  0  0  0  0  0  0  0
  147.6755  133.7138  151.1675 H   0  0  0  0  0  0  0  0  0  0  0  0
  146.3816  133.6864  152.3503 H   0  0  0  0  0  0  0  0  0  0  0  0
  148.9750  132.0645  152.4316 H   0  0  0  0  0  0  0  0  0  0  0  0
  148.5705  133.4087  153.4666 H   0  0  0  0  0  0  0  0  0  0  0  0
  146.6714  132.1748  154.4285 H   0  0  0  0  0  0  0  0  0  0  0  0
  146.0896  129.9445  153.8881 H   0  0  0  0  0  0  0  0  0  0  0  0
  147.1770  128.5784  152.1766 H   0  0  0  0  0  0  0  0  0  0  0  0
  148.3328  129.8408  151.8311 H   0  0  0  0  0  0  0  0  0  0  0  0
  148.0202  128.3440  154.4755 H   0  0  0  0  0  0  0  0  0  0  0  0
  149.3550  128.1958  153.3575 H   0  0  0  0  0  0  0  0  0  0  0  0
  149.8950  129.6624  155.3132 H   0  0  0  0  0  0  0  0  0  0  0  0
  150.0568  130.5238  153.7953 H   0  0  0  0  0  0  0  0  0  0  0  0
  151.3502  133.9155  156.4491 H   0  0  0  0  0  0  0  0  0  0  0  0
  145.7800  132.3505  159.2768 H   0  0  0  0  0  0  0  0  0  0  0  0
  148.7582  134.6445  160.0804 H   0  0  0  0  0  0  0  0  0  0  0  0
  146.7107  132.8584  161.4575 H   0  0  0  0  0  0  0  0  0  0  0  0
  148.3124  133.3933  162.0708 H   0  0  0  0  0  0  0  0  0  0  0  0
  145.5366  134.6274  163.6171 H   0  0  0  0  0  0  0  0  0  0  0  0
  144.9252  135.8914  162.5784 H   0  0  0  0  0  0  0  0  0  0  0  0
  143.8356  133.8398  162.4624 H   0  0  0  0  0  0  0  0  0  0  0  0
  147.4956  135.8340  163.7879 H   0  0  0  0  0  0  0  0  0  0  0  0
  148.7259  135.8282  162.5456 H   0  0  0  0  0  0  0  0  0  0  0  0
  146.9546  137.7313  163.1949 H   0  0  0  0  0  0  0  0  0  0  0  0
  147.0626  136.3196  160.0787 H   0  0  0  0  0  0  0  0  0  0  0  0
  145.7481  135.1095  159.9398 H   0  0  0  0  0  0  0  0  0  0  0  0
  144.9678  131.5646  152.5356 H   0  0  0  0  0  0  0  0  0  0  0  0
  145.3544  130.2062  151.5034 H   0  0  0  0  0  0  0  0  0  0  0  0
  147.2645  131.4097  150.7392 H   0  0  0  0  0  0  0  0  0  0  0  0
  1  2  1  0  0  0  0
  1 29  1  0  0  0  0
  1 30  1  0  0  0  0
  1 31  1  0  0  0  0
  2 28  1  0  0  0  0
  2  3  1  0  0  0  0
  2 59  1  0  0  0  0
  3  4  1  0  0  0  0
  3 32  1  0  0  0  0
  3 33  1  0  0  0  0
  4  5  1  0  0  0  0
  4 34  1  0  0  0  0
  4 35  1  0  0  0  0
  5 10  1  0  0  0  0
  5  6  1  0  0  0  0
  5 36  1  0  0  0  0
  6  7  1  0  0  0  0
  6 28  1  0  0  0  0
  6 37  1  0  0  0  0
  7  8  1  0  0  0  0
  7 38  1  0  0  0  0
  7 39  1  0  0  0  0
  8  9  1  0  0  0  0
  8 40  1  0  0  0  0
  8 41  1  0  0  0  0
  9 10  1  0  0  0  0
  9 42  1  0  0  0  0
  9 43  1  0  0  0  0
 10 11  1  0  0  0  0
 11 16  1  0  0  0  0
 11 12  2  0  0  0  0
 12 13  1  0  0  0  0
 13 14  2  0  0  0  0
 13 44  1  0  0  0  0
 14 15  1  0  0  0  0
 15 19  1  0  0  0  0
 15 16  2  0  0  0  0
 16 17  1  0  0  0  0
 17 18  2  0  0  0  0
 18 19  1  0  0  0  0
 18 45  1  0  0  0  0
 19 20  1  0  0  0  0
 20 27  1  0  0  0  0
 20 21  1  0  0  0  0
 20 46  1  0  0  0  0
 21 22  1  0  0  0  0
 21 47  1  0  0  0  0
 21 48  1  0  0  0  0
 22 23  1  0  0  0  0
 22 25  1  0  0  0  0
 22 27  1  0  0  0  0
 23 24  1  0  0  0  0
 23 49  1  0  0  0  0
 23 50  1  0  0  0  0
 24 51  1  0  0  0  0
 25 26  1  0  0  0  0
 25 52  1  0  0  0  0
 25 53  1  0  0  0  0
 26 54  1  0  0  0  0
 27 55  1  0  0  0  0
 27 56  1  0  0  0  0
 28 57  1  0  0  0  0
 28 58  1  0  0  0  0
M  CHG  1   2   1
M  END
> <s_m_source_file>
AV-unprocessed.smi

> <i_m_source_file_index>
198

> <i_lp_mmshare_version>
43012

> <i_f3d_flags>
0

> <s_epik_input>
W0NIMl0xW0NIMl1OKFtDSDNdKVtDSDJdW0NAQEhdKFtDQEhdMTIpW0NIMl1bQ0gyXVtDSDJdTjJjKG5bY0hdbjMpYyhjMzQpbltjSF1uNFtDSF0oW0NIMl01KVtDSDJdQzUoW0NIMl1bT0hdKVtDSDJdW09IXQ==

> <s_epik_cmdline>
J2VwaWtfcHl0aG9uJywgJy1waCcsICc3LjAnLCAnLXRuJywgJzgnLCAnLW1hJywgJzIwMCcsICctbWV0YWxfYmluZGluZycsICctaW1hZScsICc8aW5maWxlLm1hZT4nLCAnLW9tYWUnLCAnPG91dGZpbGUubWFlPic=

> <r_lp_tautomer_probability>
1

> <r_epik_Ionization_Penalty>
0.00239938

> <r_epik_Ionization_Penalty_Charging>
0.00138697

> <r_epik_Ionization_Penalty_Neutral>
0.00101241

> <r_epik_State_Penalty>
-0

> <r_epik_Charging_Adjusted_Penalty>
0.00138697

> <i_epik_Tot_Q>
1

> <i_epik_Tot_abs_Q>
1

> <r_epik_Metal_State_Penalty>
-0

> <b_epik_Metal_Only>
0

> <s_lp_Force_Field>
OPLS_2005

> <r_lp_Energy>
58.4616

> <b_lp_Chiralities_Consistent>
1

> <s_lp_Variant>
AV-unprocessed.smi:198-5

> <Gold.Version>
5.8.1

> <Gold.Id.Protein>
6NUR|6NUR_protein|mol2

> <Gold.PLP.Fitness>
50.1216

> <Gold.PLP.PLP>
-42.7571

> <Gold.PLP.part.hbond>
-4.0000

> <Gold.PLP.part.metal>
0.0000

> <Gold.PLP.part.buried>
-4.1469

> <Gold.PLP.part.nonpolar>
-34.4613

> <Gold.PLP.part.repulsive>
0.0335

> <Gold.PLP.ligand.clash>
0.0000

> <Gold.PLP.ligand.torsion>
1.0806

> <Gold.PLP.Chemscore.Hbond>
2.8718

> <Gold.PLP.Chemscore.CHOScore>
0.0000

> <Gold.PLP.Chemscore.Metal>
0.0000

> <Gold.Chemscore.Hbonds>
donor molecule, donor type, donor heavy atom, donor atom, acceptor molecule, acceptor atom, score
      L1  H     2    59       P1 10747  1.00
      P1  H  6896  6909       L1    14  0.85
      P1  H  6931  6943       L1    26  0.74
      P1  H  6934  6947       L1    26  0.23

> <Gold.PLP.Chemscore.Internal.Correction>
0.9103

> <Gold.Rescore>
     Score         DG    S(hbond)    S(metal)    S(lipo)     H(rot)  DE(clash)    DE(int)     intcor
     15.07     -16.66       2.19        0.00     100.49       3.08       0.52       1.07       ----

> <Gold.Chemscore.Fitness>
15.0681

> <Gold.Chemscore.DG>
-16.6584

> <Gold.Chemscore.ZeroCoef>
-5.4800

> <Gold.Chemscore.Hbond>
2.1860

> <Gold.Chemscore.Metal>
0.0000

> <Gold.Chemscore.Lipo>
100.4874

> <Gold.Chemscore.Internal_Hbond>
0.0000

> <Gold.Chemscore.DEClash>
0.5176

> <Gold.Chemscore.DEInternal>
1.0726

> <Gold.Chemscore.Rot>
3.0781

> <Gold.Chemscore.Internal.Correction>
   9.000000E+99

> <Gold.Chemscore.Hbonds>
donor molecule, donor type, donor heavy atom, donor atom, acceptor molecule, acceptor atom, score
      L1  H     2    59       P1 10747  1.00
      P1  H  6896  6909       L1    14  0.73
      P1  H  6931  6943       L1    26  0.52
      P1  H  6934  6947       L1    26  0.06

> <Gold.Chemscore.Hbond.Weighted>
-7.3013

> <Gold.Chemscore.Metal.Weighted>
-0.0000

> <Gold.Chemscore.Lipo.Weighted>
-11.7570

> <Gold.Chemscore.Internal_Hbond.Weighted>
0.0000

> <Gold.Chemscore.DEClash.Weighted>
0.5176

> <Gold.Chemscore.DEInternal.Weighted>
1.0726

> <Gold.Chemscore.Rot.Weighted>
7.8800

> <Gold.Chemscore.Internal.Correction.Weighted>
   9.000000E+99

> <Gold.Protein.RotatedTorsions>
[ 6907 6896 6895 6894 ] final   30.54 input  -60.11 | X-H torsion
[ 7974 7965 7964 7962 ] final  160.39 input  175.53 | X-H torsion
[ 8008 7997 7996 7995 ] final  123.54 input   59.86 | X-H torsion
[ 10167 10162 10161 10158 ] final -159.36 input  -65.29 | X-H torsion
[ 10718 10713 10712 10709 ] final  -74.25 input   66.30 | X-H torsion
[ 10763 10752 10751 10750 ] final -179.15 input  -60.55 | X-H torsion
[ 11005 11000 10999 10996 ] final -154.11 input  -57.11 | X-H torsion

> <Gold.Protein.ActiveResidues>
 VAL166  LYS551  ARG553  GLY616  TRP617  ASP618  TYR619  PRO620  LYS621  CYS622 
 ASP623  PHE694  ASN695  SER759  ASP760  ASP761  ALA762  ILE779  LEU786  VAL792 
 PHE793  MET794  SER795  GLU796  ALA797  LYS798  CYS799  TRP800  GLU811  SER814 

> <Gold.Protein.RotatedAtoms>
  152.0474  134.9674  160.0574 H   0  0  0  0  0  0  0  0  0  0  0  0  # atno 6907 bound_to 6896
  152.1089  133.4285  159.4630 H   0  0  0  0  0  0  0  0  0  0  0  0  # atno 6908 bound_to 6896
  150.6842  134.2591  159.4585 H   0  0  0  0  0  0  0  0  0  0  0  0  # atno 6909 bound_to 6896
  144.7739  139.7750  143.6286 H   0  0  0  0  0  0  0  0  0  0  0  0  # atno 7974 bound_to 7965
  156.2769  140.2760  156.1644 H   0  0  0  0  0  0  0  0  0  0  0  0  # atno 8008 bound_to 7997
  155.0720  140.0387  157.2629 H   0  0  0  0  0  0  0  0  0  0  0  0  # atno 8009 bound_to 7997
  154.7032  140.2653  155.6705 H   0  0  0  0  0  0  0  0  0  0  0  0  # atno 8010 bound_to 7997
  139.6621  143.9894  152.2232 H   0  0  0  0  0  0  0  0  0  0  0  0  # atno 10167 bound_to 10162
  156.0250  130.4412  150.2864 H   0  0  0  0  0  0  0  0  0  0  0  0  # atno 10718 bound_to 10713
  154.5387  135.2804  155.1115 H   0  0  0  0  0  0  0  0  0  0  0  0  # atno 10763 bound_to 10752
  154.2606  135.6322  153.5277 H   0  0  0  0  0  0  0  0  0  0  0  0  # atno 10764 bound_to 10752
  152.9974  135.5604  154.5921 H   0  0  0  0  0  0  0  0  0  0  0  0  # atno 10765 bound_to 10752
  140.7009  134.3939  157.5210 H   0  0  0  0  0  0  0  0  0  0  0  0  # atno 11005 bound_to 11000
  146.1906  139.5144  142.9807 LP  0  0  0  0  0  0  0  0  0  0  0  0  # atno 17320 bound_to 7965
  145.6242  141.0317  143.1898 LP  0  0  0  0  0  0  0  0  0  0  0  0  # atno 17321 bound_to 7965
  139.9636  144.6541  150.8056 LP  0  0  0  0  0  0  0  0  0  0  0  0  # atno 17342 bound_to 10162
  140.7584  143.3107  151.2853 LP  0  0  0  0  0  0  0  0  0  0  0  0  # atno 17343 bound_to 10162
  157.0967  131.0184  151.3101 LP  0  0  0  0  0  0  0  0  0  0  0  0  # atno 17370 bound_to 10713
  157.4812  130.7766  149.7416 LP  0  0  0  0  0  0  0  0  0  0  0  0  # atno 17371 bound_to 10713
  139.8897  134.8823  156.2407 LP  0  0  0  0  0  0  0  0  0  0  0  0  # atno 17394 bound_to 11000
  141.0165  133.7066  156.1196 LP  0  0  0  0  0  0  0  0  0  0  0  0  # atno 17395 bound_to 11000

$$$$
