AV-unprocessed.smi:2241|AV-procd|sdf|9059|dock10
  -GOLD-   2272012263D 1   1.00000     0.00000
 Structure written by MMmdl.
 45 47  0  0  0  0  0  0  0  0  1 V2000
  151.9279  145.3772  159.0772 C   0  0  0  0  0  0  0  0  0  0  0  0
  151.7545  143.8810  158.9148 C   0  0  0  0  0  0  0  0  0  0  0  0
  152.3012  142.9939  159.8629 C   0  0  0  0  0  0  0  0  0  0  0  0
  152.1350  141.6062  159.7034 C   0  0  0  0  0  0  0  0  0  0  0  0
  151.4244  141.1009  158.5975 C   0  0  0  0  0  0  0  0  0  0  0  0
  151.2377  139.3923  158.4220 Cl  0  0  0  0  0  0  0  0  0  0  0  0
  150.8709  141.9773  157.6383 C   0  0  0  0  0  0  0  0  0  0  0  0
  150.1919  141.4091  156.5817 O   0  0  0  0  0  0  0  0  0  0  0  0
  150.0280  142.1653  155.3899 C   0  0  0  0  0  0  0  0  0  0  0  0
  149.0960  141.3842  154.4514 C   0  0  1  0  0  0  0  0  0  0  0  0
  149.7876  140.2212  154.0427 O   0  0  0  0  0  0  0  0  0  0  0  0
  147.7848  140.9641  155.1546 C   0  0  0  0  0  0  0  0  0  0  0  0
  146.7214  141.9662  154.9882 N   0  0  0  0  0  0  0  0  0  0  0  0
  146.5524  142.4911  153.6935 C   0  0  0  0  0  0  0  0  0  0  0  0
  145.6317  143.3617  153.4261 N   0  0  0  0  0  0  0  0  0  0  0  0
  144.7785  143.8065  154.4427 C   0  0  0  0  0  0  0  0  0  0  0  0
  143.7197  144.8366  154.0740 C   0  0  0  0  0  0  0  0  0  0  0  0
  143.7002  146.1245  154.9148 C   0  0  0  0  0  0  0  0  0  0  0  0
  142.1702  146.0692  154.8446 C   0  0  0  0  0  0  0  0  0  0  0  0
  142.3019  144.5616  154.6003 C   0  0  0  0  0  0  0  0  0  0  0  0
  144.9196  143.3497  155.7100 C   0  0  0  0  0  0  0  0  0  0  0  0
  145.9509  142.3665  156.0415 C   0  0  0  0  0  0  0  0  0  0  0  0
  146.1115  141.9320  157.1823 O   0  0  0  0  0  0  0  0  0  0  0  0
  151.0406  143.3747  157.8097 C   0  0  0  0  0  0  0  0  0  0  0  0
  152.6245  145.6125  159.8824 H   0  0  0  0  0  0  0  0  0  0  0  0
  150.9700  145.8448  159.3062 H   0  0  0  0  0  0  0  0  0  0  0  0
  152.3138  145.8168  158.1567 H   0  0  0  0  0  0  0  0  0  0  0  0
  152.8485  143.3724  160.7139 H   0  0  0  0  0  0  0  0  0  0  0  0
  152.5550  140.9278  160.4313 H   0  0  0  0  0  0  0  0  0  0  0  0
  149.5878  143.1332  155.6367 H   0  0  0  0  0  0  0  0  0  0  0  0
  150.9878  142.3414  154.9008 H   0  0  0  0  0  0  0  0  0  0  0  0
  148.8947  141.9932  153.5689 H   0  0  0  0  0  0  0  0  0  0  0  0
  149.4878  139.9805  153.1796 H   0  0  0  0  0  0  0  0  0  0  0  0
  147.4697  139.9706  154.8286 H   0  0  0  0  0  0  0  0  0  0  0  0
  147.9649  140.8405  156.2240 H   0  0  0  0  0  0  0  0  0  0  0  0
  147.2477  142.1158  152.9404 H   0  0  0  0  0  0  0  0  0  0  0  0
  143.7208  145.0504  153.0037 H   0  0  0  0  0  0  0  0  0  0  0  0
  144.0722  145.9910  155.9324 H   0  0  0  0  0  0  0  0  0  0  0  0
  144.1496  146.9920  154.4310 H   0  0  0  0  0  0  0  0  0  0  0  0
  141.6597  146.3401  155.7692 H   0  0  0  0  0  0  0  0  0  0  0  0
  141.7656  146.6052  153.9844 H   0  0  0  0  0  0  0  0  0  0  0  0
  141.6107  144.1560  153.8610 H   0  0  0  0  0  0  0  0  0  0  0  0
  142.2856  143.9861  155.5278 H   0  0  0  0  0  0  0  0  0  0  0  0
  144.2629  143.7050  156.4908 H   0  0  0  0  0  0  0  0  0  0  0  0
  150.6304  144.0803  157.1035 H   0  0  0  0  0  0  0  0  0  0  0  0
  1  2  1  0  0  0  0
  1 25  1  0  0  0  0
  1 26  1  0  0  0  0
  1 27  1  0  0  0  0
  2 24  1  0  0  0  0
  2  3  2  0  0  0  0
  3  4  1  0  0  0  0
  3 28  1  0  0  0  0
  4  5  2  0  0  0  0
  4 29  1  0  0  0  0
  5  6  1  0  0  0  0
  5  7  1  0  0  0  0
  7  8  1  0  0  0  0
  7 24  2  0  0  0  0
  8  9  1  0  0  0  0
  9 10  1  0  0  0  0
  9 30  1  0  0  0  0
  9 31  1  0  0  0  0
 10 11  1  0  0  0  0
 10 12  1  0  0  0  0
 10 32  1  0  0  0  0
 11 33  1  0  0  0  0
 12 13  1  0  0  0  0
 12 34  1  0  0  0  0
 12 35  1  0  0  0  0
 13 22  1  0  0  0  0
 13 14  1  0  0  0  0
 14 15  2  0  0  0  0
 14 36  1  0  0  0  0
 15 16  1  0  0  0  0
 16 17  1  0  0  0  0
 16 21  2  0  0  0  0
 17 20  1  0  0  0  0
 17 18  1  0  0  0  0
 17 37  1  0  0  0  0
 18 19  1  0  0  0  0
 18 38  1  0  0  0  0
 18 39  1  0  0  0  0
 19 20  1  0  0  0  0
 19 40  1  0  0  0  0
 19 41  1  0  0  0  0
 20 42  1  0  0  0  0
 20 43  1  0  0  0  0
 21 22  1  0  0  0  0
 21 44  1  0  0  0  0
 22 23  2  0  0  0  0
 24 45  1  0  0  0  0
M  END
> <s_m_source_file>
AV-unprocessed.smi

> <i_m_source_file_index>
2241

> <i_lp_mmshare_version>
43012

> <i_f3d_flags>
0

> <s_epik_input>
W0NIM11jMVtjSF1bY0hdYyhDbCljKFtjSF0xKU9bQ0gyXVtDQEhdKFtPSF0pW0NIMl1uMltjSF1uYyhbY0hdYzI9TylbQ0hdM1tDSDJdW0NIMl1bQ0gyXTM=

> <s_epik_cmdline>
J2VwaWtfcHl0aG9uJywgJy1waCcsICc3LjAnLCAnLXRuJywgJzgnLCAnLW1hJywgJzIwMCcsICctbWV0YWxfYmluZGluZycsICctaW1hZScsICc8aW5maWxlLm1hZT4nLCAnLW9tYWUnLCAnPG91dGZpbGUubWFlPic=

> <r_lp_tautomer_probability>
1

> <r_epik_Ionization_Penalty>
1.78212e-05

> <r_epik_Ionization_Penalty_Charging>
5.61663e-08

> <r_epik_Ionization_Penalty_Neutral>
1.7765e-05

> <r_epik_State_Penalty>
-0

> <r_epik_Charging_Adjusted_Penalty>
5.61663e-08

> <i_epik_Tot_Q>
0

> <i_epik_Tot_abs_Q>
0

> <r_epik_Metal_State_Penalty>
-0

> <b_epik_Metal_Only>
0

> <s_lp_Force_Field>
OPLS_2005

> <r_lp_Energy>
30.2703

> <b_lp_Chiralities_Consistent>
1

> <s_lp_Variant>
AV-unprocessed.smi:2241-2

> <Gold.Version>
5.8.1

> <Gold.Id.Protein>
6NUR|6NUR_protein|mol2

> <Gold.PLP.Fitness>
52.8222

> <Gold.PLP.PLP>
-49.2887

> <Gold.PLP.part.hbond>
-2.0000

> <Gold.PLP.part.metal>
0.0000

> <Gold.PLP.part.buried>
-5.9353

> <Gold.PLP.part.nonpolar>
-41.0621

> <Gold.PLP.part.repulsive>
0.3584

> <Gold.PLP.ligand.clash>
0.0000

> <Gold.PLP.ligand.torsion>
1.1146

> <Gold.PLP.Chemscore.Hbond>
1.7760

> <Gold.PLP.Chemscore.CHOScore>
0.0000

> <Gold.PLP.Chemscore.Metal>
0.0000

> <Gold.Chemscore.Hbonds>
donor molecule, donor type, donor heavy atom, donor atom, acceptor molecule, acceptor atom, score
      L1  H    11    33       P1  7957  1.00
      P1  H  7989  7998       L1    11  0.64

> <Gold.PLP.Chemscore.Internal.Correction>
0.4348

> <Gold.Rescore>
     Score         DG    S(hbond)    S(metal)    S(lipo)     H(rot)  DE(clash)    DE(int)     intcor
     15.66     -17.49       1.04        0.00     125.14       2.38       0.71       1.12       ----

> <Gold.Chemscore.Fitness>
15.6614

> <Gold.Chemscore.DG>
-17.4908

> <Gold.Chemscore.ZeroCoef>
-5.4800

> <Gold.Chemscore.Hbond>
1.0366

> <Gold.Chemscore.Metal>
0.0000

> <Gold.Chemscore.Lipo>
125.1410

> <Gold.Chemscore.Internal_Hbond>
0.0000

> <Gold.Chemscore.DEClash>
0.7058

> <Gold.Chemscore.DEInternal>
1.1236

> <Gold.Chemscore.Rot>
2.3801

> <Gold.Chemscore.Internal.Correction>
   9.000000E+99

> <Gold.Chemscore.Hbonds>
donor molecule, donor type, donor heavy atom, donor atom, acceptor molecule, acceptor atom, score
      L1  H    11    33       P1  7957  0.90
      P1  H  7989  7998       L1    11  0.04

> <Gold.Chemscore.Hbond.Weighted>
-3.4623

> <Gold.Chemscore.Metal.Weighted>
-0.0000

> <Gold.Chemscore.Lipo.Weighted>
-14.6415

> <Gold.Chemscore.Internal_Hbond.Weighted>
0.0000

> <Gold.Chemscore.DEClash.Weighted>
0.7058

> <Gold.Chemscore.DEInternal.Weighted>
1.1236

> <Gold.Chemscore.Rot.Weighted>
6.0931

> <Gold.Chemscore.Internal.Correction.Weighted>
   9.000000E+99

> <Gold.Protein.RotatedTorsions>
[ 6907 6896 6895 6894 ] final -114.42 input  -60.11 | X-H torsion
[ 7974 7965 7964 7962 ] final  -50.28 input  175.53 | X-H torsion
[ 8008 7997 7996 7995 ] final -137.40 input   59.86 | X-H torsion
[ 10167 10162 10161 10158 ] final   88.63 input  -65.29 | X-H torsion
[ 10718 10713 10712 10709 ] final  -53.54 input   66.30 | X-H torsion
[ 10763 10752 10751 10750 ] final  128.15 input  -60.55 | X-H torsion
[ 11005 11000 10999 10996 ] final -119.67 input  -57.11 | X-H torsion

> <Gold.Protein.ActiveResidues>
 VAL166  LYS551  ARG553  GLY616  TRP617  ASP618  TYR619  PRO620  LYS621  CYS622 
 ASP623  PHE694  ASN695  SER759  ASP760  ASP761  ALA762  ILE779  LEU786  VAL792 
 PHE793  MET794  SER795  GLU796  ALA797  LYS798  CYS799  TRP800  GLU811  SER814 

> <Gold.Protein.RotatedAtoms>
  150.7901  133.8804  159.3283 H   0  0  0  0  0  0  0  0  0  0  0  0  # atno 6907 bound_to 6896
  151.6644  135.0983  160.0195 H   0  0  0  0  0  0  0  0  0  0  0  0  # atno 6908 bound_to 6896
  152.3973  133.6727  159.6322 H   0  0  0  0  0  0  0  0  0  0  0  0  # atno 6909 bound_to 6896
  145.9315  140.7745  142.9597 H   0  0  0  0  0  0  0  0  0  0  0  0  # atno 7974 bound_to 7965
  155.4112  140.0512  157.3031 H   0  0  0  0  0  0  0  0  0  0  0  0  # atno 8008 bound_to 7997
  154.4945  140.2133  155.9436 H   0  0  0  0  0  0  0  0  0  0  0  0  # atno 8009 bound_to 7997
  156.1387  140.3158  155.8466 H   0  0  0  0  0  0  0  0  0  0  0  0  # atno 8010 bound_to 7997
  139.8654  144.6522  150.9010 H   0  0  0  0  0  0  0  0  0  0  0  0  # atno 10167 bound_to 10162
  156.1526  130.4151  149.9920 H   0  0  0  0  0  0  0  0  0  0  0  0  # atno 10718 bound_to 10713
  153.7209  135.3253  155.3266 H   0  0  0  0  0  0  0  0  0  0  0  0  # atno 10763 bound_to 10752
  154.8356  135.4499  154.1218 H   0  0  0  0  0  0  0  0  0  0  0  0  # atno 10764 bound_to 10752
  153.2338  135.6963  153.7939 H   0  0  0  0  0  0  0  0  0  0  0  0  # atno 10765 bound_to 10752
  141.0199  134.0140  157.3297 H   0  0  0  0  0  0  0  0  0  0  0  0  # atno 11005 bound_to 11000
  144.6765  140.2135  143.7374 LP  0  0  0  0  0  0  0  0  0  0  0  0  # atno 17320 bound_to 7965
  145.8420  139.2134  143.1822 LP  0  0  0  0  0  0  0  0  0  0  0  0  # atno 17321 bound_to 7965
  140.7769  143.3709  151.1652 LP  0  0  0  0  0  0  0  0  0  0  0  0  # atno 17342 bound_to 10162
  139.7334  143.9037  152.3027 LP  0  0  0  0  0  0  0  0  0  0  0  0  # atno 17343 bound_to 10162
  156.7773  130.9208  151.3645 LP  0  0  0  0  0  0  0  0  0  0  0  0  # atno 17370 bound_to 10713
  157.6669  130.9016  149.9953 LP  0  0  0  0  0  0  0  0  0  0  0  0  # atno 17371 bound_to 10713
  139.9140  135.0194  156.7805 LP  0  0  0  0  0  0  0  0  0  0  0  0  # atno 17394 bound_to 11000
  140.6591  133.9662  155.7795 LP  0  0  0  0  0  0  0  0  0  0  0  0  # atno 17395 bound_to 11000

$$$$
