AV-unprocessed.smi:155|AV-procd|sdf|1269|dock9
  -GOLD-   2262018523D 1   1.00000     0.00000
 Structure written by MMmdl.
 63 66  0  0  0  0  0  0  0  0  2 V2000
  144.4798  134.3684  150.6672 C   0  0  0  0  0  0  0  0  0  0  0  0
  145.3148  133.2225  150.3233 N   0  0  0  0  0  0  0  0  0  0  0  0
  144.4812  132.0281  150.3442 C   0  0  0  0  0  0  0  0  0  0  0  0
  146.4168  133.0566  151.2701 C   0  0  0  0  0  0  0  0  0  0  0  0
  145.9883  133.2066  152.7508 C   0  0  0  0  0  0  0  0  0  0  0  0
  147.1086  133.2661  153.7279 N   0  3  2  0  0  0  0  0  0  0  0  0
  148.2549  132.3735  153.3994 C   0  0  0  0  0  0  0  0  0  0  0  0
  149.4106  132.4316  154.4208 C   0  0  0  0  0  0  0  0  0  0  0  0
  149.8579  133.8548  154.8099 C   0  0  0  0  0  0  0  0  0  0  0  0
  148.7726  134.6582  155.3783 N   0  0  0  0  0  0  0  0  0  0  0  0
  148.7828  136.0047  155.2002 C   0  0  0  0  0  0  0  0  0  0  0  0
  147.5955  136.6353  155.0023 N   0  0  0  0  0  0  0  0  0  0  0  0
  147.5533  137.9573  154.8128 C   0  0  0  0  0  0  0  0  0  0  0  0
  148.5627  138.8288  154.7915 N   0  0  0  0  0  0  0  0  0  0  0  0
  149.7569  138.2071  155.0054 C   0  0  0  0  0  0  0  0  0  0  0  0
  149.9578  136.8130  155.2181 C   0  0  0  0  0  0  0  0  0  0  0  0
  151.3113  136.5625  155.4206 N   0  0  0  0  0  0  0  0  0  0  0  0
  151.8772  137.7334  155.3127 C   0  0  0  0  0  0  0  0  0  0  0  0
  151.0166  138.7760  155.0622 N   0  0  0  0  0  0  0  0  0  0  0  0
  151.3762  140.1730  154.8939 C   0  0  0  0  0  0  0  0  0  0  0  0
  150.8931  141.0482  156.0670 C   0  0  1  0  0  0  0  0  0  0  0  0
  149.4968  141.2502  155.9576 O   0  0  0  0  0  0  0  0  0  0  0  0
  151.2011  140.4104  157.4340 C   0  0  2  0  0  0  0  0  0  0  0  0
  151.1178  141.3751  158.6199 C   0  0  0  0  0  0  0  0  0  0  0  0
  152.0833  140.7894  159.6397 C   0  0  0  0  0  0  0  0  0  0  0  0
  152.8534  139.7239  158.8567 C   0  0  0  0  0  0  0  0  0  0  0  0
  152.5549  139.9890  157.4942 O   0  0  0  0  0  0  0  0  0  0  0  0
  147.6661  134.0125  156.0880 C   0  0  0  0  0  0  0  0  0  0  0  0
  146.6858  133.2573  155.1554 C   0  0  0  0  0  0  0  0  0  0  0  0
  145.0377  135.3025  150.6177 H   0  0  0  0  0  0  0  0  0  0  0  0
  144.0643  134.2714  151.6715 H   0  0  0  0  0  0  0  0  0  0  0  0
  143.6490  134.4553  149.9662 H   0  0  0  0  0  0  0  0  0  0  0  0
  145.0604  131.1500  150.0563 H   0  0  0  0  0  0  0  0  0  0  0  0
  143.6565  132.1227  149.6368 H   0  0  0  0  0  0  0  0  0  0  0  0
  144.0620  131.8515  151.3361 H   0  0  0  0  0  0  0  0  0  0  0  0
  146.8587  132.0703  151.1188 H   0  0  0  0  0  0  0  0  0  0  0  0
  147.2102  133.7693  151.0449 H   0  0  0  0  0  0  0  0  0  0  0  0
  145.3221  134.0548  152.9034 H   0  0  0  0  0  0  0  0  0  0  0  0
  145.3928  132.3322  153.0158 H   0  0  0  0  0  0  0  0  0  0  0  0
  147.9193  131.3402  153.3293 H   0  0  0  0  0  0  0  0  0  0  0  0
  148.6293  132.6490  152.4128 H   0  0  0  0  0  0  0  0  0  0  0  0
  149.1380  131.8721  155.3160 H   0  0  0  0  0  0  0  0  0  0  0  0
  150.2659  131.8960  154.0076 H   0  0  0  0  0  0  0  0  0  0  0  0
  150.6707  133.8022  155.5349 H   0  0  0  0  0  0  0  0  0  0  0  0
  150.2575  134.3489  153.9229 H   0  0  0  0  0  0  0  0  0  0  0  0
  146.5702  138.3763  154.6549 H   0  0  0  0  0  0  0  0  0  0  0  0
  152.9443  137.8705  155.4123 H   0  0  0  0  0  0  0  0  0  0  0  0
  152.4584  140.2470  154.7800 H   0  0  0  0  0  0  0  0  0  0  0  0
  150.9411  140.5233  153.9572 H   0  0  0  0  0  0  0  0  0  0  0  0
  151.3759  142.0247  156.0093 H   0  0  0  0  0  0  0  0  0  0  0  0
  149.3459  142.0900  155.5511 H   0  0  0  0  0  0  0  0  0  0  0  0
  150.5558  139.5471  157.6092 H   0  0  0  0  0  0  0  0  0  0  0  0
  151.4589  142.3686  158.3261 H   0  0  0  0  0  0  0  0  0  0  0  0
  150.1030  141.4716  159.0064 H   0  0  0  0  0  0  0  0  0  0  0  0
  152.7505  141.5618  160.0234 H   0  0  0  0  0  0  0  0  0  0  0  0
  151.5594  140.3465  160.4873 H   0  0  0  0  0  0  0  0  0  0  0  0
  153.9271  139.7594  159.0416 H   0  0  0  0  0  0  0  0  0  0  0  0
  152.4961  138.7257  159.1136 H   0  0  0  0  0  0  0  0  0  0  0  0
  148.0956  133.3091  156.8018 H   0  0  0  0  0  0  0  0  0  0  0  0
  147.1268  134.7340  156.7024 H   0  0  0  0  0  0  0  0  0  0  0  0
  145.7115  133.7403  155.2387 H   0  0  0  0  0  0  0  0  0  0  0  0
  146.5445  132.2319  155.4991 H   0  0  0  0  0  0  0  0  0  0  0  0
  147.4822  134.1960  153.6009 H   0  0  0  0  0  0  0  0  0  0  0  0
  1  2  1  0  0  0  0
  1 30  1  0  0  0  0
  1 31  1  0  0  0  0
  1 32  1  0  0  0  0
  2  3  1  0  0  0  0
  2  4  1  0  0  0  0
  3 33  1  0  0  0  0
  3 34  1  0  0  0  0
  3 35  1  0  0  0  0
  4  5  1  0  0  0  0
  4 36  1  0  0  0  0
  4 37  1  0  0  0  0
  5  6  1  0  0  0  0
  5 38  1  0  0  0  0
  5 39  1  0  0  0  0
  6 29  1  0  0  0  0
  6  7  1  0  0  0  0
  6 63  1  0  0  0  0
  7  8  1  0  0  0  0
  7 40  1  0  0  0  0
  7 41  1  0  0  0  0
  8  9  1  0  0  0  0
  8 42  1  0  0  0  0
  8 43  1  0  0  0  0
  9 10  1  0  0  0  0
  9 44  1  0  0  0  0
  9 45  1  0  0  0  0
 10 11  1  0  0  0  0
 10 28  1  0  0  0  0
 11 16  1  0  0  0  0
 11 12  2  0  0  0  0
 12 13  1  0  0  0  0
 13 14  2  0  0  0  0
 13 46  1  0  0  0  0
 14 15  1  0  0  0  0
 15 19  1  0  0  0  0
 15 16  2  0  0  0  0
 16 17  1  0  0  0  0
 17 18  2  0  0  0  0
 18 19  1  0  0  0  0
 18 47  1  0  0  0  0
 19 20  1  0  0  0  0
 20 21  1  0  0  0  0
 20 48  1  0  0  0  0
 20 49  1  0  0  0  0
 21 22  1  0  0  0  0
 21 23  1  0  0  0  0
 21 50  1  0  0  0  0
 22 51  1  0  0  0  0
 23 27  1  0  0  0  0
 23 24  1  0  0  0  0
 23 52  1  0  0  0  0
 24 25  1  0  0  0  0
 24 53  1  0  0  0  0
 24 54  1  0  0  0  0
 25 26  1  0  0  0  0
 25 55  1  0  0  0  0
 25 56  1  0  0  0  0
 26 27  1  0  0  0  0
 26 57  1  0  0  0  0
 26 58  1  0  0  0  0
 28 29  1  0  0  0  0
 28 59  1  0  0  0  0
 28 60  1  0  0  0  0
 29 61  1  0  0  0  0
 29 62  1  0  0  0  0
M  CHG  1   6   1
M  END
> <s_m_source_file>
AV-unprocessed.smi

> <i_m_source_file_index>
155

> <i_lp_mmshare_version>
43012

> <i_f3d_flags>
0

> <s_epik_input>
W0NIM11OKFtDSDNdKVtDSDJdW0NIMl1OMVtDSDJdW0NIMl1bQ0gyXU4oW0NIMl1bQ0gyXTEpYyhuW2NIXW4yKWMoYzIzKW5bY0hdbjNbQ0gyXVtDQEhdKFtPSF0pW0NAQEhdNFtDSDJdW0NIMl1bQ0gyXU80

> <s_epik_cmdline>
J2VwaWtfcHl0aG9uJywgJy1waCcsICc3LjAnLCAnLXRuJywgJzgnLCAnLW1hJywgJzIwMCcsICctbWV0YWxfYmluZGluZycsICctaW1hZScsICc8aW5maWxlLm1hZT4nLCAnLW9tYWUnLCAnPG91dGZpbGUubWFlPic=

> <r_epik_Ionization_Penalty>
0.0619615

> <r_epik_Ionization_Penalty_Charging>
0.0161638

> <r_epik_Ionization_Penalty_Neutral>
0.0457976

> <r_epik_State_Penalty>
0.403408

> <r_epik_Charging_Adjusted_Penalty>
0.419572

> <i_epik_Tot_Q>
1

> <i_epik_Tot_abs_Q>
1

> <r_epik_Metal_State_Penalty>
0.404222

> <b_epik_Metal_Only>
0

> <s_lp_Force_Field>
OPLS_2005

> <r_lp_Energy>
55.2712

> <b_lp_Chiralities_Consistent>
1

> <s_lp_Variant>
AV-unprocessed.smi:155-3

> <Gold.Version>
5.8.1

> <Gold.Id.Protein>
6NUR|6NUR_protein|mol2

> <Gold.PLP.Fitness>
43.2864

> <Gold.PLP.PLP>
-39.6841

> <Gold.PLP.part.hbond>
-2.0000

> <Gold.PLP.part.metal>
0.0000

> <Gold.PLP.part.buried>
-2.3435

> <Gold.PLP.part.nonpolar>
-35.6464

> <Gold.PLP.part.repulsive>
0.9911

> <Gold.PLP.ligand.clash>
0.0000

> <Gold.PLP.ligand.torsion>
1.1480

> <Gold.PLP.Chemscore.Hbond>
1.9000

> <Gold.PLP.Chemscore.CHOScore>
0.0000

> <Gold.PLP.Chemscore.Metal>
0.0000

> <Gold.Chemscore.Hbonds>
donor molecule, donor type, donor heavy atom, donor atom, acceptor molecule, acceptor atom, score
      P1  H  7997  8008       L1    27  1.00
      P1  H 10752 10765       L1    17  0.53

> <Gold.PLP.Chemscore.Internal.Correction>
0.1984

> <Gold.Rescore>
     Score         DG    S(hbond)    S(metal)    S(lipo)     H(rot)  DE(clash)    DE(int)     intcor
     10.80     -13.58       1.12        0.00      94.75       2.63       1.68       1.10       ----

> <Gold.Chemscore.Fitness>
10.8010

> <Gold.Chemscore.DG>
-13.5795

> <Gold.Chemscore.ZeroCoef>
-5.4800

> <Gold.Chemscore.Hbond>
1.1235

> <Gold.Chemscore.Metal>
0.0000

> <Gold.Chemscore.Lipo>
94.7525

> <Gold.Chemscore.Internal_Hbond>
0.0000

> <Gold.Chemscore.DEClash>
1.6760

> <Gold.Chemscore.DEInternal>
1.1025

> <Gold.Chemscore.Rot>
2.6324

> <Gold.Chemscore.Internal.Correction>
   9.000000E+99

> <Gold.Chemscore.Hbonds>
donor molecule, donor type, donor heavy atom, donor atom, acceptor molecule, acceptor atom, score
      P1  H  7997  8008       L1    27  0.41
      P1  H 10752 10765       L1    17  0.04

> <Gold.Chemscore.Hbond.Weighted>
-3.7524

> <Gold.Chemscore.Metal.Weighted>
-0.0000

> <Gold.Chemscore.Lipo.Weighted>
-11.0860

> <Gold.Chemscore.Internal_Hbond.Weighted>
0.0000

> <Gold.Chemscore.DEClash.Weighted>
1.6760

> <Gold.Chemscore.DEInternal.Weighted>
1.1025

> <Gold.Chemscore.Rot.Weighted>
6.7389

> <Gold.Chemscore.Internal.Correction.Weighted>
   9.000000E+99

> <Gold.Protein.RotatedTorsions>
[ 6907 6896 6895 6894 ] final   68.99 input  -60.11 | X-H torsion
[ 7974 7965 7964 7962 ] final   -4.14 input  175.53 | X-H torsion
[ 8008 7997 7996 7995 ] final  -58.24 input   59.86 | X-H torsion
[ 10167 10162 10161 10158 ] final   -9.07 input  -65.29 | X-H torsion
[ 10718 10713 10712 10709 ] final  168.51 input   66.30 | X-H torsion
[ 10763 10752 10751 10750 ] final  175.33 input  -60.55 | X-H torsion
[ 11005 11000 10999 10996 ] final  179.67 input  -57.11 | X-H torsion

> <Gold.Protein.ActiveResidues>
 VAL166  LYS551  ARG553  GLY616  TRP617  ASP618  TYR619  PRO620  LYS621  CYS622 
 ASP623  PHE694  ASN695  SER759  ASP760  ASP761  ALA762  ILE779  LEU786  VAL792 
 PHE793  MET794  SER795  GLU796  ALA797  LYS798  CYS799  TRP800  GLU811  SER814 

> <Gold.Protein.RotatedAtoms>
  152.4657  134.5082  159.9745 H   0  0  0  0  0  0  0  0  0  0  0  0  # atno 6907 bound_to 6896
  151.5120  133.3477  159.2894 H   0  0  0  0  0  0  0  0  0  0  0  0  # atno 6908 bound_to 6896
  150.8640  134.8027  159.7166 H   0  0  0  0  0  0  0  0  0  0  0  0  # atno 6909 bound_to 6896
  146.2378  140.1826  142.8332 H   0  0  0  0  0  0  0  0  0  0  0  0  # atno 7974 bound_to 7965
  154.4300  140.1088  156.5925 H   0  0  0  0  0  0  0  0  0  0  0  0  # atno 8008 bound_to 7997
  155.5997  140.3493  155.4571 H   0  0  0  0  0  0  0  0  0  0  0  0  # atno 8009 bound_to 7997
  156.0183  140.1234  157.0373 H   0  0  0  0  0  0  0  0  0  0  0  0  # atno 8010 bound_to 7997
  140.7077  143.5899  150.8904 H   0  0  0  0  0  0  0  0  0  0  0  0  # atno 10167 bound_to 10162
  157.0361  131.0273  151.2729 H   0  0  0  0  0  0  0  0  0  0  0  0  # atno 10718 bound_to 10713
  154.4661  135.2769  155.1677 H   0  0  0  0  0  0  0  0  0  0  0  0  # atno 10763 bound_to 10752
  154.3445  135.6163  153.5616 H   0  0  0  0  0  0  0  0  0  0  0  0  # atno 10764 bound_to 10752
  152.9859  135.5796  154.5033 H   0  0  0  0  0  0  0  0  0  0  0  0  # atno 10765 bound_to 10752
  140.4088  134.6711  157.4602 H   0  0  0  0  0  0  0  0  0  0  0  0  # atno 11005 bound_to 11000
  144.9922  140.8557  143.5332 LP  0  0  0  0  0  0  0  0  0  0  0  0  # atno 17320 bound_to 7965
  145.1833  139.2340  143.5281 LP  0  0  0  0  0  0  0  0  0  0  0  0  # atno 17321 bound_to 7965
  139.9624  143.6148  152.2998 LP  0  0  0  0  0  0  0  0  0  0  0  0  # atno 17342 bound_to 10162
  139.6706  144.7661  151.1791 LP  0  0  0  0  0  0  0  0  0  0  0  0  # atno 17343 bound_to 10162
  157.5141  130.7957  149.7736 LP  0  0  0  0  0  0  0  0  0  0  0  0  # atno 17370 bound_to 10713
  156.0053  130.3858  150.2453 LP  0  0  0  0  0  0  0  0  0  0  0  0  # atno 17371 bound_to 10713
  140.0283  134.6444  155.9142 LP  0  0  0  0  0  0  0  0  0  0  0  0  # atno 17394 bound_to 11000
  141.1829  133.6550  156.5095 LP  0  0  0  0  0  0  0  0  0  0  0  0  # atno 17395 bound_to 11000

$$$$
