AV-unprocessed.smi:2743|AV-procd|sdf|10566|dock6
  -GOLD-   2272015 23D 1   1.00000     0.00000
 Structure written by MMmdl.
 38 39  0  0  0  0  0  0  0  0  1 V2000
  153.3229  136.6990  160.4177 N   0  0  0  0  0  0  0  0  0  0  0  0
  153.5598  137.7655  160.8001 C   0  0  0  0  0  0  0  0  0  0  0  0
  153.8606  139.1236  161.2835 C   0  0  0  0  0  0  0  0  0  0  0  0
  154.0645  140.1397  160.1596 C   0  0  0  0  0  0  0  0  0  0  0  0
  154.8952  139.9376  159.2739 O   0  0  0  0  0  0  0  0  0  0  0  0
  153.2999  141.2407  160.2184 N   0  0  0  0  0  0  0  0  0  0  0  0
  153.3331  142.3558  159.2720 C   0  0  0  0  0  0  0  0  0  0  0  0
  151.9152  142.8308  158.8326 C   0  0  0  0  0  0  0  0  0  0  0  0
  151.2919  141.7453  157.9261 C   0  0  0  0  0  0  0  0  0  0  0  0
  150.9765  142.0432  156.5784 C   0  0  0  0  0  0  0  0  0  0  0  0
  150.4207  141.0406  155.7600 C   0  0  0  0  0  0  0  0  0  0  0  0
  150.1726  139.7868  156.1889 N   0  0  0  0  0  0  0  0  0  0  0  0
  150.4792  139.4923  157.4685 C   0  0  0  0  0  0  0  0  0  0  0  0
  151.0364  140.4225  158.3684 C   0  0  0  0  0  0  0  0  0  0  0  0
  151.0194  143.1233  160.0776 C   0  0  0  0  0  0  0  0  0  0  0  0
  151.4734  144.3304  160.9181 C   0  0  0  0  0  0  0  0  0  0  0  0
  151.5622  145.5974  160.0614 C   0  0  0  0  0  0  0  0  0  0  0  0
  152.4779  145.3727  158.8535 C   0  0  0  0  0  0  0  0  0  0  0  0
  152.0285  144.1562  158.0227 C   0  0  0  0  0  0  0  0  0  0  0  0
  153.0406  139.4409  161.9284 H   0  0  0  0  0  0  0  0  0  0  0  0
  154.7623  139.0742  161.8943 H   0  0  0  0  0  0  0  0  0  0  0  0
  152.6483  141.3214  160.9856 H   0  0  0  0  0  0  0  0  0  0  0  0
  153.9312  143.1758  159.6678 H   0  0  0  0  0  0  0  0  0  0  0  0
  153.8855  142.0031  158.4007 H   0  0  0  0  0  0  0  0  0  0  0  0
  151.1591  143.0226  156.1631 H   0  0  0  0  0  0  0  0  0  0  0  0
  150.1735  141.2525  154.7303 H   0  0  0  0  0  0  0  0  0  0  0  0
  150.2780  138.4801  157.7867 H   0  0  0  0  0  0  0  0  0  0  0  0
  151.2568  140.0944  159.3720 H   0  0  0  0  0  0  0  0  0  0  0  0
  150.0018  143.3335  159.7450 H   0  0  0  0  0  0  0  0  0  0  0  0
  150.9514  142.2488  160.7247 H   0  0  0  0  0  0  0  0  0  0  0  0
  150.7701  144.4911  161.7357 H   0  0  0  0  0  0  0  0  0  0  0  0
  152.4362  144.1301  161.3873 H   0  0  0  0  0  0  0  0  0  0  0  0
  150.5655  145.8783  159.7181 H   0  0  0  0  0  0  0  0  0  0  0  0
  151.9300  146.4302  160.6612 H   0  0  0  0  0  0  0  0  0  0  0  0
  152.4782  146.2640  158.2256 H   0  0  0  0  0  0  0  0  0  0  0  0
  153.5067  145.2415  159.1886 H   0  0  0  0  0  0  0  0  0  0  0  0
  152.7149  144.0434  157.1839 H   0  0  0  0  0  0  0  0  0  0  0  0
  151.0567  144.3866  157.5830 H   0  0  0  0  0  0  0  0  0  0  0  0
  1  2  3  0  0  0  0
  2  3  1  0  0  0  0
  3  4  1  0  0  0  0
  3 20  1  0  0  0  0
  3 21  1  0  0  0  0
  4  5  2  0  0  0  0
  4  6  1  0  0  0  0
  6  7  1  0  0  0  0
  6 22  1  0  0  0  0
  7  8  1  0  0  0  0
  7 23  1  0  0  0  0
  7 24  1  0  0  0  0
  8 19  1  0  0  0  0
  8  9  1  0  0  0  0
  8 15  1  0  0  0  0
  9 14  1  0  0  0  0
  9 10  2  0  0  0  0
 10 11  1  0  0  0  0
 10 25  1  0  0  0  0
 11 12  2  0  0  0  0
 11 26  1  0  0  0  0
 12 13  1  0  0  0  0
 13 14  2  0  0  0  0
 13 27  1  0  0  0  0
 14 28  1  0  0  0  0
 15 16  1  0  0  0  0
 15 29  1  0  0  0  0
 15 30  1  0  0  0  0
 16 17  1  0  0  0  0
 16 31  1  0  0  0  0
 16 32  1  0  0  0  0
 17 18  1  0  0  0  0
 17 33  1  0  0  0  0
 17 34  1  0  0  0  0
 18 19  1  0  0  0  0
 18 35  1  0  0  0  0
 18 36  1  0  0  0  0
 19 37  1  0  0  0  0
 19 38  1  0  0  0  0
M  END
> <s_m_source_file>
AV-unprocessed.smi

> <i_m_source_file_index>
2743

> <i_lp_mmshare_version>
43012

> <i_f3d_flags>
0

> <s_epik_input>
TiNDW0NIMl1DKD1PKVtOSF1bQ0gyXUMxKFtDSDJdW0NIMl1bQ0gyXVtDSDJdW0NIMl0xKWMyW2NIXVtjSF1uW2NIXVtjSF0y

> <s_epik_cmdline>
J2VwaWtfcHl0aG9uJywgJy1waCcsICc3LjAnLCAnLXRuJywgJzgnLCAnLW1hJywgJzIwMCcsICctbWV0YWxfYmluZGluZycsICctaW1hZScsICc8aW5maWxlLm1hZT4nLCAnLW9tYWUnLCAnPG91dGZpbGUubWFlPic=

> <r_epik_Ionization_Penalty>
0.0541122

> <r_epik_Ionization_Penalty_Charging>
0

> <r_epik_Ionization_Penalty_Neutral>
0.0541122

> <r_epik_State_Penalty>
0.0465294

> <r_epik_Charging_Adjusted_Penalty>
0.0465294

> <i_epik_Tot_Q>
0

> <i_epik_Tot_abs_Q>
0

> <r_epik_Metal_State_Penalty>
0.042555

> <b_epik_Metal_Only>
0

> <s_lp_Force_Field>
OPLS_2005

> <r_lp_Energy>
19.5313

> <b_lp_Chiralities_Consistent>
1

> <s_lp_Variant>
AV-unprocessed.smi:2743-1

> <Gold.Version>
5.8.1

> <Gold.Id.Protein>
6NUR|6NUR_protein|mol2

> <Gold.PLP.Fitness>
42.7139

> <Gold.PLP.PLP>
-37.1549

> <Gold.PLP.part.hbond>
-1.9282

> <Gold.PLP.part.metal>
0.0000

> <Gold.PLP.part.buried>
-3.8713

> <Gold.PLP.part.nonpolar>
-31.6611

> <Gold.PLP.part.repulsive>
0.0794

> <Gold.PLP.ligand.clash>
0.0000

> <Gold.PLP.ligand.torsion>
0.1933

> <Gold.PLP.Chemscore.Hbond>
1.9750

> <Gold.PLP.Chemscore.CHOScore>
0.0000

> <Gold.PLP.Chemscore.Metal>
0.0000

> <Gold.Chemscore.Hbonds>
donor molecule, donor type, donor heavy atom, donor atom, acceptor molecule, acceptor atom, score
      P1  H  6896  6909       L1     1  0.81
      P1  H  7997  8009       L1     5  0.99

> <Gold.PLP.Chemscore.Internal.Correction>
0.0207

> <Gold.Rescore>
     Score         DG    S(hbond)    S(metal)    S(lipo)     H(rot)  DE(clash)    DE(int)     intcor
     19.68     -21.22       1.98        0.00     117.09       1.79       1.30       0.23       ----

> <Gold.Chemscore.Fitness>
19.6835

> <Gold.Chemscore.DG>
-21.2187

> <Gold.Chemscore.ZeroCoef>
-5.4800

> <Gold.Chemscore.Hbond>
1.9821

> <Gold.Chemscore.Metal>
0.0000

> <Gold.Chemscore.Lipo>
117.0912

> <Gold.Chemscore.Internal_Hbond>
0.0000

> <Gold.Chemscore.DEClash>
1.3041

> <Gold.Chemscore.DEInternal>
0.2311

> <Gold.Chemscore.Rot>
1.7895

> <Gold.Chemscore.Internal.Correction>
   9.000000E+99

> <Gold.Chemscore.Hbonds>
donor molecule, donor type, donor heavy atom, donor atom, acceptor molecule, acceptor atom, score
      P1  H  6896  6909       L1     1  0.80
      P1  H  7997  8009       L1     5  0.93

> <Gold.Chemscore.Hbond.Weighted>
-6.6202

> <Gold.Chemscore.Metal.Weighted>
-0.0000

> <Gold.Chemscore.Lipo.Weighted>
-13.6997

> <Gold.Chemscore.Internal_Hbond.Weighted>
0.0000

> <Gold.Chemscore.DEClash.Weighted>
1.3041

> <Gold.Chemscore.DEInternal.Weighted>
0.2311

> <Gold.Chemscore.Rot.Weighted>
4.5812

> <Gold.Chemscore.Internal.Correction.Weighted>
   9.000000E+99

> <Gold.Protein.RotatedTorsions>
[ 6907 6896 6895 6894 ] final  156.12 input  -60.11 | X-H torsion
[ 7974 7965 7964 7962 ] final -132.82 input  175.53 | X-H torsion
[ 8008 7997 7996 7995 ] final  126.38 input   59.86 | X-H torsion
[ 10167 10162 10161 10158 ] final   42.83 input  -65.29 | X-H torsion
[ 10718 10713 10712 10709 ] final  -56.71 input   66.30 | X-H torsion
[ 10763 10752 10751 10750 ] final   91.50 input  -60.55 | X-H torsion
[ 11005 11000 10999 10996 ] final -163.70 input  -57.11 | X-H torsion

> <Gold.Protein.ActiveResidues>
 VAL166  LYS551  ARG553  GLY616  TRP617  ASP618  TYR619  PRO620  LYS621  CYS622 
 ASP623  PHE694  ASN695  SER759  ASP760  ASP761  ALA762  ILE779  LEU786  VAL792 
 PHE793  MET794  SER795  GLU796  ALA797  LYS798  CYS799  TRP800  GLU811  SER814 

> <Gold.Protein.RotatedAtoms>
  152.0343  133.3950  159.4310 H   0  0  0  0  0  0  0  0  0  0  0  0  # atno 6907 bound_to 6896
  150.6880  134.3485  159.4908 H   0  0  0  0  0  0  0  0  0  0  0  0  # atno 6908 bound_to 6896
  152.1276  134.9159  160.0611 H   0  0  0  0  0  0  0  0  0  0  0  0  # atno 6909 bound_to 6896
  144.9250  140.7060  143.4941 H   0  0  0  0  0  0  0  0  0  0  0  0  # atno 7974 bound_to 7965
  156.2862  140.2694  156.2101 H   0  0  0  0  0  0  0  0  0  0  0  0  # atno 8008 bound_to 7997
  155.0273  140.0386  157.2478 H   0  0  0  0  0  0  0  0  0  0  0  0  # atno 8009 bound_to 7997
  154.7384  140.2720  155.6399 H   0  0  0  0  0  0  0  0  0  0  0  0  # atno 8010 bound_to 7997
  140.3505  144.2356  150.6146 H   0  0  0  0  0  0  0  0  0  0  0  0  # atno 10167 bound_to 10162
  156.1267  130.4162  150.0342 H   0  0  0  0  0  0  0  0  0  0  0  0  # atno 10718 bound_to 10713
  153.2090  135.4395  155.0357 H   0  0  0  0  0  0  0  0  0  0  0  0  # atno 10763 bound_to 10752
  154.8189  135.3328  154.7098 H   0  0  0  0  0  0  0  0  0  0  0  0  # atno 10764 bound_to 10752
  153.7537  135.6996  153.4996 H   0  0  0  0  0  0  0  0  0  0  0  0  # atno 10765 bound_to 10752
  140.5951  134.5005  157.5198 H   0  0  0  0  0  0  0  0  0  0  0  0  # atno 11005 bound_to 11000
  145.3234  139.1781  143.4576 LP  0  0  0  0  0  0  0  0  0  0  0  0  # atno 17320 bound_to 7965
  146.3222  140.3254  142.8636 LP  0  0  0  0  0  0  0  0  0  0  0  0  # atno 17321 bound_to 7965
  140.5223  143.2262  151.8369 LP  0  0  0  0  0  0  0  0  0  0  0  0  # atno 17342 bound_to 10162
  139.4827  144.4821  151.9293 LP  0  0  0  0  0  0  0  0  0  0  0  0  # atno 17343 bound_to 10162
  156.8266  130.9377  151.3639 LP  0  0  0  0  0  0  0  0  0  0  0  0  # atno 17370 bound_to 10713
  157.6448  130.8835  149.9517 LP  0  0  0  0  0  0  0  0  0  0  0  0  # atno 17371 bound_to 10713
  139.9257  134.8061  156.1077 LP  0  0  0  0  0  0  0  0  0  0  0  0  # atno 17394 bound_to 11000
  141.0909  133.6715  156.2539 LP  0  0  0  0  0  0  0  0  0  0  0  0  # atno 17395 bound_to 11000

$$$$
