#       Name:                AV-unprocessed.smi:22
#       Creating user name   scv26
#       Creation time:       Thu Mar 26 15:42:28 2020


#       File generated by GOLD software.
#

@<TRIPOS>MOLECULE
AV-unprocessed.smi:22
    66    69     1
SMALL
NO_CHARGES


@<TRIPOS>ATOM
      1 ****        -5.2992  -1.7474   2.9709 C.3            1 S1                 0.0000
      2 ****        -4.7130  -1.4232   1.6432 N.4            1 S1                 1.0000
      3 ****        -5.3874  -2.1657   0.5354 C.3            1 S1                 0.0000
      4 ****        -6.9058  -1.9201   0.4440 C.3            1 S1                 0.0000
      5 ****        -7.1677  -0.5582   0.1773 O.3            1 S1                 0.0000
      6 ****        -3.2158  -1.5182   1.6693 C.3            1 S1                 0.0000
      7 ****        -2.6083  -0.2545   2.3244 C.3            1 S1                 0.0000
      8 ****        -1.0751  -0.3262   2.3956 C.3            1 S1                 0.0000
      9 ****        -0.5022  -0.5588   1.0712 N.3            1 S1                 0.0000
     10 ****         0.8312  -0.3552   0.9190 C.ar           1 S1                 0.0000
     11 ****         1.6553  -0.4146   1.9993 N.ar           1 S1                 0.0000
     12 ****         2.9709  -0.2303   1.8557 C.ar           1 S1                 0.0000
     13 ****         3.6608   0.0248   0.7427 N.ar           1 S1                 0.0000
     14 ****         2.8394   0.0972  -0.3435 C.ar           1 S1                 0.0000
     15 ****         1.4269  -0.0812  -0.3445 C.ar           1 S1                 0.0000
     16 ****         0.9321   0.0697  -1.6345 N.2            1 S1                 0.0000
     17 ****         1.9921   0.3146  -2.3555 C.2            1 S1                 0.0000
     18 ****         3.1795   0.3576  -1.6598 N.pl3          1 S1                 0.0000
     19 ****         4.5032   0.6088  -2.2104 C.3            1 S1                 0.0000
     20 ****         4.8016   2.1077  -2.4494 C.3            1 S1                 0.0000
     21 ****         3.9047   2.6048  -3.4283 O.3            1 S1                 0.0000
     22 ****         6.2243   2.3594  -2.9331 C.3            1 S1                 0.0000
     23 ****         6.5102   3.7636  -2.4182 C.3            1 S1                 0.0000
     24 ****         5.9032   3.7615  -1.1372 O.3            1 S1                 0.0000
     25 ****         4.7000   3.0003  -1.1948 C.3            1 S1                 0.0000
     26 ****        -1.0130  -1.7443   0.3886 C.3            1 S1                 0.0000
     27 ****        -2.5462  -1.7017   0.2824 C.3            1 S1                 0.0000
     28 ****        -5.2828  -2.8231   3.1506 H              1 S1                 0.0000
     29 ****        -6.3288  -1.4008   3.0474 H              1 S1                 0.0000
     30 ****        -4.7625  -1.2706   3.7891 H              1 S1                 0.0000
     31 ****        -4.9752  -1.8710  -0.4288 H              1 S1                 0.0000
     32 ****        -5.1935  -3.2331   0.6511 H              1 S1                 0.0000
     33 ****        -7.3220  -2.5092  -0.3736 H              1 S1                 0.0000
     34 ****        -7.4356  -2.2357   1.3418 H              1 S1                 0.0000
     35 ****        -6.8370  -0.3483  -0.6832 H              1 S1                 0.0000
     36 ****        -2.9485  -2.3904   2.2688 H              1 S1                 0.0000
     37 ****        -2.9008   0.6283   1.7538 H              1 S1                 0.0000
     38 ****        -2.9891  -0.1026   3.3330 H              1 S1                 0.0000
     39 ****        -0.6888   0.6065   2.8098 H              1 S1                 0.0000
     40 ****        -0.7713  -1.1292   3.0689 H              1 S1                 0.0000
     41 ****         3.5544  -0.2986   2.7620 H              1 S1                 0.0000
     42 ****         1.9365   0.4778  -3.4221 H              1 S1                 0.0000
     43 ****         5.2417   0.1835  -1.5297 H              1 S1                 0.0000
     44 ****         4.5949   0.0525  -3.1443 H              1 S1                 0.0000
     45 ****         4.0839   3.5235  -3.5584 H              1 S1                 0.0000
     46 ****         6.9153   1.6610  -2.4588 H              1 S1                 0.0000
     47 ****         6.3455   2.2642  -4.0131 H              1 S1                 0.0000
     48 ****         7.5758   3.9849  -2.3583 H              1 S1                 0.0000
     49 ****         6.0347   4.5169  -3.0482 H              1 S1                 0.0000
     50 ****         3.8349   3.6642  -1.2275 H              1 S1                 0.0000
     51 ****         4.6290   2.4188  -0.2766 H              1 S1                 0.0000
     52 ****        -0.5869  -1.8418  -0.6095 H              1 S1                 0.0000
     53 ****        -0.7043  -2.6296   0.9461 H              1 S1                 0.0000
     54 ****        -2.8687  -2.6310  -0.1873 H              1 S1                 0.0000
     55 ****        -2.8347  -0.8876  -0.3845 H              1 S1                 0.0000
     56 ****        -4.9182  -0.4492   1.4703 H              1 S1                 0.0000
     57 ****        -6.7123   0.0121   0.8610 LP             1 S1                 0.0000
     58 ****        -8.1534  -0.3929   0.2084 LP             1 S1                 0.0000
     59 ****        -0.8746   0.2195   0.5657 LP             1 S1                 0.0000
     60 ****         1.2747  -0.5972   2.9058 LP             1 S1                 0.0000
     61 ****         4.6527   0.1472   0.7092 LP             1 S1                 0.0000
     62 ****        -0.0179   0.0054  -1.9400 LP             1 S1                 0.0000
     63 ****         2.9627   2.4856  -3.1146 LP             1 S1                 0.0000
     64 ****         4.0350   2.1104  -4.2877 LP             1 S1                 0.0000
     65 ****         5.6932   4.7003  -0.8642 LP             1 S1                 0.0000
     66 ****         6.5271   3.3524  -0.4713 LP             1 S1                 0.0000
@<TRIPOS>BOND
    1    1    2 1     
    2    1   28 1     
    3    1   29 1     
    4    1   30 1     
    5    2    3 1     
    6    2    6 1     
    7    2   56 1     
    8    3    4 1     
    9    3   31 1     
   10    3   32 1     
   11    4    5 1     
   12    4   33 1     
   13    4   34 1     
   14    5   35 1     
   15    6   27 1     
   16    6    7 1     
   17    6   36 1     
   18    7    8 1     
   19    7   37 1     
   20    7   38 1     
   21    8    9 1     
   22    8   39 1     
   23    8   40 1     
   24    9   10 1     
   25    9   26 1     
   26   10   15 ar    
   27   10   11 ar    
   28   11   12 ar    
   29   12   13 ar    
   30   12   41 1     
   31   13   14 ar    
   32   14   18 1     
   33   14   15 ar    
   34   15   16 1     
   35   16   17 2     
   36   17   18 1     
   37   17   42 1     
   38   18   19 1     
   39   19   20 1     
   40   19   43 1     
   41   19   44 1     
   42   20   25 1     
   43   20   21 1     
   44   20   22 1     
   45   21   45 1     
   46   22   23 1     
   47   22   46 1     
   48   22   47 1     
   49   23   24 1     
   50   23   48 1     
   51   23   49 1     
   52   24   25 1     
   53   25   50 1     
   54   25   51 1     
   55   26   27 1     
   56   26   52 1     
   57   26   53 1     
   58   27   54 1     
   59   27   55 1     
   60    5   57 1     
   61    5   58 1     
   62    9   59 1     
   63   11   60 1     
   64   13   61 1     
   65   16   62 1     
   66   21   63 1     
   67   21   64 1     
   68   24   65 1     
   69   24   66 1     
@<TRIPOS>SUBSTRUCTURE
      1 S1             1
@<TRIPOS>SET
LONE_PAIRS      STATIC     ATOMS    <user>   **** ""
10 57 58 59 60 61 62 63 64 65 66
DONOR_HYDROGENS      STATIC     ATOMS    <user>   **** ""
3 56 35 45
ATOM$BLUE        STATIC     ATOMS    COLORGROUP SYSTEM
10 57 58 59 60 61 62 63 64 65 66
ATOM$RED        STATIC     ATOMS    COLORGROUP SYSTEM
3 56 35 45
