AV-unprocessed.smi:1039|AV-procd|sdf|4522|dock4
  -GOLD-   22720 2543D 1   1.00000     0.00000
 Structure written by MMmdl.
 40 41  0  0  0  0  0  0  0  0  1 V2000
  145.3853  143.4664  155.1389 C   0  0  0  0  0  0  0  0  0  0  0  0
  146.0898  142.1417  154.8165 C   0  0  0  0  0  0  0  0  0  0  0  0
  146.3431  141.3049  156.0893 C   0  0  0  0  0  0  0  0  0  0  0  0
  147.1439  140.0298  155.7687 C   0  0  0  0  0  0  0  0  0  0  0  0
  148.4055  140.4145  155.1122 N   0  0  0  0  0  0  0  0  0  0  0  0
  149.6298  140.4440  155.6963 C   0  0  0  0  0  0  0  0  0  0  0  0
  150.6679  140.6960  155.0830 O   0  0  0  0  0  0  0  0  0  0  0  0
  149.6319  140.1273  157.0001 N   0  0  0  0  0  0  0  0  0  0  0  0
  150.8077  140.1164  157.8611 C   0  0  0  0  0  0  0  0  0  0  0  0
  151.5581  141.4594  157.8167 C   0  0  0  0  0  0  0  0  0  0  0  0
  152.3036  141.7767  159.0805 C   0  0  0  0  0  0  0  0  0  0  0  0
  152.9844  140.8686  159.7731 N   0  0  0  0  0  0  0  0  0  0  0  0
  153.5358  141.5718  160.8374 C   0  0  0  0  0  0  0  0  0  0  0  0
  153.1621  142.8907  160.7534 C   0  0  0  0  0  0  0  0  0  0  0  0
  152.3608  143.0105  159.6233 N   0  0  0  0  0  0  0  0  0  0  0  0
  151.7291  144.2293  159.1419 C   0  0  0  0  0  0  0  0  0  0  0  0
  151.9575  145.2410  159.9799 F   0  0  0  0  0  0  0  0  0  0  0  0
  152.1928  144.5409  157.9324 F   0  0  0  0  0  0  0  0  0  0  0  0
  148.1535  141.0449  153.8107 C   0  0  0  0  0  0  0  0  0  0  0  0
  147.4013  142.3695  154.0342 C   0  0  0  0  0  0  0  0  0  0  0  0
  146.0000  144.0954  155.7835 H   0  0  0  0  0  0  0  0  0  0  0  0
  144.4375  143.2928  155.6491 H   0  0  0  0  0  0  0  0  0  0  0  0
  145.1727  144.0290  154.2295 H   0  0  0  0  0  0  0  0  0  0  0  0
  145.4234  141.5639  154.1743 H   0  0  0  0  0  0  0  0  0  0  0  0
  146.8911  141.8997  156.8216 H   0  0  0  0  0  0  0  0  0  0  0  0
  145.3946  141.0380  156.5564 H   0  0  0  0  0  0  0  0  0  0  0  0
  147.2770  139.4464  156.6795 H   0  0  0  0  0  0  0  0  0  0  0  0
  146.5708  139.3890  155.0969 H   0  0  0  0  0  0  0  0  0  0  0  0
  148.7466  139.9094  157.4340 H   0  0  0  0  0  0  0  0  0  0  0  0
  150.5267  139.8802  158.8885 H   0  0  0  0  0  0  0  0  0  0  0  0
  151.4681  139.3179  157.5198 H   0  0  0  0  0  0  0  0  0  0  0  0
  152.2467  141.4596  156.9726 H   0  0  0  0  0  0  0  0  0  0  0  0
  150.8499  142.2655  157.6220 H   0  0  0  0  0  0  0  0  0  0  0  0
  154.1541  141.0799  161.5736 H   0  0  0  0  0  0  0  0  0  0  0  0
  153.3932  143.7301  161.3926 H   0  0  0  0  0  0  0  0  0  0  0  0
  150.6492  144.0947  159.0775 H   0  0  0  0  0  0  0  0  0  0  0  0
  149.0705  141.2245  153.2478 H   0  0  0  0  0  0  0  0  0  0  0  0
  147.5556  140.3734  153.1930 H   0  0  0  0  0  0  0  0  0  0  0  0
  147.1868  142.8394  153.0739 H   0  0  0  0  0  0  0  0  0  0  0  0
  148.0435  143.0618  154.5807 H   0  0  0  0  0  0  0  0  0  0  0  0
  1  2  1  0  0  0  0
  1 21  1  0  0  0  0
  1 22  1  0  0  0  0
  1 23  1  0  0  0  0
  2 20  1  0  0  0  0
  2  3  1  0  0  0  0
  2 24  1  0  0  0  0
  3  4  1  0  0  0  0
  3 25  1  0  0  0  0
  3 26  1  0  0  0  0
  4  5  1  0  0  0  0
  4 27  1  0  0  0  0
  4 28  1  0  0  0  0
  5  6  1  0  0  0  0
  5 19  1  0  0  0  0
  6  7  2  0  0  0  0
  6  8  1  0  0  0  0
  8  9  1  0  0  0  0
  8 29  1  0  0  0  0
  9 10  1  0  0  0  0
  9 30  1  0  0  0  0
  9 31  1  0  0  0  0
 10 11  1  0  0  0  0
 10 32  1  0  0  0  0
 10 33  1  0  0  0  0
 11 15  1  0  0  0  0
 11 12  2  0  0  0  0
 12 13  1  0  0  0  0
 13 14  2  0  0  0  0
 13 34  1  0  0  0  0
 14 15  1  0  0  0  0
 14 35  1  0  0  0  0
 15 16  1  0  0  0  0
 16 17  1  0  0  0  0
 16 18  1  0  0  0  0
 16 36  1  0  0  0  0
 19 20  1  0  0  0  0
 19 37  1  0  0  0  0
 19 38  1  0  0  0  0
 20 39  1  0  0  0  0
 20 40  1  0  0  0  0
M  END
> <s_m_source_file>
AV-unprocessed.smi

> <i_m_source_file_index>
1039

> <i_lp_mmshare_version>
43012

> <i_f3d_flags>
0

> <s_epik_input>
W0NIM11bQ0hdMVtDSDJdW0NIMl1OKFtDSDJdW0NIMl0xKUMoPU8pW05IXVtDSDJdW0NIMl1jMm5bY0hdW2NIXW4yW0NIXShGKUY=

> <s_epik_cmdline>
J2VwaWtfcHl0aG9uJywgJy1waCcsICc3LjAnLCAnLXRuJywgJzgnLCAnLW1hJywgJzIwMCcsICctbWV0YWxfYmluZGluZycsICctaW1hZScsICc8aW5maWxlLm1hZT4nLCAnLW9tYWUnLCAnPG91dGZpbGUubWFlPic=

> <r_lp_tautomer_probability>
1

> <r_epik_Ionization_Penalty>
0.101783

> <r_epik_Ionization_Penalty_Charging>
0.101715

> <r_epik_Ionization_Penalty_Neutral>
6.87123e-05

> <r_epik_State_Penalty>
0.091697

> <r_epik_Charging_Adjusted_Penalty>
0.193412

> <i_epik_Tot_Q>
0

> <i_epik_Tot_abs_Q>
0

> <r_epik_Metal_State_Penalty>
0.0781553

> <b_epik_Metal_Only>
0

> <s_lp_Force_Field>
OPLS_2005

> <r_lp_Energy>
33.8957

> <b_lp_Chiralities_Consistent>
1

> <s_lp_Variant>
AV-unprocessed.smi:1039-1

> <Gold.Version>
5.8.1

> <Gold.Id.Protein>
6NUR|6NUR_protein|mol2

> <Gold.PLP.Fitness>
47.6216

> <Gold.PLP.PLP>
-45.9608

> <Gold.PLP.part.hbond>
-1.0000

> <Gold.PLP.part.metal>
0.0000

> <Gold.PLP.part.buried>
-5.3499

> <Gold.PLP.part.nonpolar>
-39.6395

> <Gold.PLP.part.repulsive>
0.0961

> <Gold.PLP.ligand.clash>
0.0000

> <Gold.PLP.ligand.torsion>
0.5505

> <Gold.PLP.Chemscore.Hbond>
0.8960

> <Gold.PLP.Chemscore.CHOScore>
0.0000

> <Gold.PLP.Chemscore.Metal>
0.0000

> <Gold.Chemscore.Hbonds>
donor molecule, donor type, donor heavy atom, donor atom, acceptor molecule, acceptor atom, score
      P1  H  7989  7998       L1     7  0.90

> <Gold.PLP.Chemscore.Internal.Correction>
0.0738

> <Gold.Rescore>
     Score         DG    S(hbond)    S(metal)    S(lipo)     H(rot)  DE(clash)    DE(int)     intcor
     12.52     -12.92       0.92        0.00      71.48       1.56       0.01       0.40       ----

> <Gold.Chemscore.Fitness>
12.5186

> <Gold.Chemscore.DG>
-12.9221

> <Gold.Chemscore.ZeroCoef>
-5.4800

> <Gold.Chemscore.Hbond>
0.9221

> <Gold.Chemscore.Metal>
0.0000

> <Gold.Chemscore.Lipo>
71.4766

> <Gold.Chemscore.Internal_Hbond>
0.0000

> <Gold.Chemscore.DEClash>
0.0073

> <Gold.Chemscore.DEInternal>
0.3962

> <Gold.Chemscore.Rot>
1.5626

> <Gold.Chemscore.Internal.Correction>
   9.000000E+99

> <Gold.Chemscore.Hbonds>
donor molecule, donor type, donor heavy atom, donor atom, acceptor molecule, acceptor atom, score
      P1  H  7989  7998       L1     7  0.88

> <Gold.Chemscore.Hbond.Weighted>
-3.0797

> <Gold.Chemscore.Metal.Weighted>
-0.0000

> <Gold.Chemscore.Lipo.Weighted>
-8.3628

> <Gold.Chemscore.Internal_Hbond.Weighted>
0.0000

> <Gold.Chemscore.DEClash.Weighted>
0.0073

> <Gold.Chemscore.DEInternal.Weighted>
0.3962

> <Gold.Chemscore.Rot.Weighted>
4.0004

> <Gold.Chemscore.Internal.Correction.Weighted>
   9.000000E+99

> <Gold.Protein.RotatedTorsions>
[ 6907 6896 6895 6894 ] final  -70.83 input  -60.11 | X-H torsion
[ 7974 7965 7964 7962 ] final -162.58 input  175.53 | X-H torsion
[ 8008 7997 7996 7995 ] final   69.85 input   59.86 | X-H torsion
[ 10167 10162 10161 10158 ] final -131.94 input  -65.29 | X-H torsion
[ 10718 10713 10712 10709 ] final  -69.85 input   66.30 | X-H torsion
[ 10763 10752 10751 10750 ] final -122.87 input  -60.55 | X-H torsion
[ 11005 11000 10999 10996 ] final  142.62 input  -57.11 | X-H torsion

> <Gold.Protein.ActiveResidues>
 VAL166  LYS551  ARG553  GLY616  TRP617  ASP618  TYR619  PRO620  LYS621  CYS622 
 ASP623  PHE694  ASN695  SER759  ASP760  ASP761  ALA762  ILE779  LEU786  VAL792 
 PHE793  MET794  SER795  GLU796  ALA797  LYS798  CYS799  TRP800  GLU811  SER814 

> <Gold.Protein.RotatedAtoms>
  150.7239  134.5396  159.5740 H   0  0  0  0  0  0  0  0  0  0  0  0  # atno 6907 bound_to 6896
  152.2909  134.7719  160.0387 H   0  0  0  0  0  0  0  0  0  0  0  0  # atno 6908 bound_to 6896
  151.8333  133.3376  159.3657 H   0  0  0  0  0  0  0  0  0  0  0  0  # atno 6909 bound_to 6896
  144.7353  140.3231  143.6167 H   0  0  0  0  0  0  0  0  0  0  0  0  # atno 7974 bound_to 7965
  155.7299  140.3492  155.5055 H   0  0  0  0  0  0  0  0  0  0  0  0  # atno 8008 bound_to 7997
  155.9192  140.1064  157.1241 H   0  0  0  0  0  0  0  0  0  0  0  0  # atno 8009 bound_to 7997
  154.4067  140.1253  156.4644 H   0  0  0  0  0  0  0  0  0  0  0  0  # atno 8010 bound_to 7997
  139.9137  143.6463  152.2569 H   0  0  0  0  0  0  0  0  0  0  0  0  # atno 10167 bound_to 10162
  156.0436  130.4320  150.2208 H   0  0  0  0  0  0  0  0  0  0  0  0  # atno 10718 bound_to 10713
  154.8697  135.4118  154.2851 H   0  0  0  0  0  0  0  0  0  0  0  0  # atno 10763 bound_to 10752
  153.3737  135.7008  153.6624 H   0  0  0  0  0  0  0  0  0  0  0  0  # atno 10764 bound_to 10752
  153.5475  135.3635  155.2717 H   0  0  0  0  0  0  0  0  0  0  0  0  # atno 10765 bound_to 10752
  140.0490  134.9265  157.0983 H   0  0  0  0  0  0  0  0  0  0  0  0  # atno 11005 bound_to 11000
  145.7548  139.1805  143.2301 LP  0  0  0  0  0  0  0  0  0  0  0  0  # atno 17320 bound_to 7965
  146.1033  140.7518  142.9539 LP  0  0  0  0  0  0  0  0  0  0  0  0  # atno 17321 bound_to 7965
  139.6920  144.7645  151.1422 LP  0  0  0  0  0  0  0  0  0  0  0  0  # atno 17342 bound_to 10162
  140.7679  143.5576  150.9135 LP  0  0  0  0  0  0  0  0  0  0  0  0  # atno 17343 bound_to 10162
  157.0300  131.0004  151.3315 LP  0  0  0  0  0  0  0  0  0  0  0  0  # atno 17370 bound_to 10713
  157.5284  130.8042  149.7888 LP  0  0  0  0  0  0  0  0  0  0  0  0  # atno 17371 bound_to 10713
  140.3947  134.2147  155.7165 LP  0  0  0  0  0  0  0  0  0  0  0  0  # atno 17394 bound_to 11000
  141.1921  133.8180  157.0852 LP  0  0  0  0  0  0  0  0  0  0  0  0  # atno 17395 bound_to 11000

$$$$
