AV-unprocessed.smi:1996|AV-procd|sdf|8085|dock7
  -GOLD-   2272010303D 1   1.00000     0.00000
 Structure written by MMmdl.
 32 33  0  0  0  0  0  0  0  0  2 V2000
  150.6470  140.6114  155.2050 O   0  0  0  0  0  0  0  0  0  0  0  0
  150.0260  141.6753  155.2602 C   0  0  0  0  0  0  0  0  0  0  0  0
  150.3683  142.6005  156.1669 N   0  0  0  0  0  0  0  0  0  0  0  0
  151.4496  142.4666  157.1341 C   0  0  0  0  0  0  0  0  0  0  0  0
  151.4503  143.6529  158.1098 C   0  0  0  0  0  0  0  0  0  0  0  0
  152.0314  143.2988  159.4689 C   0  0  0  0  0  0  0  0  0  0  0  0
  151.9268  144.1266  160.5269 C   0  0  0  0  0  0  0  0  0  0  0  0
  152.4749  143.8189  161.9093 C   0  0  0  0  0  0  0  0  0  0  0  0
  152.8566  142.3381  162.0728 C   0  0  0  0  0  0  0  0  0  0  0  0
  153.6008  141.8184  160.8366 C   0  0  0  0  0  0  0  0  0  0  0  0
  152.7406  141.9525  159.5673 C   0  0  0  0  0  0  0  0  0  0  0  0
  148.9884  142.0399  154.4725 N   0  5  0  0  0  0  0  0  0  0  0  0
  147.7444  141.6300  154.7696 C   0  0  0  0  0  0  0  0  0  0  0  0
  147.5033  140.6343  155.6377 N   0  0  0  0  0  0  0  0  0  0  0  0
  146.1503  140.3701  155.8040 N   0  0  0  0  0  0  0  0  0  0  0  0
  145.4017  141.1838  155.0598 C   0  0  0  0  0  0  0  0  0  0  0  0
  146.2804  142.3486  154.0920 S   0  0  0  0  0  0  0  0  0  0  0  0
  149.8374  143.4588  156.1835 H   0  0  0  0  0  0  0  0  0  0  0  0
  151.3281  141.5307  157.6819 H   0  0  0  0  0  0  0  0  0  0  0  0
  152.3998  142.4106  156.6012 H   0  0  0  0  0  0  0  0  0  0  0  0
  152.0216  144.4825  157.6918 H   0  0  0  0  0  0  0  0  0  0  0  0
  150.4298  144.0170  158.2379 H   0  0  0  0  0  0  0  0  0  0  0  0
  151.4341  145.0816  160.4152 H   0  0  0  0  0  0  0  0  0  0  0  0
  153.3463  144.4533  162.0744 H   0  0  0  0  0  0  0  0  0  0  0  0
  151.7338  144.0954  162.6595 H   0  0  0  0  0  0  0  0  0  0  0  0
  153.4655  142.2060  162.9676 H   0  0  0  0  0  0  0  0  0  0  0  0
  151.9542  141.7437  162.2225 H   0  0  0  0  0  0  0  0  0  0  0  0
  154.5250  142.3840  160.7111 H   0  0  0  0  0  0  0  0  0  0  0  0
  153.8931  140.7776  160.9790 H   0  0  0  0  0  0  0  0  0  0  0  0
  151.9840  141.1674  159.5529 H   0  0  0  0  0  0  0  0  0  0  0  0
  153.3665  141.8040  158.6868 H   0  0  0  0  0  0  0  0  0  0  0  0
  144.3256  141.1001  155.0828 H   0  0  0  0  0  0  0  0  0  0  0  0
  1  2  2  0  0  0  0
  2  3  1  0  0  0  0
  2 12  1  0  0  0  0
  3  4  1  0  0  0  0
  3 18  1  0  0  0  0
  4  5  1  0  0  0  0
  4 19  1  0  0  0  0
  4 20  1  0  0  0  0
  5  6  1  0  0  0  0
  5 21  1  0  0  0  0
  5 22  1  0  0  0  0
  6 11  1  0  0  0  0
  6  7  2  0  0  0  0
  7  8  1  0  0  0  0
  7 23  1  0  0  0  0
  8  9  1  0  0  0  0
  8 24  1  0  0  0  0
  8 25  1  0  0  0  0
  9 10  1  0  0  0  0
  9 26  1  0  0  0  0
  9 27  1  0  0  0  0
 10 11  1  0  0  0  0
 10 28  1  0  0  0  0
 10 29  1  0  0  0  0
 11 30  1  0  0  0  0
 11 31  1  0  0  0  0
 12 13  1  0  0  0  0
 13 17  1  0  0  0  0
 13 14  2  0  0  0  0
 14 15  1  0  0  0  0
 15 16  2  0  0  0  0
 16 17  1  0  0  0  0
 16 32  1  0  0  0  0
M  CHG  1  12  -1
M  END
> <s_m_source_file>
AV-unprocessed.smi

> <i_m_source_file_index>
1996

> <i_lp_mmshare_version>
43012

> <i_f3d_flags>
0

> <s_epik_input>
czFbY0hdbm5jMVtOSF1DKD1PKVtOSF1bQ0gyXVtDSDJdQzI9W0NIXVtDSDJdW0NIMl1bQ0gyXVtDSDJdMg==

> <s_epik_cmdline>
J2VwaWtfcHl0aG9uJywgJy1waCcsICc3LjAnLCAnLXRuJywgJzgnLCAnLW1hJywgJzIwMCcsICctbWV0YWxfYmluZGluZycsICctaW1hZScsICc8aW5maWxlLm1hZT4nLCAnLW9tYWUnLCAnPG91dGZpbGUubWFlPic=

> <r_lp_tautomer_probability>
1

> <r_epik_Ionization_Penalty>
3.56684

> <r_epik_Ionization_Penalty_Charging>
3.52481

> <r_epik_Ionization_Penalty_Neutral>
0.0420339

> <r_epik_State_Penalty>
3.52326

> <r_epik_Charging_Adjusted_Penalty>
7.04807

> <i_epik_Tot_Q>
-1

> <i_epik_Tot_abs_Q>
1

> <r_epik_Metal_State_Penalty>
0.513455

> <b_epik_Metal_Only>
1

> <s_lp_Force_Field>
OPLS_2005

> <r_lp_Energy>
5.58763

> <b_lp_Chiralities_Consistent>
1

> <s_lp_Variant>
AV-unprocessed.smi:1996-2

> <Gold.Version>
5.8.1

> <Gold.Id.Protein>
6NUR|6NUR_protein|mol2

> <Gold.PLP.Fitness>
43.0693

> <Gold.PLP.PLP>
-38.3051

> <Gold.PLP.part.hbond>
-3.0000

> <Gold.PLP.part.metal>
0.0000

> <Gold.PLP.part.buried>
-4.1038

> <Gold.PLP.part.nonpolar>
-31.2634

> <Gold.PLP.part.repulsive>
1.4517

> <Gold.PLP.ligand.clash>
0.0000

> <Gold.PLP.ligand.torsion>
1.0899

> <Gold.PLP.Chemscore.Hbond>
2.0576

> <Gold.PLP.Chemscore.CHOScore>
0.2426

> <Gold.PLP.Chemscore.Metal>
0.0000

> <Gold.Chemscore.Hbonds>
donor molecule, donor type, donor heavy atom, donor atom, acceptor molecule, acceptor atom, score
      L1  H     3    18       P1  8028  1.00
      P1  H  7989  7998       L1     1  0.90
      P1  H  8011  8017       L1    12  0.10
      L1  C    16    32       P1 10175  0.25

> <Gold.PLP.Chemscore.Internal.Correction>
0.0434

> <Gold.Rescore>
     Score         DG    S(hbond)    S(metal)    S(lipo)     H(rot)  DE(clash)    DE(int)     intcor
     15.76     -17.45       1.45        0.00      95.75       1.59       0.61       1.07       ----

> <Gold.Chemscore.Fitness>
15.7634

> <Gold.Chemscore.DG>
-17.4456

> <Gold.Chemscore.ZeroCoef>
-5.4800

> <Gold.Chemscore.Hbond>
1.4468

> <Gold.Chemscore.Metal>
0.0000

> <Gold.Chemscore.Lipo>
95.7514

> <Gold.Chemscore.Internal_Hbond>
0.0000

> <Gold.Chemscore.DEClash>
0.6081

> <Gold.Chemscore.DEInternal>
1.0740

> <Gold.Chemscore.Rot>
1.5898

> <Gold.Chemscore.Internal.Correction>
   9.000000E+99

> <Gold.Chemscore.Hbonds>
donor molecule, donor type, donor heavy atom, donor atom, acceptor molecule, acceptor atom, score
      L1  H     3    18       P1  8028  0.99
      P1  H  7989  7998       L1     1  0.19
      P1  H  8011  8017       L1    12  0.07

> <Gold.Chemscore.Hbond.Weighted>
-4.8324

> <Gold.Chemscore.Metal.Weighted>
-0.0000

> <Gold.Chemscore.Lipo.Weighted>
-11.2029

> <Gold.Chemscore.Internal_Hbond.Weighted>
0.0000

> <Gold.Chemscore.DEClash.Weighted>
0.6081

> <Gold.Chemscore.DEInternal.Weighted>
1.0740

> <Gold.Chemscore.Rot.Weighted>
4.0698

> <Gold.Chemscore.Internal.Correction.Weighted>
   9.000000E+99

> <Gold.Protein.RotatedTorsions>
[ 6907 6896 6895 6894 ] final   58.31 input  -60.11 | X-H torsion
[ 7974 7965 7964 7962 ] final  174.39 input  175.53 | X-H torsion
[ 8008 7997 7996 7995 ] final   79.48 input   59.86 | X-H torsion
[ 10167 10162 10161 10158 ] final    2.79 input  -65.29 | X-H torsion
[ 10718 10713 10712 10709 ] final  137.48 input   66.30 | X-H torsion
[ 10763 10752 10751 10750 ] final   43.62 input  -60.55 | X-H torsion
[ 11005 11000 10999 10996 ] final -127.37 input  -57.11 | X-H torsion

> <Gold.Protein.ActiveResidues>
 VAL166  LYS551  ARG553  GLY616  TRP617  ASP618  TYR619  PRO620  LYS621  CYS622 
 ASP623  PHE694  ASN695  SER759  ASP760  ASP761  ALA762  ILE779  LEU786  VAL792 
 PHE793  MET794  SER795  GLU796  ALA797  LYS798  CYS799  TRP800  GLU811  SER814 

> <Gold.Protein.RotatedAtoms>
  152.3813  134.6586  160.0141 H   0  0  0  0  0  0  0  0  0  0  0  0  # atno 6907 bound_to 6896
  151.6849  133.3306  159.3236 H   0  0  0  0  0  0  0  0  0  0  0  0  # atno 6908 bound_to 6896
  150.7749  134.6685  159.6423 H   0  0  0  0  0  0  0  0  0  0  0  0  # atno 6909 bound_to 6896
  144.7222  139.9791  143.6438 H   0  0  0  0  0  0  0  0  0  0  0  0  # atno 7974 bound_to 7965
  155.8703  140.3449  155.5817 H   0  0  0  0  0  0  0  0  0  0  0  0  # atno 8008 bound_to 7997
  155.7835  140.0861  157.2066 H   0  0  0  0  0  0  0  0  0  0  0  0  # atno 8009 bound_to 7997
  154.4017  140.1496  156.3066 H   0  0  0  0  0  0  0  0  0  0  0  0  # atno 8010 bound_to 7997
  140.6618  143.7285  150.7752 H   0  0  0  0  0  0  0  0  0  0  0  0  # atno 10167 bound_to 10162
  157.4356  131.1053  151.0201 H   0  0  0  0  0  0  0  0  0  0  0  0  # atno 10718 bound_to 10713
  152.9857  135.6096  154.3141 H   0  0  0  0  0  0  0  0  0  0  0  0  # atno 10763 bound_to 10752
  154.2854  135.2776  155.2680 H   0  0  0  0  0  0  0  0  0  0  0  0  # atno 10764 bound_to 10752
  154.5000  135.5869  153.6580 H   0  0  0  0  0  0  0  0  0  0  0  0  # atno 10765 bound_to 10752
  140.9605  134.0942  157.3973 H   0  0  0  0  0  0  0  0  0  0  0  0  # atno 11005 bound_to 11000
  146.0502  139.3504  143.0644 LP  0  0  0  0  0  0  0  0  0  0  0  0  # atno 17320 bound_to 7965
  145.8224  140.9672  143.0892 LP  0  0  0  0  0  0  0  0  0  0  0  0  # atno 17321 bound_to 7965
  140.0955  143.4837  152.2455 LP  0  0  0  0  0  0  0  0  0  0  0  0  # atno 17342 bound_to 10162
  139.5854  144.7528  151.3534 LP  0  0  0  0  0  0  0  0  0  0  0  0  # atno 17343 bound_to 10162
  157.1082  130.6010  149.5476 LP  0  0  0  0  0  0  0  0  0  0  0  0  # atno 17370 bound_to 10713
  155.9929  130.4988  150.7359 LP  0  0  0  0  0  0  0  0  0  0  0  0  # atno 17371 bound_to 10713
  139.8876  135.0091  156.6573 LP  0  0  0  0  0  0  0  0  0  0  0  0  # atno 17394 bound_to 11000
  140.7474  133.8926  155.8322 LP  0  0  0  0  0  0  0  0  0  0  0  0  # atno 17395 bound_to 11000

$$$$
