AV-unprocessed.smi:263|AV-procd|sdf|2006|dock10
  -GOLD-   2262021203D 1   1.00000     0.00000
 Structure written by MMmdl.
 57 61  0  0  0  0  0  0  0  0  1 V2000
  148.2176  135.2041  154.1804 O   0  0  0  0  0  0  0  0  0  0  0  0
  149.0743  134.2320  154.7544 C   0  0  0  0  0  0  0  0  0  0  0  0
  150.4548  134.8932  154.9932 C   0  0  0  0  0  0  0  0  0  0  0  0
  150.3853  136.2005  155.6283 N   0  0  0  0  0  0  0  0  0  0  0  0
  149.4364  136.6327  156.5274 C   0  0  0  0  0  0  0  0  0  0  0  0
  149.5902  137.8566  156.9534 N   0  0  0  0  0  0  0  0  0  0  0  0
  150.7303  138.3055  156.2965 C   0  0  0  0  0  0  0  0  0  0  0  0
  151.4521  139.5328  156.2883 C   0  0  0  0  0  0  0  0  0  0  0  0
  151.0969  140.6006  157.0485 N   0  0  0  0  0  0  0  0  0  0  0  0
  149.9970  141.4390  156.5664 C   0  0  0  0  0  0  0  0  0  0  0  0
  149.4814  142.3787  157.6732 C   0  0  0  0  0  0  0  0  0  0  0  0
  150.6214  143.2018  158.3091 C   0  0  1  0  0  0  0  0  0  0  0  0
  151.1203  144.0811  157.3139 O   0  0  0  0  0  0  0  0  0  0  0  0
  150.1146  144.0658  159.4855 C   0  0  0  0  0  0  0  0  0  0  0  0
  151.2590  144.8054  160.2051 C   0  0  0  0  0  0  0  0  0  0  0  0
  152.3646  143.8374  160.6561 C   0  0  0  0  0  0  0  0  0  0  0  0
  152.8871  142.9932  159.4819 C   0  0  0  0  0  0  0  0  0  0  0  0
  151.7363  142.2370  158.7901 C   0  0  2  0  0  0  0  0  0  0  0  0
  152.2200  141.3222  157.6481 C   0  0  0  0  0  0  0  0  0  0  0  0
  152.5399  139.6111  155.4751 N   0  0  0  0  0  0  0  0  0  0  0  0
  152.9032  138.5644  154.7285 C   0  0  0  0  0  0  0  0  0  0  0  0
  152.3298  137.3629  154.6405 N   0  0  0  0  0  0  0  0  0  0  0  0
  151.2356  137.2780  155.4500 C   0  0  0  0  0  0  0  0  0  0  0  0
  148.4609  133.7716  156.0922 C   0  0  0  0  0  0  0  0  0  0  0  0
  147.1709  132.9569  155.8899 C   0  0  0  0  0  0  0  0  0  0  0  0
  147.4249  131.8509  155.0327 O   0  0  0  0  0  0  0  0  0  0  0  0
  147.8244  132.2504  153.7273 C   0  0  0  0  0  0  0  0  0  0  0  0
  149.1526  133.0257  153.7930 C   0  0  0  0  0  0  0  0  0  0  0  0
  148.5582  135.4427  153.3316 H   0  0  0  0  0  0  0  0  0  0  0  0
  151.0821  134.2474  155.6092 H   0  0  0  0  0  0  0  0  0  0  0  0
  150.9815  135.0091  154.0450 H   0  0  0  0  0  0  0  0  0  0  0  0
  148.6229  136.0057  156.8628 H   0  0  0  0  0  0  0  0  0  0  0  0
  150.3369  142.0217  155.7092 H   0  0  0  0  0  0  0  0  0  0  0  0
  149.1751  140.8111  156.2194 H   0  0  0  0  0  0  0  0  0  0  0  0
  148.7108  143.0378  157.2712 H   0  0  0  0  0  0  0  0  0  0  0  0
  148.9952  141.7789  158.4438 H   0  0  0  0  0  0  0  0  0  0  0  0
  150.3917  144.3958  156.8011 H   0  0  0  0  0  0  0  0  0  0  0  0
  149.3720  144.7846  159.1362 H   0  0  0  0  0  0  0  0  0  0  0  0
  149.6024  143.4284  160.2075 H   0  0  0  0  0  0  0  0  0  0  0  0
  151.6840  145.5607  159.5432 H   0  0  0  0  0  0  0  0  0  0  0  0
  150.8647  145.3439  161.0672 H   0  0  0  0  0  0  0  0  0  0  0  0
  153.1859  144.3953  161.1069 H   0  0  0  0  0  0  0  0  0  0  0  0
  151.9759  143.1790  161.4339 H   0  0  0  0  0  0  0  0  0  0  0  0
  153.3998  143.6356  158.7647 H   0  0  0  0  0  0  0  0  0  0  0  0
  153.6314  142.2846  159.8466 H   0  0  0  0  0  0  0  0  0  0  0  0
  151.2970  141.5821  159.5450 H   0  0  0  0  0  0  0  0  0  0  0  0
  152.9685  140.6327  158.0366 H   0  0  0  0  0  0  0  0  0  0  0  0
  152.7148  141.9097  156.8738 H   0  0  0  0  0  0  0  0  0  0  0  0
  153.7795  138.7105  154.1142 H   0  0  0  0  0  0  0  0  0  0  0  0
  149.1812  133.1472  156.6229 H   0  0  0  0  0  0  0  0  0  0  0  0
  148.2650  134.6273  156.7398 H   0  0  0  0  0  0  0  0  0  0  0  0
  146.8147  132.5810  156.8491 H   0  0  0  0  0  0  0  0  0  0  0  0
  146.3726  133.5765  155.4786 H   0  0  0  0  0  0  0  0  0  0  0  0
  147.9438  131.3598  153.1100 H   0  0  0  0  0  0  0  0  0  0  0  0
  147.0415  132.8516  153.2624 H   0  0  0  0  0  0  0  0  0  0  0  0
  149.4371  133.3446  152.7899 H   0  0  0  0  0  0  0  0  0  0  0  0
  149.9352  132.3459  154.1326 H   0  0  0  0  0  0  0  0  0  0  0  0
  1  2  1  0  0  0  0
  1 29  1  0  0  0  0
  2 28  1  0  0  0  0
  2  3  1  0  0  0  0
  2 24  1  0  0  0  0
  3  4  1  0  0  0  0
  3 30  1  0  0  0  0
  3 31  1  0  0  0  0
  4 23  1  0  0  0  0
  4  5  1  0  0  0  0
  5  6  2  0  0  0  0
  5 32  1  0  0  0  0
  6  7  1  0  0  0  0
  7 23  2  0  0  0  0
  7  8  1  0  0  0  0
  8  9  1  0  0  0  0
  8 20  2  0  0  0  0
  9 19  1  0  0  0  0
  9 10  1  0  0  0  0
 10 11  1  0  0  0  0
 10 33  1  0  0  0  0
 10 34  1  0  0  0  0
 11 12  1  0  0  0  0
 11 35  1  0  0  0  0
 11 36  1  0  0  0  0
 12 18  1  0  0  0  0
 12 13  1  0  0  0  0
 12 14  1  0  0  0  0
 13 37  1  0  0  0  0
 14 15  1  0  0  0  0
 14 38  1  0  0  0  0
 14 39  1  0  0  0  0
 15 16  1  0  0  0  0
 15 40  1  0  0  0  0
 15 41  1  0  0  0  0
 16 17  1  0  0  0  0
 16 42  1  0  0  0  0
 16 43  1  0  0  0  0
 17 18  1  0  0  0  0
 17 44  1  0  0  0  0
 17 45  1  0  0  0  0
 18 19  1  0  0  0  0
 18 46  1  0  0  0  0
 19 47  1  0  0  0  0
 19 48  1  0  0  0  0
 20 21  1  0  0  0  0
 21 22  2  0  0  0  0
 21 49  1  0  0  0  0
 22 23  1  0  0  0  0
 24 25  1  0  0  0  0
 24 50  1  0  0  0  0
 24 51  1  0  0  0  0
 25 26  1  0  0  0  0
 25 52  1  0  0  0  0
 25 53  1  0  0  0  0
 26 27  1  0  0  0  0
 27 28  1  0  0  0  0
 27 54  1  0  0  0  0
 27 55  1  0  0  0  0
 28 56  1  0  0  0  0
 28 57  1  0  0  0  0
M  END
> <s_m_source_file>
AV-unprocessed.smi

> <i_m_source_file_index>
263

> <i_lp_mmshare_version>
43012

> <i_f3d_flags>
0

> <s_epik_input>
W0NIMl0xW0NIMl1PW0NIMl1bQ0gyXUMxKFtPSF0pW0NIMl1uKFtjSF1uMiljKGMyMyluW2NIXW5jM04oW0NIMl1bQ0gyXTQpW0NIMl1bQ0BASF0oW0NAXTQ1W09IXSlbQ0gyXVtDSDJdW0NIMl1bQ0gyXTU=

> <s_epik_cmdline>
J2VwaWtfcHl0aG9uJywgJy1waCcsICc3LjAnLCAnLXRuJywgJzgnLCAnLW1hJywgJzIwMCcsICctbWV0YWxfYmluZGluZycsICctaW1hZScsICc8aW5maWxlLm1hZT4nLCAnLW9tYWUnLCAnPG91dGZpbGUubWFlPic=

> <r_lp_tautomer_probability>
1

> <r_epik_Ionization_Penalty>
0.00747493

> <r_epik_Ionization_Penalty_Charging>
0

> <r_epik_Ionization_Penalty_Neutral>
0.00747493

> <r_epik_State_Penalty>
0.00549307

> <r_epik_Charging_Adjusted_Penalty>
0.00549307

> <i_epik_Tot_Q>
0

> <i_epik_Tot_abs_Q>
0

> <r_epik_Metal_State_Penalty>
-0

> <b_epik_Metal_Only>
0

> <s_lp_Force_Field>
OPLS_2005

> <r_lp_Energy>
38.115

> <b_lp_Chiralities_Consistent>
1

> <s_lp_Variant>
AV-unprocessed.smi:263-4

> <Gold.Version>
5.8.1

> <Gold.Id.Protein>
6NUR|6NUR_protein|mol2

> <Gold.PLP.Fitness>
53.5954

> <Gold.PLP.PLP>
-44.0902

> <Gold.PLP.part.hbond>
-4.2460

> <Gold.PLP.part.metal>
0.0000

> <Gold.PLP.part.buried>
-8.3482

> <Gold.PLP.part.nonpolar>
-32.2889

> <Gold.PLP.part.repulsive>
0.1368

> <Gold.PLP.ligand.clash>
0.0000

> <Gold.PLP.ligand.torsion>
1.0482

> <Gold.PLP.Chemscore.Hbond>
3.7360

> <Gold.PLP.Chemscore.CHOScore>
0.0000

> <Gold.PLP.Chemscore.Metal>
0.0000

> <Gold.Chemscore.Hbonds>
donor molecule, donor type, donor heavy atom, donor atom, acceptor molecule, acceptor atom, score
      L1  H     1    29       P1  7948  1.00
      L1  H    13    37       P1  8028  1.00
      P1  H  7997  8009       L1    20  1.00
      P1  H 10752 10765       L1    22  0.72

> <Gold.PLP.Chemscore.Internal.Correction>
0.3935

> <Gold.Rescore>
     Score         DG    S(hbond)    S(metal)    S(lipo)     H(rot)  DE(clash)    DE(int)     intcor
     19.54     -22.10       3.24        0.00     106.86       2.62       0.21       2.35       ----

> <Gold.Chemscore.Fitness>
19.5383

> <Gold.Chemscore.DG>
-22.1002

> <Gold.Chemscore.ZeroCoef>
-5.4800

> <Gold.Chemscore.Hbond>
3.2435

> <Gold.Chemscore.Metal>
0.0000

> <Gold.Chemscore.Lipo>
106.8579

> <Gold.Chemscore.Internal_Hbond>
0.0000

> <Gold.Chemscore.DEClash>
0.2132

> <Gold.Chemscore.DEInternal>
2.3487

> <Gold.Chemscore.Rot>
2.6232

> <Gold.Chemscore.Internal.Correction>
   9.000000E+99

> <Gold.Chemscore.Hbonds>
donor molecule, donor type, donor heavy atom, donor atom, acceptor molecule, acceptor atom, score
      L1  H     1    29       P1  7948  0.97
      L1  H    13    37       P1  8028  0.94
      P1  H  7997  8009       L1    20  0.24
      P1  H 10752 10765       L1    22  0.47

> <Gold.Chemscore.Hbond.Weighted>
-10.8333

> <Gold.Chemscore.Metal.Weighted>
-0.0000

> <Gold.Chemscore.Lipo.Weighted>
-12.5024

> <Gold.Chemscore.Internal_Hbond.Weighted>
0.0000

> <Gold.Chemscore.DEClash.Weighted>
0.2132

> <Gold.Chemscore.DEInternal.Weighted>
2.3487

> <Gold.Chemscore.Rot.Weighted>
6.7155

> <Gold.Chemscore.Internal.Correction.Weighted>
   9.000000E+99

> <Gold.Protein.RotatedTorsions>
[ 6907 6896 6895 6894 ] final   38.68 input  -60.11 | X-H torsion
[ 7974 7965 7964 7962 ] final  147.44 input  175.53 | X-H torsion
[ 8008 7997 7996 7995 ] final -156.39 input   59.86 | X-H torsion
[ 10167 10162 10161 10158 ] final   16.64 input  -65.29 | X-H torsion
[ 10718 10713 10712 10709 ] final  108.60 input   66.30 | X-H torsion
[ 10763 10752 10751 10750 ] final  165.12 input  -60.55 | X-H torsion
[ 11005 11000 10999 10996 ] final   48.41 input  -57.11 | X-H torsion

> <Gold.Protein.ActiveResidues>
 VAL166  LYS551  ARG553  GLY616  TRP617  ASP618  TYR619  PRO620  LYS621  CYS622 
 ASP623  PHE694  ASN695  SER759  ASP760  ASP761  ALA762  ILE779  LEU786  VAL792 
 PHE793  MET794  SER795  GLU796  ALA797  LYS798  CYS799  TRP800  GLU811  SER814 

> <Gold.Protein.RotatedAtoms>
  152.1596  134.8922  160.0542 H   0  0  0  0  0  0  0  0  0  0  0  0  # atno 6907 bound_to 6896
  151.9923  133.3790  159.4157 H   0  0  0  0  0  0  0  0  0  0  0  0  # atno 6908 bound_to 6896
  150.6886  134.3846  159.5093 H   0  0  0  0  0  0  0  0  0  0  0  0  # atno 6909 bound_to 6896
  144.8591  139.6029  143.5938 H   0  0  0  0  0  0  0  0  0  0  0  0  # atno 7974 bound_to 7965
  155.7164  140.0784  157.2349 H   0  0  0  0  0  0  0  0  0  0  0  0  # atno 8008 bound_to 7997
  154.4051  140.1620  156.2407 H   0  0  0  0  0  0  0  0  0  0  0  0  # atno 8009 bound_to 7997
  155.9236  140.3396  155.6195 H   0  0  0  0  0  0  0  0  0  0  0  0  # atno 8010 bound_to 7997
  140.5783  143.9030  150.6768 H   0  0  0  0  0  0  0  0  0  0  0  0  # atno 10167 bound_to 10162
  157.6579  131.0897  150.6329 H   0  0  0  0  0  0  0  0  0  0  0  0  # atno 10718 bound_to 10713
  154.3193  135.2756  155.2527 H   0  0  0  0  0  0  0  0  0  0  0  0  # atno 10763 bound_to 10752
  154.4888  135.5839  153.6447 H   0  0  0  0  0  0  0  0  0  0  0  0  # atno 10764 bound_to 10752
  152.9878  135.6129  154.3376 H   0  0  0  0  0  0  0  0  0  0  0  0  # atno 10765 bound_to 10752
  140.1193  134.4851  155.8611 H   0  0  0  0  0  0  0  0  0  0  0  0  # atno 11005 bound_to 11000
  146.2847  139.6971  142.9204 LP  0  0  0  0  0  0  0  0  0  0  0  0  # atno 17320 bound_to 7965
  145.4347  141.0418  143.2891 LP  0  0  0  0  0  0  0  0  0  0  0  0  # atno 17321 bound_to 7965
  140.2523  143.3584  152.1395 LP  0  0  0  0  0  0  0  0  0  0  0  0  # atno 17342 bound_to 10162
  139.5155  144.6964  151.5619 LP  0  0  0  0  0  0  0  0  0  0  0  0  # atno 17343 bound_to 10162
  156.6634  130.4519  149.5680 LP  0  0  0  0  0  0  0  0  0  0  0  0  # atno 17370 bound_to 10713
  156.2050  130.6643  151.1208 LP  0  0  0  0  0  0  0  0  0  0  0  0  # atno 17371 bound_to 10713
  141.2148  133.6755  156.6857 LP  0  0  0  0  0  0  0  0  0  0  0  0  # atno 17394 bound_to 11000
  140.2986  134.8182  157.4078 LP  0  0  0  0  0  0  0  0  0  0  0  0  # atno 17395 bound_to 11000

$$$$
