AV-unprocessed.smi:2265|AV-procd|sdf|9145|dock5
  -GOLD-   2272012353D 1   1.00000     0.00000
 Structure written by MMmdl.
 36 37  0  0  0  0  0  0  0  0  1 V2000
  145.6300  144.7289  153.4684 C   0  0  0  0  0  0  0  0  0  0  0  0
  146.7295  143.7473  153.0490 C   0  0  0  0  0  0  0  0  0  0  0  0
  146.7665  142.4932  153.9322 C   0  0  0  0  0  0  0  0  0  0  0  0
  147.6103  141.3859  153.3263 C   0  0  2  0  0  0  0  0  0  0  0  0
  147.9603  140.1543  154.1184 C   0  0  0  0  0  0  0  0  0  0  0  0
  149.0469  141.1420  153.7440 C   0  0  2  0  0  0  0  0  0  0  0  0
  149.6136  141.9201  154.8053 N   0  0  0  0  0  0  0  0  0  0  0  0
  150.3542  141.4825  155.8392 C   0  0  0  0  0  0  0  0  0  0  0  0
  150.5919  140.2831  155.9802 O   0  0  0  0  0  0  0  0  0  0  0  0
  150.7478  142.4624  156.6827 N   0  0  0  0  0  0  0  0  0  0  0  0
  151.4947  142.3477  157.8616 C   0  0  0  0  0  0  0  0  0  0  0  0
  152.0163  141.2256  158.2724 N   0  0  0  0  0  0  0  0  0  0  0  0
  152.7557  141.1492  159.4529 C   0  0  0  0  0  0  0  0  0  0  0  0
  152.9595  142.2414  160.2112 C   0  0  0  0  0  0  0  0  0  0  0  0
  152.4329  143.4842  159.8325 N   0  0  0  0  0  0  0  0  0  0  0  0
  152.6815  144.6389  160.6960 C   0  0  0  0  0  0  0  0  0  0  0  0
  151.7001  143.6169  158.6936 C   0  0  0  0  0  0  0  0  0  0  0  0
  151.2124  144.6865  158.3224 O   0  0  0  0  0  0  0  0  0  0  0  0
  145.6256  145.6065  152.8217 H   0  0  0  0  0  0  0  0  0  0  0  0
  145.7778  145.0712  154.4930 H   0  0  0  0  0  0  0  0  0  0  0  0
  144.6447  144.2662  153.4081 H   0  0  0  0  0  0  0  0  0  0  0  0
  146.5753  143.4570  152.0092 H   0  0  0  0  0  0  0  0  0  0  0  0
  147.6954  144.2521  153.0887 H   0  0  0  0  0  0  0  0  0  0  0  0
  147.1752  142.7390  154.9129 H   0  0  0  0  0  0  0  0  0  0  0  0
  145.7506  142.1319  154.0963 H   0  0  0  0  0  0  0  0  0  0  0  0
  147.4083  141.2275  152.2684 H   0  0  0  0  0  0  0  0  0  0  0  0
  147.6426  140.1160  155.1589 H   0  0  0  0  0  0  0  0  0  0  0  0
  147.9444  139.2012  153.5940 H   0  0  0  0  0  0  0  0  0  0  0  0
  149.7276  140.7949  152.9678 H   0  0  0  0  0  0  0  0  0  0  0  0
  149.3621  142.8980  154.8144 H   0  0  0  0  0  0  0  0  0  0  0  0
  150.4502  143.3937  156.4310 H   0  0  0  0  0  0  0  0  0  0  0  0
  153.1483  140.1787  159.7186 H   0  0  0  0  0  0  0  0  0  0  0  0
  153.5234  142.2315  161.1326 H   0  0  0  0  0  0  0  0  0  0  0  0
  151.7483  144.9880  161.1397 H   0  0  0  0  0  0  0  0  0  0  0  0
  153.1164  145.4616  160.1265 H   0  0  0  0  0  0  0  0  0  0  0  0
  153.3692  144.4095  161.5106 H   0  0  0  0  0  0  0  0  0  0  0  0
  1  2  1  0  0  0  0
  1 19  1  0  0  0  0
  1 20  1  0  0  0  0
  1 21  1  0  0  0  0
  2  3  1  0  0  0  0
  2 22  1  0  0  0  0
  2 23  1  0  0  0  0
  3  4  1  0  0  0  0
  3 24  1  0  0  0  0
  3 25  1  0  0  0  0
  4  6  1  0  0  0  0
  4  5  1  0  0  0  0
  4 26  1  0  0  0  0
  5  6  1  0  0  0  0
  5 27  1  0  0  0  0
  5 28  1  0  0  0  0
  6  7  1  0  0  0  0
  6 29  1  0  0  0  0
  7  8  1  0  0  0  0
  7 30  1  0  0  0  0
  8  9  2  0  0  0  0
  8 10  1  0  0  0  0
 10 11  1  0  0  0  0
 10 31  1  0  0  0  0
 11 17  1  0  0  0  0
 11 12  2  0  0  0  0
 12 13  1  0  0  0  0
 13 14  2  0  0  0  0
 13 32  1  0  0  0  0
 14 15  1  0  0  0  0
 14 33  1  0  0  0  0
 15 16  1  0  0  0  0
 15 17  1  0  0  0  0
 16 34  1  0  0  0  0
 16 35  1  0  0  0  0
 16 36  1  0  0  0  0
 17 18  2  0  0  0  0
M  END
> <s_m_source_file>
AV-unprocessed.smi

> <i_m_source_file_index>
2265

> <i_lp_mmshare_version>
43012

> <i_f3d_flags>
0

> <s_epik_input>
W0NIM11bQ0gyXVtDSDJdW0NAQEhdMVtDSDJdW0NASF0xW05IXUMoPU8pW05IXWMybltjSF1bY0hdbihbQ0gzXSljMj1P

> <s_epik_cmdline>
J2VwaWtfcHl0aG9uJywgJy1waCcsICc3LjAnLCAnLXRuJywgJzgnLCAnLW1hJywgJzIwMCcsICctbWV0YWxfYmluZGluZycsICctaW1hZScsICc8aW5maWxlLm1hZT4nLCAnLW9tYWUnLCAnPG91dGZpbGUubWFlPic=

> <r_lp_tautomer_probability>
1

> <r_epik_Ionization_Penalty>
0.000728552

> <r_epik_Ionization_Penalty_Charging>
1.67739e-07

> <r_epik_Ionization_Penalty_Neutral>
0.000728385

> <r_epik_State_Penalty>
-0

> <r_epik_Charging_Adjusted_Penalty>
1.67739e-07

> <i_epik_Tot_Q>
0

> <i_epik_Tot_abs_Q>
0

> <r_epik_Metal_State_Penalty>
-0

> <b_epik_Metal_Only>
0

> <s_lp_Force_Field>
OPLS_2005

> <r_lp_Energy>
43.9494

> <b_lp_Chiralities_Consistent>
1

> <s_lp_Variant>
AV-unprocessed.smi:2265-3

> <Gold.Version>
5.8.1

> <Gold.Id.Protein>
6NUR|6NUR_protein|mol2

> <Gold.PLP.Fitness>
46.0267

> <Gold.PLP.PLP>
-40.4777

> <Gold.PLP.part.hbond>
-2.0000

> <Gold.PLP.part.metal>
0.0000

> <Gold.PLP.part.buried>
-4.5628

> <Gold.PLP.part.nonpolar>
-33.3783

> <Gold.PLP.part.repulsive>
0.4442

> <Gold.PLP.ligand.clash>
0.0000

> <Gold.PLP.ligand.torsion>
0.4540

> <Gold.PLP.Chemscore.Hbond>
1.9600

> <Gold.PLP.Chemscore.CHOScore>
0.0000

> <Gold.PLP.Chemscore.Metal>
0.0000

> <Gold.Chemscore.Hbonds>
donor molecule, donor type, donor heavy atom, donor atom, acceptor molecule, acceptor atom, score
      L1  H     7    30       P1  8028  0.96
      L1  H    10    31       P1  8028  0.61

> <Gold.PLP.Chemscore.Internal.Correction>
0.5769

> <Gold.Rescore>
     Score         DG    S(hbond)    S(metal)    S(lipo)     H(rot)  DE(clash)    DE(int)     intcor
     14.62     -16.75       1.93        0.00      73.11       1.46       0.43       1.71       ----

> <Gold.Chemscore.Fitness>
14.6159

> <Gold.Chemscore.DG>
-16.7524

> <Gold.Chemscore.ZeroCoef>
-5.4800

> <Gold.Chemscore.Hbond>
1.9334

> <Gold.Chemscore.Metal>
0.0000

> <Gold.Chemscore.Lipo>
73.1061

> <Gold.Chemscore.Internal_Hbond>
0.0000

> <Gold.Chemscore.DEClash>
0.4295

> <Gold.Chemscore.DEInternal>
1.7071

> <Gold.Chemscore.Rot>
1.4604

> <Gold.Chemscore.Internal.Correction>
   9.000000E+99

> <Gold.Chemscore.Hbonds>
donor molecule, donor type, donor heavy atom, donor atom, acceptor molecule, acceptor atom, score
      L1  H     7    30       P1  8028  0.89
      L1  H    10    31       P1  8028  0.59

> <Gold.Chemscore.Hbond.Weighted>
-6.4577

> <Gold.Chemscore.Metal.Weighted>
-0.0000

> <Gold.Chemscore.Lipo.Weighted>
-8.5534

> <Gold.Chemscore.Internal_Hbond.Weighted>
0.0000

> <Gold.Chemscore.DEClash.Weighted>
0.4295

> <Gold.Chemscore.DEInternal.Weighted>
1.7071

> <Gold.Chemscore.Rot.Weighted>
3.7387

> <Gold.Chemscore.Internal.Correction.Weighted>
   9.000000E+99

> <Gold.Protein.RotatedTorsions>
[ 6907 6896 6895 6894 ] final   -0.78 input  -60.11 | X-H torsion
[ 7974 7965 7964 7962 ] final -159.06 input  175.53 | X-H torsion
[ 8008 7997 7996 7995 ] final   54.71 input   59.86 | X-H torsion
[ 10167 10162 10161 10158 ] final -160.34 input  -65.29 | X-H torsion
[ 10718 10713 10712 10709 ] final -172.97 input   66.30 | X-H torsion
[ 10763 10752 10751 10750 ] final  -41.44 input  -60.55 | X-H torsion
[ 11005 11000 10999 10996 ] final    0.59 input  -57.11 | X-H torsion

> <Gold.Protein.ActiveResidues>
 VAL166  LYS551  ARG553  GLY616  TRP617  ASP618  TYR619  PRO620  LYS621  CYS622 
 ASP623  PHE694  ASN695  SER759  ASP760  ASP761  ALA762  ILE779  LEU786  VAL792 
 PHE793  MET794  SER795  GLU796  ALA797  LYS798  CYS799  TRP800  GLU811  SER814 

> <Gold.Protein.RotatedAtoms>
  151.5568  135.1066  159.9962 H   0  0  0  0  0  0  0  0  0  0  0  0  # atno 6907 bound_to 6896
  152.4466  133.7543  159.6722 H   0  0  0  0  0  0  0  0  0  0  0  0  # atno 6908 bound_to 6896
  150.8382  133.7910  159.3095 H   0  0  0  0  0  0  0  0  0  0  0  0  # atno 6909 bound_to 6896
  144.7480  140.3738  143.6070 H   0  0  0  0  0  0  0  0  0  0  0  0  # atno 7974 bound_to 7965
  155.4892  140.3471  155.4352 H   0  0  0  0  0  0  0  0  0  0  0  0  # atno 8008 bound_to 7997
  156.0988  140.1430  156.9523 H   0  0  0  0  0  0  0  0  0  0  0  0  # atno 8009 bound_to 7997
  154.4680  140.0910  156.7050 H   0  0  0  0  0  0  0  0  0  0  0  0  # atno 8010 bound_to 7997
  139.6547  144.0021  152.2185 H   0  0  0  0  0  0  0  0  0  0  0  0  # atno 10167 bound_to 10162
  156.7634  130.9422  151.3118 H   0  0  0  0  0  0  0  0  0  0  0  0  # atno 10718 bound_to 10713
  153.9625  135.6738  153.4745 H   0  0  0  0  0  0  0  0  0  0  0  0  # atno 10763 bound_to 10752
  153.0831  135.4913  154.8540 H   0  0  0  0  0  0  0  0  0  0  0  0  # atno 10764 bound_to 10752
  154.7264  135.3128  154.8923 H   0  0  0  0  0  0  0  0  0  0  0  0  # atno 10765 bound_to 10752
  140.6249  133.9627  155.8244 H   0  0  0  0  0  0  0  0  0  0  0  0  # atno 11005 bound_to 11000
  145.7049  139.1670  143.2571 LP  0  0  0  0  0  0  0  0  0  0  0  0  # atno 17320 bound_to 7965
  146.1388  140.7085  142.9377 LP  0  0  0  0  0  0  0  0  0  0  0  0  # atno 17321 bound_to 7965
  139.9744  144.6471  150.7959 LP  0  0  0  0  0  0  0  0  0  0  0  0  # atno 17342 bound_to 10162
  140.7553  143.3044  151.2998 LP  0  0  0  0  0  0  0  0  0  0  0  0  # atno 17343 bound_to 10162
  157.6724  130.9063  150.0072 LP  0  0  0  0  0  0  0  0  0  0  0  0  # atno 17370 bound_to 10713
  156.1325  130.3643  149.9710 LP  0  0  0  0  0  0  0  0  0  0  0  0  # atno 17371 bound_to 10713
  141.0716  134.0197  157.3518 LP  0  0  0  0  0  0  0  0  0  0  0  0  # atno 17394 bound_to 11000
  139.9138  135.0194  156.7801 LP  0  0  0  0  0  0  0  0  0  0  0  0  # atno 17395 bound_to 11000

$$$$
