AV-unprocessed.smi:2567|AV-procd|sdf|10086|dock2
  -GOLD-   2272014113D 1   1.00000     0.00000
 Structure written by MMmdl.
 32 33  0  0  0  0  0  0  0  0  2 V2000
  150.2060  145.0926  160.0248 C   0  0  0  0  0  0  0  0  0  0  0  0
  151.4389  144.3012  159.5443 C   0  0  0  0  0  0  0  0  0  0  0  0
  152.2901  145.2551  158.6823 C   0  0  0  0  0  0  0  0  0  0  0  0
  152.2547  143.8148  160.7544 C   0  0  0  0  0  0  0  0  0  0  0  0
  150.9966  143.1019  158.7117 C   0  0  0  0  0  0  0  0  0  0  0  0
  150.2376  142.0762  159.1445 N   0  5  0  0  0  0  0  0  0  0  0  0
  150.1467  141.1517  158.2111 N   0  0  0  0  0  0  0  0  0  0  0  0
  150.8914  141.6029  157.1914 C   0  0  0  0  0  0  0  0  0  0  0  0
  151.1299  140.8439  155.9012 C   0  0  2  0  0  0  0  0  0  0  0  0
  149.8300  140.7314  155.0792 C   0  0  0  0  0  0  0  0  0  0  0  0
  150.0625  139.9865  153.8418 N   0  0  0  0  0  0  0  0  0  0  0  0
  150.6549  138.6790  154.1146 C   0  0  0  0  0  0  0  0  0  0  0  0
  151.9358  138.8392  154.9507 C   0  0  0  0  0  0  0  0  0  0  0  0
  151.6315  139.5329  156.1551 O   0  0  0  0  0  0  0  0  0  0  0  0
  151.4466  142.7837  157.4997 N   0  0  0  0  0  0  0  0  0  0  0  0
  150.4969  145.9703  160.6027 H   0  0  0  0  0  0  0  0  0  0  0  0
  149.5640  144.4840  160.6628 H   0  0  0  0  0  0  0  0  0  0  0  0
  149.6028  145.4362  159.1835 H   0  0  0  0  0  0  0  0  0  0  0  0
  151.7355  145.6013  157.8093 H   0  0  0  0  0  0  0  0  0  0  0  0
  153.1972  144.7680  158.3228 H   0  0  0  0  0  0  0  0  0  0  0  0
  152.5981  146.1350  159.2481 H   0  0  0  0  0  0  0  0  0  0  0  0
  152.5916  144.6501  161.3691 H   0  0  0  0  0  0  0  0  0  0  0  0
  153.1382  143.2596  160.4371 H   0  0  0  0  0  0  0  0  0  0  0  0
  151.6626  143.1548  161.3891 H   0  0  0  0  0  0  0  0  0  0  0  0
  151.8767  141.4012  155.3322 H   0  0  0  0  0  0  0  0  0  0  0  0
  149.0637  140.2319  155.6733 H   0  0  0  0  0  0  0  0  0  0  0  0
  149.4469  141.7255  154.8475 H   0  0  0  0  0  0  0  0  0  0  0  0
  149.9422  138.0536  154.6534 H   0  0  0  0  0  0  0  0  0  0  0  0
  150.8787  138.1664  153.1791 H   0  0  0  0  0  0  0  0  0  0  0  0
  152.3435  137.8602  155.2020 H   0  0  0  0  0  0  0  0  0  0  0  0
  152.7069  139.3711  154.3913 H   0  0  0  0  0  0  0  0  0  0  0  0
  149.1828  139.8650  153.3506 H   0  0  0  0  0  0  0  0  0  0  0  0
  1  2  1  0  0  0  0
  1 16  1  0  0  0  0
  1 17  1  0  0  0  0
  1 18  1  0  0  0  0
  2  3  1  0  0  0  0
  2  4  1  0  0  0  0
  2  5  1  0  0  0  0
  3 19  1  0  0  0  0
  3 20  1  0  0  0  0
  3 21  1  0  0  0  0
  4 22  1  0  0  0  0
  4 23  1  0  0  0  0
  4 24  1  0  0  0  0
  5 15  2  0  0  0  0
  5  6  1  0  0  0  0
  6  7  1  0  0  0  0
  7  8  2  0  0  0  0
  8  9  1  0  0  0  0
  8 15  1  0  0  0  0
  9 14  1  0  0  0  0
  9 10  1  0  0  0  0
  9 25  1  0  0  0  0
 10 11  1  0  0  0  0
 10 26  1  0  0  0  0
 10 27  1  0  0  0  0
 11 12  1  0  0  0  0
 11 32  1  0  0  0  0
 12 13  1  0  0  0  0
 12 28  1  0  0  0  0
 12 29  1  0  0  0  0
 13 14  1  0  0  0  0
 13 30  1  0  0  0  0
 13 31  1  0  0  0  0
M  CHG  1   6  -1
M  END
> <s_m_source_file>
AV-unprocessed.smi

> <i_m_source_file_index>
2567

> <i_lp_mmshare_version>
43012

> <i_f3d_flags>
0

> <s_epik_input>
W0NIM11DKFtDSDNdKShbQ0gzXSljMW5bbkhdYyhuMSlbQ0BASF0yW0NIMl1bTkhdW0NIMl1bQ0gyXU8y

> <s_epik_cmdline>
J2VwaWtfcHl0aG9uJywgJy1waCcsICc3LjAnLCAnLXRuJywgJzgnLCAnLW1hJywgJzIwMCcsICctbWV0YWxfYmluZGluZycsICctaW1hZScsICc8aW5maWxlLm1hZT4nLCAnLW9tYWUnLCAnPG91dGZpbGUubWFlPic=

> <r_lp_tautomer_probability>
0.948284

> <r_epik_Ionization_Penalty>
17.5852

> <r_epik_Ionization_Penalty_Charging>
16.0119

> <r_epik_Ionization_Penalty_Neutral>
1.5733

> <r_epik_State_Penalty>
6.64574

> <r_epik_Charging_Adjusted_Penalty>
22.6576

> <i_epik_Tot_Q>
-1

> <i_epik_Tot_abs_Q>
1

> <r_epik_Metal_State_Penalty>
2.89273

> <b_epik_Metal_Only>
1

> <s_lp_Force_Field>
OPLS_2005

> <r_lp_Energy>
12.7078

> <b_lp_Chiralities_Consistent>
1

> <s_lp_Variant>
AV-unprocessed.smi:2567-11

> <Gold.Version>
5.8.1

> <Gold.Id.Protein>
6NUR|6NUR_protein|mol2

> <Gold.PLP.Fitness>
35.7524

> <Gold.PLP.PLP>
-33.7917

> <Gold.PLP.part.hbond>
-3.0000

> <Gold.PLP.part.metal>
0.0000

> <Gold.PLP.part.buried>
-4.3114

> <Gold.PLP.part.nonpolar>
-26.2713

> <Gold.PLP.part.repulsive>
0.1324

> <Gold.PLP.ligand.clash>
0.0000

> <Gold.PLP.ligand.torsion>
0.1997

> <Gold.PLP.Chemscore.Hbond>
0.7254

> <Gold.PLP.Chemscore.CHOScore>
0.0000

> <Gold.PLP.Chemscore.Metal>
0.0000

> <Gold.Chemscore.Hbonds>
donor molecule, donor type, donor heavy atom, donor atom, acceptor molecule, acceptor atom, score
      L1  H    11    32       P1  7957  0.07
      P1  H  7989  7998       L1    11  0.51

> <Gold.PLP.Chemscore.Internal.Correction>
0.1839

> <Gold.Rescore>
     Score         DG    S(hbond)    S(metal)    S(lipo)     H(rot)  DE(clash)    DE(int)     intcor
     12.09     -12.27       0.32        0.00      75.83       1.23       0.02       0.16       ----

> <Gold.Chemscore.Fitness>
12.0852

> <Gold.Chemscore.DG>
-12.2723

> <Gold.Chemscore.ZeroCoef>
-5.4800

> <Gold.Chemscore.Hbond>
0.3186

> <Gold.Chemscore.Metal>
0.0000

> <Gold.Chemscore.Lipo>
75.8339

> <Gold.Chemscore.Internal_Hbond>
0.0000

> <Gold.Chemscore.DEClash>
0.0225

> <Gold.Chemscore.DEInternal>
0.1646

> <Gold.Chemscore.Rot>
1.2283

> <Gold.Chemscore.Internal.Correction>
   9.000000E+99

> <Gold.Chemscore.Hbonds>
donor molecule, donor type, donor heavy atom, donor atom, acceptor molecule, acceptor atom, score
      L1  H    11    32       P1  7957  0.07
      P1  H  7989  7998       L1    11  0.01

> <Gold.Chemscore.Hbond.Weighted>
-1.0641

> <Gold.Chemscore.Metal.Weighted>
-0.0000

> <Gold.Chemscore.Lipo.Weighted>
-8.8726

> <Gold.Chemscore.Internal_Hbond.Weighted>
0.0000

> <Gold.Chemscore.DEClash.Weighted>
0.0225

> <Gold.Chemscore.DEInternal.Weighted>
0.1646

> <Gold.Chemscore.Rot.Weighted>
3.1444

> <Gold.Chemscore.Internal.Correction.Weighted>
   9.000000E+99

> <Gold.Protein.RotatedTorsions>
[ 6907 6896 6895 6894 ] final -119.10 input  -60.11 | X-H torsion
[ 7974 7965 7964 7962 ] final  173.64 input  175.53 | X-H torsion
[ 8008 7997 7996 7995 ] final -169.20 input   59.86 | X-H torsion
[ 10167 10162 10161 10158 ] final   44.79 input  -65.29 | X-H torsion
[ 10718 10713 10712 10709 ] final -110.59 input   66.30 | X-H torsion
[ 10763 10752 10751 10750 ] final -140.35 input  -60.55 | X-H torsion
[ 11005 11000 10999 10996 ] final  106.24 input  -57.11 | X-H torsion

> <Gold.Protein.ActiveResidues>
 VAL166  LYS551  ARG553  GLY616  TRP617  ASP618  TYR619  PRO620  LYS621  CYS622 
 ASP623  PHE694  ASN695  SER759  ASP760  ASP761  ALA762  ILE779  LEU786  VAL792 
 PHE793  MET794  SER795  GLU796  ALA797  LYS798  CYS799  TRP800  GLU811  SER814 

> <Gold.Protein.RotatedAtoms>
  150.8276  133.8145  159.3111 H   0  0  0  0  0  0  0  0  0  0  0  0  # atno 6907 bound_to 6896
  151.5885  135.1053  160.0043 H   0  0  0  0  0  0  0  0  0  0  0  0  # atno 6908 bound_to 6896
  152.4359  133.7319  159.6649 H   0  0  0  0  0  0  0  0  0  0  0  0  # atno 6909 bound_to 6896
  144.7239  139.9678  143.6436 H   0  0  0  0  0  0  0  0  0  0  0  0  # atno 7974 bound_to 7965
  155.9018  140.1042  157.1344 H   0  0  0  0  0  0  0  0  0  0  0  0  # atno 8008 bound_to 7997
  154.4027  140.1291  156.4510 H   0  0  0  0  0  0  0  0  0  0  0  0  # atno 8009 bound_to 7997
  155.7414  140.3467  155.5108 H   0  0  0  0  0  0  0  0  0  0  0  0  # atno 8010 bound_to 7997
  140.3307  144.2592  150.6168 H   0  0  0  0  0  0  0  0  0  0  0  0  # atno 10167 bound_to 10162
  156.0599  130.5823  150.8258 H   0  0  0  0  0  0  0  0  0  0  0  0  # atno 10718 bound_to 10713
  154.8581  135.3556  154.5693 H   0  0  0  0  0  0  0  0  0  0  0  0  # atno 10763 bound_to 10752
  153.6306  135.7002  153.5281 H   0  0  0  0  0  0  0  0  0  0  0  0  # atno 10764 bound_to 10752
  153.3052  135.4194  155.1247 H   0  0  0  0  0  0  0  0  0  0  0  0  # atno 10765 bound_to 10752
  139.8811  134.9362  156.5636 H   0  0  0  0  0  0  0  0  0  0  0  0  # atno 11005 bound_to 11000
  146.0587  139.3582  143.0595 LP  0  0  0  0  0  0  0  0  0  0  0  0  # atno 17320 bound_to 7965
  145.8121  140.9720  143.0943 LP  0  0  0  0  0  0  0  0  0  0  0  0  # atno 17321 bound_to 7965
  140.5400  143.2225  151.8101 LP  0  0  0  0  0  0  0  0  0  0  0  0  # atno 17342 bound_to 10162
  139.4857  144.4613  151.9538 LP  0  0  0  0  0  0  0  0  0  0  0  0  # atno 17343 bound_to 10162
  157.5600  131.0945  150.9573 LP  0  0  0  0  0  0  0  0  0  0  0  0  # atno 17370 bound_to 10713
  156.9813  130.5528  149.5296 LP  0  0  0  0  0  0  0  0  0  0  0  0  # atno 17371 bound_to 10713
  140.8151  133.8398  155.8845 LP  0  0  0  0  0  0  0  0  0  0  0  0  # atno 17394 bound_to 11000
  140.9470  134.1827  157.4756 LP  0  0  0  0  0  0  0  0  0  0  0  0  # atno 17395 bound_to 11000

$$$$
