AV-unprocessed.smi:2990|AV-procd|sdf|11393|dock3
  -GOLD-   2272016313D 1   1.00000     0.00000
 Structure written by MMmdl.
 39 41  0  0  0  0  0  0  0  0  1 V2000
  153.5672  139.0174  160.1058 C   0  0  0  0  0  0  0  0  0  0  0  0
  153.0465  140.3950  159.8438 C   0  0  0  0  0  0  0  0  0  0  0  0
  153.5890  141.4778  160.4007 N   0  0  0  0  0  0  0  0  0  0  0  0
  152.8044  142.5000  159.9027 C   0  0  0  0  0  0  0  0  0  0  0  0
  152.8670  143.8952  160.1199 C   0  0  0  0  0  0  0  0  0  0  0  0
  151.9428  144.7571  159.4938 C   0  0  0  0  0  0  0  0  0  0  0  0
  150.9458  144.2381  158.6426 C   0  0  0  0  0  0  0  0  0  0  0  0
  150.8669  142.8513  158.4110 C   0  0  0  0  0  0  0  0  0  0  0  0
  151.7907  141.9948  159.0395 C   0  0  0  0  0  0  0  0  0  0  0  0
  151.9878  140.6171  159.0266 N   0  0  0  0  0  0  0  0  0  0  0  0
  151.2055  139.6355  158.2873 C   0  0  0  0  0  0  0  0  0  0  0  0
  151.7033  139.4419  156.8404 C   0  0  2  0  0  0  0  0  0  0  0  0
  153.1158  139.3841  156.8203 O   0  0  0  0  0  0  0  0  0  0  0  0
  151.2535  140.5767  155.9087 C   0  0  0  0  0  0  0  0  0  0  0  0
  150.6949  140.0154  154.7280 O   0  0  0  0  0  0  0  0  0  0  0  0
  149.4477  140.4455  154.3285 C   0  0  0  0  0  0  0  0  0  0  0  0
  149.0884  141.7676  154.6641 C   0  0  0  0  0  0  0  0  0  0  0  0
  147.8330  142.2894  154.2968 C   0  0  0  0  0  0  0  0  0  0  0  0
  146.9193  141.4891  153.5866 C   0  0  0  0  0  0  0  0  0  0  0  0
  147.2641  140.1682  153.2453 C   0  0  0  0  0  0  0  0  0  0  0  0
  148.5201  139.6466  153.6123 C   0  0  0  0  0  0  0  0  0  0  0  0
  154.4379  139.0571  160.7613 H   0  0  0  0  0  0  0  0  0  0  0  0
  153.8631  138.5377  159.1732 H   0  0  0  0  0  0  0  0  0  0  0  0
  152.8021  138.4104  160.5899 H   0  0  0  0  0  0  0  0  0  0  0  0
  153.6268  144.3026  160.7701 H   0  0  0  0  0  0  0  0  0  0  0  0
  151.9989  145.8217  159.6679 H   0  0  0  0  0  0  0  0  0  0  0  0
  150.2415  144.9052  158.1675 H   0  0  0  0  0  0  0  0  0  0  0  0
  150.1063  142.4509  157.7574 H   0  0  0  0  0  0  0  0  0  0  0  0
  151.2303  138.6893  158.8281 H   0  0  0  0  0  0  0  0  0  0  0  0
  150.1619  139.9527  158.2873 H   0  0  0  0  0  0  0  0  0  0  0  0
  151.3336  138.4949  156.4463 H   0  0  0  0  0  0  0  0  0  0  0  0
  153.3773  138.4792  156.7430 H   0  0  0  0  0  0  0  0  0  0  0  0
  150.5249  141.2111  156.4168 H   0  0  0  0  0  0  0  0  0  0  0  0
  152.1136  141.1941  155.6432 H   0  0  0  0  0  0  0  0  0  0  0  0
  149.7836  142.3889  155.2093 H   0  0  0  0  0  0  0  0  0  0  0  0
  147.5712  143.3035  154.5606 H   0  0  0  0  0  0  0  0  0  0  0  0
  145.9558  141.8872  153.3045 H   0  0  0  0  0  0  0  0  0  0  0  0
  146.5635  139.5523  152.7012 H   0  0  0  0  0  0  0  0  0  0  0  0
  148.7469  138.6290  153.3332 H   0  0  0  0  0  0  0  0  0  0  0  0
  1  2  1  0  0  0  0
  1 22  1  0  0  0  0
  1 23  1  0  0  0  0
  1 24  1  0  0  0  0
  2 10  1  0  0  0  0
  2  3  2  0  0  0  0
  3  4  1  0  0  0  0
  4  9  2  0  0  0  0
  4  5  1  0  0  0  0
  5  6  2  0  0  0  0
  5 25  1  0  0  0  0
  6  7  1  0  0  0  0
  6 26  1  0  0  0  0
  7  8  2  0  0  0  0
  7 27  1  0  0  0  0
  8  9  1  0  0  0  0
  8 28  1  0  0  0  0
  9 10  1  0  0  0  0
 10 11  1  0  0  0  0
 11 12  1  0  0  0  0
 11 29  1  0  0  0  0
 11 30  1  0  0  0  0
 12 13  1  0  0  0  0
 12 14  1  0  0  0  0
 12 31  1  0  0  0  0
 13 32  1  0  0  0  0
 14 15  1  0  0  0  0
 14 33  1  0  0  0  0
 14 34  1  0  0  0  0
 15 16  1  0  0  0  0
 16 21  1  0  0  0  0
 16 17  2  0  0  0  0
 17 18  1  0  0  0  0
 17 35  1  0  0  0  0
 18 19  2  0  0  0  0
 18 36  1  0  0  0  0
 19 20  1  0  0  0  0
 19 37  1  0  0  0  0
 20 21  2  0  0  0  0
 20 38  1  0  0  0  0
 21 39  1  0  0  0  0
M  END
> <s_m_source_file>
AV-unprocessed.smi

> <i_m_source_file_index>
2990

> <i_lp_mmshare_version>
43012

> <i_f3d_flags>
0

> <s_epik_input>
W2NIXTFbY0hdW2NIXVtjSF1jKGMxMiluKGMobjIpW0NIM10pW0NIMl1bQ0BIXShbT0hdKVtDSDJdT2MzW2NIXVtjSF1bY0hdW2NIXVtjSF0z

> <s_epik_cmdline>
J2VwaWtfcHl0aG9uJywgJy1waCcsICc3LjAnLCAnLXRuJywgJzgnLCAnLW1hJywgJzIwMCcsICctbWV0YWxfYmluZGluZycsICctaW1hZScsICc8aW5maWxlLm1hZT4nLCAnLW9tYWUnLCAnPG91dGZpbGUubWFlPic=

> <r_lp_tautomer_probability>
1

> <r_epik_Ionization_Penalty>
0.119634

> <r_epik_Ionization_Penalty_Charging>
0

> <r_epik_Ionization_Penalty_Neutral>
0.119634

> <r_epik_State_Penalty>
0.10919

> <r_epik_Charging_Adjusted_Penalty>
0.10919

> <i_epik_Tot_Q>
0

> <i_epik_Tot_abs_Q>
0

> <r_epik_Metal_State_Penalty>
0.000119887

> <b_epik_Metal_Only>
0

> <s_lp_Force_Field>
OPLS_2005

> <r_lp_Energy>
14.3575

> <b_lp_Chiralities_Consistent>
1

> <s_lp_Variant>
AV-unprocessed.smi:2990-1

> <Gold.Version>
5.8.1

> <Gold.Id.Protein>
6NUR|6NUR_protein|mol2

> <Gold.PLP.Fitness>
48.1798

> <Gold.PLP.PLP>
-46.5200

> <Gold.PLP.part.hbond>
-2.0000

> <Gold.PLP.part.metal>
0.0000

> <Gold.PLP.part.buried>
-1.8873

> <Gold.PLP.part.nonpolar>
-42.2136

> <Gold.PLP.part.repulsive>
0.0701

> <Gold.PLP.ligand.clash>
0.0000

> <Gold.PLP.ligand.torsion>
1.9086

> <Gold.PLP.Chemscore.Hbond>
1.7500

> <Gold.PLP.Chemscore.CHOScore>
0.0000

> <Gold.PLP.Chemscore.Metal>
0.0000

> <Gold.Chemscore.Hbonds>
donor molecule, donor type, donor heavy atom, donor atom, acceptor molecule, acceptor atom, score
      P1  H  7989  7998       L1    15  0.85
      P1  H  7997  8009       L1    13  0.84

> <Gold.PLP.Chemscore.Internal.Correction>
0.2271

> <Gold.Rescore>
     Score         DG    S(hbond)    S(metal)    S(lipo)     H(rot)  DE(clash)    DE(int)     intcor
     16.82     -18.92       0.85        0.00     135.29       2.04       0.28       1.83       ----

> <Gold.Chemscore.Fitness>
16.8163

> <Gold.Chemscore.DG>
-18.9237

> <Gold.Chemscore.ZeroCoef>
-5.4800

> <Gold.Chemscore.Hbond>
0.8465

> <Gold.Chemscore.Metal>
0.0000

> <Gold.Chemscore.Lipo>
135.2898

> <Gold.Chemscore.Internal_Hbond>
0.0000

> <Gold.Chemscore.DEClash>
0.2769

> <Gold.Chemscore.DEInternal>
1.8305

> <Gold.Chemscore.Rot>
2.0361

> <Gold.Chemscore.Internal.Correction>
   9.000000E+99

> <Gold.Chemscore.Hbonds>
donor molecule, donor type, donor heavy atom, donor atom, acceptor molecule, acceptor atom, score
      P1  H  7989  7998       L1    15  0.04
      P1  H  7997  8009       L1    13  0.29

> <Gold.Chemscore.Hbond.Weighted>
-2.8272

> <Gold.Chemscore.Metal.Weighted>
-0.0000

> <Gold.Chemscore.Lipo.Weighted>
-15.8289

> <Gold.Chemscore.Internal_Hbond.Weighted>
0.0000

> <Gold.Chemscore.DEClash.Weighted>
0.2769

> <Gold.Chemscore.DEInternal.Weighted>
1.8305

> <Gold.Chemscore.Rot.Weighted>
5.2124

> <Gold.Chemscore.Internal.Correction.Weighted>
   9.000000E+99

> <Gold.Protein.RotatedTorsions>
[ 6907 6896 6895 6894 ] final    8.85 input  -60.11 | X-H torsion
[ 7974 7965 7964 7962 ] final  161.11 input  175.53 | X-H torsion
[ 8008 7997 7996 7995 ] final -168.20 input   59.86 | X-H torsion
[ 10167 10162 10161 10158 ] final  160.91 input  -65.29 | X-H torsion
[ 10718 10713 10712 10709 ] final  100.81 input   66.30 | X-H torsion
[ 10763 10752 10751 10750 ] final  -99.79 input  -60.55 | X-H torsion
[ 11005 11000 10999 10996 ] final   80.80 input  -57.11 | X-H torsion

> <Gold.Protein.ActiveResidues>
 VAL166  LYS551  ARG553  GLY616  TRP617  ASP618  TYR619  PRO620  LYS621  CYS622 
 ASP623  PHE694  ASN695  SER759  ASP760  ASP761  ALA762  ILE779  LEU786  VAL792 
 PHE793  MET794  SER795  GLU796  ALA797  LYS798  CYS799  TRP800  GLU811  SER814 

> <Gold.Protein.RotatedAtoms>
  151.7127  135.0909  160.0270 H   0  0  0  0  0  0  0  0  0  0  0  0  # atno 6907 bound_to 6896
  152.3651  133.6342  159.6053 H   0  0  0  0  0  0  0  0  0  0  0  0  # atno 6908 bound_to 6896
  150.7632  133.9277  159.3458 H   0  0  0  0  0  0  0  0  0  0  0  0  # atno 6909 bound_to 6896
  144.7702  139.7852  143.6300 H   0  0  0  0  0  0  0  0  0  0  0  0  # atno 7974 bound_to 7965
  155.8882  140.1020  157.1437 H   0  0  0  0  0  0  0  0  0  0  0  0  # atno 8008 bound_to 7997
  154.4012  140.1316  156.4345 H   0  0  0  0  0  0  0  0  0  0  0  0  # atno 8009 bound_to 7997
  155.7565  140.3464  155.5178 H   0  0  0  0  0  0  0  0  0  0  0  0  # atno 8010 bound_to 7997
  139.4844  144.4588  151.8732 H   0  0  0  0  0  0  0  0  0  0  0  0  # atno 10167 bound_to 10162
  157.6845  131.0708  150.5156 H   0  0  0  0  0  0  0  0  0  0  0  0  # atno 10718 bound_to 10713
  154.7526  135.4959  153.9317 H   0  0  0  0  0  0  0  0  0  0  0  0  # atno 10763 bound_to 10752
  153.1161  135.6721  153.9424 H   0  0  0  0  0  0  0  0  0  0  0  0  # atno 10764 bound_to 10752
  153.9170  135.3092  155.3427 H   0  0  0  0  0  0  0  0  0  0  0  0  # atno 10765 bound_to 10752
  139.9121  134.7948  156.1957 H   0  0  0  0  0  0  0  0  0  0  0  0  # atno 11005 bound_to 11000
  146.1842  139.5050  142.9846 LP  0  0  0  0  0  0  0  0  0  0  0  0  # atno 17320 bound_to 7965
  145.6347  141.0297  143.1844 LP  0  0  0  0  0  0  0  0  0  0  0  0  # atno 17321 bound_to 7965
  140.4049  144.2444  150.5891 LP  0  0  0  0  0  0  0  0  0  0  0  0  # atno 17342 bound_to 10162
  140.5021  143.2315  151.8662 LP  0  0  0  0  0  0  0  0  0  0  0  0  # atno 17343 bound_to 10162
  156.5472  130.4222  149.6125 LP  0  0  0  0  0  0  0  0  0  0  0  0  # atno 17370 bound_to 10713
  156.2934  130.7137  151.1991 LP  0  0  0  0  0  0  0  0  0  0  0  0  # atno 17371 bound_to 10713
  141.0556  133.6867  156.1854 LP  0  0  0  0  0  0  0  0  0  0  0  0  # atno 17394 bound_to 11000
  140.6742  134.4836  157.5588 LP  0  0  0  0  0  0  0  0  0  0  0  0  # atno 17395 bound_to 11000

$$$$
