#       Name:                AV-unprocessed.smi:1576
#       Creating user name   scv26
#       Creation time:       Fri Mar 27 06:56:23 2020


#       File generated by GOLD software.
#

@<TRIPOS>MOLECULE
AV-unprocessed.smi:1576
    49    51     1
SMALL
NO_CHARGES


@<TRIPOS>ATOM
      1 ****        -1.9718   1.8595  -0.6044 O.2            1 S1                 0.0000
      2 ****        -2.3136   0.8967   0.0814 C.2            1 S1                 0.0000
      3 ****        -1.4902  -0.0514   0.5609 N.am           1 S1                 0.0000
      4 ****        -0.0855  -0.1821   0.3855 C.ar           1 S1                 0.0000
      5 ****         0.6541   0.4343  -0.6505 C.ar           1 S1                 0.0000
      6 ****         2.0426   0.2111  -0.7231 C.ar           1 S1                 0.0000
      7 ****         2.6611  -0.6279   0.2333 C.ar           1 S1                 0.0000
      8 ****         4.0522  -0.8626   0.1774 N.3            1 S1                 0.0000
      9 ****         4.5527  -1.3630  -1.1045 C.3            1 S1                 0.0000
     10 ****         6.0789  -1.1991  -1.2074 C.3            1 S1                 0.0000
     11 ****         6.7868  -1.8418  -0.0054 C.3            1 S1                 0.0000
     12 ****         6.2221  -1.2707   1.3034 C.3            1 S1                 0.0000
     13 ****         4.6939  -1.4343   1.3641 C.3            1 S1                 0.0000
     14 ****         1.9473  -1.2234   1.2199 N.ar           1 S1                 0.0000
     15 ****         0.6171  -1.0082   1.2849 C.ar           1 S1                 0.0000
     16 ****        -3.5800   0.6745   0.4613 N.am           1 S1                 0.0000
     17 ****        -4.7168   1.5283   0.1287 C.3            1 S1                 0.0000
     18 ****        -5.1879   1.3344  -1.3275 C.3            1 S1                 0.0000
     19 ****        -6.5782   1.9631  -1.4818 C.3            1 S1                 0.0000
     20 ****        -7.3982   1.7910   0.1481 S.o2           1 S1                 0.0000
     21 ****        -7.7921   3.1245   0.6272 O.2            1 S1                 0.0000
     22 ****        -8.3691   0.6874   0.0979 O.2            1 S1                 0.0000
     23 ****        -5.9060   1.2324   1.0537 C.3            1 S1                 0.0000
     24 ****        -1.9123  -0.7358   1.1712 H              1 S1                 0.0000
     25 ****         0.1900   1.0624  -1.3943 H              1 S1                 0.0000
     26 ****         2.6166   0.6922  -1.5011 H              1 S1                 0.0000
     27 ****         4.2871  -2.4173  -1.1919 H              1 S1                 0.0000
     28 ****         4.0857  -0.8544  -1.9469 H              1 S1                 0.0000
     29 ****         6.4395  -1.6434  -2.1354 H              1 S1                 0.0000
     30 ****         6.3291  -0.1383  -1.2541 H              1 S1                 0.0000
     31 ****         6.6436  -2.9228  -0.0281 H              1 S1                 0.0000
     32 ****         7.8613  -1.6657  -0.0617 H              1 S1                 0.0000
     33 ****         6.6843  -1.7641   2.1587 H              1 S1                 0.0000
     34 ****         6.4781  -0.2131   1.3799 H              1 S1                 0.0000
     35 ****         4.3203  -0.9474   2.2659 H              1 S1                 0.0000
     36 ****         4.4344  -2.4914   1.4366 H              1 S1                 0.0000
     37 ****         0.0978  -1.5109   2.0878 H              1 S1                 0.0000
     38 ****        -3.7708  -0.1389   1.0278 H              1 S1                 0.0000
     39 ****        -4.4376   2.5750   0.2652 H              1 S1                 0.0000
     40 ****        -4.4814   1.7532  -2.0447 H              1 S1                 0.0000
     41 ****        -5.2624   0.2672  -1.5412 H              1 S1                 0.0000
     42 ****        -6.4975   3.0270  -1.7057 H              1 S1                 0.0000
     43 ****        -7.1772   1.4882  -2.2590 H              1 S1                 0.0000
     44 ****        -6.0122   0.1623   1.2344 H              1 S1                 0.0000
     45 ****        -5.8367   1.7427   2.0146 H              1 S1                 0.0000
     46 ****        -1.0098   1.9837  -0.8478 LP             1 S1                 0.0000
     47 ****        -2.6560   2.5178  -0.9184 LP             1 S1                 0.0000
     48 ****         4.3934   0.0764   0.2204 LP             1 S1                 0.0000
     49 ****         2.3997  -1.8130   1.8890 LP             1 S1                 0.0000
@<TRIPOS>BOND
    1    1    2 2     
    2    2    3 am    
    3    2   16 am    
    4    3    4 1     
    5    3   24 1     
    6    4   15 ar    
    7    4    5 ar    
    8    5    6 ar    
    9    5   25 1     
   10    6    7 ar    
   11    6   26 1     
   12    7    8 1     
   13    7   14 ar    
   14    8   13 1     
   15    8    9 1     
   16    9   10 1     
   17    9   27 1     
   18    9   28 1     
   19   10   11 1     
   20   10   29 1     
   21   10   30 1     
   22   11   12 1     
   23   11   31 1     
   24   11   32 1     
   25   12   13 1     
   26   12   33 1     
   27   12   34 1     
   28   13   35 1     
   29   13   36 1     
   30   14   15 ar    
   31   15   37 1     
   32   16   17 1     
   33   16   38 1     
   34   17   23 1     
   35   17   18 1     
   36   17   39 1     
   37   18   19 1     
   38   18   40 1     
   39   18   41 1     
   40   19   20 1     
   41   19   42 1     
   42   19   43 1     
   43   20   21 2     
   44   20   22 2     
   45   20   23 1     
   46   23   44 1     
   47   23   45 1     
   48    1   46 1     
   49    1   47 1     
   50    8   48 1     
   51   14   49 1     
@<TRIPOS>SUBSTRUCTURE
      1 S1             1
@<TRIPOS>SET
LONE_PAIRS      STATIC     ATOMS    <user>   **** ""
6 46 47 48 49 21 22
DONOR_HYDROGENS      STATIC     ATOMS    <user>   **** ""
2 24 38
ATOM$BLUE        STATIC     ATOMS    COLORGROUP SYSTEM
6 46 47 48 49 21 22
ATOM$RED        STATIC     ATOMS    COLORGROUP SYSTEM
2 24 38
