AV-unprocessed.smi:2997|AV-procd|sdf|11413|dock6
  -GOLD-   2272016333D 1   1.00000     0.00000
 Structure written by MMmdl.
 38 40  0  0  0  0  0  0  0  0  1 V2000
  153.9388  142.3362  163.0485 C   0  0  0  0  0  0  0  0  0  0  0  0
  153.2547  142.3842  161.6937 C   0  0  0  0  0  0  0  0  0  0  0  0
  152.5363  143.5448  161.3277 C   0  0  0  0  0  0  0  0  0  0  0  0
  151.8866  143.6299  160.0769 C   0  0  0  0  0  0  0  0  0  0  0  0
  151.1408  144.6545  159.5195 N   0  0  0  0  0  0  0  0  0  0  0  0
  150.8080  144.1330  158.3421 C   0  0  0  0  0  0  0  0  0  0  0  0
  151.2507  142.8900  158.0707 N   0  0  0  0  0  0  0  0  0  0  0  0
  151.0180  142.1185  156.8629 C   0  0  0  0  0  0  0  0  0  0  0  0
  149.6169  141.4792  156.8331 C   0  0  1  0  0  0  0  0  0  0  0  0
  148.6364  142.4656  157.0994 O   0  0  0  0  0  0  0  0  0  0  0  0
  149.3233  140.8017  155.4806 C   0  0  0  0  0  0  0  0  0  0  0  0
  150.2509  139.7261  155.1774 N   0  0  0  0  0  0  0  0  0  0  0  0
  149.9853  138.3812  155.0266 C   0  0  0  0  0  0  0  0  0  0  0  0
  151.1690  137.7625  154.7431 C   0  0  0  0  0  0  0  0  0  0  0  0
  152.1140  138.8264  154.7399 C   0  0  0  0  0  0  0  0  0  0  0  0
  151.5609  140.0011  154.9962 N   0  0  0  0  0  0  0  0  0  0  0  0
  151.9750  142.5128  159.1957 C   0  0  0  0  0  0  0  0  0  0  0  0
  152.6857  141.3521  159.5487 C   0  0  0  0  0  0  0  0  0  0  0  0
  153.3294  141.2838  160.8022 C   0  0  0  0  0  0  0  0  0  0  0  0
  154.0943  140.0262  161.1751 C   0  0  0  0  0  0  0  0  0  0  0  0
  153.8100  143.2720  163.5931 H   0  0  0  0  0  0  0  0  0  0  0  0
  155.0087  142.1631  162.9312 H   0  0  0  0  0  0  0  0  0  0  0  0
  153.5222  141.5340  163.6580 H   0  0  0  0  0  0  0  0  0  0  0  0
  152.4779  144.3827  162.0069 H   0  0  0  0  0  0  0  0  0  0  0  0
  150.2052  144.6852  157.6360 H   0  0  0  0  0  0  0  0  0  0  0  0
  151.1618  142.7684  155.9983 H   0  0  0  0  0  0  0  0  0  0  0  0
  151.7853  141.3457  156.8020 H   0  0  0  0  0  0  0  0  0  0  0  0
  149.5544  140.7307  157.6244 H   0  0  0  0  0  0  0  0  0  0  0  0
  148.6191  143.0758  156.3782 H   0  0  0  0  0  0  0  0  0  0  0  0
  148.3097  140.3986  155.4692 H   0  0  0  0  0  0  0  0  0  0  0  0
  149.3757  141.5341  154.6737 H   0  0  0  0  0  0  0  0  0  0  0  0
  148.9879  137.9810  155.1337 H   0  0  0  0  0  0  0  0  0  0  0  0
  151.3346  136.7104  154.5653 H   0  0  0  0  0  0  0  0  0  0  0  0
  153.1777  138.7803  154.5587 H   0  0  0  0  0  0  0  0  0  0  0  0
  152.7333  140.5217  158.8597 H   0  0  0  0  0  0  0  0  0  0  0  0
  154.0377  139.2772  160.3847 H   0  0  0  0  0  0  0  0  0  0  0  0
  153.6848  139.5847  162.0838 H   0  0  0  0  0  0  0  0  0  0  0  0
  155.1465  140.2553  161.3444 H   0  0  0  0  0  0  0  0  0  0  0  0
  1  2  1  0  0  0  0
  1 21  1  0  0  0  0
  1 22  1  0  0  0  0
  1 23  1  0  0  0  0
  2 19  1  0  0  0  0
  2  3  2  0  0  0  0
  3  4  1  0  0  0  0
  3 24  1  0  0  0  0
  4 17  2  0  0  0  0
  4  5  1  0  0  0  0
  5  6  2  0  0  0  0
  6  7  1  0  0  0  0
  6 25  1  0  0  0  0
  7  8  1  0  0  0  0
  7 17  1  0  0  0  0
  8  9  1  0  0  0  0
  8 26  1  0  0  0  0
  8 27  1  0  0  0  0
  9 10  1  0  0  0  0
  9 11  1  0  0  0  0
  9 28  1  0  0  0  0
 10 29  1  0  0  0  0
 11 12  1  0  0  0  0
 11 30  1  0  0  0  0
 11 31  1  0  0  0  0
 12 16  1  0  0  0  0
 12 13  1  0  0  0  0
 13 14  2  0  0  0  0
 13 32  1  0  0  0  0
 14 15  1  0  0  0  0
 14 33  1  0  0  0  0
 15 16  2  0  0  0  0
 15 34  1  0  0  0  0
 17 18  1  0  0  0  0
 18 19  2  0  0  0  0
 18 35  1  0  0  0  0
 19 20  1  0  0  0  0
 20 36  1  0  0  0  0
 20 37  1  0  0  0  0
 20 38  1  0  0  0  0
M  END
> <s_m_source_file>
AV-unprocessed.smi

> <i_m_source_file_index>
2997

> <i_lp_mmshare_version>
43012

> <i_f3d_flags>
0

> <s_epik_input>
W0NIM11jKFtjSF0xKWMoW0NIM10pW2NIXWMoYzEyKW4oW2NIXW4yKVtDSDJdW0NASF0oW09IXSlbQ0gyXW4zW2NIXVtjSF1bY0hdbjM=

> <s_epik_cmdline>
J2VwaWtfcHl0aG9uJywgJy1waCcsICc3LjAnLCAnLXRuJywgJzgnLCAnLW1hJywgJzIwMCcsICctbWV0YWxfYmluZGluZycsICctaW1hZScsICc8aW5maWxlLm1hZT4nLCAnLW9tYWUnLCAnPG91dGZpbGUubWFlPic=

> <r_lp_tautomer_probability>
1

> <r_epik_Ionization_Penalty>
0.102113

> <r_epik_Ionization_Penalty_Charging>
0

> <r_epik_Ionization_Penalty_Neutral>
0.102113

> <r_epik_State_Penalty>
0.0920694

> <r_epik_Charging_Adjusted_Penalty>
0.0920694

> <i_epik_Tot_Q>
0

> <i_epik_Tot_abs_Q>
0

> <r_epik_Metal_State_Penalty>
0.0784306

> <b_epik_Metal_Only>
0

> <s_lp_Force_Field>
OPLS_2005

> <r_lp_Energy>
7.68531

> <b_lp_Chiralities_Consistent>
1

> <s_lp_Variant>
AV-unprocessed.smi:2997-2

> <Gold.Version>
5.8.1

> <Gold.Id.Protein>
6NUR|6NUR_protein|mol2

> <Gold.PLP.Fitness>
57.7039

> <Gold.PLP.PLP>
-49.3243

> <Gold.PLP.part.hbond>
-2.0000

> <Gold.PLP.part.metal>
0.0000

> <Gold.PLP.part.buried>
-5.6784

> <Gold.PLP.part.nonpolar>
-42.2053

> <Gold.PLP.part.repulsive>
0.1579

> <Gold.PLP.ligand.clash>
0.0000

> <Gold.PLP.ligand.torsion>
0.3098

> <Gold.PLP.Chemscore.Hbond>
1.9600

> <Gold.PLP.Chemscore.CHOScore>
1.0339

> <Gold.PLP.Chemscore.Metal>
0.0000

> <Gold.Chemscore.Hbonds>
donor molecule, donor type, donor heavy atom, donor atom, acceptor molecule, acceptor atom, score
      L1  H    10    29       P1  8028  1.00
      P1  H  7989  7998       L1    16  1.00
      L1  C     6    25       P1  8028  0.87
      L1  C     6    25       P1  8029  0.14

> <Gold.PLP.Chemscore.Internal.Correction>
0.0175

> <Gold.Rescore>
     Score         DG    S(hbond)    S(metal)    S(lipo)     H(rot)  DE(clash)    DE(int)     intcor
     18.18     -20.06       1.87        0.00     118.27       2.15       0.05       1.83       ----

> <Gold.Chemscore.Fitness>
18.1770

> <Gold.Chemscore.DG>
-20.0622

> <Gold.Chemscore.ZeroCoef>
-5.4800

> <Gold.Chemscore.Hbond>
1.8733

> <Gold.Chemscore.Metal>
0.0000

> <Gold.Chemscore.Lipo>
118.2748

> <Gold.Chemscore.Internal_Hbond>
0.0000

> <Gold.Chemscore.DEClash>
0.0543

> <Gold.Chemscore.DEInternal>
1.8309

> <Gold.Chemscore.Rot>
2.1534

> <Gold.Chemscore.Internal.Correction>
   9.000000E+99

> <Gold.Chemscore.Hbonds>
donor molecule, donor type, donor heavy atom, donor atom, acceptor molecule, acceptor atom, score
      L1  H    10    29       P1  8028  0.89
      P1  H  7989  7998       L1    16  0.27

> <Gold.Chemscore.Hbond.Weighted>
-6.2568

> <Gold.Chemscore.Metal.Weighted>
-0.0000

> <Gold.Chemscore.Lipo.Weighted>
-13.8382

> <Gold.Chemscore.Internal_Hbond.Weighted>
0.0000

> <Gold.Chemscore.DEClash.Weighted>
0.0543

> <Gold.Chemscore.DEInternal.Weighted>
1.8309

> <Gold.Chemscore.Rot.Weighted>
5.5127

> <Gold.Chemscore.Internal.Correction.Weighted>
   9.000000E+99

> <Gold.Protein.RotatedTorsions>
[ 6907 6896 6895 6894 ] final  -40.49 input  -60.11 | X-H torsion
[ 7974 7965 7964 7962 ] final  -52.37 input  175.53 | X-H torsion
[ 8008 7997 7996 7995 ] final -138.78 input   59.86 | X-H torsion
[ 10167 10162 10161 10158 ] final  -49.39 input  -65.29 | X-H torsion
[ 10718 10713 10712 10709 ] final -125.52 input   66.30 | X-H torsion
[ 10763 10752 10751 10750 ] final  -21.66 input  -60.55 | X-H torsion
[ 11005 11000 10999 10996 ] final -110.02 input  -57.11 | X-H torsion

> <Gold.Protein.ActiveResidues>
 VAL166  LYS551  ARG553  GLY616  TRP617  ASP618  TYR619  PRO620  LYS621  CYS622 
 ASP623  PHE694  ASN695  SER759  ASP760  ASP761  ALA762  ILE779  LEU786  VAL792 
 PHE793  MET794  SER795  GLU796  ALA797  LYS798  CYS799  TRP800  GLU811  SER814 

> <Gold.Protein.RotatedAtoms>
  150.9778  134.9139  159.7825 H   0  0  0  0  0  0  0  0  0  0  0  0  # atno 6907 bound_to 6896
  152.5212  134.3452  159.9241 H   0  0  0  0  0  0  0  0  0  0  0  0  # atno 6908 bound_to 6896
  151.3460  133.3903  159.2710 H   0  0  0  0  0  0  0  0  0  0  0  0  # atno 6909 bound_to 6896
  145.9087  140.7933  142.9706 H   0  0  0  0  0  0  0  0  0  0  0  0  # atno 7974 bound_to 7965
  155.4339  140.0527  157.3016 H   0  0  0  0  0  0  0  0  0  0  0  0  # atno 8008 bound_to 7997
  154.4847  140.2096  155.9639 H   0  0  0  0  0  0  0  0  0  0  0  0  # atno 8009 bound_to 7997
  156.1258  140.3180  155.8280 H   0  0  0  0  0  0  0  0  0  0  0  0  # atno 8010 bound_to 7997
  140.6687  143.2700  151.4208 H   0  0  0  0  0  0  0  0  0  0  0  0  # atno 10167 bound_to 10162
  156.1683  130.6650  151.0145 H   0  0  0  0  0  0  0  0  0  0  0  0  # atno 10718 bound_to 10713
  153.6397  135.6985  153.5246 H   0  0  0  0  0  0  0  0  0  0  0  0  # atno 10763 bound_to 10752
  153.2793  135.4191  155.1062 H   0  0  0  0  0  0  0  0  0  0  0  0  # atno 10764 bound_to 10752
  154.8503  135.3598  154.5940 H   0  0  0  0  0  0  0  0  0  0  0  0  # atno 10765 bound_to 10752
  141.0815  133.9211  157.2278 H   0  0  0  0  0  0  0  0  0  0  0  0  # atno 11005 bound_to 11000
  144.6741  140.1791  143.7407 LP  0  0  0  0  0  0  0  0  0  0  0  0  # atno 17320 bound_to 7965
  145.8699  139.2266  143.1667 LP  0  0  0  0  0  0  0  0  0  0  0  0  # atno 17321 bound_to 7965
  139.5946  144.1425  152.2129 LP  0  0  0  0  0  0  0  0  0  0  0  0  # atno 17342 bound_to 10162
  140.0790  144.5716  150.7136 LP  0  0  0  0  0  0  0  0  0  0  0  0  # atno 17343 bound_to 10162
  157.6784  131.0844  150.7434 LP  0  0  0  0  0  0  0  0  0  0  0  0  # atno 17370 bound_to 10713
  156.7494  130.4764  149.5460 LP  0  0  0  0  0  0  0  0  0  0  0  0  # atno 17371 bound_to 10713
  139.9629  135.0149  156.9310 LP  0  0  0  0  0  0  0  0  0  0  0  0  # atno 17394 bound_to 11000
  140.5457  134.0676  155.7354 LP  0  0  0  0  0  0  0  0  0  0  0  0  # atno 17395 bound_to 11000

$$$$
