AV-unprocessed.smi:527|AV-procd|sdf|2818|dock7
  -GOLD-   2262023303D 1   1.00000     0.00000
 Structure written by MMmdl.
 42 43  0  0  0  0  0  0  0  0  1 V2000
  146.5783  142.0759  154.2534 C   0  0  0  0  0  0  0  0  0  0  0  0
  147.8915  141.4578  153.7310 C   0  0  1  0  0  0  0  0  0  0  0  0
  148.9704  141.4054  154.8318 C   0  0  0  0  0  0  0  0  0  0  0  0
  148.6756  140.3245  155.8837 C   0  0  0  0  0  0  0  0  0  0  0  0
  148.5037  138.9465  155.2301 C   0  0  0  0  0  0  0  0  0  0  0  0
  147.4254  138.9627  154.1266 C   0  0  2  0  0  0  0  0  0  0  0  0
  147.3590  137.6484  153.4898 N   0  0  0  0  0  0  0  0  0  0  0  0
  146.3255  136.7972  153.5717 C   0  0  0  0  0  0  0  0  0  0  0  0
  145.2974  137.0396  154.2079 O   0  0  0  0  0  0  0  0  0  0  0  0
  146.5712  135.6707  152.8749 N   0  0  0  0  0  0  0  0  0  0  0  0
  145.9140  134.4954  152.9532 C   0  0  0  0  0  0  0  0  0  0  0  0
  144.9577  134.2711  153.7000 O   0  0  0  0  0  0  0  0  0  0  0  0
  146.4427  133.4018  152.0153 C   0  0  0  0  0  0  0  0  0  0  0  0
  145.4182  132.8564  151.1406 N   0  0  0  0  0  0  0  0  0  0  0  0
  144.0657  133.1733  151.1332 C   0  0  0  0  0  0  0  0  0  0  0  0
  143.4901  132.4174  150.1371 C   0  0  0  0  0  0  0  0  0  0  0  0
  144.4627  131.6318  149.5230 N   0  0  0  0  0  0  0  0  0  0  0  0
  145.5780  131.9465  150.1690 C   0  0  0  0  0  0  0  0  0  0  0  0
  147.7206  140.0620  153.0734 C   0  0  1  0  0  0  0  0  0  0  0  0
  146.7000  140.0783  151.9179 C   0  0  0  0  0  0  0  0  0  0  0  0
  146.0916  141.4446  154.9960 H   0  0  0  0  0  0  0  0  0  0  0  0
  145.8661  142.2455  153.4461 H   0  0  0  0  0  0  0  0  0  0  0  0
  146.7639  143.0440  154.7192 H   0  0  0  0  0  0  0  0  0  0  0  0
  148.2619  142.1368  152.9617 H   0  0  0  0  0  0  0  0  0  0  0  0
  149.9394  141.1999  154.3748 H   0  0  0  0  0  0  0  0  0  0  0  0
  149.0663  142.3788  155.3144 H   0  0  0  0  0  0  0  0  0  0  0  0
  149.4858  140.2877  156.6125 H   0  0  0  0  0  0  0  0  0  0  0  0
  147.7756  140.5813  156.4426 H   0  0  0  0  0  0  0  0  0  0  0  0
  149.4583  138.6302  154.8069 H   0  0  0  0  0  0  0  0  0  0  0  0
  148.2485  138.2118  155.9948 H   0  0  0  0  0  0  0  0  0  0  0  0
  146.4587  139.1792  154.5843 H   0  0  0  0  0  0  0  0  0  0  0  0
  148.1601  137.3735  152.9405 H   0  0  0  0  0  0  0  0  0  0  0  0
  147.3352  135.7101  152.2167 H   0  0  0  0  0  0  0  0  0  0  0  0
  147.2472  133.8086  151.4011 H   0  0  0  0  0  0  0  0  0  0  0  0
  146.8660  132.5881  152.6055 H   0  0  0  0  0  0  0  0  0  0  0  0
  143.6367  133.8917  151.8164 H   0  0  0  0  0  0  0  0  0  0  0  0
  142.4593  132.3794  149.8171 H   0  0  0  0  0  0  0  0  0  0  0  0
  146.5347  131.5063  149.9282 H   0  0  0  0  0  0  0  0  0  0  0  0
  148.6835  139.8178  152.6212 H   0  0  0  0  0  0  0  0  0  0  0  0
  145.6796  140.1899  152.2847 H   0  0  0  0  0  0  0  0  0  0  0  0
  146.7383  139.1565  151.3374 H   0  0  0  0  0  0  0  0  0  0  0  0
  146.9002  140.8989  151.2286 H   0  0  0  0  0  0  0  0  0  0  0  0
  1  2  1  0  0  0  0
  1 21  1  0  0  0  0
  1 22  1  0  0  0  0
  1 23  1  0  0  0  0
  2 19  1  0  0  0  0
  2  3  1  0  0  0  0
  2 24  1  0  0  0  0
  3  4  1  0  0  0  0
  3 25  1  0  0  0  0
  3 26  1  0  0  0  0
  4  5  1  0  0  0  0
  4 27  1  0  0  0  0
  4 28  1  0  0  0  0
  5  6  1  0  0  0  0
  5 29  1  0  0  0  0
  5 30  1  0  0  0  0
  6  7  1  0  0  0  0
  6 19  1  0  0  0  0
  6 31  1  0  0  0  0
  7  8  1  0  0  0  0
  7 32  1  0  0  0  0
  8  9  2  0  0  0  0
  8 10  1  0  0  0  0
 10 11  1  0  0  0  0
 10 33  1  0  0  0  0
 11 12  2  0  0  0  0
 11 13  1  0  0  0  0
 13 14  1  0  0  0  0
 13 34  1  0  0  0  0
 13 35  1  0  0  0  0
 14 18  1  0  0  0  0
 14 15  1  0  0  0  0
 15 16  2  0  0  0  0
 15 36  1  0  0  0  0
 16 17  1  0  0  0  0
 16 37  1  0  0  0  0
 17 18  2  0  0  0  0
 18 38  1  0  0  0  0
 19 20  1  0  0  0  0
 19 39  1  0  0  0  0
 20 40  1  0  0  0  0
 20 41  1  0  0  0  0
 20 42  1  0  0  0  0
M  END
> <s_m_source_file>
AV-unprocessed.smi

> <i_m_source_file_index>
527

> <i_lp_mmshare_version>
43012

> <i_f3d_flags>
0

> <s_epik_input>
W0NIM11bQ0BASF0xW0NIMl1bQ0gyXVtDSDJdW0NASF0oW0NASF0xW0NIM10pW05IXUMoPU8pW05IXUMoPU8pW0NIMl1uMltjSF1bY0hdbltjSF0y

> <s_epik_cmdline>
J2VwaWtfcHl0aG9uJywgJy1waCcsICc3LjAnLCAnLXRuJywgJzgnLCAnLW1hJywgJzIwMCcsICctbWV0YWxfYmluZGluZycsICctaW1hZScsICc8aW5maWxlLm1hZT4nLCAnLW9tYWUnLCAnPG91dGZpbGUubWFlPic=

> <r_lp_tautomer_probability>
1

> <r_epik_Ionization_Penalty>
0.172132

> <r_epik_Ionization_Penalty_Charging>
0.172105

> <r_epik_Ionization_Penalty_Neutral>
2.71747e-05

> <r_epik_State_Penalty>
0.161503

> <r_epik_Charging_Adjusted_Penalty>
0.333607

> <i_epik_Tot_Q>
0

> <i_epik_Tot_abs_Q>
0

> <r_epik_Metal_State_Penalty>
0.124763

> <b_epik_Metal_Only>
0

> <s_lp_Force_Field>
OPLS_2005

> <r_lp_Energy>
17.6389

> <b_lp_Chiralities_Consistent>
1

> <s_lp_Variant>
AV-unprocessed.smi:527-4

> <Gold.Version>
5.8.1

> <Gold.Id.Protein>
6NUR|6NUR_protein|mol2

> <Gold.PLP.Fitness>
44.3688

> <Gold.PLP.PLP>
-29.2356

> <Gold.PLP.part.hbond>
-3.0000

> <Gold.PLP.part.metal>
0.0000

> <Gold.PLP.part.buried>
2.6352

> <Gold.PLP.part.nonpolar>
-30.1009

> <Gold.PLP.part.repulsive>
0.3238

> <Gold.PLP.ligand.clash>
0.0000

> <Gold.PLP.ligand.torsion>
0.1251

> <Gold.PLP.Chemscore.Hbond>
2.4134

> <Gold.PLP.Chemscore.CHOScore>
2.7097

> <Gold.PLP.Chemscore.Metal>
0.0000

> <Gold.Chemscore.Hbonds>
donor molecule, donor type, donor heavy atom, donor atom, acceptor molecule, acceptor atom, score
      L1  H     7    32       P1  7948  1.00
      L1  H    10    33       P1  7948  0.99
      P1  H 10785 10796       L1    17  0.39
      L1  C    16    37       P1 10186  0.89
      L1  C    16    37       P1 10952  0.79
      L1  C    18    38       P1 10747  0.99

> <Gold.PLP.Chemscore.Internal.Correction>
0.0142

> <Gold.Rescore>
     Score         DG    S(hbond)    S(metal)    S(lipo)     H(rot)  DE(clash)    DE(int)     intcor
     12.62     -17.77       2.31        0.00      75.44       1.66       2.78       2.37       ----

> <Gold.Chemscore.Fitness>
12.6161

> <Gold.Chemscore.DG>
-17.7693

> <Gold.Chemscore.ZeroCoef>
-5.4800

> <Gold.Chemscore.Hbond>
2.3113

> <Gold.Chemscore.Metal>
0.0000

> <Gold.Chemscore.Lipo>
75.4403

> <Gold.Chemscore.Internal_Hbond>
0.0000

> <Gold.Chemscore.DEClash>
2.7786

> <Gold.Chemscore.DEInternal>
2.3745

> <Gold.Chemscore.Rot>
1.6629

> <Gold.Chemscore.Internal.Correction>
   9.000000E+99

> <Gold.Chemscore.Hbonds>
donor molecule, donor type, donor heavy atom, donor atom, acceptor molecule, acceptor atom, score
      L1  H     7    32       P1  7948  0.95
      L1  H    10    33       P1  7948  0.94
      P1  H 10785 10796       L1    17  0.09

> <Gold.Chemscore.Hbond.Weighted>
-7.7197

> <Gold.Chemscore.Metal.Weighted>
-0.0000

> <Gold.Chemscore.Lipo.Weighted>
-8.8265

> <Gold.Chemscore.Internal_Hbond.Weighted>
0.0000

> <Gold.Chemscore.DEClash.Weighted>
2.7786

> <Gold.Chemscore.DEInternal.Weighted>
2.3745

> <Gold.Chemscore.Rot.Weighted>
4.2569

> <Gold.Chemscore.Internal.Correction.Weighted>
   9.000000E+99

> <Gold.Protein.RotatedTorsions>
[ 6907 6896 6895 6894 ] final  119.10 input  -60.11 | X-H torsion
[ 7974 7965 7964 7962 ] final  103.84 input  175.53 | X-H torsion
[ 8008 7997 7996 7995 ] final  -90.98 input   59.86 | X-H torsion
[ 10167 10162 10161 10158 ] final   69.92 input  -65.29 | X-H torsion
[ 10718 10713 10712 10709 ] final  128.58 input   66.30 | X-H torsion
[ 10763 10752 10751 10750 ] final  -56.78 input  -60.55 | X-H torsion
[ 11005 11000 10999 10996 ] final   48.91 input  -57.11 | X-H torsion

> <Gold.Protein.ActiveResidues>
 VAL166  LYS551  ARG553  GLY616  TRP617  ASP618  TYR619  PRO620  LYS621  CYS622 
 ASP623  PHE694  ASN695  SER759  ASP760  ASP761  ALA762  ILE779  LEU786  VAL792 
 PHE793  MET794  SER795  GLU796  ALA797  LYS798  CYS799  TRP800  GLU811  SER814 

> <Gold.Protein.RotatedAtoms>
  152.4496  133.7602  159.6742 H   0  0  0  0  0  0  0  0  0  0  0  0  # atno 6907 bound_to 6896
  150.8404  133.7935  159.3069 H   0  0  0  0  0  0  0  0  0  0  0  0  # atno 6908 bound_to 6896
  151.5562  135.1069  160.0013 H   0  0  0  0  0  0  0  0  0  0  0  0  # atno 6909 bound_to 6896
  145.3406  139.2463  143.3611 H   0  0  0  0  0  0  0  0  0  0  0  0  # atno 7974 bound_to 7965
  154.7052  140.0524  157.0497 H   0  0  0  0  0  0  0  0  0  0  0  0  # atno 8008 bound_to 7997
  155.0630  140.3191  155.4635 H   0  0  0  0  0  0  0  0  0  0  0  0  # atno 8009 bound_to 7997
  156.2772  140.2095  156.5757 H   0  0  0  0  0  0  0  0  0  0  0  0  # atno 8010 bound_to 7997
  140.0625  144.5221  150.7284 H   0  0  0  0  0  0  0  0  0  0  0  0  # atno 10167 bound_to 10162
  157.5232  131.1098  150.9122 H   0  0  0  0  0  0  0  0  0  0  0  0  # atno 10718 bound_to 10713
  154.2120  135.6393  153.5118 H   0  0  0  0  0  0  0  0  0  0  0  0  # atno 10763 bound_to 10752
  152.9988  135.5476  154.6205 H   0  0  0  0  0  0  0  0  0  0  0  0  # atno 10764 bound_to 10752
  154.5644  135.2911  155.0862 H   0  0  0  0  0  0  0  0  0  0  0  0  # atno 10765 bound_to 10752
  140.1149  134.4905  155.8645 H   0  0  0  0  0  0  0  0  0  0  0  0  # atno 11005 bound_to 11000
  146.3009  140.4002  142.8704 LP  0  0  0  0  0  0  0  0  0  0  0  0  # atno 17320 bound_to 7965
  144.8793  140.7379  143.5997 LP  0  0  0  0  0  0  0  0  0  0  0  0  # atno 17321 bound_to 7965
  140.7165  143.2549  151.4418 LP  0  0  0  0  0  0  0  0  0  0  0  0  # atno 17342 bound_to 10162
  139.5885  144.1551  152.2059 LP  0  0  0  0  0  0  0  0  0  0  0  0  # atno 17343 bound_to 10162
  156.9727  130.5497  149.5291 LP  0  0  0  0  0  0  0  0  0  0  0  0  # atno 17370 bound_to 10713
  156.0368  130.5455  150.8673 LP  0  0  0  0  0  0  0  0  0  0  0  0  # atno 17371 bound_to 10713
  141.2139  133.6740  156.6778 LP  0  0  0  0  0  0  0  0  0  0  0  0  # atno 17394 bound_to 11000
  140.3041  134.8140  157.4122 LP  0  0  0  0  0  0  0  0  0  0  0  0  # atno 17395 bound_to 11000

$$$$
