AV-unprocessed.smi:2988|AV-procd|sdf|11387|dock4
  -GOLD-   2272016313D 1   1.00000     0.00000
 Structure written by MMmdl.
 37 38  0  0  0  0  0  0  0  0  1 V2000
  151.4404  144.0341  157.0102 C   0  0  0  0  0  0  0  0  0  0  0  0
  151.5275  143.4499  158.4321 C   0  0  2  0  0  0  0  0  0  0  0  0
  152.4694  144.3013  159.3082 C   0  0  0  0  0  0  0  0  0  0  0  0
  152.5689  143.7571  160.7414 C   0  0  0  0  0  0  0  0  0  0  0  0
  153.0163  142.2892  160.7439 C   0  0  0  0  0  0  0  0  0  0  0  0
  152.0776  141.4270  159.8878 C   0  0  0  0  0  0  0  0  0  0  0  0
  151.9691  141.9631  158.4467 C   0  0  1  0  0  0  0  0  0  0  0  0
  151.0260  141.1288  157.7031 N   0  0  0  0  0  0  0  0  0  0  0  0
  151.3475  140.1947  156.7946 C   0  0  0  0  0  0  0  0  0  0  0  0
  152.5075  139.9098  156.4938 O   0  0  0  0  0  0  0  0  0  0  0  0
  150.1695  139.4654  156.1332 C   0  0  0  0  0  0  0  0  0  0  0  0
  149.1615  140.3838  155.5834 N   0  0  0  0  0  0  0  0  0  0  0  0
  149.2210  140.5317  154.2088 N   0  0  0  0  0  0  0  0  0  0  0  0
  148.3960  141.3275  153.6203 C   0  0  0  0  0  0  0  0  0  0  0  0
  147.3958  142.0768  154.3482 C   0  0  0  0  0  0  0  0  0  0  0  0
  146.3159  143.1295  153.5037 Cl  0  0  0  0  0  0  0  0  0  0  0  0
  147.3416  141.9195  155.6947 C   0  0  0  0  0  0  0  0  0  0  0  0
  146.1706  142.7804  156.6338 Cl  0  0  0  0  0  0  0  0  0  0  0  0
  148.2663  141.0212  156.3998 C   0  0  0  0  0  0  0  0  0  0  0  0
  148.2481  140.8496  157.6196 O   0  0  0  0  0  0  0  0  0  0  0  0
  152.3954  143.9525  156.4903 H   0  0  0  0  0  0  0  0  0  0  0  0
  151.1647  145.0886  157.0358 H   0  0  0  0  0  0  0  0  0  0  0  0
  150.6894  143.5217  156.4089 H   0  0  0  0  0  0  0  0  0  0  0  0
  150.5296  143.5107  158.8694 H   0  0  0  0  0  0  0  0  0  0  0  0
  153.4642  144.3265  158.8610 H   0  0  0  0  0  0  0  0  0  0  0  0
  152.1202  145.3341  159.3375 H   0  0  0  0  0  0  0  0  0  0  0  0
  153.2693  144.3598  161.3203 H   0  0  0  0  0  0  0  0  0  0  0  0
  151.6010  143.8468  161.2362 H   0  0  0  0  0  0  0  0  0  0  0  0
  154.0344  142.2152  160.3595 H   0  0  0  0  0  0  0  0  0  0  0  0
  153.0425  141.9093  161.7658 H   0  0  0  0  0  0  0  0  0  0  0  0
  152.4371  140.3971  159.8768 H   0  0  0  0  0  0  0  0  0  0  0  0
  151.0894  141.4034  160.3496 H   0  0  0  0  0  0  0  0  0  0  0  0
  152.9612  141.8968  157.9962 H   0  0  0  0  0  0  0  0  0  0  0  0
  150.0456  141.2878  157.8846 H   0  0  0  0  0  0  0  0  0  0  0  0
  150.5701  138.8239  155.3463 H   0  0  0  0  0  0  0  0  0  0  0  0
  149.7008  138.7896  156.8514 H   0  0  0  0  0  0  0  0  0  0  0  0
  148.4077  141.4787  152.5409 H   0  0  0  0  0  0  0  0  0  0  0  0
  1  2  1  0  0  0  0
  1 21  1  0  0  0  0
  1 22  1  0  0  0  0
  1 23  1  0  0  0  0
  2  7  1  0  0  0  0
  2  3  1  0  0  0  0
  2 24  1  0  0  0  0
  3  4  1  0  0  0  0
  3 25  1  0  0  0  0
  3 26  1  0  0  0  0
  4  5  1  0  0  0  0
  4 27  1  0  0  0  0
  4 28  1  0  0  0  0
  5  6  1  0  0  0  0
  5 29  1  0  0  0  0
  5 30  1  0  0  0  0
  6  7  1  0  0  0  0
  6 31  1  0  0  0  0
  6 32  1  0  0  0  0
  7  8  1  0  0  0  0
  7 33  1  0  0  0  0
  8  9  1  0  0  0  0
  8 34  1  0  0  0  0
  9 10  2  0  0  0  0
  9 11  1  0  0  0  0
 11 12  1  0  0  0  0
 11 35  1  0  0  0  0
 11 36  1  0  0  0  0
 12 19  1  0  0  0  0
 12 13  1  0  0  0  0
 13 14  2  0  0  0  0
 14 15  1  0  0  0  0
 14 37  1  0  0  0  0
 15 16  1  0  0  0  0
 15 17  2  0  0  0  0
 17 18  1  0  0  0  0
 17 19  1  0  0  0  0
 19 20  2  0  0  0  0
M  END
> <s_m_source_file>
AV-unprocessed.smi

> <i_m_source_file_index>
2988

> <i_lp_mmshare_version>
43012

> <i_f3d_flags>
0

> <s_epik_input>
W0NIM11bQ0BASF0xW0NIMl1bQ0gyXVtDSDJdW0NIMl1bQ0BIXTFbTkhdQyg9TylbQ0gyXW4ybltjSF1jKENsKWMoQ2wpYzI9Tw==

> <s_epik_cmdline>
J2VwaWtfcHl0aG9uJywgJy1waCcsICc3LjAnLCAnLXRuJywgJzgnLCAnLW1hJywgJzIwMCcsICctbWV0YWxfYmluZGluZycsICctaW1hZScsICc8aW5maWxlLm1hZT4nLCAnLW9tYWUnLCAnPG91dGZpbGUubWFlPic=

> <r_lp_tautomer_probability>
1

> <r_epik_Ionization_Penalty>
1.90782e-08

> <r_epik_Ionization_Penalty_Charging>
3.13143e-11

> <r_epik_Ionization_Penalty_Neutral>
1.90469e-08

> <r_epik_State_Penalty>
-0

> <r_epik_Charging_Adjusted_Penalty>
3.13143e-11

> <i_epik_Tot_Q>
0

> <i_epik_Tot_abs_Q>
0

> <r_epik_Metal_State_Penalty>
-0

> <b_epik_Metal_Only>
0

> <s_lp_Force_Field>
OPLS_2005

> <r_lp_Energy>
24.1537

> <b_lp_Chiralities_Consistent>
1

> <s_lp_Variant>
AV-unprocessed.smi:2988-1

> <Gold.Version>
5.8.1

> <Gold.Id.Protein>
6NUR|6NUR_protein|mol2

> <Gold.PLP.Fitness>
41.6423

> <Gold.PLP.PLP>
-37.1457

> <Gold.PLP.part.hbond>
-1.0000

> <Gold.PLP.part.metal>
0.0000

> <Gold.PLP.part.buried>
-2.3906

> <Gold.PLP.part.nonpolar>
-34.1166

> <Gold.PLP.part.repulsive>
0.2052

> <Gold.PLP.ligand.clash>
0.0000

> <Gold.PLP.ligand.torsion>
0.4898

> <Gold.PLP.Chemscore.Hbond>
1.0000

> <Gold.PLP.Chemscore.CHOScore>
0.8239

> <Gold.PLP.Chemscore.Metal>
0.0000

> <Gold.Chemscore.Hbonds>
donor molecule, donor type, donor heavy atom, donor atom, acceptor molecule, acceptor atom, score
      P1  H  7997  8009       L1    10  1.00
      L1  C    14    37       P1  7957  0.83

> <Gold.PLP.Chemscore.Internal.Correction>
0.0047

> <Gold.Rescore>
     Score         DG    S(hbond)    S(metal)    S(lipo)     H(rot)  DE(clash)    DE(int)     intcor
     16.68     -17.83       1.01        0.00     109.43       1.50       0.65       0.50       ----

> <Gold.Chemscore.Fitness>
16.6810

> <Gold.Chemscore.DG>
-17.8301

> <Gold.Chemscore.ZeroCoef>
-5.4800

> <Gold.Chemscore.Hbond>
1.0122

> <Gold.Chemscore.Metal>
0.0000

> <Gold.Chemscore.Lipo>
109.4304

> <Gold.Chemscore.Internal_Hbond>
0.0000

> <Gold.Chemscore.DEClash>
0.6520

> <Gold.Chemscore.DEInternal>
0.4971

> <Gold.Chemscore.Rot>
1.4977

> <Gold.Chemscore.Internal.Correction>
   9.000000E+99

> <Gold.Chemscore.Hbonds>
donor molecule, donor type, donor heavy atom, donor atom, acceptor molecule, acceptor atom, score
      P1  H  7997  8009       L1    10  1.00

> <Gold.Chemscore.Hbond.Weighted>
-3.3809

> <Gold.Chemscore.Metal.Weighted>
-0.0000

> <Gold.Chemscore.Lipo.Weighted>
-12.8034

> <Gold.Chemscore.Internal_Hbond.Weighted>
0.0000

> <Gold.Chemscore.DEClash.Weighted>
0.6520

> <Gold.Chemscore.DEInternal.Weighted>
0.4971

> <Gold.Chemscore.Rot.Weighted>
3.8341

> <Gold.Chemscore.Internal.Correction.Weighted>
   9.000000E+99

> <Gold.Protein.RotatedTorsions>
[ 6907 6896 6895 6894 ] final   -5.96 input  -60.11 | X-H torsion
[ 7974 7965 7964 7962 ] final   19.96 input  175.53 | X-H torsion
[ 8008 7997 7996 7995 ] final -164.39 input   59.86 | X-H torsion
[ 10167 10162 10161 10158 ] final   44.24 input  -65.29 | X-H torsion
[ 10718 10713 10712 10709 ] final   -9.25 input   66.30 | X-H torsion
[ 10763 10752 10751 10750 ] final   46.87 input  -60.55 | X-H torsion
[ 11005 11000 10999 10996 ] final   73.06 input  -57.11 | X-H torsion

> <Gold.Protein.ActiveResidues>
 VAL166  LYS551  ARG553  GLY616  TRP617  ASP618  TYR619  PRO620  LYS621  CYS622 
 ASP623  PHE694  ASN695  SER759  ASP760  ASP761  ALA762  ILE779  LEU786  VAL792 
 PHE793  MET794  SER795  GLU796  ALA797  LYS798  CYS799  TRP800  GLU811  SER814 

> <Gold.Protein.RotatedAtoms>
  151.4732  135.1047  159.9757 H   0  0  0  0  0  0  0  0  0  0  0  0  # atno 6907 bound_to 6896
  152.4808  133.8246  159.7082 H   0  0  0  0  0  0  0  0  0  0  0  0  # atno 6908 bound_to 6896
  150.8879  133.7222  159.2940 H   0  0  0  0  0  0  0  0  0  0  0  0  # atno 6909 bound_to 6896
  146.2129  139.8237  142.8674 H   0  0  0  0  0  0  0  0  0  0  0  0  # atno 7974 bound_to 7965
  155.8349  140.0939  157.1770 H   0  0  0  0  0  0  0  0  0  0  0  0  # atno 8008 bound_to 7997
  154.3980  140.1412  156.3719 H   0  0  0  0  0  0  0  0  0  0  0  0  # atno 8009 bound_to 7997
  155.8127  140.3449  155.5469 H   0  0  0  0  0  0  0  0  0  0  0  0  # atno 8010 bound_to 7997
  140.3363  144.2526  150.6161 H   0  0  0  0  0  0  0  0  0  0  0  0  # atno 10167 bound_to 10162
  156.6907  130.5064  149.5944 H   0  0  0  0  0  0  0  0  0  0  0  0  # atno 10718 bound_to 10713
  152.9806  135.5994  154.3670 H   0  0  0  0  0  0  0  0  0  0  0  0  # atno 10763 bound_to 10752
  154.3347  135.2768  155.2456 H   0  0  0  0  0  0  0  0  0  0  0  0  # atno 10764 bound_to 10752
  154.4564  135.5977  153.6281 H   0  0  0  0  0  0  0  0  0  0  0  0  # atno 10765 bound_to 10752
  139.9459  134.7314  156.0981 H   0  0  0  0  0  0  0  0  0  0  0  0  # atno 11005 bound_to 11000
  145.3069  141.0209  143.3577 LP  0  0  0  0  0  0  0  0  0  0  0  0  # atno 17320 bound_to 7965
  144.8964  139.4706  143.6653 LP  0  0  0  0  0  0  0  0  0  0  0  0  # atno 17321 bound_to 7965
  140.5351  143.2235  151.8176 LP  0  0  0  0  0  0  0  0  0  0  0  0  # atno 17342 bound_to 10162
  139.4848  144.4672  151.9470 LP  0  0  0  0  0  0  0  0  0  0  0  0  # atno 17343 bound_to 10162
  156.1800  130.6492  151.0940 LP  0  0  0  0  0  0  0  0  0  0  0  0  # atno 17370 bound_to 10713
  157.7010  131.0776  150.6820 LP  0  0  0  0  0  0  0  0  0  0  0  0  # atno 17371 bound_to 10713
  141.1109  133.6643  156.2976 LP  0  0  0  0  0  0  0  0  0  0  0  0  # atno 17394 bound_to 11000
  140.5836  134.5721  157.5485 LP  0  0  0  0  0  0  0  0  0  0  0  0  # atno 17395 bound_to 11000

$$$$
