#       Name:                AV-unprocessed.smi:2883
#       Creating user name   scv26
#       Creation time:       Fri Mar 27 15:55:10 2020


#       File generated by GOLD software.
#

@<TRIPOS>MOLECULE
AV-unprocessed.smi:2883
    43    45     1
SMALL
NO_CHARGES


@<TRIPOS>ATOM
      1 ****        -4.2413   0.8295  -0.8930 C.3            1 S1                 0.0000
      2 ****        -2.9650   0.8247  -0.0190 C.3            1 S1                 0.0000
      3 ****        -2.0756   1.9730  -0.5526 C.3            1 S1                 0.0000
      4 ****        -3.3432   1.1032   1.4472 C.3            1 S1                 0.0000
      5 ****        -2.2348  -0.5259  -0.1118 C.ar           1 S1                 0.0000
      6 ****        -2.9901  -1.6265  -0.2256 N.ar           1 S1                 0.0000
      7 ****        -2.3632  -2.8209  -0.1794 C.ar           1 S1                 0.0000
      8 ****        -0.9720  -2.9215   0.0152 C.ar           1 S1                 0.0000
      9 ****        -0.2708  -1.7090   0.1660 C.ar           1 S1                 0.0000
     10 ****         1.1147  -1.7343   0.3767 N.pl3          1 S1                 0.0000
     11 ****         1.8971  -0.5028   0.3709 C.3            1 S1                 0.0000
     12 ****         2.0735   0.0924  -1.0321 C.3            1 S1                 0.0000
     13 ****         3.5997   0.1898  -1.1456 C.3            1 S1                 0.0000
     14 ****         4.1873   1.2522  -0.2067 C.3            1 S1                 0.0000
     15 ****         4.0485   0.5753   1.1568 C.3            1 S1                 0.0000
     16 ****         3.3583  -0.7444   0.7859 C.3            1 S1                 0.0000
     17 ****         3.9735  -0.9964  -0.4675 O.3            1 S1                 0.0000
     18 ****        -0.9155  -0.5203   0.1186 N.ar           1 S1                 0.0000
     19 ****        -4.7372   1.8005  -0.8666 H              1 S1                 0.0000
     20 ****        -4.9721   0.0948  -0.5535 H              1 S1                 0.0000
     21 ****        -4.0097   0.6086  -1.9356 H              1 S1                 0.0000
     22 ****        -1.7656   1.7896  -1.5822 H              1 S1                 0.0000
     23 ****        -1.1726   2.1035   0.0453 H              1 S1                 0.0000
     24 ****        -2.6051   2.9262  -0.5345 H              1 S1                 0.0000
     25 ****        -3.8606   2.0575   1.5508 H              1 S1                 0.0000
     26 ****        -2.4587   1.1379   2.0843 H              1 S1                 0.0000
     27 ****        -4.0007   0.3273   1.8407 H              1 S1                 0.0000
     28 ****        -2.9765  -3.7025  -0.2919 H              1 S1                 0.0000
     29 ****        -0.4754  -3.8798   0.0531 H              1 S1                 0.0000
     30 ****         1.6043  -2.6174   0.3700 H              1 S1                 0.0000
     31 ****         1.4365   0.2139   1.0523 H              1 S1                 0.0000
     32 ****         1.6830  -0.5728  -1.8039 H              1 S1                 0.0000
     33 ****         1.5835   1.0604  -1.1421 H              1 S1                 0.0000
     34 ****         3.9624   0.2544  -2.1718 H              1 S1                 0.0000
     35 ****         5.2371   1.4384  -0.4361 H              1 S1                 0.0000
     36 ****         3.6497   2.1991  -0.2671 H              1 S1                 0.0000
     37 ****         5.0312   0.3879   1.5911 H              1 S1                 0.0000
     38 ****         3.4688   1.1658   1.8670 H              1 S1                 0.0000
     39 ****         3.4958  -1.5313   1.5285 H              1 S1                 0.0000
     40 ****        -3.9816  -1.5654  -0.3406 LP             1 S1                 0.0000
     41 ****         4.9664  -1.0840  -0.3862 LP             1 S1                 0.0000
     42 ****         3.6020  -1.8130  -0.9094 LP             1 S1                 0.0000
     43 ****        -0.4207   0.3384   0.2518 LP             1 S1                 0.0000
@<TRIPOS>BOND
    1    1    2 1     
    2    1   19 1     
    3    1   20 1     
    4    1   21 1     
    5    2    3 1     
    6    2    4 1     
    7    2    5 1     
    8    3   22 1     
    9    3   23 1     
   10    3   24 1     
   11    4   25 1     
   12    4   26 1     
   13    4   27 1     
   14    5   18 ar    
   15    5    6 ar    
   16    6    7 ar    
   17    7    8 ar    
   18    7   28 1     
   19    8    9 ar    
   20    8   29 1     
   21    9   10 1     
   22    9   18 ar    
   23   10   11 1     
   24   10   30 1     
   25   11   16 1     
   26   11   12 1     
   27   11   31 1     
   28   12   13 1     
   29   12   32 1     
   30   12   33 1     
   31   13   17 1     
   32   13   14 1     
   33   13   34 1     
   34   14   15 1     
   35   14   35 1     
   36   14   36 1     
   37   15   16 1     
   38   15   37 1     
   39   15   38 1     
   40   16   17 1     
   41   16   39 1     
   42    6   40 1     
   43   17   41 1     
   44   17   42 1     
   45   18   43 1     
@<TRIPOS>SUBSTRUCTURE
      1 S1             1
@<TRIPOS>SET
LONE_PAIRS      STATIC     ATOMS    <user>   **** ""
4 40 41 42 43
DONOR_HYDROGENS      STATIC     ATOMS    <user>   **** ""
1 30
ATOM$BLUE        STATIC     ATOMS    COLORGROUP SYSTEM
4 40 41 42 43
ATOM$RED        STATIC     ATOMS    COLORGROUP SYSTEM
1 30
