AV-unprocessed.smi:2556|AV-procd|sdf|10023|dock7
  -GOLD-   2272014 63D 1   1.00000     0.00000
 Structure written by MMmdl.
 35 37  0  0  0  0  0  0  0  0  1 V2000
  148.1089  137.6626  154.3316 C   0  0  0  0  0  0  0  0  0  0  0  0
  149.3004  137.9897  155.1173 N   0  0  0  0  0  0  0  0  0  0  0  0
  150.1099  137.0161  155.6495 C   0  0  0  0  0  0  0  0  0  0  0  0
  149.8920  135.8145  155.4975 O   0  0  0  0  0  0  0  0  0  0  0  0
  151.1978  137.4200  156.3754 N   0  0  0  0  0  0  0  0  0  0  0  0
  151.5861  138.6908  156.6431 C   0  0  0  0  0  0  0  0  0  0  0  0
  152.5812  138.9720  157.3074 O   0  0  0  0  0  0  0  0  0  0  0  0
  150.6940  139.6964  156.0554 C   0  0  0  0  0  0  0  0  0  0  0  0
  149.5988  139.3653  155.3224 C   0  0  0  0  0  0  0  0  0  0  0  0
  148.9291  140.4996  154.8776 N   0  0  0  0  0  0  0  0  0  0  0  0
  149.6800  141.4812  155.3807 C   0  0  0  0  0  0  0  0  0  0  0  0
  150.7530  141.0876  156.0974 N   0  0  0  0  0  0  0  0  0  0  0  0
  151.7204  141.9597  156.7456 C   0  0  0  0  0  0  0  0  0  0  0  0
  151.0607  143.1639  157.4474 C   0  0  2  0  0  0  0  0  0  0  0  0
  151.3056  144.3517  156.7194 O   0  0  0  0  0  0  0  0  0  0  0  0
  151.5174  143.2761  158.8931 C   0  0  0  0  0  0  0  0  0  0  0  0
  152.2948  142.2493  159.4707 C   0  0  0  0  0  0  0  0  0  0  0  0
  152.7278  142.3536  160.8071 C   0  0  0  0  0  0  0  0  0  0  0  0
  152.3882  143.4859  161.5722 C   0  0  0  0  0  0  0  0  0  0  0  0
  151.6161  144.5149  161.0001 C   0  0  0  0  0  0  0  0  0  0  0  0
  151.1818  144.4106  159.6643 C   0  0  0  0  0  0  0  0  0  0  0  0
  151.7781  136.6864  156.7551 H   0  0  0  0  0  0  0  0  0  0  0  0
  147.9693  136.5950  154.1589 H   0  0  0  0  0  0  0  0  0  0  0  0
  148.1628  138.1439  153.3545 H   0  0  0  0  0  0  0  0  0  0  0  0
  147.2174  138.0327  154.8385 H   0  0  0  0  0  0  0  0  0  0  0  0
  149.4419  142.5230  155.2224 H   0  0  0  0  0  0  0  0  0  0  0  0
  152.2668  141.3642  157.4783 H   0  0  0  0  0  0  0  0  0  0  0  0
  152.4606  142.2863  156.0157 H   0  0  0  0  0  0  0  0  0  0  0  0
  149.9796  143.0185  157.4418 H   0  0  0  0  0  0  0  0  0  0  0  0
  150.4945  144.6331  156.3247 H   0  0  0  0  0  0  0  0  0  0  0  0
  152.5635  141.3775  158.8920 H   0  0  0  0  0  0  0  0  0  0  0  0
  153.3221  141.5653  161.2451 H   0  0  0  0  0  0  0  0  0  0  0  0
  152.7214  143.5658  162.5964 H   0  0  0  0  0  0  0  0  0  0  0  0
  151.3580  145.3852  161.5853 H   0  0  0  0  0  0  0  0  0  0  0  0
  150.5927  145.2064  159.2317 H   0  0  0  0  0  0  0  0  0  0  0  0
  1  2  1  0  0  0  0
  1 23  1  0  0  0  0
  1 24  1  0  0  0  0
  1 25  1  0  0  0  0
  2  9  1  0  0  0  0
  2  3  1  0  0  0  0
  3  4  2  0  0  0  0
  3  5  1  0  0  0  0
  5 22  1  0  0  0  0
  5  6  1  0  0  0  0
  6  7  2  0  0  0  0
  6  8  1  0  0  0  0
  8 12  1  0  0  0  0
  8  9  2  0  0  0  0
  9 10  1  0  0  0  0
 10 11  2  0  0  0  0
 11 12  1  0  0  0  0
 11 26  1  0  0  0  0
 12 13  1  0  0  0  0
 13 14  1  0  0  0  0
 13 27  1  0  0  0  0
 13 28  1  0  0  0  0
 14 15  1  0  0  0  0
 14 16  1  0  0  0  0
 14 29  1  0  0  0  0
 15 30  1  0  0  0  0
 16 21  1  0  0  0  0
 16 17  2  0  0  0  0
 17 18  1  0  0  0  0
 17 31  1  0  0  0  0
 18 19  2  0  0  0  0
 18 32  1  0  0  0  0
 19 20  1  0  0  0  0
 19 33  1  0  0  0  0
 20 21  2  0  0  0  0
 20 34  1  0  0  0  0
 21 35  1  0  0  0  0
M  END
> <s_m_source_file>
AV-unprocessed.smi

> <i_m_source_file_index>
2556

> <i_lp_mmshare_version>
43012

> <i_f3d_flags>
0

> <s_epik_input>
Tz1jMVtuSF1jKD1PKW4oW0NIM10pYyhjMTIpbltjSF1uMltDSDJdW0NASF0oW09IXSljM1tjSF1bY0hdW2NIXVtjSF1bY0hdMw==

> <s_epik_cmdline>
J2VwaWtfcHl0aG9uJywgJy1waCcsICc3LjAnLCAnLXRuJywgJzgnLCAnLW1hJywgJzIwMCcsICctbWV0YWxfYmluZGluZycsICctaW1hZScsICc8aW5maWxlLm1hZT4nLCAnLW9tYWUnLCAnPG91dGZpbGUubWFlPic=

> <r_lp_tautomer_probability>
1

> <r_epik_Ionization_Penalty>
0.000177505

> <r_epik_Ionization_Penalty_Charging>
0.000176585

> <r_epik_Ionization_Penalty_Neutral>
9.19728e-07

> <r_epik_State_Penalty>
-0

> <r_epik_Charging_Adjusted_Penalty>
0.000176585

> <i_epik_Tot_Q>
0

> <i_epik_Tot_abs_Q>
0

> <r_epik_Metal_State_Penalty>
0.122509

> <b_epik_Metal_Only>
0

> <s_lp_Force_Field>
OPLS_2005

> <r_lp_Energy>
28.9299

> <b_lp_Chiralities_Consistent>
1

> <s_lp_Variant>
AV-unprocessed.smi:2556-1

> <Gold.Version>
5.8.1

> <Gold.Id.Protein>
6NUR|6NUR_protein|mol2

> <Gold.PLP.Fitness>
46.2004

> <Gold.PLP.PLP>
-37.4459

> <Gold.PLP.part.hbond>
-2.3248

> <Gold.PLP.part.metal>
0.0000

> <Gold.PLP.part.buried>
-2.1023

> <Gold.PLP.part.nonpolar>
-34.9095

> <Gold.PLP.part.repulsive>
1.2844

> <Gold.PLP.ligand.clash>
0.0000

> <Gold.PLP.ligand.torsion>
1.1527

> <Gold.PLP.Chemscore.Hbond>
2.6786

> <Gold.PLP.Chemscore.CHOScore>
1.0000

> <Gold.PLP.Chemscore.Metal>
0.0000

> <Gold.Chemscore.Hbonds>
donor molecule, donor type, donor heavy atom, donor atom, acceptor molecule, acceptor atom, score
      L1  H    15    30       P1  8028  1.00
      P1  H  7997  8008       L1     7  0.54
      L1  C    11    26       P1  8028  1.00

> <Gold.PLP.Chemscore.Internal.Correction>
0.0241

> <Gold.Rescore>
     Score         DG    S(hbond)    S(metal)    S(lipo)     H(rot)  DE(clash)    DE(int)     intcor
     14.59     -17.59       1.99        0.00      97.16       2.31       1.82       1.18       ----

> <Gold.Chemscore.Fitness>
14.5892

> <Gold.Chemscore.DG>
-17.5872

> <Gold.Chemscore.ZeroCoef>
-5.4800

> <Gold.Chemscore.Hbond>
1.9930

> <Gold.Chemscore.Metal>
0.0000

> <Gold.Chemscore.Lipo>
97.1610

> <Gold.Chemscore.Internal_Hbond>
0.0000

> <Gold.Chemscore.DEClash>
1.8199

> <Gold.Chemscore.DEInternal>
1.1781

> <Gold.Chemscore.Rot>
2.3115

> <Gold.Chemscore.Internal.Correction>
   9.000000E+99

> <Gold.Chemscore.Hbonds>
donor molecule, donor type, donor heavy atom, donor atom, acceptor molecule, acceptor atom, score
      L1  H    15    30       P1  8028  0.99
      P1  H  7997  8008       L1     7  0.54

> <Gold.Chemscore.Hbond.Weighted>
-6.6568

> <Gold.Chemscore.Metal.Weighted>
-0.0000

> <Gold.Chemscore.Lipo.Weighted>
-11.3678

> <Gold.Chemscore.Internal_Hbond.Weighted>
0.0000

> <Gold.Chemscore.DEClash.Weighted>
1.8199

> <Gold.Chemscore.DEInternal.Weighted>
1.1781

> <Gold.Chemscore.Rot.Weighted>
5.9174

> <Gold.Chemscore.Internal.Correction.Weighted>
   9.000000E+99

> <Gold.Protein.RotatedTorsions>
[ 6907 6896 6895 6894 ] final    8.04 input  -60.11 | X-H torsion
[ 7974 7965 7964 7962 ] final -119.88 input  175.53 | X-H torsion
[ 8008 7997 7996 7995 ] final  -72.64 input   59.86 | X-H torsion
[ 10167 10162 10161 10158 ] final   40.64 input  -65.29 | X-H torsion
[ 10718 10713 10712 10709 ] final -146.05 input   66.30 | X-H torsion
[ 10763 10752 10751 10750 ] final  -65.12 input  -60.55 | X-H torsion
[ 11005 11000 10999 10996 ] final -147.77 input  -57.11 | X-H torsion

> <Gold.Protein.ActiveResidues>
 VAL166  LYS551  ARG553  GLY616  TRP617  ASP618  TYR619  PRO620  LYS621  CYS622 
 ASP623  PHE694  ASN695  SER759  ASP760  ASP761  ALA762  ILE779  LEU786  VAL792 
 PHE793  MET794  SER795  GLU796  ALA797  LYS798  CYS799  TRP800  GLU811  SER814 

> <Gold.Protein.RotatedAtoms>
  151.6997  135.0932  160.0248 H   0  0  0  0  0  0  0  0  0  0  0  0  # atno 6907 bound_to 6896
  152.3728  133.6437  159.6109 H   0  0  0  0  0  0  0  0  0  0  0  0  # atno 6908 bound_to 6896
  150.7686  133.9158  159.3424 H   0  0  0  0  0  0  0  0  0  0  0  0  # atno 6909 bound_to 6896
  145.0576  140.8266  143.4172 H   0  0  0  0  0  0  0  0  0  0  0  0  # atno 7974 bound_to 7965
  154.5182  140.0793  156.8122 H   0  0  0  0  0  0  0  0  0  0  0  0  # atno 8008 bound_to 7997
  155.3633  140.3419  155.4223 H   0  0  0  0  0  0  0  0  0  0  0  0  # atno 8009 bound_to 7997
  156.1652  140.1601  156.8531 H   0  0  0  0  0  0  0  0  0  0  0  0  # atno 8010 bound_to 7997
  140.3721  144.2091  150.6133 H   0  0  0  0  0  0  0  0  0  0  0  0  # atno 10167 bound_to 10162
  156.3900  130.7881  151.2082 H   0  0  0  0  0  0  0  0  0  0  0  0  # atno 10718 bound_to 10713
  154.3403  135.6158  153.5593 H   0  0  0  0  0  0  0  0  0  0  0  0  # atno 10763 bound_to 10752
  152.9805  135.5768  154.4861 H   0  0  0  0  0  0  0  0  0  0  0  0  # atno 10764 bound_to 10752
  154.4563  135.2854  155.1722 H   0  0  0  0  0  0  0  0  0  0  0  0  # atno 10765 bound_to 10752
  140.7682  134.3220  157.5082 H   0  0  0  0  0  0  0  0  0  0  0  0  # atno 11005 bound_to 11000
  145.1449  139.2549  143.5471 LP  0  0  0  0  0  0  0  0  0  0  0  0  # atno 17320 bound_to 7965
  146.3522  140.1136  142.8603 LP  0  0  0  0  0  0  0  0  0  0  0  0  # atno 17321 bound_to 7965
  140.5022  143.2314  151.8661 LP  0  0  0  0  0  0  0  0  0  0  0  0  # atno 17342 bound_to 10162
  139.4803  144.5046  151.9015 LP  0  0  0  0  0  0  0  0  0  0  0  0  # atno 17343 bound_to 10162
  157.7498  131.0318  150.4199 LP  0  0  0  0  0  0  0  0  0  0  0  0  # atno 17370 bound_to 10713
  156.4459  130.4001  149.6667 LP  0  0  0  0  0  0  0  0  0  0  0  0  # atno 17371 bound_to 10713
  139.8760  134.9244  156.3349 LP  0  0  0  0  0  0  0  0  0  0  0  0  # atno 17394 bound_to 11000
  140.9599  133.7395  156.0387 LP  0  0  0  0  0  0  0  0  0  0  0  0  # atno 17395 bound_to 11000

$$$$
