AV-unprocessed.smi:810|AV-procd|sdf|3810|dock9
  -GOLD-   22720 1253D 1   1.00000     0.00000
 Structure written by MMmdl.
 34 35  0  0  0  0  0  0  0  0  1 V2000
  151.2701  141.0762  157.5769 O   0  0  0  0  0  0  0  0  0  0  0  0
  150.5972  141.9203  156.9863 C   0  0  0  0  0  0  0  0  0  0  0  0
  150.4985  143.2156  157.3308 N   0  0  0  0  0  0  0  0  0  0  0  0
  151.0788  143.8799  158.4449 C   0  0  0  0  0  0  0  0  0  0  0  0
  151.9066  143.1291  159.3049 C   0  0  0  0  0  0  0  0  0  0  0  0
  152.5105  143.7664  160.4053 C   0  0  0  0  0  0  0  0  0  0  0  0
  152.2693  145.1403  160.5984 C   0  0  0  0  0  0  0  0  0  0  0  0
  151.4929  145.8776  159.7768 N   0  0  0  0  0  0  0  0  0  0  0  0
  150.9147  145.2597  158.7243 C   0  0  0  0  0  0  0  0  0  0  0  0
  149.8757  141.6571  155.8875 N   0  0  0  0  0  0  0  0  0  0  0  0
  149.7603  140.3523  155.2406 C   0  0  1  0  0  0  0  0  0  0  0  0
  148.7337  140.4331  154.0939 C   0  0  0  0  0  0  0  0  0  0  0  0
  148.0584  139.0894  153.7713 C   0  0  0  0  0  0  0  0  0  0  0  0
  147.5718  139.1045  152.4469 O   0  0  0  0  0  0  0  0  0  0  0  0
  151.0920  139.8222  154.7364 C   0  0  0  0  0  0  0  0  0  0  0  0
  151.3607  138.3376  154.6640 C   0  0  0  0  0  0  0  0  0  0  0  0
  152.0918  139.1899  155.6756 C   0  0  0  0  0  0  0  0  0  0  0  0
  149.9819  143.8067  156.6961 H   0  0  0  0  0  0  0  0  0  0  0  0
  152.0755  142.0768  159.1286 H   0  0  0  0  0  0  0  0  0  0  0  0
  153.1443  143.2160  161.0847 H   0  0  0  0  0  0  0  0  0  0  0  0
  152.7167  145.6619  161.4315 H   0  0  0  0  0  0  0  0  0  0  0  0
  150.3284  145.9063  158.0904 H   0  0  0  0  0  0  0  0  0  0  0  0
  149.3620  142.4171  155.4658 H   0  0  0  0  0  0  0  0  0  0  0  0
  149.3736  139.6349  155.9676 H   0  0  0  0  0  0  0  0  0  0  0  0
  147.9730  141.1769  154.3356 H   0  0  0  0  0  0  0  0  0  0  0  0
  149.2349  140.7951  153.1949 H   0  0  0  0  0  0  0  0  0  0  0  0
  148.7672  138.2678  153.8779 H   0  0  0  0  0  0  0  0  0  0  0  0
  147.2258  138.8925  154.4471 H   0  0  0  0  0  0  0  0  0  0  0  0
  148.2110  139.5290  151.8952 H   0  0  0  0  0  0  0  0  0  0  0  0
  151.5130  140.4110  153.9234 H   0  0  0  0  0  0  0  0  0  0  0  0
  150.5924  137.6639  155.0382 H   0  0  0  0  0  0  0  0  0  0  0  0
  151.9271  137.9712  153.8102 H   0  0  0  0  0  0  0  0  0  0  0  0
  153.1457  139.3923  155.4970 H   0  0  0  0  0  0  0  0  0  0  0  0
  151.8093  139.0797  156.7206 H   0  0  0  0  0  0  0  0  0  0  0  0
  1  2  2  0  0  0  0
  2  3  1  0  0  0  0
  2 10  1  0  0  0  0
  3  4  1  0  0  0  0
  3 18  1  0  0  0  0
  4  9  1  0  0  0  0
  4  5  2  0  0  0  0
  5  6  1  0  0  0  0
  5 19  1  0  0  0  0
  6  7  2  0  0  0  0
  6 20  1  0  0  0  0
  7  8  1  0  0  0  0
  7 21  1  0  0  0  0
  8  9  2  0  0  0  0
  9 22  1  0  0  0  0
 10 11  1  0  0  0  0
 10 23  1  0  0  0  0
 11 12  1  0  0  0  0
 11 15  1  0  0  0  0
 11 24  1  0  0  0  0
 12 13  1  0  0  0  0
 12 25  1  0  0  0  0
 12 26  1  0  0  0  0
 13 14  1  0  0  0  0
 13 27  1  0  0  0  0
 13 28  1  0  0  0  0
 14 29  1  0  0  0  0
 15 17  1  0  0  0  0
 15 16  1  0  0  0  0
 15 30  1  0  0  0  0
 16 17  1  0  0  0  0
 16 31  1  0  0  0  0
 16 32  1  0  0  0  0
 17 33  1  0  0  0  0
 17 34  1  0  0  0  0
M  END
> <s_m_source_file>
AV-unprocessed.smi

> <i_m_source_file_index>
810

> <i_lp_mmshare_version>
43012

> <i_f3d_flags>
0

> <s_epik_input>
W09IXVtDSDJdW0NIMl1bQ0BIXShbQ0hdMVtDSDJdW0NIMl0xKVtOSF1DKD1PKVtOSF1jMltjSF1bY0hdW2NIXW5bY0hdMg==

> <s_epik_cmdline>
J2VwaWtfcHl0aG9uJywgJy1waCcsICc3LjAnLCAnLXRuJywgJzgnLCAnLW1hJywgJzIwMCcsICctbWV0YWxfYmluZGluZycsICctaW1hZScsICc8aW5maWxlLm1hZT4nLCAnLW9tYWUnLCAnPG91dGZpbGUubWFlPic=

> <r_epik_Ionization_Penalty>
0.00486911

> <r_epik_Ionization_Penalty_Charging>
0

> <r_epik_Ionization_Penalty_Neutral>
0.00486911

> <r_epik_State_Penalty>
0.00350304

> <r_epik_Charging_Adjusted_Penalty>
0.00350304

> <i_epik_Tot_Q>
0

> <i_epik_Tot_abs_Q>
0

> <r_epik_Metal_State_Penalty>
-0

> <b_epik_Metal_Only>
0

> <s_lp_Force_Field>
OPLS_2005

> <r_lp_Energy>
17.3052

> <b_lp_Chiralities_Consistent>
1

> <s_lp_Variant>
AV-unprocessed.smi:810-2

> <Gold.Version>
5.8.1

> <Gold.Id.Protein>
6NUR|6NUR_protein|mol2

> <Gold.PLP.Fitness>
45.3084

> <Gold.PLP.PLP>
-36.6423

> <Gold.PLP.part.hbond>
-4.4306

> <Gold.PLP.part.metal>
0.0000

> <Gold.PLP.part.buried>
-1.3700

> <Gold.PLP.part.nonpolar>
-30.9622

> <Gold.PLP.part.repulsive>
0.3234

> <Gold.PLP.ligand.clash>
0.0000

> <Gold.PLP.ligand.torsion>
0.9251

> <Gold.PLP.Chemscore.Hbond>
2.1430

> <Gold.PLP.Chemscore.CHOScore>
0.9997

> <Gold.PLP.Chemscore.Metal>
0.0000

> <Gold.Chemscore.Hbonds>
donor molecule, donor type, donor heavy atom, donor atom, acceptor molecule, acceptor atom, score
      L1  H     3    18       P1  8028  1.00
      L1  H    10    23       P1  8028  0.16
      L1  H    14    29       P1  7957  1.00
      L1  C     9    22       P1  8029  0.98

> <Gold.PLP.Chemscore.Internal.Correction>
1.0883

> <Gold.Rescore>
     Score         DG    S(hbond)    S(metal)    S(lipo)     H(rot)  DE(clash)    DE(int)     intcor
     14.60     -17.26       1.99        0.00      94.47       2.31       0.31       2.35       ----

> <Gold.Chemscore.Fitness>
14.5984

> <Gold.Chemscore.DG>
-17.2584

> <Gold.Chemscore.ZeroCoef>
-5.4800

> <Gold.Chemscore.Hbond>
1.9876

> <Gold.Chemscore.Metal>
0.0000

> <Gold.Chemscore.Lipo>
94.4667

> <Gold.Chemscore.Internal_Hbond>
0.0000

> <Gold.Chemscore.DEClash>
0.3092

> <Gold.Chemscore.DEInternal>
2.3509

> <Gold.Chemscore.Rot>
2.3097

> <Gold.Chemscore.Internal.Correction>
   9.000000E+99

> <Gold.Chemscore.Hbonds>
donor molecule, donor type, donor heavy atom, donor atom, acceptor molecule, acceptor atom, score
      L1  H     3    18       P1  8028  1.00
      L1  H    10    23       P1  8028  0.17
      L1  H    14    29       P1  7957  1.00

> <Gold.Chemscore.Hbond.Weighted>
-6.6385

> <Gold.Chemscore.Metal.Weighted>
-0.0000

> <Gold.Chemscore.Lipo.Weighted>
-11.0526

> <Gold.Chemscore.Internal_Hbond.Weighted>
0.0000

> <Gold.Chemscore.DEClash.Weighted>
0.3092

> <Gold.Chemscore.DEInternal.Weighted>
2.3509

> <Gold.Chemscore.Rot.Weighted>
5.9127

> <Gold.Chemscore.Internal.Correction.Weighted>
   9.000000E+99

> <Gold.Protein.RotatedTorsions>
[ 6907 6896 6895 6894 ] final  -10.76 input  -60.11 | X-H torsion
[ 7974 7965 7964 7962 ] final   18.02 input  175.53 | X-H torsion
[ 8008 7997 7996 7995 ] final -127.33 input   59.86 | X-H torsion
[ 10167 10162 10161 10158 ] final  -82.81 input  -65.29 | X-H torsion
[ 10718 10713 10712 10709 ] final   90.62 input   66.30 | X-H torsion
[ 10763 10752 10751 10750 ] final  -75.60 input  -60.55 | X-H torsion
[ 11005 11000 10999 10996 ] final -145.38 input  -57.11 | X-H torsion

> <Gold.Protein.ActiveResidues>
 VAL166  LYS551  ARG553  GLY616  TRP617  ASP618  TYR619  PRO620  LYS621  CYS622 
 ASP623  PHE694  ASN695  SER759  ASP760  ASP761  ALA762  ILE779  LEU786  VAL792 
 PHE793  MET794  SER795  GLU796  ALA797  LYS798  CYS799  TRP800  GLU811  SER814 

> <Gold.Protein.RotatedAtoms>
  151.3969  135.0965  159.9543 H   0  0  0  0  0  0  0  0  0  0  0  0  # atno 6907 bound_to 6896
  152.5062  133.8926  159.7411 H   0  0  0  0  0  0  0  0  0  0  0  0  # atno 6908 bound_to 6896
  150.9391  133.6621  159.2823 H   0  0  0  0  0  0  0  0  0  0  0  0  # atno 6909 bound_to 6896
  146.2199  139.8518  142.8621 H   0  0  0  0  0  0  0  0  0  0  0  0  # atno 7974 bound_to 7965
  155.2444  140.0430  157.2979 H   0  0  0  0  0  0  0  0  0  0  0  0  # atno 8008 bound_to 7997
  154.5808  140.2400  155.8026 H   0  0  0  0  0  0  0  0  0  0  0  0  # atno 8009 bound_to 7997
  156.2191  140.2975  155.9919 H   0  0  0  0  0  0  0  0  0  0  0  0  # atno 8010 bound_to 7997
  140.4285  143.2557  151.8792 H   0  0  0  0  0  0  0  0  0  0  0  0  # atno 10167 bound_to 10162
  157.6959  131.0377  150.3606 H   0  0  0  0  0  0  0  0  0  0  0  0  # atno 10718 bound_to 10713
  154.4887  135.5826  153.6443 H   0  0  0  0  0  0  0  0  0  0  0  0  # atno 10763 bound_to 10752
  152.9859  135.6107  154.3152 H   0  0  0  0  0  0  0  0  0  0  0  0  # atno 10764 bound_to 10752
  154.3050  135.2846  155.2572 H   0  0  0  0  0  0  0  0  0  0  0  0  # atno 10765 bound_to 10752
  140.7928  134.2948  157.5007 H   0  0  0  0  0  0  0  0  0  0  0  0  # atno 11005 bound_to 11000
  145.2794  141.0134  143.3726 LP  0  0  0  0  0  0  0  0  0  0  0  0  # atno 17320 bound_to 7965
  144.9162  139.4468  143.6563 LP  0  0  0  0  0  0  0  0  0  0  0  0  # atno 17321 bound_to 7965
  139.4784  144.5361  151.8597 LP  0  0  0  0  0  0  0  0  0  0  0  0  # atno 17342 bound_to 10162
  140.4454  144.1929  150.5894 LP  0  0  0  0  0  0  0  0  0  0  0  0  # atno 17343 bound_to 10162
  156.4042  130.3921  149.6937 LP  0  0  0  0  0  0  0  0  0  0  0  0  # atno 17370 bound_to 10713
  156.4244  130.7784  151.2802 LP  0  0  0  0  0  0  0  0  0  0  0  0  # atno 17371 bound_to 10713
  139.8729  134.9385  156.3715 LP  0  0  0  0  0  0  0  0  0  0  0  0  # atno 17394 bound_to 11000
  140.9372  133.7539  156.0100 LP  0  0  0  0  0  0  0  0  0  0  0  0  # atno 17395 bound_to 11000

$$$$
