AV-unprocessed.smi:53|AV-procd|sdf|518|dock5
  -GOLD-   2262016393D 1   1.00000     0.00000
 Structure written by MMmdl.
 30 31  0  0  0  0  0  0  0  0  1 V2000
  152.4808  140.5210  159.1680 N   0  0  0  0  0  0  0  0  0  0  0  0
  151.7126  140.6059  158.0728 C   0  0  0  0  0  0  0  0  0  0  0  0
  150.4290  141.2663  158.1308 C   0  0  0  0  0  0  0  0  0  0  0  0
  149.7135  141.3141  156.9854 C   0  0  0  0  0  0  0  0  0  0  0  0
  150.1833  140.7754  155.7918 N   0  0  0  0  0  0  0  0  0  0  0  0
  149.3699  140.7968  154.5066 C   0  0  1  0  0  0  0  0  0  0  0  0
  148.9251  139.5050  154.2135 O   0  0  0  0  0  0  0  0  0  0  0  0
  147.6052  139.3296  154.7177 C   0  0  2  0  0  0  0  0  0  0  0  0
  146.9329  138.0885  154.1059 C   0  0  0  0  0  0  0  0  0  0  0  0
  147.1389  138.0702  152.7094 O   0  0  0  0  0  0  0  0  0  0  0  0
  146.9618  140.6768  154.3771 C   0  0  2  0  0  0  0  0  0  0  0  0
  146.5346  140.6993  153.0236 O   0  0  0  0  0  0  0  0  0  0  0  0
  148.0965  141.6637  154.6589 C   0  0  2  0  0  0  0  0  0  0  0  0
  148.0674  142.7806  153.7889 O   0  0  0  0  0  0  0  0  0  0  0  0
  151.4329  140.1082  155.7790 C   0  0  0  0  0  0  0  0  0  0  0  0
  151.8697  139.5725  154.7614 O   0  0  0  0  0  0  0  0  0  0  0  0
  152.1454  140.0728  156.9474 N   0  0  0  0  0  0  0  0  0  0  0  0
  150.0640  141.1328  153.7337 H   0  0  0  0  0  0  0  0  0  0  0  0
  147.6375  139.2363  155.8048 H   0  0  0  0  0  0  0  0  0  0  0  0
  146.0938  140.8759  155.0062 H   0  0  0  0  0  0  0  0  0  0  0  0
  148.0151  142.0138  155.6889 H   0  0  0  0  0  0  0  0  0  0  0  0
  153.3754  140.0550  159.1257 H   0  0  0  0  0  0  0  0  0  0  0  0
  152.1630  140.9290  160.0356 H   0  0  0  0  0  0  0  0  0  0  0  0
  150.0295  141.7100  159.0315 H   0  0  0  0  0  0  0  0  0  0  0  0
  148.7492  141.7964  157.0376 H   0  0  0  0  0  0  0  0  0  0  0  0
  147.3772  137.1803  154.5138 H   0  0  0  0  0  0  0  0  0  0  0  0
  145.8662  138.0603  154.3303 H   0  0  0  0  0  0  0  0  0  0  0  0
  147.4202  137.2034  152.4592 H   0  0  0  0  0  0  0  0  0  0  0  0
  145.5899  140.6684  153.0106 H   0  0  0  0  0  0  0  0  0  0  0  0
  148.6518  143.4395  154.1316 H   0  0  0  0  0  0  0  0  0  0  0  0
  1  2  1  0  0  0  0
  1 22  1  0  0  0  0
  1 23  1  0  0  0  0
  2 17  2  0  0  0  0
  2  3  1  0  0  0  0
  3  4  2  0  0  0  0
  3 24  1  0  0  0  0
  4  5  1  0  0  0  0
  4 25  1  0  0  0  0
  5  6  1  0  0  0  0
  5 15  1  0  0  0  0
  6 18  1  0  0  0  0
  6 13  1  0  0  0  0
  6  7  1  0  0  0  0
  7  8  1  0  0  0  0
  8 19  1  0  0  0  0
  8  9  1  0  0  0  0
  8 11  1  0  0  0  0
  9 10  1  0  0  0  0
  9 26  1  0  0  0  0
  9 27  1  0  0  0  0
 10 28  1  0  0  0  0
 11 20  1  0  0  0  0
 11 12  1  0  0  0  0
 11 13  1  0  0  0  0
 12 29  1  0  0  0  0
 13 21  1  0  0  0  0
 13 14  1  0  0  0  0
 14 30  1  0  0  0  0
 15 16  2  0  0  0  0
 15 17  1  0  0  0  0
M  END
> <s_m_source_file>
AV-unprocessed.smi

> <i_m_source_file_index>
53

> <i_lp_mmshare_version>
43012

> <i_f3d_flags>
0

> <s_epik_input>
W05IMl1jMVtjSF1bY0hdbihjKD1PKW4xKVtDQEBIXTJPW0NASF0oW0NIMl1bT0hdKVtDQEBIXShbT0hdKVtDQEBIXTJbT0hd

> <s_epik_cmdline>
J2VwaWtfcHl0aG9uJywgJy1waCcsICc3LjAnLCAnLXRuJywgJzgnLCAnLW1hJywgJzIwMCcsICctbWV0YWxfYmluZGluZycsICctaW1hZScsICc8aW5maWxlLm1hZT4nLCAnLW9tYWUnLCAnPG91dGZpbGUubWFlPic=

> <r_lp_tautomer_probability>
0.99996

> <r_epik_Ionization_Penalty>
0.00069087

> <r_epik_Ionization_Penalty_Charging>
2.61959e-08

> <r_epik_Ionization_Penalty_Neutral>
0.000690844

> <r_epik_State_Penalty>
1.15523e-05

> <r_epik_Charging_Adjusted_Penalty>
1.15785e-05

> <i_epik_Tot_Q>
0

> <i_epik_Tot_abs_Q>
0

> <r_epik_Metal_State_Penalty>
-0

> <b_epik_Metal_Only>
0

> <s_epik_Chemistry_Notes>
This compound contains an acetal/aminal-like group ( X-CH(R)-Y where X, Y are N, S, or O) that may be acid/base labile, releasing an aldehyde.

> <s_lp_Force_Field>
OPLS_2005

> <r_lp_Energy>
34.5248

> <b_lp_Chiralities_Consistent>
1

> <s_lp_Variant>
AV-unprocessed.smi:53-6

> <Gold.Version>
5.8.1

> <Gold.Id.Protein>
6NUR|6NUR_protein|mol2

> <Gold.PLP.Fitness>
39.6704

> <Gold.PLP.PLP>
-26.6654

> <Gold.PLP.part.hbond>
-7.0910

> <Gold.PLP.part.metal>
0.0000

> <Gold.PLP.part.buried>
-4.1677

> <Gold.PLP.part.nonpolar>
-16.3397

> <Gold.PLP.part.repulsive>
0.8326

> <Gold.PLP.ligand.clash>
0.0000

> <Gold.PLP.ligand.torsion>
0.2082

> <Gold.PLP.Chemscore.Hbond>
4.4640

> <Gold.PLP.Chemscore.CHOScore>
0.0000

> <Gold.PLP.Chemscore.Metal>
0.0000

> <Gold.Chemscore.Hbonds>
donor molecule, donor type, donor heavy atom, donor atom, acceptor molecule, acceptor atom, score
      L1  H    10    28       P1  7948  0.83
      L1  H    12    29       P1 10175  1.00
      L1  H    14    30       P1  8028  0.85
      P1  H  7989  7998       L1    16  0.99
      P1  H  7997  8010       L1    17  0.47

> <Gold.PLP.Chemscore.Internal.Correction>
0.0293

> <Gold.Rescore>
     Score         DG    S(hbond)    S(metal)    S(lipo)     H(rot)  DE(clash)    DE(int)     intcor
     11.65     -13.11       4.28        0.00      24.17       3.71       0.09       1.37       ----

> <Gold.Chemscore.Fitness>
11.6455

> <Gold.Chemscore.DG>
-13.1087

> <Gold.Chemscore.ZeroCoef>
-5.4800

> <Gold.Chemscore.Hbond>
4.2806

> <Gold.Chemscore.Metal>
0.0000

> <Gold.Chemscore.Lipo>
24.1705

> <Gold.Chemscore.Internal_Hbond>
0.0000

> <Gold.Chemscore.DEClash>
0.0930

> <Gold.Chemscore.DEInternal>
1.3702

> <Gold.Chemscore.Rot>
3.7095

> <Gold.Chemscore.Internal.Correction>
   9.000000E+99

> <Gold.Chemscore.Hbonds>
donor molecule, donor type, donor heavy atom, donor atom, acceptor molecule, acceptor atom, score
      L1  H    10    28       P1  7948  0.83
      L1  H    12    29       P1 10175  0.68
      L1  H    14    30       P1  8028  0.83
      P1  H  7989  7998       L1    16  0.37
      P1  H  7997  8010       L1    17  0.34

> <Gold.Chemscore.Hbond.Weighted>
-14.2971

> <Gold.Chemscore.Metal.Weighted>
-0.0000

> <Gold.Chemscore.Lipo.Weighted>
-2.8279

> <Gold.Chemscore.Internal_Hbond.Weighted>
0.0000

> <Gold.Chemscore.DEClash.Weighted>
0.0930

> <Gold.Chemscore.DEInternal.Weighted>
1.3702

> <Gold.Chemscore.Rot.Weighted>
9.4964

> <Gold.Chemscore.Internal.Correction.Weighted>
   9.000000E+99

> <Gold.Protein.RotatedTorsions>
[ 6907 6896 6895 6894 ] final  -22.30 input  -60.11 | X-H torsion
[ 7974 7965 7964 7962 ] final  -96.33 input  175.53 | X-H torsion
[ 8008 7997 7996 7995 ] final   69.09 input   59.86 | X-H torsion
[ 10167 10162 10161 10158 ] final -101.22 input  -65.29 | X-H torsion
[ 10718 10713 10712 10709 ] final   48.64 input   66.30 | X-H torsion
[ 10763 10752 10751 10750 ] final -171.66 input  -60.55 | X-H torsion
[ 11005 11000 10999 10996 ] final    5.63 input  -57.11 | X-H torsion

> <Gold.Protein.ActiveResidues>
 VAL166  LYS551  ARG553  GLY616  TRP617  ASP618  TYR619  PRO620  LYS621  CYS622 
 ASP623  PHE694  ASN695  SER759  ASP760  ASP761  ALA762  ILE779  LEU786  VAL792 
 PHE793  MET794  SER795  GLU796  ALA797  LYS798  CYS799  TRP800  GLU811  SER814 

> <Gold.Protein.RotatedAtoms>
  151.2206  135.0517  159.8947 H   0  0  0  0  0  0  0  0  0  0  0  0  # atno 6907 bound_to 6896
  152.5416  134.0645  159.8177 H   0  0  0  0  0  0  0  0  0  0  0  0  # atno 6908 bound_to 6896
  151.0810  133.5342  159.2652 H   0  0  0  0  0  0  0  0  0  0  0  0  # atno 6909 bound_to 6896
  145.3483  140.9472  143.2568 H   0  0  0  0  0  0  0  0  0  0  0  0  # atno 7974 bound_to 7965
  155.7182  140.3493  155.5004 H   0  0  0  0  0  0  0  0  0  0  0  0  # atno 8008 bound_to 7997
  155.9293  140.1081  157.1166 H   0  0  0  0  0  0  0  0  0  0  0  0  # atno 8009 bound_to 7997
  154.4082  140.1234  156.4769 H   0  0  0  0  0  0  0  0  0  0  0  0  # atno 8010 bound_to 7997
  140.2436  143.3521  152.0779 H   0  0  0  0  0  0  0  0  0  0  0  0  # atno 10167 bound_to 10162
  157.4707  130.8254  149.7985 H   0  0  0  0  0  0  0  0  0  0  0  0  # atno 10718 bound_to 10713
  154.6281  135.2883  155.0249 H   0  0  0  0  0  0  0  0  0  0  0  0  # atno 10763 bound_to 10752
  154.1420  135.6517  153.4948 H   0  0  0  0  0  0  0  0  0  0  0  0  # atno 10764 bound_to 10752
  153.0266  135.5335  154.7097 H   0  0  0  0  0  0  0  0  0  0  0  0  # atno 10765 bound_to 10752
  140.5686  134.0124  155.7999 H   0  0  0  0  0  0  0  0  0  0  0  0  # atno 11005 bound_to 11000
  144.8737  139.5002  143.6756 LP  0  0  0  0  0  0  0  0  0  0  0  0  # atno 17320 bound_to 7965
  146.2978  139.7333  142.9113 LP  0  0  0  0  0  0  0  0  0  0  0  0  # atno 17321 bound_to 7965
  139.5069  144.6822  151.5979 LP  0  0  0  0  0  0  0  0  0  0  0  0  # atno 17342 bound_to 10162
  140.6095  143.9463  150.6442 LP  0  0  0  0  0  0  0  0  0  0  0  0  # atno 17343 bound_to 10162
  156.0072  130.3850  150.2389 LP  0  0  0  0  0  0  0  0  0  0  0  0  # atno 17370 bound_to 10713
  157.0572  131.0079  151.3234 LP  0  0  0  0  0  0  0  0  0  0  0  0  # atno 17371 bound_to 10713
  141.1070  133.9677  157.2978 LP  0  0  0  0  0  0  0  0  0  0  0  0  # atno 17394 bound_to 11000
  139.9373  135.0195  156.8596 LP  0  0  0  0  0  0  0  0  0  0  0  0  # atno 17395 bound_to 11000

$$$$
