AV-unprocessed.smi:1361|AV-procd|sdf|5555|dock2
  -GOLD-   22720 5143D 1   1.00000     0.00000
 Structure written by MMmdl.
 46 47  0  0  0  0  0  0  0  0  1 V2000
  150.3720  134.5553  155.7054 C   0  0  0  0  0  0  0  0  0  0  0  0
  150.4790  136.0083  155.2930 C   0  0  0  0  0  0  0  0  0  0  0  0
  151.5992  136.6187  155.0864 N   0  0  0  0  0  0  0  0  0  0  0  0
  151.5718  137.9664  154.7012 C   0  0  0  0  0  0  0  0  0  0  0  0
  152.9295  138.6095  154.4754 C   0  0  0  0  0  0  0  0  0  0  0  0
  150.3955  138.6417  154.5417 C   0  0  0  0  0  0  0  0  0  0  0  0
  150.3319  140.1074  154.1167 C   0  0  0  0  0  0  0  0  0  0  0  0
  149.8209  141.0753  155.1849 C   0  0  0  0  0  0  0  0  0  0  0  0
  148.6901  141.5520  155.0915 O   0  0  0  0  0  0  0  0  0  0  0  0
  150.6613  141.3511  156.1944 N   0  0  0  0  0  0  0  0  0  0  0  0
  150.3801  142.2367  157.3222 C   0  0  0  0  0  0  0  0  0  0  0  0
  151.1592  143.5601  157.1514 C   0  0  0  0  0  0  0  0  0  0  0  0
  151.1491  144.4784  158.3875 C   0  0  0  0  0  0  0  0  0  0  0  0
  152.5239  144.6693  159.0548 C   0  0  0  0  0  0  0  0  0  0  0  0
  153.3974  143.4113  159.2431 C   0  0  0  0  0  0  0  0  0  0  0  0
  152.7358  142.2205  159.9587 C   0  0  0  0  0  0  0  0  0  0  0  0
  152.0741  141.1768  159.0323 C   0  0  0  0  0  0  0  0  0  0  0  0
  150.6120  141.4737  158.6479 C   0  0  0  0  0  0  0  0  0  0  0  0
  149.1223  137.9359  154.7860 C   0  0  0  0  0  0  0  0  0  0  0  0
  148.0088  138.4476  154.6809 O   0  0  0  0  0  0  0  0  0  0  0  0
  149.2449  136.6400  155.1513 N   0  0  0  0  0  0  0  0  0  0  0  0
  148.4018  136.1139  155.3292 H   0  0  0  0  0  0  0  0  0  0  0  0
  150.8828  134.3968  156.6554 H   0  0  0  0  0  0  0  0  0  0  0  0
  150.8382  133.9170  154.9545 H   0  0  0  0  0  0  0  0  0  0  0  0
  149.3328  134.2439  155.8198 H   0  0  0  0  0  0  0  0  0  0  0  0
  153.0141  138.9859  153.4561 H   0  0  0  0  0  0  0  0  0  0  0  0
  153.7370  137.8932  154.6317 H   0  0  0  0  0  0  0  0  0  0  0  0
  153.0822  139.4370  155.1679 H   0  0  0  0  0  0  0  0  0  0  0  0
  151.3241  140.4198  153.7897 H   0  0  0  0  0  0  0  0  0  0  0  0
  149.7063  140.2228  153.2310 H   0  0  0  0  0  0  0  0  0  0  0  0
  151.5686  140.9081  156.1849 H   0  0  0  0  0  0  0  0  0  0  0  0
  149.3159  142.4795  157.3035 H   0  0  0  0  0  0  0  0  0  0  0  0
  152.1793  143.3592  156.8269 H   0  0  0  0  0  0  0  0  0  0  0  0
  150.7155  144.1066  156.3178 H   0  0  0  0  0  0  0  0  0  0  0  0
  150.7847  145.4620  158.0884 H   0  0  0  0  0  0  0  0  0  0  0  0
  150.4244  144.1370  159.1249 H   0  0  0  0  0  0  0  0  0  0  0  0
  153.0969  145.3858  158.4650 H   0  0  0  0  0  0  0  0  0  0  0  0
  152.3719  145.1459  160.0237 H   0  0  0  0  0  0  0  0  0  0  0  0
  153.8226  143.0857  158.2939 H   0  0  0  0  0  0  0  0  0  0  0  0
  154.2604  143.7173  159.8357 H   0  0  0  0  0  0  0  0  0  0  0  0
  153.5279  141.6997  160.4983 H   0  0  0  0  0  0  0  0  0  0  0  0
  152.0451  142.5632  160.7297 H   0  0  0  0  0  0  0  0  0  0  0  0
  152.6857  140.9859  158.1500 H   0  0  0  0  0  0  0  0  0  0  0  0
  152.0675  140.2343  159.5812 H   0  0  0  0  0  0  0  0  0  0  0  0
  150.1111  141.9775  159.4740 H   0  0  0  0  0  0  0  0  0  0  0  0
  150.0882  140.5199  158.5671 H   0  0  0  0  0  0  0  0  0  0  0  0
  1  2  1  0  0  0  0
  1 23  1  0  0  0  0
  1 24  1  0  0  0  0
  1 25  1  0  0  0  0
  2 21  1  0  0  0  0
  2  3  2  0  0  0  0
  3  4  1  0  0  0  0
  4  5  1  0  0  0  0
  4  6  2  0  0  0  0
  5 26  1  0  0  0  0
  5 27  1  0  0  0  0
  5 28  1  0  0  0  0
  6  7  1  0  0  0  0
  6 19  1  0  0  0  0
  7  8  1  0  0  0  0
  7 29  1  0  0  0  0
  7 30  1  0  0  0  0
  8  9  2  0  0  0  0
  8 10  1  0  0  0  0
 10 11  1  0  0  0  0
 10 31  1  0  0  0  0
 11 18  1  0  0  0  0
 11 12  1  0  0  0  0
 11 32  1  0  0  0  0
 12 13  1  0  0  0  0
 12 33  1  0  0  0  0
 12 34  1  0  0  0  0
 13 14  1  0  0  0  0
 13 35  1  0  0  0  0
 13 36  1  0  0  0  0
 14 15  1  0  0  0  0
 14 37  1  0  0  0  0
 14 38  1  0  0  0  0
 15 16  1  0  0  0  0
 15 39  1  0  0  0  0
 15 40  1  0  0  0  0
 16 17  1  0  0  0  0
 16 41  1  0  0  0  0
 16 42  1  0  0  0  0
 17 18  1  0  0  0  0
 17 43  1  0  0  0  0
 17 44  1  0  0  0  0
 18 45  1  0  0  0  0
 18 46  1  0  0  0  0
 19 20  2  0  0  0  0
 19 21  1  0  0  0  0
 21 22  1  0  0  0  0
M  END
> <s_m_source_file>
AV-unprocessed.smi

> <i_m_source_file_index>
1361

> <i_lp_mmshare_version>
43012

> <i_f3d_flags>
0

> <s_epik_input>
W0NIM11jMW5jKFtDSDNdKWMoYyg9TylbbkhdMSlbQ0gyXUMoPU8pW05IXVtDSF0yW0NIMl1bQ0gyXVtDSDJdW0NIMl1bQ0gyXVtDSDJdW0NIMl0y

> <s_epik_cmdline>
J2VwaWtfcHl0aG9uJywgJy1waCcsICc3LjAnLCAnLXRuJywgJzgnLCAnLW1hJywgJzIwMCcsICctbWV0YWxfYmluZGluZycsICctaW1hZScsICc8aW5maWxlLm1hZT4nLCAnLW9tYWUnLCAnPG91dGZpbGUubWFlPic=

> <r_lp_tautomer_probability>
0.839158

> <r_epik_Ionization_Penalty>
0.000386947

> <r_epik_Ionization_Penalty_Charging>
0.000354181

> <r_epik_Ionization_Penalty_Neutral>
3.27662e-05

> <r_epik_State_Penalty>
0.0469431

> <r_epik_Charging_Adjusted_Penalty>
0.0472973

> <i_epik_Tot_Q>
0

> <i_epik_Tot_abs_Q>
0

> <r_epik_Metal_State_Penalty>
0.222645

> <b_epik_Metal_Only>
0

> <s_lp_Force_Field>
OPLS_2005

> <r_lp_Energy>
23.3957

> <b_lp_Chiralities_Consistent>
1

> <s_lp_Variant>
AV-unprocessed.smi:1361-1

> <Gold.Version>
5.8.1

> <Gold.Id.Protein>
6NUR|6NUR_protein|mol2

> <Gold.PLP.Fitness>
41.6094

> <Gold.PLP.PLP>
-39.2036

> <Gold.PLP.part.hbond>
-1.0000

> <Gold.PLP.part.metal>
0.0000

> <Gold.PLP.part.buried>
1.2963

> <Gold.PLP.part.nonpolar>
-38.8731

> <Gold.PLP.part.repulsive>
0.4585

> <Gold.PLP.ligand.clash>
0.0000

> <Gold.PLP.ligand.torsion>
0.3186

> <Gold.PLP.Chemscore.Hbond>
1.0000

> <Gold.PLP.Chemscore.CHOScore>
0.0000

> <Gold.PLP.Chemscore.Metal>
0.0000

> <Gold.Chemscore.Hbonds>
donor molecule, donor type, donor heavy atom, donor atom, acceptor molecule, acceptor atom, score
      P1  H 10752 10765       L1     3  1.00

> <Gold.PLP.Chemscore.Internal.Correction>
0.0429

> <Gold.Rescore>
     Score         DG    S(hbond)    S(metal)    S(lipo)     H(rot)  DE(clash)    DE(int)     intcor
     17.05     -18.32       0.95        0.00     114.65       1.47       0.29       0.98       ----

> <Gold.Chemscore.Fitness>
17.0484

> <Gold.Chemscore.DG>
-18.3187

> <Gold.Chemscore.ZeroCoef>
-5.4800

> <Gold.Chemscore.Hbond>
0.9538

> <Gold.Chemscore.Metal>
0.0000

> <Gold.Chemscore.Lipo>
114.6469

> <Gold.Chemscore.Internal_Hbond>
0.0000

> <Gold.Chemscore.DEClash>
0.2871

> <Gold.Chemscore.DEInternal>
0.9832

> <Gold.Chemscore.Rot>
1.4690

> <Gold.Chemscore.Internal.Correction>
   9.000000E+99

> <Gold.Chemscore.Hbonds>
donor molecule, donor type, donor heavy atom, donor atom, acceptor molecule, acceptor atom, score
      P1  H 10752 10765       L1     3  0.89

> <Gold.Chemscore.Hbond.Weighted>
-3.1857

> <Gold.Chemscore.Metal.Weighted>
-0.0000

> <Gold.Chemscore.Lipo.Weighted>
-13.4137

> <Gold.Chemscore.Internal_Hbond.Weighted>
0.0000

> <Gold.Chemscore.DEClash.Weighted>
0.2871

> <Gold.Chemscore.DEInternal.Weighted>
0.9832

> <Gold.Chemscore.Rot.Weighted>
3.7607

> <Gold.Chemscore.Internal.Correction.Weighted>
   9.000000E+99

> <Gold.Protein.RotatedTorsions>
[ 6907 6896 6895 6894 ] final   97.94 input  -60.11 | X-H torsion
[ 7974 7965 7964 7962 ] final -152.06 input  175.53 | X-H torsion
[ 8008 7997 7996 7995 ] final   -8.08 input   59.86 | X-H torsion
[ 10167 10162 10161 10158 ] final   -3.82 input  -65.29 | X-H torsion
[ 10718 10713 10712 10709 ] final  179.41 input   66.30 | X-H torsion
[ 10763 10752 10751 10750 ] final -165.76 input  -60.55 | X-H torsion
[ 11005 11000 10999 10996 ] final   88.11 input  -57.11 | X-H torsion

> <Gold.Protein.ActiveResidues>
 VAL166  LYS551  ARG553  GLY616  TRP617  ASP618  TYR619  PRO620  LYS621  CYS622 
 ASP623  PHE694  ASN695  SER759  ASP760  ASP761  ALA762  ILE779  LEU786  VAL792 
 PHE793  MET794  SER795  GLU796  ALA797  LYS798  CYS799  TRP800  GLU811  SER814 

> <Gold.Protein.RotatedAtoms>
  152.5416  134.0656  159.8171 H   0  0  0  0  0  0  0  0  0  0  0  0  # atno 6907 bound_to 6896
  151.0777  133.5407  159.2630 H   0  0  0  0  0  0  0  0  0  0  0  0  # atno 6908 bound_to 6896
  151.2246  135.0540  159.9017 H   0  0  0  0  0  0  0  0  0  0  0  0  # atno 6909 bound_to 6896
  144.7815  140.4713  143.5836 H   0  0  0  0  0  0  0  0  0  0  0  0  # atno 7974 bound_to 7965
  154.5776  140.2390  155.8100 H   0  0  0  0  0  0  0  0  0  0  0  0  # atno 8008 bound_to 7997
  156.2155  140.3013  155.9785 H   0  0  0  0  0  0  0  0  0  0  0  0  # atno 8009 bound_to 7997
  155.2599  140.0414  157.2986 H   0  0  0  0  0  0  0  0  0  0  0  0  # atno 8010 bound_to 7997
  140.6905  143.6495  150.8363 H   0  0  0  0  0  0  0  0  0  0  0  0  # atno 10167 bound_to 10162
  156.8761  130.9800  151.3067 H   0  0  0  0  0  0  0  0  0  0  0  0  # atno 10718 bound_to 10713
  154.6900  135.2969  154.9493 H   0  0  0  0  0  0  0  0  0  0  0  0  # atno 10763 bound_to 10752
  154.0459  135.6651  153.4799 H   0  0  0  0  0  0  0  0  0  0  0  0  # atno 10764 bound_to 10752
  153.0605  135.5118  154.7987 H   0  0  0  0  0  0  0  0  0  0  0  0  # atno 10765 bound_to 10752
  139.8904  134.8466  156.2954 H   0  0  0  0  0  0  0  0  0  0  0  0  # atno 11005 bound_to 11000
  145.6038  139.1506  143.3114 LP  0  0  0  0  0  0  0  0  0  0  0  0  # atno 17320 bound_to 7965
  146.2025  140.6158  142.9096 LP  0  0  0  0  0  0  0  0  0  0  0  0  # atno 17321 bound_to 7965
  140.0207  143.5545  152.2801 LP  0  0  0  0  0  0  0  0  0  0  0  0  # atno 17342 bound_to 10162
  139.6303  144.7643  151.2551 LP  0  0  0  0  0  0  0  0  0  0  0  0  # atno 17343 bound_to 10162
  157.6167  130.8624  149.9041 LP  0  0  0  0  0  0  0  0  0  0  0  0  # atno 17370 bound_to 10713
  156.0701  130.3686  150.0794 LP  0  0  0  0  0  0  0  0  0  0  0  0  # atno 17371 bound_to 10713
  140.9948  133.7186  156.0870 LP  0  0  0  0  0  0  0  0  0  0  0  0  # atno 17394 bound_to 11000
  140.7576  134.3975  157.5531 LP  0  0  0  0  0  0  0  0  0  0  0  0  # atno 17395 bound_to 11000

$$$$
