#       Name:                AV-unprocessed.smi:3047
#       Creating user name   scv26
#       Creation time:       Fri Mar 27 17:00:53 2020


#       File generated by GOLD software.
#

@<TRIPOS>MOLECULE
AV-unprocessed.smi:3047
    40    41     1
SMALL
NO_CHARGES


@<TRIPOS>ATOM
      1 ****        -0.8200   3.1968  -0.3644 C.3            1 S1                 0.0000
      2 ****        -2.1369   2.0813  -1.0041 S.o2           1 S1                 0.0000
      3 ****        -3.2348   2.9197  -1.5088 O.2            1 S1                 0.0000
      4 ****        -1.5184   1.0735  -1.8794 O.2            1 S1                 0.0000
      5 ****        -2.7115   1.2797   0.4239 N.pl3          1 S1                 0.0000
      6 ****        -3.6363   1.9189   1.3566 C.3            1 S1                 0.0000
      7 ****        -4.0361   0.7994   2.3130 C.3            1 S1                 0.0000
      8 ****        -2.8009  -0.0957   2.3687 C.3            1 S1                 0.0000
      9 ****        -2.1553   0.0293   0.9720 C.3            1 S1                 0.0000
     10 ****        -0.6209  -0.0366   1.0318 C.2            1 S1                 0.0000
     11 ****         0.0060   0.6244   1.8605 O.2            1 S1                 0.0000
     12 ****        -0.0240  -0.8210   0.1233 N.am           1 S1                 0.0000
     13 ****         1.4171  -0.9604  -0.0222 C.3            1 S1                 0.0000
     14 ****         1.7534  -1.8319  -1.2392 C.3            1 S1                 0.0000
     15 ****         3.1990  -1.9636  -1.4259 N.pl3          1 S1                 0.0000
     16 ****         4.0230  -2.9216  -0.8937 C.2            1 S1                 0.0000
     17 ****         5.2890  -2.6381  -1.3380 C.2            1 S1                 0.0000
     18 ****         5.1840  -1.5197  -2.1213 N.pl3          1 S1                 1.0000
     19 ****         3.9120  -1.1105  -2.1726 C.2            1 S1                 0.0000
     20 ****        -0.4501   3.8185  -1.1792 H              1 S1                 0.0000
     21 ****         0.0052   2.6125   0.0385 H              1 S1                 0.0000
     22 ****        -1.2301   3.8355   0.4173 H              1 S1                 0.0000
     23 ****        -3.1169   2.7206   1.8828 H              1 S1                 0.0000
     24 ****        -4.4953   2.3411   0.8346 H              1 S1                 0.0000
     25 ****        -4.3363   1.1687   3.2938 H              1 S1                 0.0000
     26 ****        -4.8743   0.2417   1.8934 H              1 S1                 0.0000
     27 ****        -2.1419   0.2618   3.1611 H              1 S1                 0.0000
     28 ****        -3.0629  -1.1269   2.6077 H              1 S1                 0.0000
     29 ****        -2.5218  -0.7850   0.3447 H              1 S1                 0.0000
     30 ****        -0.6076  -1.3226  -0.5309 H              1 S1                 0.0000
     31 ****         1.8656   0.0281  -0.1358 H              1 S1                 0.0000
     32 ****         1.8314  -1.4021   0.8855 H              1 S1                 0.0000
     33 ****         1.3376  -2.8340  -1.1248 H              1 S1                 0.0000
     34 ****         1.3281  -1.4082  -2.1507 H              1 S1                 0.0000
     35 ****         3.6572  -3.7125  -0.2548 H              1 S1                 0.0000
     36 ****         6.2317  -3.1349  -1.1598 H              1 S1                 0.0000
     37 ****         3.5358  -0.2583  -2.7104 H              1 S1                 0.0000
     38 ****         5.9558  -1.0663  -2.5943 H              1 S1                 0.0000
     39 ****        -0.4832   1.2125   2.5045 LP             1 S1                 0.0000
     40 ****         1.0043   0.5729   1.8894 LP             1 S1                 0.0000
@<TRIPOS>BOND
    1    1    2 1     
    2    1   20 1     
    3    1   21 1     
    4    1   22 1     
    5    2    3 2     
    6    2    4 2     
    7    2    5 1     
    8    5    9 1     
    9    5    6 1     
   10    6    7 1     
   11    6   23 1     
   12    6   24 1     
   13    7    8 1     
   14    7   25 1     
   15    7   26 1     
   16    8    9 1     
   17    8   27 1     
   18    8   28 1     
   19    9   10 1     
   20    9   29 1     
   21   10   11 2     
   22   10   12 am    
   23   12   13 1     
   24   12   30 1     
   25   13   14 1     
   26   13   31 1     
   27   13   32 1     
   28   14   15 1     
   29   14   33 1     
   30   14   34 1     
   31   15   19 1     
   32   15   16 1     
   33   16   17 2     
   34   16   35 1     
   35   17   18 1     
   36   17   36 1     
   37   18   19 2     
   38   18   38 1     
   39   19   37 1     
   40   11   39 1     
   41   11   40 1     
@<TRIPOS>SUBSTRUCTURE
      1 S1             1
@<TRIPOS>SET
LONE_PAIRS      STATIC     ATOMS    <user>   **** ""
4 3 4 39 40
DONOR_HYDROGENS      STATIC     ATOMS    <user>   **** ""
2 30 38
ATOM$BLUE        STATIC     ATOMS    COLORGROUP SYSTEM
4 3 4 39 40
ATOM$RED        STATIC     ATOMS    COLORGROUP SYSTEM
2 30 38
