AV-unprocessed.smi:2252|AV-procd|sdf|9109|dock5
  -GOLD-   2272012313D 1   1.00000     0.00000
 Structure written by MMmdl.
 45 47  0  0  0  0  0  0  0  0  4 V2000
  152.7996  141.9605  159.7309 C   0  0  0  0  0  0  0  0  0  0  0  0
  152.0803  143.1255  159.2097 N   0  0  0  0  0  0  0  0  0  0  0  0
  152.0014  144.3621  159.7974 C   0  0  0  0  0  0  0  0  0  0  0  0
  151.2299  145.1405  158.9753 C   0  0  0  0  0  0  0  0  0  0  0  0
  150.8701  144.3485  157.9195 N   0  3  0  0  0  0  0  0  0  0  0  0
  151.3891  143.1204  158.0550 C   0  0  0  0  0  0  0  0  0  0  0  0
  151.2069  141.9860  157.0854 C   0  0  0  0  0  0  0  0  0  0  0  0
  150.4957  140.7564  157.6824 C   0  0  0  0  0  0  0  0  0  0  0  0
  150.0114  139.9025  156.6031 N   0  5  0  0  0  0  0  0  0  0  0  0
  150.6058  139.8097  155.3822 C   0  0  0  0  0  0  0  0  0  0  0  0
  151.7455  140.1226  155.0205 O   0  0  0  0  0  0  0  0  0  0  0  0
  149.6447  139.2189  154.3335 C   0  0  2  0  0  0  0  0  0  0  0  0
  148.2894  139.9534  154.4283 C   0  0  0  0  0  0  0  0  0  0  0  0
  147.5535  140.4099  153.1873 C   0  0  0  0  0  0  0  0  0  0  0  0
  148.1853  141.4278  154.1015 C   0  0  0  0  0  0  0  0  0  0  0  0
  149.4844  137.7499  154.5161 N   0  3  0  0  0  0  0  0  0  0  0  0
  150.7206  137.0162  154.8751 C   0  0  0  0  0  0  0  0  0  0  0  0
  150.2921  135.7885  155.6931 C   0  0  0  0  0  0  0  0  0  0  0  0
  148.7692  135.8741  155.7888 C   0  0  0  0  0  0  0  0  0  0  0  0
  148.4644  137.3406  155.5050 C   0  0  0  0  0  0  0  0  0  0  0  0
  153.2929  142.2240  160.6668 H   0  0  0  0  0  0  0  0  0  0  0  0
  153.5500  141.6429  159.0064 H   0  0  0  0  0  0  0  0  0  0  0  0
  152.0930  141.1501  159.9121 H   0  0  0  0  0  0  0  0  0  0  0  0
  152.4878  144.5911  160.7346 H   0  0  0  0  0  0  0  0  0  0  0  0
  150.9179  146.1712  159.0596 H   0  0  0  0  0  0  0  0  0  0  0  0
  150.6594  142.3746  156.2264 H   0  0  0  0  0  0  0  0  0  0  0  0
  152.2033  141.7176  156.7310 H   0  0  0  0  0  0  0  0  0  0  0  0
  151.1921  140.2208  158.3280 H   0  0  0  0  0  0  0  0  0  0  0  0
  149.6930  141.1038  158.3344 H   0  0  0  0  0  0  0  0  0  0  0  0
  150.0461  139.3751  153.3288 H   0  0  0  0  0  0  0  0  0  0  0  0
  147.6688  139.6213  155.2590 H   0  0  0  0  0  0  0  0  0  0  0  0
  148.0282  140.2447  152.2223 H   0  0  0  0  0  0  0  0  0  0  0  0
  146.4682  140.3347  153.1916 H   0  0  0  0  0  0  0  0  0  0  0  0
  147.5232  142.0319  154.7183 H   0  0  0  0  0  0  0  0  0  0  0  0
  149.0813  141.9330  153.7458 H   0  0  0  0  0  0  0  0  0  0  0  0
  151.2715  136.7370  153.9765 H   0  0  0  0  0  0  0  0  0  0  0  0
  151.3721  137.6437  155.4852 H   0  0  0  0  0  0  0  0  0  0  0  0
  150.6109  134.8551  155.2280 H   0  0  0  0  0  0  0  0  0  0  0  0
  150.7380  135.8292  156.6876 H   0  0  0  0  0  0  0  0  0  0  0  0
  148.3172  135.2507  155.0161 H   0  0  0  0  0  0  0  0  0  0  0  0
  148.3850  135.5418  156.7537 H   0  0  0  0  0  0  0  0  0  0  0  0
  148.5797  137.9285  156.4173 H   0  0  0  0  0  0  0  0  0  0  0  0
  147.4485  137.4826  155.1351 H   0  0  0  0  0  0  0  0  0  0  0  0
  149.1787  137.3769  153.6289 H   0  0  0  0  0  0  0  0  0  0  0  0
  150.2974  144.6456  157.1394 H   0  0  0  0  0  0  0  0  0  0  0  0
  1  2  1  0  0  0  0
  1 21  1  0  0  0  0
  1 22  1  0  0  0  0
  1 23  1  0  0  0  0
  2  6  1  0  0  0  0
  2  3  1  0  0  0  0
  3  4  2  0  0  0  0
  3 24  1  0  0  0  0
  4  5  1  0  0  0  0
  4 25  1  0  0  0  0
  5  6  2  0  0  0  0
  5 45  1  0  0  0  0
  6  7  1  0  0  0  0
  7  8  1  0  0  0  0
  7 26  1  0  0  0  0
  7 27  1  0  0  0  0
  8  9  1  0  0  0  0
  8 28  1  0  0  0  0
  8 29  1  0  0  0  0
  9 10  1  0  0  0  0
 10 11  2  0  0  0  0
 10 12  1  0  0  0  0
 12 13  1  0  0  0  0
 12 16  1  0  0  0  0
 12 30  1  0  0  0  0
 13 15  1  0  0  0  0
 13 14  1  0  0  0  0
 13 31  1  0  0  0  0
 14 15  1  0  0  0  0
 14 32  1  0  0  0  0
 14 33  1  0  0  0  0
 15 34  1  0  0  0  0
 15 35  1  0  0  0  0
 16 20  1  0  0  0  0
 16 17  1  0  0  0  0
 16 44  1  0  0  0  0
 17 18  1  0  0  0  0
 17 36  1  0  0  0  0
 17 37  1  0  0  0  0
 18 19  1  0  0  0  0
 18 38  1  0  0  0  0
 18 39  1  0  0  0  0
 19 20  1  0  0  0  0
 19 40  1  0  0  0  0
 19 41  1  0  0  0  0
 20 42  1  0  0  0  0
 20 43  1  0  0  0  0
M  CHG  1   5   1
M  CHG  1   9  -1
M  CHG  1  16   1
M  END
> <s_m_source_file>
AV-unprocessed.smi

> <i_m_source_file_index>
2252

> <i_lp_mmshare_version>
43012

> <i_f3d_flags>
0

> <s_epik_input>
W0NIM11uMVtjSF1bY0hdbmMxW0NIMl1bQ0gyXVtOSF1DKD1PKVtDQEhdKFtDSF0yW0NIMl1bQ0gyXTIpTjNbQ0gyXVtDSDJdW0NIMl1bQ0gyXTM=

> <s_epik_cmdline>
J2VwaWtfcHl0aG9uJywgJy1waCcsICc3LjAnLCAnLXRuJywgJzgnLCAnLW1hJywgJzIwMCcsICctbWV0YWxfYmluZGluZycsICctaW1hZScsICc8aW5maWxlLm1hZT4nLCAnLW9tYWUnLCAnPG91dGZpbGUubWFlPic=

> <r_lp_tautomer_probability>
1

> <r_epik_Ionization_Penalty>
5.88052

> <r_epik_Ionization_Penalty_Charging>
5.85424

> <r_epik_Ionization_Penalty_Neutral>
0.026272

> <r_epik_State_Penalty>
5.94961

> <r_epik_Charging_Adjusted_Penalty>
11.8039

> <i_epik_Tot_Q>
1

> <i_epik_Tot_abs_Q>
3

> <r_epik_Metal_State_Penalty>
2.20001

> <b_epik_Metal_Only>
1

> <s_lp_Force_Field>
OPLS_2005

> <r_lp_Energy>
29.4432

> <b_lp_Chiralities_Consistent>
1

> <s_lp_Variant>
AV-unprocessed.smi:2252-7

> <Gold.Version>
5.8.1

> <Gold.Id.Protein>
6NUR|6NUR_protein|mol2

> <Gold.PLP.Fitness>
54.0256

> <Gold.PLP.PLP>
-41.5367

> <Gold.PLP.part.hbond>
-2.6482

> <Gold.PLP.part.metal>
0.0000

> <Gold.PLP.part.buried>
-3.3181

> <Gold.PLP.part.nonpolar>
-36.0368

> <Gold.PLP.part.repulsive>
0.1239

> <Gold.PLP.ligand.clash>
0.0000

> <Gold.PLP.ligand.torsion>
1.7196

> <Gold.PLP.Chemscore.Hbond>
4.8800

> <Gold.PLP.Chemscore.CHOScore>
0.0000

> <Gold.PLP.Chemscore.Metal>
0.0000

> <Gold.Chemscore.Hbonds>
donor molecule, donor type, donor heavy atom, donor atom, acceptor molecule, acceptor atom, score
      L1  H     5    45       P1  8028  2.00
      L1  H    16    44       P1  7948  1.66
      P1  H  7989  7998       L1    11  0.94

> <Gold.PLP.Chemscore.Internal.Correction>
1.2881

> <Gold.Rescore>
     Score         DG    S(hbond)    S(metal)    S(lipo)     H(rot)  DE(clash)    DE(int)     intcor
     17.21     -20.35       2.93        0.00      86.68       1.98       0.08       3.06       ----

> <Gold.Chemscore.Fitness>
17.2085

> <Gold.Chemscore.DG>
-20.3488

> <Gold.Chemscore.ZeroCoef>
-5.4800

> <Gold.Chemscore.Hbond>
2.9337

> <Gold.Chemscore.Metal>
0.0000

> <Gold.Chemscore.Lipo>
86.6784

> <Gold.Chemscore.Internal_Hbond>
0.0000

> <Gold.Chemscore.DEClash>
0.0778

> <Gold.Chemscore.DEInternal>
3.0624

> <Gold.Chemscore.Rot>
1.9809

> <Gold.Chemscore.Internal.Correction>
   9.000000E+99

> <Gold.Chemscore.Hbonds>
donor molecule, donor type, donor heavy atom, donor atom, acceptor molecule, acceptor atom, score
      L1  H     5    45       P1  8028  0.48
      L1  H    16    44       P1  7948  0.82
      P1  H  7989  7998       L1    11  0.64

> <Gold.Chemscore.Hbond.Weighted>
-9.7985

> <Gold.Chemscore.Metal.Weighted>
-0.0000

> <Gold.Chemscore.Lipo.Weighted>
-10.1414

> <Gold.Chemscore.Internal_Hbond.Weighted>
0.0000

> <Gold.Chemscore.DEClash.Weighted>
0.0778

> <Gold.Chemscore.DEInternal.Weighted>
3.0624

> <Gold.Chemscore.Rot.Weighted>
5.0711

> <Gold.Chemscore.Internal.Correction.Weighted>
   9.000000E+99

> <Gold.Protein.RotatedTorsions>
[ 6907 6896 6895 6894 ] final -165.54 input  -60.11 | X-H torsion
[ 7974 7965 7964 7962 ] final -165.60 input  175.53 | X-H torsion
[ 8008 7997 7996 7995 ] final -112.49 input   59.86 | X-H torsion
[ 10167 10162 10161 10158 ] final -154.73 input  -65.29 | X-H torsion
[ 10718 10713 10712 10709 ] final  176.35 input   66.30 | X-H torsion
[ 10763 10752 10751 10750 ] final  -91.01 input  -60.55 | X-H torsion
[ 11005 11000 10999 10996 ] final    1.93 input  -57.11 | X-H torsion

> <Gold.Protein.ActiveResidues>
 VAL166  LYS551  ARG553  GLY616  TRP617  ASP618  TYR619  PRO620  LYS621  CYS622 
 ASP623  PHE694  ASN695  SER759  ASP760  ASP761  ALA762  ILE779  LEU786  VAL792 
 PHE793  MET794  SER795  GLU796  ALA797  LYS798  CYS799  TRP800  GLU811  SER814 

> <Gold.Protein.RotatedAtoms>
  151.4293  133.3675  159.2766 H   0  0  0  0  0  0  0  0  0  0  0  0  # atno 6907 bound_to 6896
  150.9237  134.8655  159.7516 H   0  0  0  0  0  0  0  0  0  0  0  0  # atno 6908 bound_to 6896
  152.4994  134.4232  159.9539 H   0  0  0  0  0  0  0  0  0  0  0  0  # atno 6909 bound_to 6896
  144.7266  140.2791  143.6239 H   0  0  0  0  0  0  0  0  0  0  0  0  # atno 7974 bound_to 7965
  155.0060  140.0394  157.2379 H   0  0  0  0  0  0  0  0  0  0  0  0  # atno 8008 bound_to 7997
  154.7502  140.2765  155.6276 H   0  0  0  0  0  0  0  0  0  0  0  0  # atno 8009 bound_to 7997
  156.2883  140.2648  156.2254 H   0  0  0  0  0  0  0  0  0  0  0  0  # atno 8010 bound_to 7997
  139.6989  143.9296  152.2420 H   0  0  0  0  0  0  0  0  0  0  0  0  # atno 10167 bound_to 10162
  156.9214  130.9942  151.3004 H   0  0  0  0  0  0  0  0  0  0  0  0  # atno 10718 bound_to 10713
  154.6717  135.5283  153.8147 H   0  0  0  0  0  0  0  0  0  0  0  0  # atno 10763 bound_to 10752
  153.0506  135.6530  154.0714 H   0  0  0  0  0  0  0  0  0  0  0  0  # atno 10764 bound_to 10752
  154.0612  135.2961  155.3304 H   0  0  0  0  0  0  0  0  0  0  0  0  # atno 10765 bound_to 10752
  140.6099  133.9758  155.8172 H   0  0  0  0  0  0  0  0  0  0  0  0  # atno 11005 bound_to 11000
  145.7967  139.1948  143.2071 LP  0  0  0  0  0  0  0  0  0  0  0  0  # atno 17320 bound_to 7965
  146.0710  140.7869  142.9688 LP  0  0  0  0  0  0  0  0  0  0  0  0  # atno 17321 bound_to 7965
  139.9133  144.6843  150.8539 LP  0  0  0  0  0  0  0  0  0  0  0  0  # atno 17342 bound_to 10162
  140.7704  143.3427  151.2174 LP  0  0  0  0  0  0  0  0  0  0  0  0  # atno 17343 bound_to 10162
  157.5905  130.8440  149.8652 LP  0  0  0  0  0  0  0  0  0  0  0  0  # atno 17370 bound_to 10713
  156.0489  130.3722  150.1249 LP  0  0  0  0  0  0  0  0  0  0  0  0  # atno 17371 bound_to 10713
  141.0815  134.0055  157.3379 LP  0  0  0  0  0  0  0  0  0  0  0  0  # atno 17394 bound_to 11000
  139.9196  135.0199  156.8015 LP  0  0  0  0  0  0  0  0  0  0  0  0  # atno 17395 bound_to 11000

$$$$
