AV-unprocessed.smi:738|AV-procd|sdf|3541|dock1
  -GOLD-   22720 0533D 1   1.00000     0.00000
 Structure written by MMmdl.
 35 37  0  0  0  0  0  0  0  0  1 V2000
  149.9628  138.8536  153.3098 N   0  0  0  0  0  0  0  0  0  0  0  0
  150.6930  138.6397  154.4086 C   0  0  0  0  0  0  0  0  0  0  0  0
  151.2777  137.5781  154.6148 O   0  0  0  0  0  0  0  0  0  0  0  0
  150.7094  139.7482  155.4211 C   0  0  0  0  0  0  0  0  0  0  0  0
  150.2287  141.0328  155.0873 C   0  0  0  0  0  0  0  0  0  0  0  0
  150.1969  142.0657  155.9555 N   0  0  0  0  0  0  0  0  0  0  0  0
  150.6414  141.8672  157.2198 C   0  0  0  0  0  0  0  0  0  0  0  0
  150.5863  142.9508  158.1158 N   0  0  0  0  0  0  0  0  0  0  0  0
  149.2724  143.5770  158.1241 C   0  0  0  0  0  0  0  0  0  0  0  0
  149.1626  144.5220  159.3273 C   0  0  0  0  0  0  0  0  0  0  0  0
  150.1871  145.5098  159.2619 O   0  0  0  0  0  0  0  0  0  0  0  0
  151.5149  144.9908  159.1605 C   0  0  1  0  0  0  0  0  0  0  0  0
  152.0872  144.3768  160.4483 C   0  0  0  0  0  0  0  0  0  0  0  0
  153.0909  143.3084  159.9849 C   0  0  0  0  0  0  0  0  0  0  0  0
  153.0388  143.2922  158.4497 C   0  0  0  0  0  0  0  0  0  0  0  0
  151.6870  143.9180  158.0716 C   0  0  1  0  0  0  0  0  0  0  0  0
  151.1294  140.6122  157.6576 C   0  0  0  0  0  0  0  0  0  0  0  0
  151.7013  140.3717  159.2722 Cl  0  0  0  0  0  0  0  0  0  0  0  0
  151.1591  139.5407  156.7440 C   0  0  0  0  0  0  0  0  0  0  0  0
  149.9122  138.1399  152.5971 H   0  0  0  0  0  0  0  0  0  0  0  0
  149.4614  139.7224  153.1959 H   0  0  0  0  0  0  0  0  0  0  0  0
  149.8613  141.2473  154.0942 H   0  0  0  0  0  0  0  0  0  0  0  0
  149.1272  144.1302  157.1950 H   0  0  0  0  0  0  0  0  0  0  0  0
  148.4872  142.8217  158.1749 H   0  0  0  0  0  0  0  0  0  0  0  0
  148.1949  145.0236  159.3214 H   0  0  0  0  0  0  0  0  0  0  0  0
  149.2191  143.9655  160.2628 H   0  0  0  0  0  0  0  0  0  0  0  0
  152.1558  145.8333  158.8965 H   0  0  0  0  0  0  0  0  0  0  0  0
  152.5560  145.1357  161.0755 H   0  0  0  0  0  0  0  0  0  0  0  0
  151.3109  143.9019  161.0470 H   0  0  0  0  0  0  0  0  0  0  0  0
  154.0995  143.5147  160.3443 H   0  0  0  0  0  0  0  0  0  0  0  0
  152.7979  142.3347  160.3795 H   0  0  0  0  0  0  0  0  0  0  0  0
  153.8371  143.9277  158.0640 H   0  0  0  0  0  0  0  0  0  0  0  0
  153.2017  142.2969  158.0352 H   0  0  0  0  0  0  0  0  0  0  0  0
  151.7241  144.3802  157.0841 H   0  0  0  0  0  0  0  0  0  0  0  0
  151.5238  138.5756  157.0650 H   0  0  0  0  0  0  0  0  0  0  0  0
  1  2  1  0  0  0  0
  1 20  1  0  0  0  0
  1 21  1  0  0  0  0
  2  3  2  0  0  0  0
  2  4  1  0  0  0  0
  4 19  1  0  0  0  0
  4  5  2  0  0  0  0
  5  6  1  0  0  0  0
  5 22  1  0  0  0  0
  6  7  2  0  0  0  0
  7  8  1  0  0  0  0
  7 17  1  0  0  0  0
  8 16  1  0  0  0  0
  8  9  1  0  0  0  0
  9 10  1  0  0  0  0
  9 23  1  0  0  0  0
  9 24  1  0  0  0  0
 10 11  1  0  0  0  0
 10 25  1  0  0  0  0
 10 26  1  0  0  0  0
 11 12  1  0  0  0  0
 12 16  1  0  0  0  0
 12 13  1  0  0  0  0
 12 27  1  0  0  0  0
 13 14  1  0  0  0  0
 13 28  1  0  0  0  0
 13 29  1  0  0  0  0
 14 15  1  0  0  0  0
 14 30  1  0  0  0  0
 14 31  1  0  0  0  0
 15 16  1  0  0  0  0
 15 32  1  0  0  0  0
 15 33  1  0  0  0  0
 16 34  1  0  0  0  0
 17 18  1  0  0  0  0
 17 19  2  0  0  0  0
 19 35  1  0  0  0  0
M  END
> <s_m_source_file>
AV-unprocessed.smi

> <i_m_source_file_index>
738

> <i_lp_mmshare_version>
43012

> <i_f3d_flags>
0

> <s_epik_input>
W05IMl1DKD1PKWMxW2NIXW5jKGMoQ2wpW2NIXTEpTihbQ0gyXVtDSDJdTzIpW0NASF0oW0NASF0yMylbQ0gyXVtDSDJdW0NIMl0z

> <s_epik_cmdline>
J2VwaWtfcHl0aG9uJywgJy1waCcsICc3LjAnLCAnLXRuJywgJzgnLCAnLW1hJywgJzIwMCcsICctbWV0YWxfYmluZGluZycsICctaW1hZScsICc8aW5maWxlLm1hZT4nLCAnLW9tYWUnLCAnPG91dGZpbGUubWFlPic=

> <r_lp_tautomer_probability>
1

> <r_epik_Ionization_Penalty>
6.75978e-06

> <r_epik_Ionization_Penalty_Charging>
0

> <r_epik_Ionization_Penalty_Neutral>
6.75978e-06

> <r_epik_State_Penalty>
-0

> <r_epik_Charging_Adjusted_Penalty>
0

> <i_epik_Tot_Q>
0

> <i_epik_Tot_abs_Q>
0

> <r_epik_Metal_State_Penalty>
-0

> <b_epik_Metal_Only>
0

> <s_lp_Force_Field>
OPLS_2005

> <r_lp_Energy>
43.0455

> <b_lp_Chiralities_Consistent>
1

> <s_lp_Variant>
AV-unprocessed.smi:738-4

> <Gold.Version>
5.8.1

> <Gold.Id.Protein>
6NUR|6NUR_protein|mol2

> <Gold.PLP.Fitness>
36.9865

> <Gold.PLP.PLP>
-35.2876

> <Gold.PLP.part.hbond>
-2.4022

> <Gold.PLP.part.metal>
0.0000

> <Gold.PLP.part.buried>
-5.7288

> <Gold.PLP.part.nonpolar>
-29.4561

> <Gold.PLP.part.repulsive>
1.1291

> <Gold.PLP.ligand.clash>
0.0000

> <Gold.PLP.ligand.torsion>
0.4810

> <Gold.PLP.Chemscore.Hbond>
0.8288

> <Gold.PLP.Chemscore.CHOScore>
0.0000

> <Gold.PLP.Chemscore.Metal>
0.0000

> <Gold.Chemscore.Hbonds>
donor molecule, donor type, donor heavy atom, donor atom, acceptor molecule, acceptor atom, score
      L1  H     1    20       P1  7948  0.56
      L1  H     1    21       P1  7957  0.03

> <Gold.PLP.Chemscore.Internal.Correction>
0.1746

> <Gold.Rescore>
     Score         DG    S(hbond)    S(metal)    S(lipo)     H(rot)  DE(clash)    DE(int)     intcor
     15.63     -17.22       0.99        0.00      94.12       1.00       1.16       0.43       ----

> <Gold.Chemscore.Fitness>
15.6298

> <Gold.Chemscore.DG>
-17.2242

> <Gold.Chemscore.ZeroCoef>
-5.4800

> <Gold.Chemscore.Hbond>
0.9858

> <Gold.Chemscore.Metal>
0.0000

> <Gold.Chemscore.Lipo>
94.1177

> <Gold.Chemscore.Internal_Hbond>
0.0000

> <Gold.Chemscore.DEClash>
1.1611

> <Gold.Chemscore.DEInternal>
0.4333

> <Gold.Chemscore.Rot>
1.0000

> <Gold.Chemscore.Internal.Correction>
   9.000000E+99

> <Gold.Chemscore.Hbonds>
donor molecule, donor type, donor heavy atom, donor atom, acceptor molecule, acceptor atom, score
      L1  H     1    20       P1  7948  0.14
      L1  H     1    21       P1  7957  0.07

> <Gold.Chemscore.Hbond.Weighted>
-3.2924

> <Gold.Chemscore.Metal.Weighted>
-0.0000

> <Gold.Chemscore.Lipo.Weighted>
-11.0118

> <Gold.Chemscore.Internal_Hbond.Weighted>
0.0000

> <Gold.Chemscore.DEClash.Weighted>
1.1611

> <Gold.Chemscore.DEInternal.Weighted>
0.4333

> <Gold.Chemscore.Rot.Weighted>
2.5600

> <Gold.Chemscore.Internal.Correction.Weighted>
   9.000000E+99

> <Gold.Protein.RotatedTorsions>
[ 6907 6896 6895 6894 ] final  -11.34 input  -60.11 | X-H torsion
[ 7974 7965 7964 7962 ] final -174.43 input  175.53 | X-H torsion
[ 8008 7997 7996 7995 ] final   87.72 input   59.86 | X-H torsion
[ 10167 10162 10161 10158 ] final  131.28 input  -65.29 | X-H torsion
[ 10718 10713 10712 10709 ] final  102.12 input   66.30 | X-H torsion
[ 10763 10752 10751 10750 ] final   84.34 input  -60.55 | X-H torsion
[ 11005 11000 10999 10996 ] final  110.95 input  -57.11 | X-H torsion

> <Gold.Protein.ActiveResidues>
 VAL166  LYS551  ARG553  GLY616  TRP617  ASP618  TYR619  PRO620  LYS621  CYS622 
 ASP623  PHE694  ASN695  SER759  ASP760  ASP761  ALA762  ILE779  LEU786  VAL792 
 PHE793  MET794  SER795  GLU796  ALA797  LYS798  CYS799  TRP800  GLU811  SER814 

> <Gold.Protein.RotatedAtoms>
  151.3877  135.0950  159.9515 H   0  0  0  0  0  0  0  0  0  0  0  0  # atno 6907 bound_to 6896
  152.5089  133.9010  159.7451 H   0  0  0  0  0  0  0  0  0  0  0  0  # atno 6908 bound_to 6896
  150.9457  133.6550  159.2810 H   0  0  0  0  0  0  0  0  0  0  0  0  # atno 6909 bound_to 6896
  144.7132  140.1473  143.6387 H   0  0  0  0  0  0  0  0  0  0  0  0  # atno 7974 bound_to 7965
  155.9789  140.3379  155.6644 H   0  0  0  0  0  0  0  0  0  0  0  0  # atno 8008 bound_to 7997
  155.6576  140.0712  157.2583 H   0  0  0  0  0  0  0  0  0  0  0  0  # atno 8009 bound_to 7997
  154.4186  140.1714  156.1729 H   0  0  0  0  0  0  0  0  0  0  0  0  # atno 8010 bound_to 7997
  139.5391  144.6713  151.4685 H   0  0  0  0  0  0  0  0  0  0  0  0  # atno 10167 bound_to 10162
  157.6811  131.0744  150.5355 H   0  0  0  0  0  0  0  0  0  0  0  0  # atno 10718 bound_to 10713
  153.1373  135.4658  154.9442 H   0  0  0  0  0  0  0  0  0  0  0  0  # atno 10763 bound_to 10752
  154.7717  135.3161  154.8179 H   0  0  0  0  0  0  0  0  0  0  0  0  # atno 10764 bound_to 10752
  153.8708  135.6903  153.4828 H   0  0  0  0  0  0  0  0  0  0  0  0  # atno 10765 bound_to 10752
  139.8893  134.9496  156.6357 H   0  0  0  0  0  0  0  0  0  0  0  0  # atno 11005 bound_to 11000
  145.9148  139.2509  143.1416 LP  0  0  0  0  0  0  0  0  0  0  0  0  # atno 17320 bound_to 7965
  145.9680  140.8783  143.0177 LP  0  0  0  0  0  0  0  0  0  0  0  0  # atno 17321 bound_to 7965
  140.6612  143.8494  150.6890 LP  0  0  0  0  0  0  0  0  0  0  0  0  # atno 17342 bound_to 10162
  140.1889  143.4053  152.1878 LP  0  0  0  0  0  0  0  0  0  0  0  0  # atno 17343 bound_to 10162
  156.5664  130.4268  149.6039 LP  0  0  0  0  0  0  0  0  0  0  0  0  # atno 17370 bound_to 10713
  156.2778  130.7053  151.1869 LP  0  0  0  0  0  0  0  0  0  0  0  0  # atno 17371 bound_to 10713
  140.7632  133.8800  155.8434 LP  0  0  0  0  0  0  0  0  0  0  0  0  # atno 17394 bound_to 11000
  140.9904  134.1286  157.4413 LP  0  0  0  0  0  0  0  0  0  0  0  0  # atno 17395 bound_to 11000

$$$$
