#       Name:                AV-unprocessed.smi:1301
#       Creating user name   scv26
#       Creation time:       Fri Mar 27 04:58:12 2020


#       File generated by GOLD software.
#

@<TRIPOS>MOLECULE
AV-unprocessed.smi:1301
    50    51     1
SMALL
NO_CHARGES


@<TRIPOS>ATOM
      1 ****        -2.9921   3.0757   6.9122 C.3            1 S1                 0.0000
      2 ****        -2.8940   2.3419   5.6185 C.2            1 S1                 0.0000
      3 ****        -2.0923   2.4940   4.5221 C.2            1 S1                 0.0000
      4 ****        -2.5355   1.4597   3.6557 C.2            1 S1                 0.0000
      5 ****        -1.9427   1.2732   2.3806 N.am           1 S1                 0.0000
      6 ****        -2.2766   0.3631   1.4495 C.2            1 S1                 0.0000
      7 ****        -3.1718  -0.4742   1.5645 O.2            1 S1                 0.0000
      8 ****        -1.5066   0.4755   0.3567 N.am           1 S1                 0.0000
      9 ****        -1.6333  -0.3417  -0.8500 C.3            1 S1                 0.0000
     10 ****        -1.0120  -1.7408  -0.6673 C.3            1 S1                 0.0000
     11 ****         0.5247  -1.6885  -0.6131 C.3            1 S1                 0.0000
     12 ****         1.0794  -1.0235  -1.8196 N.4            1 S1                 1.0000
     13 ****         2.5621  -1.1031  -1.8778 C.3            1 S1                 0.0000
     14 ****         3.1187  -0.9849  -3.3136 C.3            1 S1                 0.0000
     15 ****         2.6102  -2.1170  -4.2223 C.3            1 S1                 0.0000
     16 ****         4.6545  -0.9620  -3.2968 C.3            1 S1                 0.0000
     17 ****         0.5546   0.3600  -1.9663 C.3            1 S1                 0.0000
     18 ****        -0.9828   0.3646  -2.0521 C.3            1 S1                 0.0000
     19 ****        -3.5178   0.7404   4.1761 N.2            1 S1                 0.0000
     20 ****        -3.7536   1.3028   5.4361 O.3            1 S1                 0.0000
     21 ****        -2.0211   3.4734   7.2071 H              1 S1                 0.0000
     22 ****        -3.3429   2.4187   7.7084 H              1 S1                 0.0000
     23 ****        -3.6892   3.9093   6.8298 H              1 S1                 0.0000
     24 ****        -1.3163   3.2290   4.3684 H              1 S1                 0.0000
     25 ****        -1.1908   1.9060   2.1514 H              1 S1                 0.0000
     26 ****        -0.7985   1.1949   0.3491 H              1 S1                 0.0000
     27 ****        -2.6976  -0.4561  -1.0639 H              1 S1                 0.0000
     28 ****        -1.4023  -2.2234   0.2294 H              1 S1                 0.0000
     29 ****        -1.3141  -2.3744  -1.5022 H              1 S1                 0.0000
     30 ****         0.8583  -1.1627   0.2831 H              1 S1                 0.0000
     31 ****         0.9090  -2.7070  -0.5434 H              1 S1                 0.0000
     32 ****         2.9887  -0.3326  -1.2335 H              1 S1                 0.0000
     33 ****         2.8922  -2.0578  -1.4653 H              1 S1                 0.0000
     34 ****         2.7970  -0.0384  -3.7470 H              1 S1                 0.0000
     35 ****         2.8947  -3.0956  -3.8344 H              1 S1                 0.0000
     36 ****         3.0220  -2.0270  -5.2279 H              1 S1                 0.0000
     37 ****         1.5242  -2.0980  -4.3160 H              1 S1                 0.0000
     38 ****         5.0616  -1.8860  -2.8844 H              1 S1                 0.0000
     39 ****         5.0298  -0.1346  -2.6939 H              1 S1                 0.0000
     40 ****         5.0573  -0.8422  -4.3031 H              1 S1                 0.0000
     41 ****         0.8886   0.9689  -1.1250 H              1 S1                 0.0000
     42 ****         0.9549   0.8254  -2.8660 H              1 S1                 0.0000
     43 ****        -1.2866  -0.1412  -2.9697 H              1 S1                 0.0000
     44 ****        -1.3521   1.3876  -2.1355 H              1 S1                 0.0000
     45 ****         0.7391  -1.5532  -2.6096 H              1 S1                 0.0000
     46 ****        -3.7163  -0.5121   2.4024 LP             1 S1                 0.0000
     47 ****        -3.3544  -1.1163   0.8200 LP             1 S1                 0.0000
     48 ****        -3.9893  -0.0366   3.7592 LP             1 S1                 0.0000
     49 ****        -4.6961   1.6332   5.4860 LP             1 S1                 0.0000
     50 ****        -3.6039   0.6139   6.1454 LP             1 S1                 0.0000
@<TRIPOS>BOND
    1    1    2 1     
    2    1   21 1     
    3    1   22 1     
    4    1   23 1     
    5    2   20 1     
    6    2    3 2     
    7    3    4 1     
    8    3   24 1     
    9    4    5 1     
   10    4   19 2     
   11    5    6 am    
   12    5   25 1     
   13    6    7 2     
   14    6    8 am    
   15    8    9 1     
   16    8   26 1     
   17    9   18 1     
   18    9   10 1     
   19    9   27 1     
   20   10   11 1     
   21   10   28 1     
   22   10   29 1     
   23   11   12 1     
   24   11   30 1     
   25   11   31 1     
   26   12   13 1     
   27   12   17 1     
   28   12   45 1     
   29   13   14 1     
   30   13   32 1     
   31   13   33 1     
   32   14   15 1     
   33   14   16 1     
   34   14   34 1     
   35   15   35 1     
   36   15   36 1     
   37   15   37 1     
   38   16   38 1     
   39   16   39 1     
   40   16   40 1     
   41   17   18 1     
   42   17   41 1     
   43   17   42 1     
   44   18   43 1     
   45   18   44 1     
   46   19   20 1     
   47    7   46 1     
   48    7   47 1     
   49   19   48 1     
   50   20   49 1     
   51   20   50 1     
@<TRIPOS>SUBSTRUCTURE
      1 S1             1
@<TRIPOS>SET
LONE_PAIRS      STATIC     ATOMS    <user>   **** ""
5 46 47 48 49 50
DONOR_HYDROGENS      STATIC     ATOMS    <user>   **** ""
3 25 26 45
ATOM$BLUE        STATIC     ATOMS    COLORGROUP SYSTEM
5 46 47 48 49 50
ATOM$RED        STATIC     ATOMS    COLORGROUP SYSTEM
3 25 26 45
