AV-unprocessed.smi:1929|AV-procd|sdf|7807|dock4
  -GOLD-   22720 9553D 1   1.00000     0.00000
 Structure written by MMmdl.
 43 44  0  0  0  0  0  0  0  0  4 V2000
  151.3309  121.4471  151.4910 C   0  0  0  0  0  0  0  0  0  0  0  0
  150.9299  122.4648  152.4548 N   0  5  0  0  0  0  0  0  0  0  0  0
  151.4147  123.7356  152.4507 C   0  0  0  0  0  0  0  0  0  0  0  0
  152.2886  124.2628  151.7544 O   0  0  0  0  0  0  0  0  0  0  0  0
  150.7386  124.5882  153.5310 C   0  0  0  0  0  0  0  0  0  0  0  0
  150.1340  125.8009  152.9250 N   0  3  2  0  0  0  0  0  0  0  0  0
  149.5993  126.7578  153.9317 C   0  0  0  0  0  0  0  0  0  0  0  0
  149.1076  128.0507  153.2610 C   0  0  0  0  0  0  0  0  0  0  0  0
  148.0493  127.7533  152.1870 C   0  0  1  0  0  0  0  0  0  0  0  0
  147.6685  128.9909  151.5121 N   0  0  0  0  0  0  0  0  0  0  0  0
  146.4216  129.4783  151.4362 C   0  0  0  0  0  0  0  0  0  0  0  0
  145.4418  128.9157  151.9241 O   0  0  0  0  0  0  0  0  0  0  0  0
  146.3898  130.6321  150.7467 N   0  0  0  0  0  0  0  0  0  0  0  0
  145.2716  131.4665  150.4743 C   0  0  0  0  0  0  0  0  0  0  0  0
  145.2083  132.0850  149.2057 C   0  0  0  0  0  0  0  0  0  0  0  0
  144.1253  132.9341  148.8992 C   0  0  0  0  0  0  0  0  0  0  0  0
  143.1646  133.1583  149.8212 N   0  3  0  0  0  0  0  0  0  0  0  0
  143.1897  132.6024  151.0516 C   0  0  0  0  0  0  0  0  0  0  0  0
  144.2474  131.7440  151.4152 C   0  0  0  0  0  0  0  0  0  0  0  0
  148.6095  126.7311  151.1816 C   0  0  0  0  0  0  0  0  0  0  0  0
  149.1159  125.4670  151.8967 C   0  0  0  0  0  0  0  0  0  0  0  0
  150.8359  120.4944  151.6780 H   0  0  0  0  0  0  0  0  0  0  0  0
  152.4026  121.2479  151.5192 H   0  0  0  0  0  0  0  0  0  0  0  0
  151.0884  121.7260  150.4651 H   0  0  0  0  0  0  0  0  0  0  0  0
  149.9601  123.9696  153.9795 H   0  0  0  0  0  0  0  0  0  0  0  0
  151.4169  124.8639  154.3418 H   0  0  0  0  0  0  0  0  0  0  0  0
  148.7852  126.2881  154.4859 H   0  0  0  0  0  0  0  0  0  0  0  0
  150.3688  127.0125  154.6607 H   0  0  0  0  0  0  0  0  0  0  0  0
  148.6975  128.7224  154.0162 H   0  0  0  0  0  0  0  0  0  0  0  0
  149.9571  128.5694  152.8139 H   0  0  0  0  0  0  0  0  0  0  0  0
  147.1740  127.3250  152.6799 H   0  0  0  0  0  0  0  0  0  0  0  0
  148.4123  129.5163  151.0757 H   0  0  0  0  0  0  0  0  0  0  0  0
  147.2597  130.9212  150.3239 H   0  0  0  0  0  0  0  0  0  0  0  0
  145.9780  131.9078  148.4683 H   0  0  0  0  0  0  0  0  0  0  0  0
  144.0007  133.4384  147.9520 H   0  0  0  0  0  0  0  0  0  0  0  0
  142.3718  132.8633  151.7070 H   0  0  0  0  0  0  0  0  0  0  0  0
  144.2589  131.3267  152.4106 H   0  0  0  0  0  0  0  0  0  0  0  0
  147.8435  126.4574  150.4549 H   0  0  0  0  0  0  0  0  0  0  0  0
  149.4279  127.1777  150.6149 H   0  0  0  0  0  0  0  0  0  0  0  0
  149.5458  124.7884  151.1591 H   0  0  0  0  0  0  0  0  0  0  0  0
  148.2836  124.9398  152.3658 H   0  0  0  0  0  0  0  0  0  0  0  0
  150.8869  126.2702  152.4421 H   0  0  0  0  0  0  0  0  0  0  0  0
  142.3901  133.7776  149.5802 H   0  0  0  0  0  0  0  0  0  0  0  0
  1  2  1  0  0  0  0
  1 22  1  0  0  0  0
  1 23  1  0  0  0  0
  1 24  1  0  0  0  0
  2  3  1  0  0  0  0
  3  4  2  0  0  0  0
  3  5  1  0  0  0  0
  5  6  1  0  0  0  0
  5 25  1  0  0  0  0
  5 26  1  0  0  0  0
  6 21  1  0  0  0  0
  6  7  1  0  0  0  0
  6 42  1  0  0  0  0
  7  8  1  0  0  0  0
  7 27  1  0  0  0  0
  7 28  1  0  0  0  0
  8  9  1  0  0  0  0
  8 29  1  0  0  0  0
  8 30  1  0  0  0  0
  9 10  1  0  0  0  0
  9 20  1  0  0  0  0
  9 31  1  0  0  0  0
 10 11  1  0  0  0  0
 10 32  1  0  0  0  0
 11 12  2  0  0  0  0
 11 13  1  0  0  0  0
 13 14  1  0  0  0  0
 13 33  1  0  0  0  0
 14 19  1  0  0  0  0
 14 15  2  0  0  0  0
 15 16  1  0  0  0  0
 15 34  1  0  0  0  0
 16 17  2  0  0  0  0
 16 35  1  0  0  0  0
 17 18  1  0  0  0  0
 17 43  1  0  0  0  0
 18 19  2  0  0  0  0
 18 36  1  0  0  0  0
 19 37  1  0  0  0  0
 20 21  1  0  0  0  0
 20 38  1  0  0  0  0
 20 39  1  0  0  0  0
 21 40  1  0  0  0  0
 21 41  1  0  0  0  0
M  CHG  1   2  -1
M  CHG  1   6   1
M  CHG  1  17   1
M  END
> <s_m_source_file>
AV-unprocessed.smi

> <i_m_source_file_index>
1929

> <i_lp_mmshare_version>
43012

> <i_f3d_flags>
0

> <s_epik_input>
W0NIM11bTkhdQyg9TylbQ0gyXU4xW0NIMl1bQ0gyXVtDSF0oW0NIMl1bQ0gyXTEpW05IXUMoPU8pW05IXWMyW2NIXVtjSF1uW2NIXVtjSF0y

> <s_epik_cmdline>
J2VwaWtfcHl0aG9uJywgJy1waCcsICc3LjAnLCAnLXRuJywgJzgnLCAnLW1hJywgJzIwMCcsICctbWV0YWxfYmluZGluZycsICctaW1hZScsICc8aW5maWxlLm1hZT4nLCAnLW9tYWUnLCAnPG91dGZpbGUubWFlPic=

> <r_epik_Ionization_Penalty>
7.25133

> <r_epik_Ionization_Penalty_Charging>
7.25131

> <r_epik_Ionization_Penalty_Neutral>
1.84563e-05

> <r_epik_State_Penalty>
8.093

> <r_epik_Charging_Adjusted_Penalty>
15.3443

> <i_epik_Tot_Q>
1

> <i_epik_Tot_abs_Q>
3

> <r_epik_Metal_State_Penalty>
4.12368

> <b_epik_Metal_Only>
1

> <s_lp_Force_Field>
OPLS_2005

> <r_lp_Energy>
21.0398

> <b_lp_Chiralities_Consistent>
1

> <s_lp_Variant>
AV-unprocessed.smi:1929-9

> <Gold.Version>
5.8.1

> <Gold.Id.Protein>
6NUR|6NUR_protein|mol2

> <Gold.PLP.Fitness>
47.0627

> <Gold.PLP.PLP>
-33.0941

> <Gold.PLP.part.hbond>
-3.9551

> <Gold.PLP.part.metal>
0.0000

> <Gold.PLP.part.buried>
-2.8353

> <Gold.PLP.part.nonpolar>
-26.8161

> <Gold.PLP.part.repulsive>
0.4563

> <Gold.PLP.ligand.clash>
0.0000

> <Gold.PLP.ligand.torsion>
0.3365

> <Gold.PLP.Chemscore.Hbond>
4.8600

> <Gold.PLP.Chemscore.CHOScore>
0.0000

> <Gold.PLP.Chemscore.Metal>
0.0000

> <Gold.Chemscore.Hbonds>
donor molecule, donor type, donor heavy atom, donor atom, acceptor molecule, acceptor atom, score
      L1  H     6    42       P1 10737  1.00
      L1  H    10    32       P1 10747  0.90
      L1  H    13    33       P1 10747  0.99
      L1  H    17    43       P1 10186  1.98

> <Gold.PLP.Chemscore.Internal.Correction>
0.0615

> <Gold.Rescore>
     Score         DG    S(hbond)    S(metal)    S(lipo)     H(rot)  DE(clash)    DE(int)     intcor
     21.26     -21.78       3.26        0.00      82.55       1.66       0.16       0.36       ----

> <Gold.Chemscore.Fitness>
21.2631

> <Gold.Chemscore.DG>
-21.7784

> <Gold.Chemscore.ZeroCoef>
-5.4800

> <Gold.Chemscore.Hbond>
3.2583

> <Gold.Chemscore.Metal>
0.0000

> <Gold.Chemscore.Lipo>
82.5532

> <Gold.Chemscore.Internal_Hbond>
0.0000

> <Gold.Chemscore.DEClash>
0.1596

> <Gold.Chemscore.DEInternal>
0.3557

> <Gold.Chemscore.Rot>
1.6574

> <Gold.Chemscore.Internal.Correction>
   9.000000E+99

> <Gold.Chemscore.Hbonds>
donor molecule, donor type, donor heavy atom, donor atom, acceptor molecule, acceptor atom, score
      L1  H     6    42       P1 10737  0.98
      L1  H    10    32       P1 10747  0.17
      L1  H    13    33       P1 10747  0.94
      L1  H    17    43       P1 10186  0.92

> <Gold.Chemscore.Hbond.Weighted>
-10.8827

> <Gold.Chemscore.Metal.Weighted>
-0.0000

> <Gold.Chemscore.Lipo.Weighted>
-9.6587

> <Gold.Chemscore.Internal_Hbond.Weighted>
0.0000

> <Gold.Chemscore.DEClash.Weighted>
0.1596

> <Gold.Chemscore.DEInternal.Weighted>
0.3557

> <Gold.Chemscore.Rot.Weighted>
4.2430

> <Gold.Chemscore.Internal.Correction.Weighted>
   9.000000E+99

> <Gold.Protein.RotatedTorsions>
[ 6907 6896 6895 6894 ] final -114.22 input  -60.11 | X-H torsion
[ 7974 7965 7964 7962 ] final   83.80 input  175.53 | X-H torsion
[ 8008 7997 7996 7995 ] final -116.36 input   59.86 | X-H torsion
[ 10167 10162 10161 10158 ] final   18.51 input  -65.29 | X-H torsion
[ 10718 10713 10712 10709 ] final  175.88 input   66.30 | X-H torsion
[ 10763 10752 10751 10750 ] final -179.79 input  -60.55 | X-H torsion
[ 11005 11000 10999 10996 ] final   42.33 input  -57.11 | X-H torsion

> <Gold.Protein.ActiveResidues>
 VAL166  LYS551  ARG553  GLY616  TRP617  ASP618  TYR619  PRO620  LYS621  CYS622 
 ASP623  PHE694  ASN695  SER759  ASP760  ASP761  ALA762  ILE779  LEU786  VAL792 
 PHE793  MET794  SER795  GLU796  ALA797  LYS798  CYS799  TRP800  GLU811  SER814 

> <Gold.Protein.RotatedAtoms>
  150.7886  133.8832  159.3291 H   0  0  0  0  0  0  0  0  0  0  0  0  # atno 6907 bound_to 6896
  151.6676  135.0979  160.0201 H   0  0  0  0  0  0  0  0  0  0  0  0  # atno 6908 bound_to 6896
  152.3956  133.6703  159.6308 H   0  0  0  0  0  0  0  0  0  0  0  0  # atno 6909 bound_to 6896
  145.6072  139.2362  143.2212 H   0  0  0  0  0  0  0  0  0  0  0  0  # atno 7974 bound_to 7965
  155.0666  140.0393  157.2594 H   0  0  0  0  0  0  0  0  0  0  0  0  # atno 8008 bound_to 7997
  154.7016  140.2674  155.6689 H   0  0  0  0  0  0  0  0  0  0  0  0  # atno 8009 bound_to 7997
  156.2762  140.2739  156.1629 H   0  0  0  0  0  0  0  0  0  0  0  0  # atno 8010 bound_to 7997
  140.5648  143.9271  150.6668 H   0  0  0  0  0  0  0  0  0  0  0  0  # atno 10167 bound_to 10162
  156.9283  130.9963  151.2992 H   0  0  0  0  0  0  0  0  0  0  0  0  # atno 10718 bound_to 10713
  154.5306  135.2799  155.1184 H   0  0  0  0  0  0  0  0  0  0  0  0  # atno 10763 bound_to 10752
  154.2705  135.6304  153.5312 H   0  0  0  0  0  0  0  0  0  0  0  0  # atno 10764 bound_to 10752
  152.9956  135.5627  154.5818 H   0  0  0  0  0  0  0  0  0  0  0  0  # atno 10765 bound_to 10752
  140.1749  134.4176  155.8234 H   0  0  0  0  0  0  0  0  0  0  0  0  # atno 11005 bound_to 11000
  146.1532  140.6896  142.9312 LP  0  0  0  0  0  0  0  0  0  0  0  0  # atno 17320 bound_to 7965
  144.7285  140.4599  143.6955 LP  0  0  0  0  0  0  0  0  0  0  0  0  # atno 17321 bound_to 7965
  140.2731  143.3442  152.1220 LP  0  0  0  0  0  0  0  0  0  0  0  0  # atno 17342 bound_to 10162
  139.5087  144.6855  151.5898 LP  0  0  0  0  0  0  0  0  0  0  0  0  # atno 17343 bound_to 10162
  157.5863  130.8412  149.8595 LP  0  0  0  0  0  0  0  0  0  0  0  0  # atno 17370 bound_to 10713
  156.0459  130.3728  150.1319 LP  0  0  0  0  0  0  0  0  0  0  0  0  # atno 17371 bound_to 10713
  141.2220  133.6973  156.7829 LP  0  0  0  0  0  0  0  0  0  0  0  0  # atno 17394 bound_to 11000
  140.2334  134.8668  157.3500 LP  0  0  0  0  0  0  0  0  0  0  0  0  # atno 17395 bound_to 11000

$$$$
