#       Name:                AV-unprocessed.smi:3132
#       Creating user name   scv26
#       Creation time:       Fri Mar 27 17:31:51 2020


#       File generated by GOLD software.
#

@<TRIPOS>MOLECULE
AV-unprocessed.smi:3132
    38    39     1
SMALL
NO_CHARGES


@<TRIPOS>ATOM
      1 ****        -0.6850  -2.9174  -2.0800 C.3            1 S1                 0.0000
      2 ****        -0.1337  -2.0478  -0.9424 C.3            1 S1                 0.0000
      3 ****         1.4037  -2.1631  -0.8478 C.3            1 S1                 0.0000
      4 ****         1.9597  -1.5074   0.3405 N.pl3          1 S1                 0.0000
      5 ****         2.6604  -0.3294   0.3911 C.2            1 S1                 0.0000
      6 ****         2.9638  -0.1121   1.7105 C.2            1 S1                 0.0000
      7 ****         2.4418  -1.1687   2.4075 N.pl3          1 S1                 1.0000
      8 ****         1.8364  -2.0188   1.5720 C.2            1 S1                 0.0000
      9 ****        -0.5486  -0.6634  -1.1654 N.am           1 S1                 0.0000
     10 ****        -0.8858   0.2205  -0.2127 C.2            1 S1                 0.0000
     11 ****        -0.8617  -0.0425   0.9905 O.2            1 S1                 0.0000
     12 ****        -1.3171   1.6115  -0.7004 C.3            1 S1                 0.0000
     13 ****        -0.5967   2.7695   0.0193 C.3            1 S1                 0.0000
     14 ****        -1.7206   3.5829   0.6379 C.3            1 S1                 0.0000
     15 ****        -2.8440   2.5649   0.7659 C.3            1 S1                 0.0000
     16 ****        -2.7038   1.7898  -0.4157 O.3            1 S1                 0.0000
     17 ****        -0.4300  -3.9668  -1.9305 H              1 S1                 0.0000
     18 ****        -0.2816  -2.6114  -3.0460 H              1 S1                 0.0000
     19 ****        -1.7722  -2.8495  -2.1356 H              1 S1                 0.0000
     20 ****        -0.5759  -2.4168  -0.0151 H              1 S1                 0.0000
     21 ****         1.7041  -3.2111  -0.8075 H              1 S1                 0.0000
     22 ****         1.8805  -1.7325  -1.7296 H              1 S1                 0.0000
     23 ****         2.8787   0.2548  -0.4910 H              1 S1                 0.0000
     24 ****         3.4976   0.6937   2.1931 H              1 S1                 0.0000
     25 ****         1.3369  -2.9326   1.8405 H              1 S1                 0.0000
     26 ****        -0.6059  -0.3581  -2.1265 H              1 S1                 0.0000
     27 ****        -1.1776   1.6888  -1.7798 H              1 S1                 0.0000
     28 ****         0.0808   2.4140   0.7971 H              1 S1                 0.0000
     29 ****        -0.0055   3.3719  -0.6713 H              1 S1                 0.0000
     30 ****        -1.4469   4.0372   1.5903 H              1 S1                 0.0000
     31 ****        -2.0220   4.3786  -0.0447 H              1 S1                 0.0000
     32 ****        -2.7025   1.9347   1.6451 H              1 S1                 0.0000
     33 ****        -3.8290   3.0275   0.8287 H              1 S1                 0.0000
     34 ****         2.5014  -1.2907   3.4107 H              1 S1                 0.0000
     35 ****        -0.5809  -0.9517   1.2981 LP             1 S1                 0.0000
     36 ****        -1.1229   0.6531   1.6597 LP             1 S1                 0.0000
     37 ****        -3.1351   0.8974  -0.2830 LP             1 S1                 0.0000
     38 ****        -3.1436   2.2623  -1.1794 LP             1 S1                 0.0000
@<TRIPOS>BOND
    1    1    2 1     
    2    1   17 1     
    3    1   18 1     
    4    1   19 1     
    5    2    3 1     
    6    2    9 1     
    7    2   20 1     
    8    3    4 1     
    9    3   21 1     
   10    3   22 1     
   11    4    8 1     
   12    4    5 1     
   13    5    6 2     
   14    5   23 1     
   15    6    7 1     
   16    6   24 1     
   17    7    8 2     
   18    7   34 1     
   19    8   25 1     
   20    9   10 am    
   21    9   26 1     
   22   10   11 2     
   23   10   12 1     
   24   12   16 1     
   25   12   13 1     
   26   12   27 1     
   27   13   14 1     
   28   13   28 1     
   29   13   29 1     
   30   14   15 1     
   31   14   30 1     
   32   14   31 1     
   33   15   16 1     
   34   15   32 1     
   35   15   33 1     
   36   11   35 1     
   37   11   36 1     
   38   16   37 1     
   39   16   38 1     
@<TRIPOS>SUBSTRUCTURE
      1 S1             1
@<TRIPOS>SET
LONE_PAIRS      STATIC     ATOMS    <user>   **** ""
4 35 36 37 38
DONOR_HYDROGENS      STATIC     ATOMS    <user>   **** ""
2 34 26
ATOM$BLUE        STATIC     ATOMS    COLORGROUP SYSTEM
4 35 36 37 38
ATOM$RED        STATIC     ATOMS    COLORGROUP SYSTEM
2 34 26
