AV-unprocessed.smi:2277|AV-procd|sdf|9178|dock5
  -GOLD-   2272012393D 1   1.00000     0.00000
 Structure written by MMmdl.
 37 38  0  0  0  0  0  0  0  0  1 V2000
  139.0826  138.7071  153.7023 C   0  0  0  0  0  0  0  0  0  0  0  0
  140.0683  137.5605  153.6195 C   0  0  0  0  0  0  0  0  0  0  0  0
  141.4115  137.7761  153.2567 C   0  0  0  0  0  0  0  0  0  0  0  0
  142.2835  136.6719  153.1962 C   0  0  0  0  0  0  0  0  0  0  0  0
  141.7941  135.3812  153.4988 C   0  0  0  0  0  0  0  0  0  0  0  0
  142.7539  134.3380  153.4102 N   0  0  0  0  0  0  0  0  0  0  0  0
  143.9106  134.3297  152.7244 C   0  0  0  0  0  0  0  0  0  0  0  0
  144.3494  135.2643  152.0536 O   0  0  0  0  0  0  0  0  0  0  0  0
  144.5433  133.1534  152.8527 N   0  0  0  0  0  0  0  0  0  0  0  0
  145.8237  132.8105  152.2314 C   0  0  0  0  0  0  0  0  0  0  0  0
  146.3039  131.3712  152.4813 C   0  0  0  0  0  0  0  0  0  0  0  0
  147.3117  131.1882  153.1630 O   0  0  0  0  0  0  0  0  0  0  0  0
  145.6004  130.3617  151.9438 N   0  0  0  0  0  0  0  0  0  0  0  0
  145.9376  128.9528  152.0738 C   0  0  0  0  0  0  0  0  0  0  0  0
  147.2255  128.5658  151.3785 C   0  0  0  0  0  0  0  0  0  0  0  0
  147.7030  127.1328  151.3881 C   0  0  0  0  0  0  0  0  0  0  0  0
  148.4530  128.1838  152.1720 C   0  0  0  0  0  0  0  0  0  0  0  0
  140.4983  135.1842  153.8480 N   0  0  0  0  0  0  0  0  0  0  0  0
  139.6631  136.2427  153.9056 C   0  0  0  0  0  0  0  0  0  0  0  0
  139.5480  139.6520  153.4203 H   0  0  0  0  0  0  0  0  0  0  0  0
  138.7011  138.8043  154.7189 H   0  0  0  0  0  0  0  0  0  0  0  0
  138.2395  138.5296  153.0341 H   0  0  0  0  0  0  0  0  0  0  0  0
  141.7720  138.7685  153.0282 H   0  0  0  0  0  0  0  0  0  0  0  0
  143.3173  136.8194  152.9195 H   0  0  0  0  0  0  0  0  0  0  0  0
  142.5296  133.4982  153.9225 H   0  0  0  0  0  0  0  0  0  0  0  0
  144.1118  132.4400  153.4217 H   0  0  0  0  0  0  0  0  0  0  0  0
  145.7757  132.9873  151.1556 H   0  0  0  0  0  0  0  0  0  0  0  0
  146.5789  133.4936  152.6208 H   0  0  0  0  0  0  0  0  0  0  0  0
  144.7879  130.5900  151.3897 H   0  0  0  0  0  0  0  0  0  0  0  0
  146.0076  128.6933  153.1316 H   0  0  0  0  0  0  0  0  0  0  0  0
  145.1280  128.3547  151.6531 H   0  0  0  0  0  0  0  0  0  0  0  0
  147.4035  129.1114  150.4536 H   0  0  0  0  0  0  0  0  0  0  0  0
  147.1207  126.4069  151.9525 H   0  0  0  0  0  0  0  0  0  0  0  0
  148.1705  126.7526  150.4821 H   0  0  0  0  0  0  0  0  0  0  0  0
  149.4183  128.5061  151.7876 H   0  0  0  0  0  0  0  0  0  0  0  0
  148.3679  128.1580  153.2568 H   0  0  0  0  0  0  0  0  0  0  0  0
  138.6425  136.0303  154.1885 H   0  0  0  0  0  0  0  0  0  0  0  0
  1  2  1  0  0  0  0
  1 20  1  0  0  0  0
  1 21  1  0  0  0  0
  1 22  1  0  0  0  0
  2 19  1  0  0  0  0
  2  3  2  0  0  0  0
  3  4  1  0  0  0  0
  3 23  1  0  0  0  0
  4  5  2  0  0  0  0
  4 24  1  0  0  0  0
  5  6  1  0  0  0  0
  5 18  1  0  0  0  0
  6  7  1  0  0  0  0
  6 25  1  0  0  0  0
  7  8  2  0  0  0  0
  7  9  1  0  0  0  0
  9 10  1  0  0  0  0
  9 26  1  0  0  0  0
 10 11  1  0  0  0  0
 10 27  1  0  0  0  0
 10 28  1  0  0  0  0
 11 12  2  0  0  0  0
 11 13  1  0  0  0  0
 13 14  1  0  0  0  0
 13 29  1  0  0  0  0
 14 15  1  0  0  0  0
 14 30  1  0  0  0  0
 14 31  1  0  0  0  0
 15 17  1  0  0  0  0
 15 16  1  0  0  0  0
 15 32  1  0  0  0  0
 16 17  1  0  0  0  0
 16 33  1  0  0  0  0
 16 34  1  0  0  0  0
 17 35  1  0  0  0  0
 17 36  1  0  0  0  0
 18 19  2  0  0  0  0
 19 37  1  0  0  0  0
M  END
> <s_m_source_file>
AV-unprocessed.smi

> <i_m_source_file_index>
2277

> <i_lp_mmshare_version>
43012

> <i_f3d_flags>
0

> <s_epik_input>
W0NIM11jMVtjSF1bY0hdYyhuW2NIXTEpW05IXUMoPU8pW05IXVtDSDJdQyg9TylbTkhdW0NIMl1bQ0hdMltDSDJdW0NIMl0y

> <s_epik_cmdline>
J2VwaWtfcHl0aG9uJywgJy1waCcsICc3LjAnLCAnLXRuJywgJzgnLCAnLW1hJywgJzIwMCcsICctbWV0YWxfYmluZGluZycsICctaW1hZScsICc8aW5maWxlLm1hZT4nLCAnLW9tYWUnLCAnPG91dGZpbGUubWFlPic=

> <r_lp_tautomer_probability>
1

> <r_epik_Ionization_Penalty>
4.99402e-05

> <r_epik_Ionization_Penalty_Charging>
0

> <r_epik_Ionization_Penalty_Neutral>
4.99402e-05

> <r_epik_State_Penalty>
-0

> <r_epik_Charging_Adjusted_Penalty>
0

> <i_epik_Tot_Q>
0

> <i_epik_Tot_abs_Q>
0

> <r_epik_Metal_State_Penalty>
-0

> <b_epik_Metal_Only>
0

> <s_lp_Force_Field>
OPLS_2005

> <r_lp_Energy>
11.1939

> <b_lp_Chiralities_Consistent>
1

> <s_lp_Variant>
AV-unprocessed.smi:2277-1

> <Gold.Version>
5.8.1

> <Gold.Id.Protein>
6NUR|6NUR_protein|mol2

> <Gold.PLP.Fitness>
46.5770

> <Gold.PLP.PLP>
-38.5061

> <Gold.PLP.part.hbond>
-3.7521

> <Gold.PLP.part.metal>
0.0000

> <Gold.PLP.part.buried>
-6.9238

> <Gold.PLP.part.nonpolar>
-29.1696

> <Gold.PLP.part.repulsive>
0.4732

> <Gold.PLP.ligand.clash>
0.0504

> <Gold.PLP.ligand.torsion>
0.5222

> <Gold.PLP.Chemscore.Hbond>
2.8688

> <Gold.PLP.Chemscore.CHOScore>
0.0000

> <Gold.PLP.Chemscore.Metal>
0.0000

> <Gold.Chemscore.Hbonds>
donor molecule, donor type, donor heavy atom, donor atom, acceptor molecule, acceptor atom, score
      L1  H     6    25       P1 10957  1.00
      L1  H     9    26       P1 10957  0.79
      P1  H 11000 11005       L1    18  0.91

> <Gold.PLP.Chemscore.Internal.Correction>
0.5596

> <Gold.Rescore>
     Score         DG    S(hbond)    S(metal)    S(lipo)     H(rot)  DE(clash)    DE(int)     intcor
     15.79     -17.73       2.53        0.00      71.90       1.81       0.01       1.93       ----

> <Gold.Chemscore.Fitness>
15.7907

> <Gold.Chemscore.DG>
-17.7295

> <Gold.Chemscore.ZeroCoef>
-5.4800

> <Gold.Chemscore.Hbond>
2.5331

> <Gold.Chemscore.Metal>
0.0000

> <Gold.Chemscore.Lipo>
71.8964

> <Gold.Chemscore.Internal_Hbond>
0.0000

> <Gold.Chemscore.DEClash>
0.0137

> <Gold.Chemscore.DEInternal>
1.9251

> <Gold.Chemscore.Rot>
1.8058

> <Gold.Chemscore.Internal.Correction>
   9.000000E+99

> <Gold.Chemscore.Hbonds>
donor molecule, donor type, donor heavy atom, donor atom, acceptor molecule, acceptor atom, score
      L1  H     6    25       P1 10957  0.99
      L1  H     9    26       P1 10957  0.15
      P1  H 11000 11005       L1    18  0.23

> <Gold.Chemscore.Hbond.Weighted>
-8.4606

> <Gold.Chemscore.Metal.Weighted>
-0.0000

> <Gold.Chemscore.Lipo.Weighted>
-8.4119

> <Gold.Chemscore.Internal_Hbond.Weighted>
0.0000

> <Gold.Chemscore.DEClash.Weighted>
0.0137

> <Gold.Chemscore.DEInternal.Weighted>
1.9251

> <Gold.Chemscore.Rot.Weighted>
4.6230

> <Gold.Chemscore.Internal.Correction.Weighted>
   9.000000E+99

> <Gold.Protein.RotatedTorsions>
[ 6907 6896 6895 6894 ] final  -72.46 input  -60.11 | X-H torsion
[ 7974 7965 7964 7962 ] final  122.47 input  175.53 | X-H torsion
[ 8008 7997 7996 7995 ] final   33.01 input   59.86 | X-H torsion
[ 10167 10162 10161 10158 ] final -128.72 input  -65.29 | X-H torsion
[ 10718 10713 10712 10709 ] final  -50.57 input   66.30 | X-H torsion
[ 10763 10752 10751 10750 ] final  -71.87 input  -60.55 | X-H torsion
[ 11005 11000 10999 10996 ] final   37.14 input  -57.11 | X-H torsion

> <Gold.Protein.ActiveResidues>
 VAL166  LYS551  ARG553  GLY616  TRP617  ASP618  TYR619  PRO620  LYS621  CYS622 
 ASP623  PHE694  ASN695  SER759  ASP760  ASP761  ALA762  ILE779  LEU786  VAL792 
 PHE793  MET794  SER795  GLU796  ALA797  LYS798  CYS799  TRP800  GLU811  SER814 

> <Gold.Protein.RotatedAtoms>
  150.7169  134.5160  159.5629 H   0  0  0  0  0  0  0  0  0  0  0  0  # atno 6907 bound_to 6896
  152.2726  134.7914  160.0420 H   0  0  0  0  0  0  0  0  0  0  0  0  # atno 6908 bound_to 6896
  151.8588  133.3418  159.3734 H   0  0  0  0  0  0  0  0  0  0  0  0  # atno 6909 bound_to 6896
  145.1072  139.3478  143.4782 H   0  0  0  0  0  0  0  0  0  0  0  0  # atno 7974 bound_to 7965
  155.1316  140.3258  155.4473 H   0  0  0  0  0  0  0  0  0  0  0  0  # atno 8008 bound_to 7997
  156.2632  140.2009  156.6384 H   0  0  0  0  0  0  0  0  0  0  0  0  # atno 8009 bound_to 7997
  154.6608  140.0547  157.0046 H   0  0  0  0  0  0  0  0  0  0  0  0  # atno 8010 bound_to 7997
  139.9473  143.6096  152.2486 H   0  0  0  0  0  0  0  0  0  0  0  0  # atno 10167 bound_to 10162
  156.1788  130.4150  149.9537 H   0  0  0  0  0  0  0  0  0  0  0  0  # atno 10718 bound_to 10713
  154.4377  135.5948  153.6109 H   0  0  0  0  0  0  0  0  0  0  0  0  # atno 10763 bound_to 10752
  152.9803  135.5990  154.3760 H   0  0  0  0  0  0  0  0  0  0  0  0  # atno 10764 bound_to 10752
  154.3606  135.2841  155.2300 H   0  0  0  0  0  0  0  0  0  0  0  0  # atno 10765 bound_to 10752
  140.2255  134.3590  155.7986 H   0  0  0  0  0  0  0  0  0  0  0  0  # atno 11005 bound_to 11000
  146.3528  140.0974  142.8609 LP  0  0  0  0  0  0  0  0  0  0  0  0  # atno 17320 bound_to 7965
  145.0888  140.9271  143.4781 LP  0  0  0  0  0  0  0  0  0  0  0  0  # atno 17321 bound_to 7965
  139.6657  144.7662  151.1879 LP  0  0  0  0  0  0  0  0  0  0  0  0  # atno 17342 bound_to 10162
  140.7593  143.5942  150.8765 LP  0  0  0  0  0  0  0  0  0  0  0  0  # atno 17343 bound_to 10162
  156.7314  130.9044  151.3626 LP  0  0  0  0  0  0  0  0  0  0  0  0  # atno 17370 bound_to 10713
  157.6854  130.9180  150.0373 LP  0  0  0  0  0  0  0  0  0  0  0  0  # atno 17371 bound_to 10713
  141.2221  133.7216  156.8646 LP  0  0  0  0  0  0  0  0  0  0  0  0  # atno 17394 bound_to 11000
  140.1805  134.9036  157.2943 LP  0  0  0  0  0  0  0  0  0  0  0  0  # atno 17395 bound_to 11000

$$$$
