AV-unprocessed.smi:2570|AV-procd|sdf|10107|dock7
  -GOLD-   2272014123D 1   1.00000     0.00000
 Structure written by MMmdl.
 32 33  0  0  0  0  0  0  0  0  1 V2000
  147.4063  141.4522  154.4388 C   0  0  0  0  0  0  0  0  0  0  0  0
  147.7736  140.7030  155.5957 O   0  0  0  0  0  0  0  0  0  0  0  0
  149.1111  140.3725  155.7262 C   0  0  0  0  0  0  0  0  0  0  0  0
  149.7628  139.6834  154.6323 C   0  0  0  0  0  0  0  0  0  0  0  0
  151.0644  139.3438  154.7544 C   0  0  0  0  0  0  0  0  0  0  0  0
  151.8306  139.6506  155.9619 C   0  0  0  0  0  0  0  0  0  0  0  0
  153.0113  139.3367  156.1100 O   0  0  0  0  0  0  0  0  0  0  0  0
  151.1112  140.3081  156.9185 N   0  0  0  0  0  0  0  0  0  0  0  0
  151.7143  140.6598  158.2114 C   0  0  0  0  0  0  0  0  0  0  0  0
  152.0399  142.1677  158.3272 C   0  0  1  0  0  0  0  0  0  0  0  0
  150.9704  142.9077  157.7751 O   0  0  0  0  0  0  0  0  0  0  0  0
  152.3736  142.6017  159.7513 C   0  0  0  0  0  0  0  0  0  0  0  0
  151.6255  143.6344  160.3576 C   0  0  0  0  0  0  0  0  0  0  0  0
  151.9397  144.0732  161.6581 C   0  0  0  0  0  0  0  0  0  0  0  0
  153.0052  143.4819  162.3624 C   0  0  0  0  0  0  0  0  0  0  0  0
  153.3095  143.9055  163.6119 F   0  0  0  0  0  0  0  0  0  0  0  0
  153.7556  142.4516  161.7654 C   0  0  0  0  0  0  0  0  0  0  0  0
  153.4440  142.0117  160.4641 C   0  0  0  0  0  0  0  0  0  0  0  0
  154.1882  141.0295  159.9015 F   0  0  0  0  0  0  0  0  0  0  0  0
  149.7794  140.6672  156.7959 N   0  0  0  0  0  0  0  0  0  0  0  0
  146.3361  141.6553  154.4706 H   0  0  0  0  0  0  0  0  0  0  0  0
  147.6060  140.9019  153.5176 H   0  0  0  0  0  0  0  0  0  0  0  0
  147.9194  142.4150  154.3991 H   0  0  0  0  0  0  0  0  0  0  0  0
  149.2062  139.4488  153.7370 H   0  0  0  0  0  0  0  0  0  0  0  0
  151.5537  138.8290  153.9407 H   0  0  0  0  0  0  0  0  0  0  0  0
  151.0593  140.3528  159.0287 H   0  0  0  0  0  0  0  0  0  0  0  0
  152.6288  140.0788  158.3473 H   0  0  0  0  0  0  0  0  0  0  0  0
  152.9058  142.3788  157.6988 H   0  0  0  0  0  0  0  0  0  0  0  0
  151.0626  143.8105  158.0386 H   0  0  0  0  0  0  0  0  0  0  0  0
  150.8117  144.1025  159.8231 H   0  0  0  0  0  0  0  0  0  0  0  0
  151.3649  144.8658  162.1137 H   0  0  0  0  0  0  0  0  0  0  0  0
  154.5755  142.0004  162.3045 H   0  0  0  0  0  0  0  0  0  0  0  0
  1  2  1  0  0  0  0
  1 21  1  0  0  0  0
  1 22  1  0  0  0  0
  1 23  1  0  0  0  0
  2  3  1  0  0  0  0
  3 20  2  0  0  0  0
  3  4  1  0  0  0  0
  4  5  2  0  0  0  0
  4 24  1  0  0  0  0
  5  6  1  0  0  0  0
  5 25  1  0  0  0  0
  6  7  2  0  0  0  0
  6  8  1  0  0  0  0
  8  9  1  0  0  0  0
  8 20  1  0  0  0  0
  9 10  1  0  0  0  0
  9 26  1  0  0  0  0
  9 27  1  0  0  0  0
 10 11  1  0  0  0  0
 10 12  1  0  0  0  0
 10 28  1  0  0  0  0
 11 29  1  0  0  0  0
 12 18  1  0  0  0  0
 12 13  2  0  0  0  0
 13 14  1  0  0  0  0
 13 30  1  0  0  0  0
 14 15  2  0  0  0  0
 14 31  1  0  0  0  0
 15 16  1  0  0  0  0
 15 17  1  0  0  0  0
 17 18  2  0  0  0  0
 17 32  1  0  0  0  0
 18 19  1  0  0  0  0
M  END
> <s_m_source_file>
AV-unprocessed.smi

> <i_m_source_file_index>
2570

> <i_lp_mmshare_version>
43012

> <i_f3d_flags>
0

> <s_epik_input>
W0NIM11PYzFbY0hdW2NIXWMoPU8pbihuMSlbQ0gyXVtDQEhdKFtPSF0pYzJbY0hdW2NIXWMoRilbY0hdYzJG

> <s_epik_cmdline>
J2VwaWtfcHl0aG9uJywgJy1waCcsICc3LjAnLCAnLXRuJywgJzgnLCAnLW1hJywgJzIwMCcsICctbWV0YWxfYmluZGluZycsICctaW1hZScsICc8aW5maWxlLm1hZT4nLCAnLW9tYWUnLCAnPG91dGZpbGUubWFlPic=

> <r_lp_tautomer_probability>
1

> <r_epik_Ionization_Penalty>
6.40224e-06

> <r_epik_Ionization_Penalty_Charging>
4.38647e-06

> <r_epik_Ionization_Penalty_Neutral>
2.01577e-06

> <r_epik_State_Penalty>
-0

> <r_epik_Charging_Adjusted_Penalty>
4.38647e-06

> <i_epik_Tot_Q>
0

> <i_epik_Tot_abs_Q>
0

> <r_epik_Metal_State_Penalty>
-0

> <b_epik_Metal_Only>
0

> <s_lp_Force_Field>
OPLS_2005

> <r_lp_Energy>
26.7666

> <b_lp_Chiralities_Consistent>
1

> <s_lp_Variant>
AV-unprocessed.smi:2570-2

> <Gold.Version>
5.8.1

> <Gold.Id.Protein>
6NUR|6NUR_protein|mol2

> <Gold.PLP.Fitness>
51.6302

> <Gold.PLP.PLP>
-49.3204

> <Gold.PLP.part.hbond>
-1.0000

> <Gold.PLP.part.metal>
0.0000

> <Gold.PLP.part.buried>
-3.9330

> <Gold.PLP.part.nonpolar>
-42.3943

> <Gold.PLP.part.repulsive>
0.1358

> <Gold.PLP.ligand.clash>
0.0000

> <Gold.PLP.ligand.torsion>
0.3589

> <Gold.PLP.Chemscore.Hbond>
1.0000

> <Gold.PLP.Chemscore.CHOScore>
0.0000

> <Gold.PLP.Chemscore.Metal>
0.0000

> <Gold.Chemscore.Hbonds>
donor molecule, donor type, donor heavy atom, donor atom, acceptor molecule, acceptor atom, score
      P1  H  7997  8009       L1     7  1.00

> <Gold.PLP.Chemscore.Internal.Correction>
0.0278

> <Gold.Rescore>
     Score         DG    S(hbond)    S(metal)    S(lipo)     H(rot)  DE(clash)    DE(int)     intcor
     12.41     -14.20       1.00        0.00      99.68       2.45       0.00       1.79       ----

> <Gold.Chemscore.Fitness>
12.4074

> <Gold.Chemscore.DG>
-14.2022

> <Gold.Chemscore.ZeroCoef>
-5.4800

> <Gold.Chemscore.Hbond>
1.0000

> <Gold.Chemscore.Metal>
0.0000

> <Gold.Chemscore.Lipo>
99.6804

> <Gold.Chemscore.Internal_Hbond>
0.0000

> <Gold.Chemscore.DEClash>
0.0015

> <Gold.Chemscore.DEInternal>
1.7934

> <Gold.Chemscore.Rot>
2.4533

> <Gold.Chemscore.Internal.Correction>
   9.000000E+99

> <Gold.Chemscore.Hbonds>
donor molecule, donor type, donor heavy atom, donor atom, acceptor molecule, acceptor atom, score
      P1  H  7997  8009       L1     7  0.95

> <Gold.Chemscore.Hbond.Weighted>
-3.3400

> <Gold.Chemscore.Metal.Weighted>
-0.0000

> <Gold.Chemscore.Lipo.Weighted>
-11.6626

> <Gold.Chemscore.Internal_Hbond.Weighted>
0.0000

> <Gold.Chemscore.DEClash.Weighted>
0.0015

> <Gold.Chemscore.DEInternal.Weighted>
1.7934

> <Gold.Chemscore.Rot.Weighted>
6.2804

> <Gold.Chemscore.Internal.Correction.Weighted>
   9.000000E+99

> <Gold.Protein.RotatedTorsions>
[ 6907 6896 6895 6894 ] final  -90.24 input  -60.11 | X-H torsion
[ 7974 7965 7964 7962 ] final  -68.88 input  175.53 | X-H torsion
[ 8008 7997 7996 7995 ] final -164.23 input   59.86 | X-H torsion
[ 10167 10162 10161 10158 ] final -136.05 input  -65.29 | X-H torsion
[ 10718 10713 10712 10709 ] final  146.26 input   66.30 | X-H torsion
[ 10763 10752 10751 10750 ] final  -52.22 input  -60.55 | X-H torsion
[ 11005 11000 10999 10996 ] final  -79.98 input  -57.11 | X-H torsion

> <Gold.Protein.ActiveResidues>
 VAL166  LYS551  ARG553  GLY616  TRP617  ASP618  TYR619  PRO620  LYS621  CYS622 
 ASP623  PHE694  ASN695  SER759  ASP760  ASP761  ALA762  ILE779  LEU786  VAL792 
 PHE793  MET794  SER795  GLU796  ALA797  LYS798  CYS799  TRP800  GLU811  SER814 

> <Gold.Protein.RotatedAtoms>
  150.6880  134.2463  159.4492 H   0  0  0  0  0  0  0  0  0  0  0  0  # atno 6907 bound_to 6896
  152.0403  134.9713  160.0583 H   0  0  0  0  0  0  0  0  0  0  0  0  # atno 6908 bound_to 6896
  152.1217  133.4322  159.4715 H   0  0  0  0  0  0  0  0  0  0  0  0  # atno 6909 bound_to 6896
  145.7109  140.9078  143.0681 H   0  0  0  0  0  0  0  0  0  0  0  0  # atno 7974 bound_to 7965
  155.8326  140.0936  157.1783 H   0  0  0  0  0  0  0  0  0  0  0  0  # atno 8008 bound_to 7997
  154.3980  140.1416  156.3693 H   0  0  0  0  0  0  0  0  0  0  0  0  # atno 8009 bound_to 7997
  155.8150  140.3448  155.5482 H   0  0  0  0  0  0  0  0  0  0  0  0  # atno 8010 bound_to 7997
  139.8717  143.6949  152.2639 H   0  0  0  0  0  0  0  0  0  0  0  0  # atno 10167 bound_to 10162
  157.3353  131.0927  151.1128 H   0  0  0  0  0  0  0  0  0  0  0  0  # atno 10718 bound_to 10713
  154.1391  135.6508  153.4938 H   0  0  0  0  0  0  0  0  0  0  0  0  # atno 10763 bound_to 10752
  153.0171  135.5311  154.6923 H   0  0  0  0  0  0  0  0  0  0  0  0  # atno 10764 bound_to 10752
  154.6179  135.2961  155.0330 H   0  0  0  0  0  0  0  0  0  0  0  0  # atno 10765 bound_to 10752
  141.1668  133.7129  156.8203 H   0  0  0  0  0  0  0  0  0  0  0  0  # atno 11005 bound_to 11000
  144.6942  139.9074  143.7461 LP  0  0  0  0  0  0  0  0  0  0  0  0  # atno 17320 bound_to 7965
  146.0713  139.3702  143.0521 LP  0  0  0  0  0  0  0  0  0  0  0  0  # atno 17321 bound_to 7965
  139.7278  144.7589  151.0851 LP  0  0  0  0  0  0  0  0  0  0  0  0  # atno 17342 bound_to 10162
  140.7759  143.5126  150.9634 LP  0  0  0  0  0  0  0  0  0  0  0  0  # atno 17343 bound_to 10162
  157.2361  130.6548  149.5870 LP  0  0  0  0  0  0  0  0  0  0  0  0  # atno 17370 bound_to 10713
  155.9700  130.4583  150.5995 LP  0  0  0  0  0  0  0  0  0  0  0  0  # atno 17371 bound_to 10713
  140.2124  134.8818  157.3288 LP  0  0  0  0  0  0  0  0  0  0  0  0  # atno 17394 bound_to 11000
  140.2073  134.4181  155.7631 LP  0  0  0  0  0  0  0  0  0  0  0  0  # atno 17395 bound_to 11000

$$$$
