AV-unprocessed.smi:528|AV-procd|sdf|2834|dock9
  -GOLD-   2262023323D 1   1.00000     0.00000
 Structure written by MMmdl.
 45 47  0  0  0  0  0  0  0  0  1 V2000
  152.2436  137.8485  159.4492 C   0  0  0  0  0  0  0  0  0  0  0  0
  151.3746  137.6432  158.1974 C   0  0  1  0  0  0  0  0  0  0  0  0
  150.0047  137.3739  158.6310 N   0  0  0  0  0  0  0  0  0  0  0  0
  149.4014  136.1747  158.6408 C   0  0  0  0  0  0  0  0  0  0  0  0
  149.9613  135.1281  158.3119 O   0  0  0  0  0  0  0  0  0  0  0  0
  147.9374  136.1617  159.1000 C   0  0  0  0  0  0  0  0  0  0  0  0
  147.7364  135.3810  160.3320 N   0  0  0  0  0  0  0  0  0  0  0  0
  148.0140  134.0011  160.2740 C   0  0  0  0  0  0  0  0  0  0  0  0
  147.8530  133.1764  161.3265 C   0  0  0  0  0  0  0  0  0  0  0  0
  148.2115  131.7004  161.2494 C   0  0  0  0  0  0  0  0  0  0  0  0
  149.1847  131.3978  162.1089 F   0  0  0  0  0  0  0  0  0  0  0  0
  147.1465  130.9594  161.5511 F   0  0  0  0  0  0  0  0  0  0  0  0
  148.6162  131.3657  160.0236 F   0  0  0  0  0  0  0  0  0  0  0  0
  147.4030  133.7870  162.5620 C   0  0  0  0  0  0  0  0  0  0  0  0
  147.1398  135.1063  162.6367 C   0  0  0  0  0  0  0  0  0  0  0  0
  147.2977  135.9865  161.4768 C   0  0  0  0  0  0  0  0  0  0  0  0
  147.0525  137.1923  161.5308 O   0  0  0  0  0  0  0  0  0  0  0  0
  151.4081  138.8701  157.2507 C   0  0  1  0  0  0  0  0  0  0  0  0
  150.6001  138.6623  155.9459 C   0  0  0  0  0  0  0  0  0  0  0  0
  149.6527  139.8746  155.9158 C   0  0  2  0  0  0  0  0  0  0  0  0
  150.4631  141.1551  155.6466 C   0  0  0  0  0  0  0  0  0  0  0  0
  151.2098  141.3662  156.9764 C   0  0  0  0  0  0  0  0  0  0  0  0
  150.7548  140.1586  157.8181 C   0  0  1  0  0  0  0  0  0  0  0  0
  149.2980  140.0227  157.3893 C   0  0  0  0  0  0  0  0  0  0  0  0
  153.2913  138.0015  159.1915 H   0  0  0  0  0  0  0  0  0  0  0  0
  152.1965  136.9779  160.1041 H   0  0  0  0  0  0  0  0  0  0  0  0
  151.9136  138.7142  160.0246 H   0  0  0  0  0  0  0  0  0  0  0  0
  151.7711  136.7787  157.6628 H   0  0  0  0  0  0  0  0  0  0  0  0
  149.4609  138.1734  158.9224 H   0  0  0  0  0  0  0  0  0  0  0  0
  147.6161  137.1950  159.2365 H   0  0  0  0  0  0  0  0  0  0  0  0
  147.3020  135.7674  158.3041 H   0  0  0  0  0  0  0  0  0  0  0  0
  148.3643  133.6526  159.3132 H   0  0  0  0  0  0  0  0  0  0  0  0
  147.2687  133.1754  163.4421 H   0  0  0  0  0  0  0  0  0  0  0  0
  146.8025  135.5263  163.5729 H   0  0  0  0  0  0  0  0  0  0  0  0
  152.4518  139.0767  157.0078 H   0  0  0  0  0  0  0  0  0  0  0  0
  151.2408  138.6133  155.0648 H   0  0  0  0  0  0  0  0  0  0  0  0
  150.0152  137.7424  155.9785 H   0  0  0  0  0  0  0  0  0  0  0  0
  148.8012  139.7467  155.2469 H   0  0  0  0  0  0  0  0  0  0  0  0
  151.1422  141.0430  154.8007 H   0  0  0  0  0  0  0  0  0  0  0  0
  149.8036  141.9985  155.4392 H   0  0  0  0  0  0  0  0  0  0  0  0
  152.2920  141.4035  156.8477 H   0  0  0  0  0  0  0  0  0  0  0  0
  150.8989  142.3010  157.4447 H   0  0  0  0  0  0  0  0  0  0  0  0
  150.9015  140.3187  158.8856 H   0  0  0  0  0  0  0  0  0  0  0  0
  148.6992  140.9096  157.6036 H   0  0  0  0  0  0  0  0  0  0  0  0
  148.8000  139.1469  157.8078 H   0  0  0  0  0  0  0  0  0  0  0  0
  1  2  1  0  0  0  0
  1 25  1  0  0  0  0
  1 26  1  0  0  0  0
  1 27  1  0  0  0  0
  2  3  1  0  0  0  0
  2 18  1  0  0  0  0
  2 28  1  0  0  0  0
  3  4  1  0  0  0  0
  3 29  1  0  0  0  0
  4  5  2  0  0  0  0
  4  6  1  0  0  0  0
  6  7  1  0  0  0  0
  6 30  1  0  0  0  0
  6 31  1  0  0  0  0
  7 16  1  0  0  0  0
  7  8  1  0  0  0  0
  8  9  2  0  0  0  0
  8 32  1  0  0  0  0
  9 10  1  0  0  0  0
  9 14  1  0  0  0  0
 10 11  1  0  0  0  0
 10 12  1  0  0  0  0
 10 13  1  0  0  0  0
 14 15  2  0  0  0  0
 14 33  1  0  0  0  0
 15 16  1  0  0  0  0
 15 34  1  0  0  0  0
 16 17  2  0  0  0  0
 18 23  1  0  0  0  0
 18 19  1  0  0  0  0
 18 35  1  0  0  0  0
 19 20  1  0  0  0  0
 19 36  1  0  0  0  0
 19 37  1  0  0  0  0
 20 24  1  0  0  0  0
 20 21  1  0  0  0  0
 20 38  1  0  0  0  0
 21 22  1  0  0  0  0
 21 39  1  0  0  0  0
 21 40  1  0  0  0  0
 22 23  1  0  0  0  0
 22 41  1  0  0  0  0
 22 42  1  0  0  0  0
 23 24  1  0  0  0  0
 23 43  1  0  0  0  0
 24 44  1  0  0  0  0
 24 45  1  0  0  0  0
M  END
> <s_m_source_file>
AV-unprocessed.smi

> <i_m_source_file_index>
528

> <i_lp_mmshare_version>
43012

> <i_f3d_flags>
0

> <s_epik_input>
W0NIMl0xW0NIMl1bQ0BASF0oW0NIMl0yKVtDQEBIXShbQ0gyXVtDQEhdMTIpW0NASF0oW0NIM10pW05IXUMoPU8pW0NIMl1uM1tjSF1jKEMoRikoRilGKVtjSF1bY0hdYzM9Tw==

> <s_epik_cmdline>
J2VwaWtfcHl0aG9uJywgJy1waCcsICc3LjAnLCAnLXRuJywgJzgnLCAnLW1hJywgJzIwMCcsICctbWV0YWxfYmluZGluZycsICctaW1hZScsICc8aW5maWxlLm1hZT4nLCAnLW9tYWUnLCAnPG91dGZpbGUubWFlPic=

> <r_lp_tautomer_probability>
1

> <r_epik_Ionization_Penalty>
4.09479e-08

> <r_epik_Ionization_Penalty_Charging>
1.9321e-08

> <r_epik_Ionization_Penalty_Neutral>
2.16269e-08

> <r_epik_State_Penalty>
-0

> <r_epik_Charging_Adjusted_Penalty>
1.9321e-08

> <i_epik_Tot_Q>
0

> <i_epik_Tot_abs_Q>
0

> <r_epik_Metal_State_Penalty>
-0

> <b_epik_Metal_Only>
0

> <s_lp_Force_Field>
OPLS_2005

> <r_lp_Energy>
62.5946

> <b_lp_Chiralities_Consistent>
1

> <s_lp_Variant>
AV-unprocessed.smi:528-4

> <Gold.Version>
5.8.1

> <Gold.Id.Protein>
6NUR|6NUR_protein|mol2

> <Gold.PLP.Fitness>
47.8838

> <Gold.PLP.PLP>
-42.1572

> <Gold.PLP.part.hbond>
-3.0000

> <Gold.PLP.part.metal>
0.0000

> <Gold.PLP.part.buried>
-5.3421

> <Gold.PLP.part.nonpolar>
-33.6372

> <Gold.PLP.part.repulsive>
0.1953

> <Gold.PLP.ligand.clash>
1.2669

> <Gold.PLP.ligand.torsion>
0.2420

> <Gold.PLP.Chemscore.Hbond>
2.4720

> <Gold.PLP.Chemscore.CHOScore>
0.0000

> <Gold.PLP.Chemscore.Metal>
0.0000

> <Gold.Chemscore.Hbonds>
donor molecule, donor type, donor heavy atom, donor atom, acceptor molecule, acceptor atom, score
      P1  H  6896  6908       L1     5  0.90
      P1  H  6931  6943       L1    17  0.33
      P1  H  6934  6947       L1    17  1.00

> <Gold.PLP.Chemscore.Internal.Correction>
0.0615

> <Gold.Rescore>
     Score         DG    S(hbond)    S(metal)    S(lipo)     H(rot)  DE(clash)    DE(int)     intcor
     17.48     -18.39       2.38        0.00      79.92       1.71       0.05       0.86       ----

> <Gold.Chemscore.Fitness>
17.4795

> <Gold.Chemscore.DG>
-18.3877

> <Gold.Chemscore.ZeroCoef>
-5.4800

> <Gold.Chemscore.Hbond>
2.3775

> <Gold.Chemscore.Metal>
0.0000

> <Gold.Chemscore.Lipo>
79.9226

> <Gold.Chemscore.Internal_Hbond>
0.0000

> <Gold.Chemscore.DEClash>
0.0453

> <Gold.Chemscore.DEInternal>
0.8629

> <Gold.Chemscore.Rot>
1.7125

> <Gold.Chemscore.Internal.Correction>
   9.000000E+99

> <Gold.Chemscore.Hbonds>
donor molecule, donor type, donor heavy atom, donor atom, acceptor molecule, acceptor atom, score
      P1  H  6896  6908       L1     5  0.42
      P1  H  6931  6943       L1    17  0.19
      P1  H  6934  6947       L1    17  0.95

> <Gold.Chemscore.Hbond.Weighted>
-7.9407

> <Gold.Chemscore.Metal.Weighted>
-0.0000

> <Gold.Chemscore.Lipo.Weighted>
-9.3509

> <Gold.Chemscore.Internal_Hbond.Weighted>
0.0000

> <Gold.Chemscore.DEClash.Weighted>
0.0453

> <Gold.Chemscore.DEInternal.Weighted>
0.8629

> <Gold.Chemscore.Rot.Weighted>
4.3840

> <Gold.Chemscore.Internal.Correction.Weighted>
   9.000000E+99

> <Gold.Protein.RotatedTorsions>
[ 6907 6896 6895 6894 ] final  177.04 input  -60.11 | X-H torsion
[ 7974 7965 7964 7962 ] final    0.73 input  175.53 | X-H torsion
[ 8008 7997 7996 7995 ] final -151.52 input   59.86 | X-H torsion
[ 10167 10162 10161 10158 ] final  133.88 input  -65.29 | X-H torsion
[ 10718 10713 10712 10709 ] final  -95.86 input   66.30 | X-H torsion
[ 10763 10752 10751 10750 ] final   51.28 input  -60.55 | X-H torsion
[ 11005 11000 10999 10996 ] final   32.38 input  -57.11 | X-H torsion

> <Gold.Protein.ActiveResidues>
 VAL166  LYS551  ARG553  GLY616  TRP617  ASP618  TYR619  PRO620  LYS621  CYS622 
 ASP623  PHE694  ASN695  SER759  ASP760  ASP761  ALA762  ILE779  LEU786  VAL792 
 PHE793  MET794  SER795  GLU796  ALA797  LYS798  CYS799  TRP800  GLU811  SER814 

> <Gold.Protein.RotatedAtoms>
  151.7104  133.3312  159.3288 H   0  0  0  0  0  0  0  0  0  0  0  0  # atno 6907 bound_to 6896
  150.7696  134.6537  159.6311 H   0  0  0  0  0  0  0  0  0  0  0  0  # atno 6908 bound_to 6896
  152.3715  134.6729  160.0226 H   0  0  0  0  0  0  0  0  0  0  0  0  # atno 6909 bound_to 6896
  146.2436  140.1094  142.8344 H   0  0  0  0  0  0  0  0  0  0  0  0  # atno 7974 bound_to 7965
  155.6408  140.0701  157.2619 H   0  0  0  0  0  0  0  0  0  0  0  0  # atno 8008 bound_to 7997
  154.4184  140.1751  156.1620 H   0  0  0  0  0  0  0  0  0  0  0  0  # atno 8009 bound_to 7997
  155.9857  140.3349  155.6708 H   0  0  0  0  0  0  0  0  0  0  0  0  # atno 8010 bound_to 7997
  139.5279  144.6595  151.5059 H   0  0  0  0  0  0  0  0  0  0  0  0  # atno 10167 bound_to 10162
  156.0051  130.5127  150.6139 H   0  0  0  0  0  0  0  0  0  0  0  0  # atno 10718 bound_to 10713
  152.9785  135.5851  154.4390 H   0  0  0  0  0  0  0  0  0  0  0  0  # atno 10763 bound_to 10752
  154.3994  135.2768  155.2108 H   0  0  0  0  0  0  0  0  0  0  0  0  # atno 10764 bound_to 10752
  154.3945  135.6117  153.5916 H   0  0  0  0  0  0  0  0  0  0  0  0  # atno 10765 bound_to 10752
  140.2741  134.3048  155.7819 H   0  0  0  0  0  0  0  0  0  0  0  0  # atno 11005 bound_to 11000
  145.0500  140.9011  143.5001 LP  0  0  0  0  0  0  0  0  0  0  0  0  # atno 17320 bound_to 7965
  145.1190  139.2706  143.5598 LP  0  0  0  0  0  0  0  0  0  0  0  0  # atno 17321 bound_to 7965
  140.6436  143.8840  150.6715 LP  0  0  0  0  0  0  0  0  0  0  0  0  # atno 17342 bound_to 10162
  140.2182  143.3829  152.1664 LP  0  0  0  0  0  0  0  0  0  0  0  0  # atno 17343 bound_to 10162
  157.3967  131.0804  151.1346 LP  0  0  0  0  0  0  0  0  0  0  0  0  # atno 17370 bound_to 10713
  157.2020  130.6399  149.5742 LP  0  0  0  0  0  0  0  0  0  0  0  0  # atno 17371 bound_to 10713
  141.2173  133.7484  156.9379 LP  0  0  0  0  0  0  0  0  0  0  0  0  # atno 17394 bound_to 11000
  140.1345  134.9334  157.2383 LP  0  0  0  0  0  0  0  0  0  0  0  0  # atno 17395 bound_to 11000

$$$$
