AV-unprocessed.smi:174|AV-procd|sdf|1427|dock3
  -GOLD-   2262019203D 1   1.00000     0.00000
 Structure written by MMmdl.
 51 54  0  0  0  0  0  0  0  0  1 V2000
  161.2912  140.8840  160.6459 N   0  0  0  0  0  0  0  0  0  0  0  0
  161.0276  142.0819  160.1197 C   0  0  0  0  0  0  0  0  0  0  0  0
  161.9107  142.7967  159.6483 O   0  0  0  0  0  0  0  0  0  0  0  0
  159.5622  142.5392  160.1516 C   0  0  0  0  0  0  0  0  0  0  0  0
  158.6217  141.4568  160.4765 N   0  0  0  0  0  0  0  0  0  0  0  0
  157.8297  140.9462  159.3458 C   0  0  0  0  0  0  0  0  0  0  0  0
  157.1560  139.5918  159.6227 C   0  0  0  0  0  0  0  0  0  0  0  0
  156.5502  139.5978  160.9477 N   0  0  0  0  0  0  0  0  0  0  0  0
  155.3181  140.1701  161.0056 C   0  0  0  0  0  0  0  0  0  0  0  0
  154.9951  140.9955  162.0376 N   0  0  0  0  0  0  0  0  0  0  0  0
  153.7920  141.5738  162.0908 C   0  0  0  0  0  0  0  0  0  0  0  0
  152.7766  141.4674  161.2319 N   0  0  0  0  0  0  0  0  0  0  0  0
  153.0928  140.6401  160.1952 C   0  0  0  0  0  0  0  0  0  0  0  0
  154.3274  139.9571  160.0062 C   0  0  0  0  0  0  0  0  0  0  0  0
  154.2738  139.1973  158.8432 N   0  0  0  0  0  0  0  0  0  0  0  0
  153.0770  139.4182  158.3722 C   0  0  0  0  0  0  0  0  0  0  0  0
  152.2996  140.2688  159.1240 N   0  0  0  0  0  0  0  0  0  0  0  0
  150.9333  140.6697  158.8429 C   0  0  0  0  0  0  0  0  0  0  0  0
  150.8394  142.0564  158.1726 C   0  0  2  0  0  0  0  0  0  0  0  0
  151.3756  141.9292  156.8709 O   0  0  0  0  0  0  0  0  0  0  0  0
  151.5912  143.1801  158.9211 C   0  0  1  0  0  0  0  0  0  0  0  0
  151.4803  144.5632  158.2728 C   0  0  0  0  0  0  0  0  0  0  0  0
  151.6793  145.5305  159.4308 C   0  0  0  0  0  0  0  0  0  0  0  0
  151.5596  144.6488  160.6752 C   0  0  0  0  0  0  0  0  0  0  0  0
  151.0158  143.4297  160.1952 O   0  0  0  0  0  0  0  0  0  0  0  0
  157.4965  139.8569  162.0399 C   0  0  0  0  0  0  0  0  0  0  0  0
  158.4998  140.9890  161.7460 C   0  0  0  0  0  0  0  0  0  0  0  0
  159.1631  141.4316  162.6843 O   0  0  0  0  0  0  0  0  0  0  0  0
  162.2387  140.5355  160.6456 H   0  0  0  0  0  0  0  0  0  0  0  0
  160.5450  140.3284  161.0381 H   0  0  0  0  0  0  0  0  0  0  0  0
  159.4498  143.3612  160.8614 H   0  0  0  0  0  0  0  0  0  0  0  0
  159.3168  142.9604  159.1756 H   0  0  0  0  0  0  0  0  0  0  0  0
  157.0647  141.6893  159.1174 H   0  0  0  0  0  0  0  0  0  0  0  0
  158.4569  140.8635  158.4571 H   0  0  0  0  0  0  0  0  0  0  0  0
  156.4412  139.3567  158.8344 H   0  0  0  0  0  0  0  0  0  0  0  0
  157.9038  138.7980  159.5962 H   0  0  0  0  0  0  0  0  0  0  0  0
  153.6189  142.2131  162.9438 H   0  0  0  0  0  0  0  0  0  0  0  0
  152.7218  138.9572  157.4620 H   0  0  0  0  0  0  0  0  0  0  0  0
  150.4711  139.9102  158.2107 H   0  0  0  0  0  0  0  0  0  0  0  0
  150.3811  140.6667  159.7837 H   0  0  0  0  0  0  0  0  0  0  0  0
  149.7901  142.3355  158.0678 H   0  0  0  0  0  0  0  0  0  0  0  0
  152.2623  142.2562  156.8790 H   0  0  0  0  0  0  0  0  0  0  0  0
  152.6425  142.9143  159.0497 H   0  0  0  0  0  0  0  0  0  0  0  0
  152.2053  144.7092  157.4715 H   0  0  0  0  0  0  0  0  0  0  0  0
  150.4836  144.7027  157.8515 H   0  0  0  0  0  0  0  0  0  0  0  0
  152.6553  146.0155  159.3915 H   0  0  0  0  0  0  0  0  0  0  0  0
  150.9153  146.3087  159.4173 H   0  0  0  0  0  0  0  0  0  0  0  0
  152.5424  144.4564  161.1081 H   0  0  0  0  0  0  0  0  0  0  0  0
  150.9267  145.0891  161.4458 H   0  0  0  0  0  0  0  0  0  0  0  0
  156.9838  140.0511  162.9832 H   0  0  0  0  0  0  0  0  0  0  0  0
  158.0696  138.9438  162.2025 H   0  0  0  0  0  0  0  0  0  0  0  0
  1  2  1  0  0  0  0
  1 29  1  0  0  0  0
  1 30  1  0  0  0  0
  2  3  2  0  0  0  0
  2  4  1  0  0  0  0
  4  5  1  0  0  0  0
  4 31  1  0  0  0  0
  4 32  1  0  0  0  0
  5 27  1  0  0  0  0
  5  6  1  0  0  0  0
  6  7  1  0  0  0  0
  6 33  1  0  0  0  0
  6 34  1  0  0  0  0
  7  8  1  0  0  0  0
  7 35  1  0  0  0  0
  7 36  1  0  0  0  0
  8  9  1  0  0  0  0
  8 26  1  0  0  0  0
  9 14  1  0  0  0  0
  9 10  2  0  0  0  0
 10 11  1  0  0  0  0
 11 12  2  0  0  0  0
 11 37  1  0  0  0  0
 12 13  1  0  0  0  0
 13 17  1  0  0  0  0
 13 14  2  0  0  0  0
 14 15  1  0  0  0  0
 15 16  2  0  0  0  0
 16 17  1  0  0  0  0
 16 38  1  0  0  0  0
 17 18  1  0  0  0  0
 18 19  1  0  0  0  0
 18 39  1  0  0  0  0
 18 40  1  0  0  0  0
 19 20  1  0  0  0  0
 19 21  1  0  0  0  0
 19 41  1  0  0  0  0
 20 42  1  0  0  0  0
 21 25  1  0  0  0  0
 21 22  1  0  0  0  0
 21 43  1  0  0  0  0
 22 23  1  0  0  0  0
 22 44  1  0  0  0  0
 22 45  1  0  0  0  0
 23 24  1  0  0  0  0
 23 46  1  0  0  0  0
 23 47  1  0  0  0  0
 24 25  1  0  0  0  0
 24 48  1  0  0  0  0
 24 49  1  0  0  0  0
 26 27  1  0  0  0  0
 26 50  1  0  0  0  0
 26 51  1  0  0  0  0
 27 28  2  0  0  0  0
M  END
> <s_m_source_file>
AV-unprocessed.smi

> <i_m_source_file_index>
174

> <i_lp_mmshare_version>
43012

> <i_f3d_flags>
0

> <s_epik_input>
W05IMl1DKD1PKVtDSDJdTjFbQ0gyXVtDSDJdTihbQ0gyXUMxPU8pYyhuW2NIXW4yKWMoYzIzKW5bY0hdbjNbQ0gyXVtDQEhdKFtPSF0pW0NAQEhdNFtDSDJdW0NIMl1bQ0gyXU80

> <s_epik_cmdline>
J2VwaWtfcHl0aG9uJywgJy1waCcsICc3LjAnLCAnLXRuJywgJzgnLCAnLW1hJywgJzIwMCcsICctbWV0YWxfYmluZGluZycsICctaW1hZScsICc8aW5maWxlLm1hZT4nLCAnLW9tYWUnLCAnPG91dGZpbGUubWFlPic=

> <r_lp_tautomer_probability>
1

> <r_epik_Ionization_Penalty>
0.000250477

> <r_epik_Ionization_Penalty_Charging>
0

> <r_epik_Ionization_Penalty_Neutral>
0.000250477

> <r_epik_State_Penalty>
-0

> <r_epik_Charging_Adjusted_Penalty>
0

> <i_epik_Tot_Q>
0

> <i_epik_Tot_abs_Q>
0

> <r_epik_Metal_State_Penalty>
-0

> <b_epik_Metal_Only>
0

> <s_lp_Force_Field>
OPLS_2005

> <r_lp_Energy>
34.8675

> <b_lp_Chiralities_Consistent>
1

> <s_lp_Variant>
AV-unprocessed.smi:174-3

> <Gold.Version>
5.8.1

> <Gold.Id.Protein>
6NUR|6NUR_protein|mol2

> <Gold.PLP.Fitness>
48.7653

> <Gold.PLP.PLP>
-47.1045

> <Gold.PLP.part.hbond>
-5.5948

> <Gold.PLP.part.metal>
0.0000

> <Gold.PLP.part.buried>
-1.4596

> <Gold.PLP.part.nonpolar>
-40.2761

> <Gold.PLP.part.repulsive>
0.2661

> <Gold.PLP.ligand.clash>
0.0000

> <Gold.PLP.ligand.torsion>
0.9208

> <Gold.PLP.Chemscore.Hbond>
1.0000

> <Gold.PLP.Chemscore.CHOScore>
0.0000

> <Gold.PLP.Chemscore.Metal>
0.0000

> <Gold.Chemscore.Hbonds>
donor molecule, donor type, donor heavy atom, donor atom, acceptor molecule, acceptor atom, score
      P1  H  7997  8008       L1    15  0.65

> <Gold.PLP.Chemscore.Internal.Correction>
0.5024

> <Gold.Rescore>
     Score         DG    S(hbond)    S(metal)    S(lipo)     H(rot)  DE(clash)    DE(int)     intcor
      1.66      -5.87       0.05        0.00      87.27       3.90       1.69       2.52       ----

> <Gold.Chemscore.Fitness>
1.6626

> <Gold.Chemscore.DG>
-5.8653

> <Gold.Chemscore.ZeroCoef>
-5.4800

> <Gold.Chemscore.Hbond>
0.0467

> <Gold.Chemscore.Metal>
0.0000

> <Gold.Chemscore.Lipo>
87.2664

> <Gold.Chemscore.Internal_Hbond>
0.0000

> <Gold.Chemscore.DEClash>
1.6865

> <Gold.Chemscore.DEInternal>
2.5162

> <Gold.Chemscore.Rot>
3.8988

> <Gold.Chemscore.Internal.Correction>
   9.000000E+99

> <Gold.Chemscore.Hbonds>
donor molecule, donor type, donor heavy atom, donor atom, acceptor molecule, acceptor atom, score
      P1  H  7997  8008       L1    15  0.05

> <Gold.Chemscore.Hbond.Weighted>
-0.1560

> <Gold.Chemscore.Metal.Weighted>
-0.0000

> <Gold.Chemscore.Lipo.Weighted>
-10.2102

> <Gold.Chemscore.Internal_Hbond.Weighted>
0.0000

> <Gold.Chemscore.DEClash.Weighted>
1.6865

> <Gold.Chemscore.DEInternal.Weighted>
2.5162

> <Gold.Chemscore.Rot.Weighted>
9.9808

> <Gold.Chemscore.Internal.Correction.Weighted>
   9.000000E+99

> <Gold.Protein.RotatedTorsions>
[ 6907 6896 6895 6894 ] final  -55.61 input  -60.11 | X-H torsion
[ 7974 7965 7964 7962 ] final  123.66 input  175.53 | X-H torsion
[ 8008 7997 7996 7995 ] final -121.56 input   59.86 | X-H torsion
[ 10167 10162 10161 10158 ] final -157.59 input  -65.29 | X-H torsion
[ 10718 10713 10712 10709 ] final  -33.97 input   66.30 | X-H torsion
[ 10763 10752 10751 10750 ] final  -82.66 input  -60.55 | X-H torsion
[ 11005 11000 10999 10996 ] final  -99.96 input  -57.11 | X-H torsion

> <Gold.Protein.ActiveResidues>
 VAL166  LYS551  ARG553  GLY616  TRP617  ASP618  TYR619  PRO620  LYS621  CYS622 
 ASP623  PHE694  ASN695  SER759  ASP760  ASP761  ALA762  ILE779  LEU786  VAL792 
 PHE793  MET794  SER795  GLU796  ALA797  LYS798  CYS799  TRP800  GLU811  SER814 

> <Gold.Protein.RotatedAtoms>
  150.8237  134.7457  159.6793 H   0  0  0  0  0  0  0  0  0  0  0  0  # atno 6907 bound_to 6896
  152.4350  134.5701  159.9928 H   0  0  0  0  0  0  0  0  0  0  0  0  # atno 6908 bound_to 6896
  151.5878  133.3332  159.3057 H   0  0  0  0  0  0  0  0  0  0  0  0  # atno 6909 bound_to 6896
  145.0934  139.3570  143.4849 H   0  0  0  0  0  0  0  0  0  0  0  0  # atno 7974 bound_to 7965
  155.1500  140.0403  157.2819 H   0  0  0  0  0  0  0  0  0  0  0  0  # atno 8008 bound_to 7997
  154.6411  140.2547  155.7294 H   0  0  0  0  0  0  0  0  0  0  0  0  # atno 8009 bound_to 7997
  156.2533  140.2855  156.0805 H   0  0  0  0  0  0  0  0  0  0  0  0  # atno 8010 bound_to 7997
  139.6759  143.9665  152.2310 H   0  0  0  0  0  0  0  0  0  0  0  0  # atno 10167 bound_to 10162
  156.3561  130.4316  149.7662 H   0  0  0  0  0  0  0  0  0  0  0  0  # atno 10718 bound_to 10713
  154.5784  135.5583  153.7162 H   0  0  0  0  0  0  0  0  0  0  0  0  # atno 10763 bound_to 10752
  153.0073  135.6314  154.2016 H   0  0  0  0  0  0  0  0  0  0  0  0  # atno 10764 bound_to 10752
  154.1957  135.2880  155.2987 H   0  0  0  0  0  0  0  0  0  0  0  0  # atno 10765 bound_to 10752
  141.1289  133.8362  157.1040 H   0  0  0  0  0  0  0  0  0  0  0  0  # atno 11005 bound_to 11000
  146.3531  140.0778  142.8619 LP  0  0  0  0  0  0  0  0  0  0  0  0  # atno 17320 bound_to 7965
  145.1039  140.9363  143.4696 LP  0  0  0  0  0  0  0  0  0  0  0  0  # atno 17321 bound_to 7965
  139.9442  144.6662  150.8236 LP  0  0  0  0  0  0  0  0  0  0  0  0  # atno 17342 bound_to 10162
  140.7635  143.3225  151.2591 LP  0  0  0  0  0  0  0  0  0  0  0  0  # atno 17343 bound_to 10162
  156.4844  130.8056  151.3069 LP  0  0  0  0  0  0  0  0  0  0  0  0  # atno 17370 bound_to 10713
  157.7467  130.9995  150.2893 LP  0  0  0  0  0  0  0  0  0  0  0  0  # atno 17371 bound_to 10713
  140.0316  134.9898  157.0790 LP  0  0  0  0  0  0  0  0  0  0  0  0  # atno 17394 bound_to 11000
  140.4277  134.1814  155.7167 LP  0  0  0  0  0  0  0  0  0  0  0  0  # atno 17395 bound_to 11000

$$$$
