AV-unprocessed.smi:2226|AV-procd|sdf|9010|dock10
  -GOLD-   2272012213D 1   1.00000     0.00000
 Structure written by MMmdl.
 40 42  0  0  0  0  0  0  0  0  2 V2000
  146.0685  143.1086  153.7404 C   0  0  0  0  0  0  0  0  0  0  0  0
  146.1596  141.6367  153.8916 N   0  3  2  0  0  0  0  0  0  0  0  0
  146.0157  141.1423  155.2826 C   0  0  1  0  0  0  0  0  0  0  0  0
  145.6944  139.6297  155.2456 C   0  0  0  0  0  0  0  0  0  0  0  0
  146.6978  138.7990  154.4195 C   0  0  0  0  0  0  0  0  0  0  0  0
  147.0948  139.4965  153.1024 C   0  0  0  0  0  0  0  0  0  0  0  0
  147.3442  141.0161  153.2499 C   0  0  2  0  0  0  0  0  0  0  0  0
  148.6495  141.3914  153.9953 C   0  0  0  0  0  0  0  0  0  0  0  0
  148.6104  141.1582  155.5233 C   0  0  1  0  0  0  0  0  0  0  0  0
  149.6558  141.9610  156.1566 N   0  0  0  0  0  0  0  0  0  0  0  0
  150.7228  141.5011  156.8287 C   0  0  0  0  0  0  0  0  0  0  0  0
  150.9258  140.2923  156.9791 O   0  0  0  0  0  0  0  0  0  0  0  0
  151.4856  142.5677  157.2811 N   0  0  0  0  0  0  0  0  0  0  0  0
  152.2523  142.4184  158.3169 C   0  0  0  0  0  0  0  0  0  0  0  0
  153.0759  143.3668  158.9019 N   0  0  0  0  0  0  0  0  0  0  0  0
  153.7039  142.7856  159.9685 C   0  0  0  0  0  0  0  0  0  0  0  0
  153.2938  141.5235  160.0531 C   0  0  0  0  0  0  0  0  0  0  0  0
  152.4032  141.2667  159.0549 O   0  0  0  0  0  0  0  0  0  0  0  0
  147.2436  141.5254  156.1460 C   0  0  0  0  0  0  0  0  0  0  0  0
  146.8851  143.6280  154.2415 H   0  0  0  0  0  0  0  0  0  0  0  0
  145.1300  143.4758  154.1567 H   0  0  0  0  0  0  0  0  0  0  0  0
  146.0905  143.3843  152.6860 H   0  0  0  0  0  0  0  0  0  0  0  0
  145.1450  141.6319  155.7214 H   0  0  0  0  0  0  0  0  0  0  0  0
  145.6213  139.2299  156.2575 H   0  0  0  0  0  0  0  0  0  0  0  0
  144.7049  139.5033  154.8042 H   0  0  0  0  0  0  0  0  0  0  0  0
  147.5809  138.5726  155.0106 H   0  0  0  0  0  0  0  0  0  0  0  0
  146.2640  137.8236  154.1966 H   0  0  0  0  0  0  0  0  0  0  0  0
  147.9668  139.0070  152.6677 H   0  0  0  0  0  0  0  0  0  0  0  0
  146.2855  139.3533  152.3852 H   0  0  0  0  0  0  0  0  0  0  0  0
  147.4221  141.4156  152.2377 H   0  0  0  0  0  0  0  0  0  0  0  0
  149.4947  140.8546  153.5628 H   0  0  0  0  0  0  0  0  0  0  0  0
  148.8538  142.4457  153.8037 H   0  0  0  0  0  0  0  0  0  0  0  0
  148.8035  140.1063  155.7151 H   0  0  0  0  0  0  0  0  0  0  0  0
  149.5615  142.9634  156.0780 H   0  0  0  0  0  0  0  0  0  0  0  0
  153.2196  144.3273  158.6254 H   0  0  0  0  0  0  0  0  0  0  0  0
  154.3973  143.3541  160.5705 H   0  0  0  0  0  0  0  0  0  0  0  0
  153.5304  140.7190  160.7336 H   0  0  0  0  0  0  0  0  0  0  0  0
  147.2108  142.6023  156.3168 H   0  0  0  0  0  0  0  0  0  0  0  0
  147.1587  141.0774  157.1369 H   0  0  0  0  0  0  0  0  0  0  0  0
  145.3592  141.2776  153.3908 H   0  0  0  0  0  0  0  0  0  0  0  0
  1  2  1  0  0  0  0
  1 20  1  0  0  0  0
  1 21  1  0  0  0  0
  1 22  1  0  0  0  0
  2  7  1  0  0  0  0
  2  3  1  0  0  0  0
  2 40  1  0  0  0  0
  3 19  1  0  0  0  0
  3  4  1  0  0  0  0
  3 23  1  0  0  0  0
  4  5  1  0  0  0  0
  4 24  1  0  0  0  0
  4 25  1  0  0  0  0
  5  6  1  0  0  0  0
  5 26  1  0  0  0  0
  5 27  1  0  0  0  0
  6  7  1  0  0  0  0
  6 28  1  0  0  0  0
  6 29  1  0  0  0  0
  7  8  1  0  0  0  0
  7 30  1  0  0  0  0
  8  9  1  0  0  0  0
  8 31  1  0  0  0  0
  8 32  1  0  0  0  0
  9 10  1  0  0  0  0
  9 19  1  0  0  0  0
  9 33  1  0  0  0  0
 10 34  1  0  0  0  0
 10 11  1  0  0  0  0
 11 13  1  0  0  0  0
 11 12  2  0  0  0  0
 13 14  2  0  0  0  0
 14 18  1  0  0  0  0
 14 15  1  0  0  0  0
 15 35  1  0  0  0  0
 15 16  1  0  0  0  0
 16 36  1  0  0  0  0
 16 17  2  0  0  0  0
 17 37  1  0  0  0  0
 17 18  1  0  0  0  0
 19 38  1  0  0  0  0
 19 39  1  0  0  0  0
M  CHG  1   2   1
M  END
> <s_m_source_file>
AV-unprocessed.smi

> <i_m_source_file_index>
2226

> <i_lp_mmshare_version>
43012

> <i_f3d_flags>
0

> <s_epik_input>
W0NIMl0xW0NIMl1bQ0gyXVtDQEhdKE4oW0NIM10pW0NIXTEyKVtDSDJdW0NASF0oW0NIMl0yKVtOSF1DKD1PKVtOSF1jM25bY0hdW2NIXW8z

> <s_epik_cmdline>
J2VwaWtfcHl0aG9uJywgJy1waCcsICc3LjAnLCAnLXRuJywgJzgnLCAnLW1hJywgJzIwMCcsICctbWV0YWxfYmluZGluZycsICctaW1hZScsICc8aW5maWxlLm1hZT4nLCAnLW9tYWUnLCAnPG91dGZpbGUubWFlPic=

> <r_lp_tautomer_probability>
0.107061

> <r_epik_Ionization_Penalty>
1.08307

> <r_epik_Ionization_Penalty_Charging>
1.08272

> <r_epik_Ionization_Penalty_Neutral>
0.000345913

> <r_epik_State_Penalty>
2.5744

> <r_epik_Charging_Adjusted_Penalty>
3.65713

> <i_epik_Tot_Q>
1

> <i_epik_Tot_abs_Q>
1

> <r_epik_Metal_State_Penalty>
3.72133

> <b_epik_Metal_Only>
0

> <s_lp_Force_Field>
OPLS_2005

> <r_lp_Energy>
57.8706

> <b_lp_Chiralities_Consistent>
1

> <s_lp_Variant>
AV-unprocessed.smi:2226-10

> <Gold.Version>
5.8.1

> <Gold.Id.Protein>
6NUR|6NUR_protein|mol2

> <Gold.PLP.Fitness>
40.6659

> <Gold.PLP.PLP>
-31.9425

> <Gold.PLP.part.hbond>
-2.0000

> <Gold.PLP.part.metal>
0.0000

> <Gold.PLP.part.buried>
-5.9176

> <Gold.PLP.part.nonpolar>
-24.0691

> <Gold.PLP.part.repulsive>
0.1954

> <Gold.PLP.ligand.clash>
0.0000

> <Gold.PLP.ligand.torsion>
0.1413

> <Gold.PLP.Chemscore.Hbond>
3.0000

> <Gold.PLP.Chemscore.CHOScore>
0.0000

> <Gold.PLP.Chemscore.Metal>
0.0000

> <Gold.Chemscore.Hbonds>
donor molecule, donor type, donor heavy atom, donor atom, acceptor molecule, acceptor atom, score
      L1  H     2    40       P1 10175  1.89
      L1  H    10    34       P1  8028  1.00

> <Gold.PLP.Chemscore.Internal.Correction>
0.0060

> <Gold.Rescore>
     Score         DG    S(hbond)    S(metal)    S(lipo)     H(rot)  DE(clash)    DE(int)     intcor
     15.18     -16.90       1.91        0.00      64.88       1.00       0.04       1.68       ----

> <Gold.Chemscore.Fitness>
15.1768

> <Gold.Chemscore.DG>
-16.9001

> <Gold.Chemscore.ZeroCoef>
-5.4800

> <Gold.Chemscore.Hbond>
1.9128

> <Gold.Chemscore.Metal>
0.0000

> <Gold.Chemscore.Lipo>
64.8834

> <Gold.Chemscore.Internal_Hbond>
0.0000

> <Gold.Chemscore.DEClash>
0.0420

> <Gold.Chemscore.DEInternal>
1.6813

> <Gold.Chemscore.Rot>
1.0000

> <Gold.Chemscore.Internal.Correction>
   9.000000E+99

> <Gold.Chemscore.Hbonds>
donor molecule, donor type, donor heavy atom, donor atom, acceptor molecule, acceptor atom, score
      L1  H     2    40       P1 10175  0.23
      L1  H    10    34       P1  8028  0.99

> <Gold.Chemscore.Hbond.Weighted>
-6.3887

> <Gold.Chemscore.Metal.Weighted>
-0.0000

> <Gold.Chemscore.Lipo.Weighted>
-7.5914

> <Gold.Chemscore.Internal_Hbond.Weighted>
0.0000

> <Gold.Chemscore.DEClash.Weighted>
0.0420

> <Gold.Chemscore.DEInternal.Weighted>
1.6813

> <Gold.Chemscore.Rot.Weighted>
2.5600

> <Gold.Chemscore.Internal.Correction.Weighted>
   9.000000E+99

> <Gold.Protein.RotatedTorsions>
[ 6907 6896 6895 6894 ] final  111.25 input  -60.11 | X-H torsion
[ 7974 7965 7964 7962 ] final -152.92 input  175.53 | X-H torsion
[ 8008 7997 7996 7995 ] final  155.59 input   59.86 | X-H torsion
[ 10167 10162 10161 10158 ] final  171.88 input  -65.29 | X-H torsion
[ 10718 10713 10712 10709 ] final   78.01 input   66.30 | X-H torsion
[ 10763 10752 10751 10750 ] final -166.90 input  -60.55 | X-H torsion
[ 11005 11000 10999 10996 ] final   85.19 input  -57.11 | X-H torsion

> <Gold.Protein.ActiveResidues>
 VAL166  LYS551  ARG553  GLY616  TRP617  ASP618  TYR619  PRO620  LYS621  CYS622 
 ASP623  PHE694  ASN695  SER759  ASP760  ASP761  ALA762  ILE779  LEU786  VAL792 
 PHE793  MET794  SER795  GLU796  ALA797  LYS798  CYS799  TRP800  GLU811  SER814 

> <Gold.Protein.RotatedAtoms>
  152.4979  133.8684  159.7285 H   0  0  0  0  0  0  0  0  0  0  0  0  # atno 6907 bound_to 6896
  150.9177  133.6910  159.2846 H   0  0  0  0  0  0  0  0  0  0  0  0  # atno 6908 bound_to 6896
  151.4298  135.1012  159.9691 H   0  0  0  0  0  0  0  0  0  0  0  0  # atno 6909 bound_to 6896
  144.7768  140.4596  143.5868 H   0  0  0  0  0  0  0  0  0  0  0  0  # atno 7974 bound_to 7965
  156.2469  140.1935  156.6825 H   0  0  0  0  0  0  0  0  0  0  0  0  # atno 8008 bound_to 7997
  154.6311  140.0595  156.9759 H   0  0  0  0  0  0  0  0  0  0  0  0  # atno 8009 bound_to 7997
  155.1709  140.3268  155.4395 H   0  0  0  0  0  0  0  0  0  0  0  0  # atno 8010 bound_to 7997
  139.5060  144.3436  151.9993 H   0  0  0  0  0  0  0  0  0  0  0  0  # atno 10167 bound_to 10162
  157.6730  130.9848  150.1724 H   0  0  0  0  0  0  0  0  0  0  0  0  # atno 10718 bound_to 10713
  154.6787  135.2951  154.9643 H   0  0  0  0  0  0  0  0  0  0  0  0  # atno 10763 bound_to 10752
  154.0645  135.6626  153.4820 H   0  0  0  0  0  0  0  0  0  0  0  0  # atno 10764 bound_to 10752
  153.0533  135.5160  154.7819 H   0  0  0  0  0  0  0  0  0  0  0  0  # atno 10765 bound_to 10752
  139.8978  134.8269  156.2548 H   0  0  0  0  0  0  0  0  0  0  0  0  # atno 11005 bound_to 11000
  145.6163  139.1519  143.3047 LP  0  0  0  0  0  0  0  0  0  0  0  0  # atno 17320 bound_to 7965
  146.1952  140.6276  142.9127 LP  0  0  0  0  0  0  0  0  0  0  0  0  # atno 17321 bound_to 7965
  140.2874  144.3792  150.6099 LP  0  0  0  0  0  0  0  0  0  0  0  0  # atno 17342 bound_to 10162
  140.5972  143.2167  151.7141 LP  0  0  0  0  0  0  0  0  0  0  0  0  # atno 17343 bound_to 10162
  156.2475  130.3697  149.8269 LP  0  0  0  0  0  0  0  0  0  0  0  0  # atno 17370 bound_to 10713
  156.6051  130.8563  151.3441 LP  0  0  0  0  0  0  0  0  0  0  0  0  # atno 17371 bound_to 10713
  141.0200  133.7046  156.1253 LP  0  0  0  0  0  0  0  0  0  0  0  0  # atno 17394 bound_to 11000
  140.7246  134.4321  157.5572 LP  0  0  0  0  0  0  0  0  0  0  0  0  # atno 17395 bound_to 11000

$$$$
