AV-unprocessed.smi:2157|AV-procd|sdf|8786|dock6
  -GOLD-   2272011563D 1   1.00000     0.00000
 Structure written by MMmdl.
 41 42  0  0  0  0  0  0  0  0  1 V2000
  150.6953  141.5747  158.0785 C   0  0  0  0  0  0  0  0  0  0  0  0
  150.5814  140.3236  157.1960 C   0  0  1  0  0  0  0  0  0  0  0  0
  150.7669  140.6673  155.7057 C   0  0  0  0  0  0  0  0  0  0  0  0
  150.6552  139.4170  154.8191 C   0  0  0  0  0  0  0  0  0  0  0  0
  151.6533  138.3300  155.2541 C   0  0  0  0  0  0  0  0  0  0  0  0
  151.5093  137.9708  156.7457 C   0  0  2  0  0  0  0  0  0  0  0  0
  150.2649  137.2371  156.9712 N   0  0  0  0  0  0  0  0  0  0  0  0
  149.8818  136.6891  158.1340 C   0  0  0  0  0  0  0  0  0  0  0  0
  150.5523  136.7540  159.1655 O   0  0  0  0  0  0  0  0  0  0  0  0
  148.5195  135.9828  158.1245 C   0  0  0  0  0  0  0  0  0  0  0  0
  148.0987  135.5185  159.4527 N   0  0  0  0  0  0  0  0  0  0  0  0
  147.8511  134.1739  159.6610 C   0  0  0  0  0  0  0  0  0  0  0  0
  147.4461  133.6657  160.8452 C   0  0  0  0  0  0  0  0  0  0  0  0
  147.2466  134.5309  162.0012 C   0  0  0  0  0  0  0  0  0  0  0  0
  146.8573  134.1158  163.0935 O   0  0  0  0  0  0  0  0  0  0  0  0
  147.5226  135.8986  161.7664 N   0  0  0  0  0  0  0  0  0  0  0  0
  147.3266  136.8245  162.8629 C   0  0  0  0  0  0  0  0  0  0  0  0
  147.9263  136.4274  160.5190 C   0  0  0  0  0  0  0  0  0  0  0  0
  148.1173  137.6341  160.3491 O   0  0  0  0  0  0  0  0  0  0  0  0
  151.5878  139.2364  157.6277 C   0  0  0  0  0  0  0  0  0  0  0  0
  151.6831  142.0293  157.9966 H   0  0  0  0  0  0  0  0  0  0  0  0
  150.5266  141.3312  159.1279 H   0  0  0  0  0  0  0  0  0  0  0  0
  149.9582  142.3252  157.7922 H   0  0  0  0  0  0  0  0  0  0  0  0
  149.5740  139.9257  157.3268 H   0  0  0  0  0  0  0  0  0  0  0  0
  150.0219  141.4013  155.3963 H   0  0  0  0  0  0  0  0  0  0  0  0
  151.7412  141.1339  155.5529 H   0  0  0  0  0  0  0  0  0  0  0  0
  149.6383  139.0257  154.8649 H   0  0  0  0  0  0  0  0  0  0  0  0
  150.8328  139.6854  153.7775 H   0  0  0  0  0  0  0  0  0  0  0  0
  151.5306  137.4394  154.6365 H   0  0  0  0  0  0  0  0  0  0  0  0
  152.6676  138.6871  155.0706 H   0  0  0  0  0  0  0  0  0  0  0  0
  152.3393  137.3125  157.0090 H   0  0  0  0  0  0  0  0  0  0  0  0
  149.6476  137.1395  156.1781 H   0  0  0  0  0  0  0  0  0  0  0  0
  147.7807  136.6776  157.7227 H   0  0  0  0  0  0  0  0  0  0  0  0
  148.5440  135.1441  157.4260 H   0  0  0  0  0  0  0  0  0  0  0  0
  147.9806  133.4922  158.8330 H   0  0  0  0  0  0  0  0  0  0  0  0
  147.2640  132.6052  160.9378 H   0  0  0  0  0  0  0  0  0  0  0  0
  148.0152  137.6641  162.7609 H   0  0  0  0  0  0  0  0  0  0  0  0
  147.5472  136.3240  163.8067 H   0  0  0  0  0  0  0  0  0  0  0  0
  146.2871  137.1526  162.8175 H   0  0  0  0  0  0  0  0  0  0  0  0
  152.5987  139.6426  157.5693 H   0  0  0  0  0  0  0  0  0  0  0  0
  151.4320  138.9755  158.6753 H   0  0  0  0  0  0  0  0  0  0  0  0
  1  2  1  0  0  0  0
  1 21  1  0  0  0  0
  1 22  1  0  0  0  0
  1 23  1  0  0  0  0
  2 20  1  0  0  0  0
  2  3  1  0  0  0  0
  2 24  1  0  0  0  0
  3  4  1  0  0  0  0
  3 25  1  0  0  0  0
  3 26  1  0  0  0  0
  4  5  1  0  0  0  0
  4 27  1  0  0  0  0
  4 28  1  0  0  0  0
  5  6  1  0  0  0  0
  5 29  1  0  0  0  0
  5 30  1  0  0  0  0
  6  7  1  0  0  0  0
  6 20  1  0  0  0  0
  6 31  1  0  0  0  0
  7  8  1  0  0  0  0
  7 32  1  0  0  0  0
  8  9  2  0  0  0  0
  8 10  1  0  0  0  0
 10 11  1  0  0  0  0
 10 33  1  0  0  0  0
 10 34  1  0  0  0  0
 11 18  1  0  0  0  0
 11 12  1  0  0  0  0
 12 13  2  0  0  0  0
 12 35  1  0  0  0  0
 13 14  1  0  0  0  0
 13 36  1  0  0  0  0
 14 15  2  0  0  0  0
 14 16  1  0  0  0  0
 16 17  1  0  0  0  0
 16 18  1  0  0  0  0
 17 37  1  0  0  0  0
 17 38  1  0  0  0  0
 17 39  1  0  0  0  0
 18 19  2  0  0  0  0
 20 40  1  0  0  0  0
 20 41  1  0  0  0  0
M  END
> <s_m_source_file>
AV-unprocessed.smi

> <i_m_source_file_index>
2157

> <i_lp_mmshare_version>
43012

> <i_f3d_flags>
0

> <s_epik_input>
W0NIM11bQ0BASF0xW0NIMl1bQ0gyXVtDSDJdW0NASF0oW0NIMl0xKVtOSF1DKD1PKVtDSDJdbjJbY0hdW2NIXWMoPU8pbihbQ0gzXSljMj1P

> <s_epik_cmdline>
J2VwaWtfcHl0aG9uJywgJy1waCcsICc3LjAnLCAnLXRuJywgJzgnLCAnLW1hJywgJzIwMCcsICctbWV0YWxfYmluZGluZycsICctaW1hZScsICc8aW5maWxlLm1hZT4nLCAnLW9tYWUnLCAnPG91dGZpbGUubWFlPic=

> <r_lp_tautomer_probability>
1

> <r_epik_Ionization_Penalty>
3.1838e-08

> <r_epik_Ionization_Penalty_Charging>
1.27911e-08

> <r_epik_Ionization_Penalty_Neutral>
1.90469e-08

> <r_epik_State_Penalty>
-0

> <r_epik_Charging_Adjusted_Penalty>
1.27911e-08

> <i_epik_Tot_Q>
0

> <i_epik_Tot_abs_Q>
0

> <r_epik_Metal_State_Penalty>
-0

> <b_epik_Metal_Only>
0

> <s_lp_Force_Field>
OPLS_2005

> <r_lp_Energy>
16.1054

> <b_lp_Chiralities_Consistent>
1

> <s_lp_Variant>
AV-unprocessed.smi:2157-4

> <Gold.Version>
5.8.1

> <Gold.Id.Protein>
6NUR|6NUR_protein|mol2

> <Gold.PLP.Fitness>
41.0987

> <Gold.PLP.PLP>
-34.9071

> <Gold.PLP.part.hbond>
-4.0000

> <Gold.PLP.part.metal>
0.0000

> <Gold.PLP.part.buried>
-2.1308

> <Gold.PLP.part.nonpolar>
-28.6164

> <Gold.PLP.part.repulsive>
0.0466

> <Gold.PLP.ligand.clash>
0.0000

> <Gold.PLP.ligand.torsion>
0.0407

> <Gold.PLP.Chemscore.Hbond>
2.0880

> <Gold.PLP.Chemscore.CHOScore>
0.0000

> <Gold.PLP.Chemscore.Metal>
0.0000

> <Gold.Chemscore.Hbonds>
donor molecule, donor type, donor heavy atom, donor atom, acceptor molecule, acceptor atom, score
      P1  H  6896  6908       L1     9  1.00
      P1  H  6931  6943       L1    19  0.50
      P1  H  6934  6947       L1    19  0.58

> <Gold.PLP.Chemscore.Internal.Correction>
0.0091

> <Gold.Rescore>
     Score         DG    S(hbond)    S(metal)    S(lipo)     H(rot)  DE(clash)    DE(int)     intcor
     15.99     -16.25       2.39        0.00      57.25       1.52       0.15       0.12       ----

> <Gold.Chemscore.Fitness>
15.9873

> <Gold.Chemscore.DG>
-16.2499

> <Gold.Chemscore.ZeroCoef>
-5.4800

> <Gold.Chemscore.Hbond>
2.3873

> <Gold.Chemscore.Metal>
0.0000

> <Gold.Chemscore.Lipo>
57.2494

> <Gold.Chemscore.Internal_Hbond>
0.0000

> <Gold.Chemscore.DEClash>
0.1460

> <Gold.Chemscore.DEInternal>
0.1166

> <Gold.Chemscore.Rot>
1.5242

> <Gold.Chemscore.Internal.Correction>
   9.000000E+99

> <Gold.Chemscore.Hbonds>
donor molecule, donor type, donor heavy atom, donor atom, acceptor molecule, acceptor atom, score
      P1  H  6896  6908       L1     9  0.78
      P1  H  6931  6943       L1    19  0.30
      P1  H  6934  6947       L1    19  0.58

> <Gold.Chemscore.Hbond.Weighted>
-7.9736

> <Gold.Chemscore.Metal.Weighted>
-0.0000

> <Gold.Chemscore.Lipo.Weighted>
-6.6982

> <Gold.Chemscore.Internal_Hbond.Weighted>
0.0000

> <Gold.Chemscore.DEClash.Weighted>
0.1460

> <Gold.Chemscore.DEInternal.Weighted>
0.1166

> <Gold.Chemscore.Rot.Weighted>
3.9019

> <Gold.Chemscore.Internal.Correction.Weighted>
   9.000000E+99

> <Gold.Protein.RotatedTorsions>
[ 6907 6896 6895 6894 ] final -156.47 input  -60.11 | X-H torsion
[ 7974 7965 7964 7962 ] final  126.46 input  175.53 | X-H torsion
[ 8008 7997 7996 7995 ] final   49.70 input   59.86 | X-H torsion
[ 10167 10162 10161 10158 ] final  -91.97 input  -65.29 | X-H torsion
[ 10718 10713 10712 10709 ] final  -50.59 input   66.30 | X-H torsion
[ 10763 10752 10751 10750 ] final  147.96 input  -60.55 | X-H torsion
[ 11005 11000 10999 10996 ] final  124.19 input  -57.11 | X-H torsion

> <Gold.Protein.ActiveResidues>
 VAL166  LYS551  ARG553  GLY616  TRP617  ASP618  TYR619  PRO620  LYS621  CYS622 
 ASP623  PHE694  ASN695  SER759  ASP760  ASP761  ALA762  ILE779  LEU786  VAL792 
 PHE793  MET794  SER795  GLU796  ALA797  LYS798  CYS799  TRP800  GLU811  SER814 

> <Gold.Protein.RotatedAtoms>
  151.2881  133.4178  159.2631 H   0  0  0  0  0  0  0  0  0  0  0  0  # atno 6907 bound_to 6896
  151.0301  134.9533  159.8117 H   0  0  0  0  0  0  0  0  0  0  0  0  # atno 6908 bound_to 6896
  152.5344  134.2842  159.9071 H   0  0  0  0  0  0  0  0  0  0  0  0  # atno 6909 bound_to 6896
  145.0615  139.3802  143.5003 H   0  0  0  0  0  0  0  0  0  0  0  0  # atno 7974 bound_to 7965
  155.4065  140.3440  155.4260 H   0  0  0  0  0  0  0  0  0  0  0  0  # atno 8008 bound_to 7997
  156.1473  140.1560  156.8858 H   0  0  0  0  0  0  0  0  0  0  0  0  # atno 8009 bound_to 7997
  154.5022  140.0812  156.7802 H   0  0  0  0  0  0  0  0  0  0  0  0  # atno 8010 bound_to 7997
  140.3395  143.2950  151.9851 H   0  0  0  0  0  0  0  0  0  0  0  0  # atno 10167 bound_to 10162
  156.1787  130.4150  149.9539 H   0  0  0  0  0  0  0  0  0  0  0  0  # atno 10718 bound_to 10713
  154.0469  135.2885  155.3346 H   0  0  0  0  0  0  0  0  0  0  0  0  # atno 10763 bound_to 10752
  154.6894  135.5232  153.8374 H   0  0  0  0  0  0  0  0  0  0  0  0  # atno 10764 bound_to 10752
  153.0577  135.6601  154.0668 H   0  0  0  0  0  0  0  0  0  0  0  0  # atno 10765 bound_to 10752
  139.9347  134.9640  156.8373 H   0  0  0  0  0  0  0  0  0  0  0  0  # atno 11005 bound_to 11000
  146.3524  140.0315  142.8650 LP  0  0  0  0  0  0  0  0  0  0  0  0  # atno 17320 bound_to 7965
  145.1403  140.9568  143.4492 LP  0  0  0  0  0  0  0  0  0  0  0  0  # atno 17321 bound_to 7965
  139.4843  144.6168  151.7331 LP  0  0  0  0  0  0  0  0  0  0  0  0  # atno 17342 bound_to 10162
  140.5322  144.0713  150.6057 LP  0  0  0  0  0  0  0  0  0  0  0  0  # atno 17343 bound_to 10162
  156.7316  130.9045  151.3626 LP  0  0  0  0  0  0  0  0  0  0  0  0  # atno 17370 bound_to 10713
  157.6853  130.9180  150.0371 LP  0  0  0  0  0  0  0  0  0  0  0  0  # atno 17371 bound_to 10713
  140.6107  134.0085  155.7575 LP  0  0  0  0  0  0  0  0  0  0  0  0  # atno 17394 bound_to 11000
  141.0955  133.9850  157.3167 LP  0  0  0  0  0  0  0  0  0  0  0  0  # atno 17395 bound_to 11000

$$$$
