#       Name:                AV-unprocessed.smi:148
#       Creating user name   scv26
#       Creation time:       Thu Mar 26 18:43:52 2020


#       File generated by GOLD software.
#

@<TRIPOS>MOLECULE
AV-unprocessed.smi:148
    73    77     1
SMALL
NO_CHARGES


@<TRIPOS>ATOM
      1 ****        -5.1811  -1.5328   1.1566 O.3            1 S1                 0.0000
      2 ****        -3.9645  -2.2366   1.0238 C.3            1 S1                 0.0000
      3 ****        -3.0082  -1.9719   2.2150 C.3            1 S1                 0.0000
      4 ****        -1.5523  -2.3611   1.8527 C.3            1 S1                 0.0000
      5 ****        -1.0228  -1.6267   0.7168 N.pl3          1 S1                 0.0000
      6 ****        -0.7672  -2.1194  -0.5438 C.2            1 S1                 0.0000
      7 ****        -0.2807  -1.2540  -1.3917 N.2            1 S1                 0.0000
      8 ****        -0.1844  -0.0809  -0.6544 C.ar           1 S1                 0.0000
      9 ****         0.2722   1.2311  -0.9436 C.ar           1 S1                 0.0000
     10 ****         0.7425   1.5712  -2.1659 N.3            1 S1                 0.0000
     11 ****        -0.3191   2.2230  -2.9334 C.3            1 S1                 0.0000
     12 ****         0.0924   2.4350  -4.3950 C.3            1 S1                 0.0000
     13 ****         1.4034   3.2225  -4.4628 C.3            1 S1                 0.0000
     14 ****         2.4932   2.4910  -3.6684 C.3            1 S1                 0.0000
     15 ****         2.0655   2.2241  -2.2005 C.3            1 S1                 0.0000
     16 ****         3.1407   1.4381  -1.3836 C.3            1 S1                 0.0000
     17 ****         3.3881  -0.0207  -1.8206 C.3            1 S1                 0.0000
     18 ****         4.8706  -0.3148  -1.5397 C.3            1 S1                 0.0000
     19 ****         5.4193   0.9185  -0.8178 C.3            1 S1                 0.0000
     20 ****         4.5428   2.0643  -1.3208 C.3            1 S1                 0.0000
     21 ****         4.5945   3.1746  -0.4488 O.3            1 S1                 0.0000
     22 ****         0.2168   2.1592   0.0487 N.ar           1 S1                 0.0000
     23 ****        -0.2422   1.8163   1.2563 C.ar           1 S1                 0.0000
     24 ****        -0.6903   0.6297   1.6735 N.ar           1 S1                 0.0000
     25 ****        -0.6449  -0.2969   0.6735 C.ar           1 S1                 0.0000
     26 ****        -3.4595  -2.7054   3.5086 C.3            1 S1                 0.0000
     27 ****        -2.5930  -2.4390   4.7294 C.3            1 S1                 0.0000
     28 ****        -3.4933  -2.8793   5.8783 C.3            1 S1                 0.0000
     29 ****        -4.8237  -2.6238   5.4455 O.3            1 S1                 0.0000
     30 ****        -4.8281  -2.2901   4.0615 C.3            1 S1                 0.0000
     31 ****        -5.7211  -1.7201   0.4039 H              1 S1                 0.0000
     32 ****        -4.1678  -3.3028   0.9208 H              1 S1                 0.0000
     33 ****        -3.5291  -1.9083   0.0813 H              1 S1                 0.0000
     34 ****        -3.0140  -0.8994   2.4156 H              1 S1                 0.0000
     35 ****        -0.8789  -2.1738   2.6886 H              1 S1                 0.0000
     36 ****        -1.4905  -3.4290   1.6388 H              1 S1                 0.0000
     37 ****        -0.9583  -3.1468  -0.8178 H              1 S1                 0.0000
     38 ****        -1.2277   1.6195  -2.8988 H              1 S1                 0.0000
     39 ****        -0.5590   3.1840  -2.4755 H              1 S1                 0.0000
     40 ****         0.2132   1.4698  -4.8885 H              1 S1                 0.0000
     41 ****        -0.6940   2.9659  -4.9319 H              1 S1                 0.0000
     42 ****         1.7147   3.3483  -5.5001 H              1 S1                 0.0000
     43 ****         1.2564   4.2235  -4.0553 H              1 S1                 0.0000
     44 ****         2.7257   1.5559  -4.1767 H              1 S1                 0.0000
     45 ****         3.3983   3.0951  -3.7034 H              1 S1                 0.0000
     46 ****         1.9475   3.1997  -1.7264 H              1 S1                 0.0000
     47 ****         2.8097   1.3845  -0.3452 H              1 S1                 0.0000
     48 ****         2.7411  -0.6998  -1.2647 H              1 S1                 0.0000
     49 ****         3.1759  -0.1800  -2.8767 H              1 S1                 0.0000
     50 ****         5.0077  -1.2231  -0.9525 H              1 S1                 0.0000
     51 ****         5.3989  -0.4539  -2.4840 H              1 S1                 0.0000
     52 ****         5.2924   0.7923   0.2589 H              1 S1                 0.0000
     53 ****         6.4801   1.0823  -1.0102 H              1 S1                 0.0000
     54 ****         4.8968   2.3609  -2.3069 H              1 S1                 0.0000
     55 ****         4.0164   3.8445  -0.7808 H              1 S1                 0.0000
     56 ****        -0.2508   2.6053   1.9938 H              1 S1                 0.0000
     57 ****        -3.4728  -3.7815   3.3273 H              1 S1                 0.0000
     58 ****        -1.6485  -2.9833   4.7193 H              1 S1                 0.0000
     59 ****        -2.3729  -1.3735   4.8136 H              1 S1                 0.0000
     60 ****        -3.3870  -3.9503   6.0557 H              1 S1                 0.0000
     61 ****        -3.2676  -2.3571   6.8083 H              1 S1                 0.0000
     62 ****        -4.9698  -1.2120   3.9730 H              1 S1                 0.0000
     63 ****        -5.6540  -2.7842   3.5493 H              1 S1                 0.0000
     64 ****        -4.9987  -0.5507   1.2045 LP             1 S1                 0.0000
     65 ****        -5.6506  -1.8257   1.9895 LP             1 S1                 0.0000
     66 ****        -0.0345  -1.4015  -2.3497 LP             1 S1                 0.0000
     67 ****         0.9780   0.7226  -2.6397 LP             1 S1                 0.0000
     68 ****         5.5295   3.5268  -0.4064 LP             1 S1                 0.0000
     69 ****         4.3005   2.8987   0.4662 LP             1 S1                 0.0000
     70 ****         0.5190   3.0966  -0.1248 LP             1 S1                 0.0000
     71 ****        -1.0172   0.4442   2.6001 LP             1 S1                 0.0000
     72 ****        -5.2028  -1.8623   5.9712 LP             1 S1                 0.0000
     73 ****        -5.3822  -3.4403   5.5913 LP             1 S1                 0.0000
@<TRIPOS>BOND
    1    1    2 1     
    2    1   31 1     
    3    2    3 1     
    4    2   32 1     
    5    2   33 1     
    6    3    4 1     
    7    3   26 1     
    8    3   34 1     
    9    4    5 1     
   10    4   35 1     
   11    4   36 1     
   12    5   25 1     
   13    5    6 1     
   14    6    7 2     
   15    6   37 1     
   16    7    8 1     
   17    8   25 ar    
   18    8    9 ar    
   19    9   10 1     
   20    9   22 ar    
   21   10   15 1     
   22   10   11 1     
   23   11   12 1     
   24   11   38 1     
   25   11   39 1     
   26   12   13 1     
   27   12   40 1     
   28   12   41 1     
   29   13   14 1     
   30   13   42 1     
   31   13   43 1     
   32   14   15 1     
   33   14   44 1     
   34   14   45 1     
   35   15   16 1     
   36   15   46 1     
   37   16   20 1     
   38   16   17 1     
   39   16   47 1     
   40   17   18 1     
   41   17   48 1     
   42   17   49 1     
   43   18   19 1     
   44   18   50 1     
   45   18   51 1     
   46   19   20 1     
   47   19   52 1     
   48   19   53 1     
   49   20   21 1     
   50   20   54 1     
   51   21   55 1     
   52   22   23 ar    
   53   23   24 ar    
   54   23   56 1     
   55   24   25 ar    
   56   26   30 1     
   57   26   27 1     
   58   26   57 1     
   59   27   28 1     
   60   27   58 1     
   61   27   59 1     
   62   28   29 1     
   63   28   60 1     
   64   28   61 1     
   65   29   30 1     
   66   30   62 1     
   67   30   63 1     
   68    1   64 1     
   69    1   65 1     
   70    7   66 1     
   71   10   67 1     
   72   21   68 1     
   73   21   69 1     
   74   22   70 1     
   75   24   71 1     
   76   29   72 1     
   77   29   73 1     
@<TRIPOS>SUBSTRUCTURE
      1 S1             1
@<TRIPOS>SET
LONE_PAIRS      STATIC     ATOMS    <user>   **** ""
10 64 65 66 67 68 69 70 71 72 73
DONOR_HYDROGENS      STATIC     ATOMS    <user>   **** ""
2 31 55
ATOM$BLUE        STATIC     ATOMS    COLORGROUP SYSTEM
10 64 65 66 67 68 69 70 71 72 73
ATOM$RED        STATIC     ATOMS    COLORGROUP SYSTEM
2 31 55
