#       Name:                AV-unprocessed.smi:2156
#       Creating user name   scv26
#       Creation time:       Fri Mar 27 11:56:26 2020


#       File generated by GOLD software.
#

@<TRIPOS>MOLECULE
AV-unprocessed.smi:2156
    40    40     1
SMALL
NO_CHARGES


@<TRIPOS>ATOM
      1 ****        -3.0308   0.1183   2.2516 C.3            1 S1                 0.0000
      2 ****        -1.5168   0.1308   2.0154 C.3            1 S1                 0.0000
      3 ****        -0.9608  -1.2653   1.6817 C.3            1 S1                 0.0000
      4 ****         0.5691  -1.2999   1.5013 C.3            1 S1                 0.0000
      5 ****         1.0739  -2.7264   1.2319 C.3            1 S1                 0.0000
      6 ****         0.9600  -0.4114   0.4118 N.am           1 S1                 0.0000
      7 ****         2.1447   0.2087   0.2799 C.2            1 S1                 0.0000
      8 ****         3.0756   0.0454   1.0681 O.2            1 S1                 0.0000
      9 ****         2.3296   1.1644  -0.9120 C.3            1 S1                 0.0000
     10 ****         1.1232   1.3621  -1.7372 N.am           1 S1                 0.0000
     11 ****         0.9946   0.5816  -2.8997 C.2            1 S1                 0.0000
     12 ****        -0.0806   0.6777  -3.7047 C.2            1 S1                 0.0000
     13 ****        -1.1305   1.6225  -3.3444 C.2            1 S1                 0.0000
     14 ****        -2.1207   1.7215  -4.0663 O.2            1 S1                 0.0000
     15 ****        -0.9594   2.3582  -2.2071 N.pl3          1 S1                -1.0000
     16 ****         0.1391   2.2495  -1.3974 C.2            1 S1                 0.0000
     17 ****         0.2685   2.9150  -0.3697 O.2            1 S1                 0.0000
     18 ****        -3.3952   1.1190   2.4852 H              1 S1                 0.0000
     19 ****        -3.2947  -0.5351   3.0836 H              1 S1                 0.0000
     20 ****        -3.5638  -0.2311   1.3669 H              1 S1                 0.0000
     21 ****        -1.2944   0.8278   1.2067 H              1 S1                 0.0000
     22 ****        -1.0176   0.5204   2.9034 H              1 S1                 0.0000
     23 ****        -1.2383  -1.9551   2.4797 H              1 S1                 0.0000
     24 ****        -1.4435  -1.6384   0.7772 H              1 S1                 0.0000
     25 ****         1.0241  -0.9438   2.4274 H              1 S1                 0.0000
     26 ****         0.8094  -3.3958   2.0507 H              1 S1                 0.0000
     27 ****         2.1591  -2.7504   1.1284 H              1 S1                 0.0000
     28 ****         0.6431  -3.1339   0.3168 H              1 S1                 0.0000
     29 ****         0.2544  -0.2123  -0.2830 H              1 S1                 0.0000
     30 ****         2.6879   2.1238  -0.5350 H              1 S1                 0.0000
     31 ****         3.1452   0.7814  -1.5269 H              1 S1                 0.0000
     32 ****         1.8125  -0.0975  -3.0907 H              1 S1                 0.0000
     33 ****        -0.1655   0.0690  -4.5928 H              1 S1                 0.0000
     34 ****         2.9680  -0.5711   1.8480 LP             1 S1                 0.0000
     35 ****         3.9395   0.5292   0.9286 LP             1 S1                 0.0000
     36 ****        -2.1983   1.1579  -4.8887 LP             1 S1                 0.0000
     37 ****        -2.8486   2.3656  -3.8311 LP             1 S1                 0.0000
     38 ****        -1.6735   3.0102  -1.9524 LP             1 S1                 0.0000
     39 ****         1.0823   2.8017   0.2001 LP             1 S1                 0.0000
     40 ****        -0.4403   3.5688  -0.1049 LP             1 S1                 0.0000
@<TRIPOS>BOND
    1    1    2 1     
    2    1   18 1     
    3    1   19 1     
    4    1   20 1     
    5    2    3 1     
    6    2   21 1     
    7    2   22 1     
    8    3    4 1     
    9    3   23 1     
   10    3   24 1     
   11    4    5 1     
   12    4    6 1     
   13    4   25 1     
   14    5   26 1     
   15    5   27 1     
   16    5   28 1     
   17    6    7 am    
   18    6   29 1     
   19    7    8 2     
   20    7    9 1     
   21    9   10 1     
   22    9   30 1     
   23    9   31 1     
   24   10   16 am    
   25   10   11 1     
   26   11   12 2     
   27   11   32 1     
   28   12   13 1     
   29   12   33 1     
   30   13   14 2     
   31   13   15 1     
   32   15   16 1     
   33   16   17 2     
   34    8   34 1     
   35    8   35 1     
   36   14   36 1     
   37   14   37 1     
   38   15   38 1     
   39   17   39 1     
   40   17   40 1     
@<TRIPOS>SUBSTRUCTURE
      1 S1             1
@<TRIPOS>SET
LONE_PAIRS      STATIC     ATOMS    <user>   **** ""
7 34 35 36 37 38 39 40
DONOR_HYDROGENS      STATIC     ATOMS    <user>   **** ""
1 29
ATOM$BLUE        STATIC     ATOMS    COLORGROUP SYSTEM
7 34 35 36 37 38 39 40
ATOM$RED        STATIC     ATOMS    COLORGROUP SYSTEM
1 29
