#       Name:                AV-unprocessed.smi:2445
#       Creating user name   scv26
#       Creation time:       Fri Mar 27 13:26:45 2020


#       File generated by GOLD software.
#

@<TRIPOS>MOLECULE
AV-unprocessed.smi:2445
    45    46     1
SMALL
NO_CHARGES


@<TRIPOS>ATOM
      1 ****        -3.5086   0.8235  -3.9360 C.3            1 S1                 0.0000
      2 ****        -3.3572   0.9805  -2.4611 C.2            1 S1                 0.0000
      3 ****        -3.9975   0.2773  -1.4711 C.2            1 S1                 0.0000
      4 ****        -3.6358   0.6644  -0.1789 N.2            1 S1                 0.0000
      5 ****        -2.7320   1.6478  -0.1730 C.2            1 S1                 0.0000
      6 ****        -2.1762   2.2511   1.0824 C.3            1 S1                 0.0000
      7 ****        -2.6534   3.6976   1.2736 C.3            1 S1                 0.0000
      8 ****        -0.6429   2.1259   1.1770 C.3            1 S1                 0.0000
      9 ****        -0.2021   0.7489   0.9831 N.am           1 S1                 0.0000
     10 ****         1.0458   0.3890   0.6584 C.2            1 S1                 0.0000
     11 ****         1.9757   1.1820   0.5102 O.2            1 S1                 0.0000
     12 ****         1.1565  -0.9376   0.5102 N.am           1 S1                 0.0000
     13 ****         2.3832  -1.6401   0.1466 C.3            1 S1                 0.0000
     14 ****         2.0887  -2.9399  -0.5729 C.3            1 S1                 0.0000
     15 ****         3.3631  -3.7345  -0.3156 C.3            1 S1                 0.0000
     16 ****         3.8080  -3.3372   0.9762 O.3            1 S1                 0.0000
     17 ****         3.1610  -2.1314   1.3764 C.3            1 S1                 0.0000
     18 ****         4.1957  -1.1325   1.9088 C.3            1 S1                 0.0000
     19 ****        -2.2698   2.1682  -1.7918 S.3            1 S1                 0.0000
     20 ****        -4.1879   0.0054  -4.1767 H              1 S1                 0.0000
     21 ****        -2.5470   0.6106  -4.4034 H              1 S1                 0.0000
     22 ****        -3.9074   1.7343  -4.3827 H              1 S1                 0.0000
     23 ****        -4.7236  -0.5126  -1.5956 H              1 S1                 0.0000
     24 ****        -2.5877   1.6769   1.9143 H              1 S1                 0.0000
     25 ****        -3.7424   3.7531   1.2838 H              1 S1                 0.0000
     26 ****        -2.2947   4.3434   0.4714 H              1 S1                 0.0000
     27 ****        -2.2930   4.1085   2.2169 H              1 S1                 0.0000
     28 ****        -0.1798   2.7652   0.4230 H              1 S1                 0.0000
     29 ****        -0.2926   2.4785   2.1480 H              1 S1                 0.0000
     30 ****        -0.8997   0.0259   1.0840 H              1 S1                 0.0000
     31 ****         0.3335  -1.5040   0.6556 H              1 S1                 0.0000
     32 ****         3.0221  -1.0243  -0.4900 H              1 S1                 0.0000
     33 ****         1.2386  -3.4501  -0.1167 H              1 S1                 0.0000
     34 ****         1.8781  -2.8054  -1.6345 H              1 S1                 0.0000
     35 ****         3.2048  -4.8116  -0.3713 H              1 S1                 0.0000
     36 ****         4.1298  -3.4663  -1.0436 H              1 S1                 0.0000
     37 ****         2.4653  -2.3972   2.1739 H              1 S1                 0.0000
     38 ****         3.7165  -0.2168   2.2548 H              1 S1                 0.0000
     39 ****         4.9178  -0.8629   1.1379 H              1 S1                 0.0000
     40 ****         4.7471  -1.5552   2.7488 H              1 S1                 0.0000
     41 ****        -4.0119   0.2510   0.6503 LP             1 S1                 0.0000
     42 ****         1.8212   2.1624   0.6331 LP             1 S1                 0.0000
     43 ****         2.8855   0.8459   0.2669 LP             1 S1                 0.0000
     44 ****         4.7966  -3.1884   0.9527 LP             1 S1                 0.0000
     45 ****         3.5951  -4.0593   1.6344 LP             1 S1                 0.0000
@<TRIPOS>BOND
    1    1    2 1     
    2    1   20 1     
    3    1   21 1     
    4    1   22 1     
    5    2   19 1     
    6    2    3 2     
    7    3    4 1     
    8    3   23 1     
    9    4    5 2     
   10    5    6 1     
   11    5   19 1     
   12    6    7 1     
   13    6    8 1     
   14    6   24 1     
   15    7   25 1     
   16    7   26 1     
   17    7   27 1     
   18    8    9 1     
   19    8   28 1     
   20    8   29 1     
   21    9   10 am    
   22    9   30 1     
   23   10   11 2     
   24   10   12 am    
   25   12   13 1     
   26   12   31 1     
   27   13   17 1     
   28   13   14 1     
   29   13   32 1     
   30   14   15 1     
   31   14   33 1     
   32   14   34 1     
   33   15   16 1     
   34   15   35 1     
   35   15   36 1     
   36   16   17 1     
   37   17   18 1     
   38   17   37 1     
   39   18   38 1     
   40   18   39 1     
   41   18   40 1     
   42    4   41 1     
   43   11   42 1     
   44   11   43 1     
   45   16   44 1     
   46   16   45 1     
@<TRIPOS>SUBSTRUCTURE
      1 S1             1
@<TRIPOS>SET
LONE_PAIRS      STATIC     ATOMS    <user>   **** ""
5 41 42 43 44 45
DONOR_HYDROGENS      STATIC     ATOMS    <user>   **** ""
2 30 31
ATOM$BLUE        STATIC     ATOMS    COLORGROUP SYSTEM
5 41 42 43 44 45
ATOM$RED        STATIC     ATOMS    COLORGROUP SYSTEM
2 30 31
