#       Name:                AV-unprocessed.smi:955
#       Creating user name   scv26
#       Creation time:       Fri Mar 27 02:16:53 2020


#       File generated by GOLD software.
#

@<TRIPOS>MOLECULE
AV-unprocessed.smi:955
    34    34     1
SMALL
NO_CHARGES


@<TRIPOS>ATOM
      1 ****        -2.6790  -0.0173   1.3031 C.3            1 S1                 0.0000
      2 ****        -2.1055   0.4974  -0.0274 C.3            1 S1                 0.0000
      3 ****        -0.6494   0.4009   0.0458 N.am           1 S1                 0.0000
      4 ****         0.1823   0.3255  -1.0067 C.2            1 S1                 0.0000
      5 ****        -0.2146   0.3250  -2.1729 O.2            1 S1                 0.0000
      6 ****         1.6862   0.2563  -0.6835 C.3            1 S1                 0.0000
      7 ****         2.5780   0.2658  -1.9421 C.3            1 S1                 0.0000
      8 ****         1.9829  -0.8816   0.1812 N.pl3          1 S1                 0.0000
      9 ****         2.2422  -0.8722   1.5370 C.2            1 S1                 0.0000
     10 ****         2.4284  -2.1667   1.9289 C.2            1 S1                 0.0000
     11 ****         2.2540  -2.9109   0.7293 C.2            1 S1                 0.0000
     12 ****         1.9815  -2.1421  -0.3122 N.2            1 S1                 0.0000
     13 ****        -2.5396   1.9626  -0.1951 C.2            1 S1                 0.0000
     14 ****        -3.5965   2.1908  -0.9779 N.am           1 S1                 0.0000
     15 ****        -1.9457   2.8726   0.3824 O.2            1 S1                 0.0000
     16 ****        -3.7688   0.0276   1.3098 H              1 S1                 0.0000
     17 ****        -2.3161   0.5607   2.1546 H              1 S1                 0.0000
     18 ****        -2.3977  -1.0578   1.4689 H              1 S1                 0.0000
     19 ****        -2.4857  -0.1097  -0.8516 H              1 S1                 0.0000
     20 ****        -0.2419   0.4047   0.9694 H              1 S1                 0.0000
     21 ****         1.9213   1.1584  -0.1165 H              1 S1                 0.0000
     22 ****         2.4101   1.1635  -2.5378 H              1 S1                 0.0000
     23 ****         2.3891  -0.5966  -2.5826 H              1 S1                 0.0000
     24 ****         3.6336   0.2499  -1.6698 H              1 S1                 0.0000
     25 ****         2.2710   0.0460   2.1053 H              1 S1                 0.0000
     26 ****         2.6517  -2.5273   2.9219 H              1 S1                 0.0000
     27 ****         2.3131  -3.9797   0.5860 H              1 S1                 0.0000
     28 ****        -3.9252   3.1350  -1.1180 H              1 S1                 0.0000
     29 ****        -4.0659   1.4161  -1.4238 H              1 S1                 0.0000
     30 ****        -1.1937   0.3824  -2.3678 LP             1 S1                 0.0000
     31 ****         0.4424   0.2671  -2.9246 LP             1 S1                 0.0000
     32 ****         1.8120  -2.4287  -1.2551 LP             1 S1                 0.0000
     33 ****        -1.1660   2.6649   0.9731 LP             1 S1                 0.0000
     34 ****        -2.2428   3.8196   0.2610 LP             1 S1                 0.0000
@<TRIPOS>BOND
    1    1    2 1     
    2    1   16 1     
    3    1   17 1     
    4    1   18 1     
    5    2    3 1     
    6    2   13 1     
    7    2   19 1     
    8    3    4 am    
    9    3   20 1     
   10    4    5 2     
   11    4    6 1     
   12    6    7 1     
   13    6    8 1     
   14    6   21 1     
   15    7   22 1     
   16    7   23 1     
   17    7   24 1     
   18    8   12 1     
   19    8    9 1     
   20    9   10 2     
   21    9   25 1     
   22   10   11 1     
   23   10   26 1     
   24   11   12 2     
   25   11   27 1     
   26   13   14 am    
   27   13   15 2     
   28   14   28 1     
   29   14   29 1     
   30    5   30 1     
   31    5   31 1     
   32   12   32 1     
   33   15   33 1     
   34   15   34 1     
@<TRIPOS>SUBSTRUCTURE
      1 S1             1
@<TRIPOS>SET
LONE_PAIRS      STATIC     ATOMS    <user>   **** ""
5 30 31 32 33 34
DONOR_HYDROGENS      STATIC     ATOMS    <user>   **** ""
3 20 28 29
ATOM$BLUE        STATIC     ATOMS    COLORGROUP SYSTEM
5 30 31 32 33 34
ATOM$RED        STATIC     ATOMS    COLORGROUP SYSTEM
3 20 28 29
