AV-unprocessed.smi:2675|AV-procd|sdf|10362|dock9
  -GOLD-   2272014393D 1   1.00000     0.00000
 Structure written by MMmdl.
 36 37  0  0  0  0  0  0  0  0  1 V2000
  152.8203  143.4070  162.6001 C   0  0  0  0  0  0  0  0  0  0  0  0
  152.6323  143.0450  161.1596 C   0  0  0  0  0  0  0  0  0  0  0  0
  153.2743  141.9424  160.6008 N   0  0  0  0  0  0  0  0  0  0  0  0
  152.8734  141.9498  159.3375 C   0  0  0  0  0  0  0  0  0  0  0  0
  152.0406  142.9520  159.0228 N   0  0  0  0  0  0  0  0  0  0  0  0
  151.4659  143.2213  157.7137 C   0  0  0  0  0  0  0  0  0  0  0  0
  150.7717  141.9791  157.1530 C   0  0  0  0  0  0  0  0  0  0  0  0
  150.9384  140.8890  157.6976 O   0  0  0  0  0  0  0  0  0  0  0  0
  149.9797  142.1750  156.0839 N   0  0  0  0  0  0  0  0  0  0  0  0
  149.1010  141.2160  155.4040 C   0  0  1  0  0  0  0  0  0  0  0  0
  149.9860  140.0112  155.0441 C   0  0  0  0  0  0  0  0  0  0  0  0
  148.0212  140.7330  156.2874 C   0  0  0  0  0  0  0  0  0  0  0  0
  147.1769  140.3540  156.9826 N   0  0  0  0  0  0  0  0  0  0  0  0
  148.4521  141.7420  154.1213 C   0  0  0  0  0  0  0  0  0  0  0  0
  147.0257  142.2470  154.0855 C   0  0  0  0  0  0  0  0  0  0  0  0
  147.4017  140.9900  153.3331 C   0  0  0  0  0  0  0  0  0  0  0  0
  151.8675  143.6760  160.2014 C   0  0  0  0  0  0  0  0  0  0  0  0
  151.0042  144.8923  160.3035 C   0  0  0  0  0  0  0  0  0  0  0  0
  151.8612  143.5426  163.1000 H   0  0  0  0  0  0  0  0  0  0  0  0
  153.3804  144.3369  162.6994 H   0  0  0  0  0  0  0  0  0  0  0  0
  153.3656  142.6333  163.1413 H   0  0  0  0  0  0  0  0  0  0  0  0
  153.2028  141.2129  158.6196 H   0  0  0  0  0  0  0  0  0  0  0  0
  150.7481  144.0385  157.7958 H   0  0  0  0  0  0  0  0  0  0  0  0
  152.2555  143.5537  157.0387 H   0  0  0  0  0  0  0  0  0  0  0  0
  149.9372  143.1192  155.7290 H   0  0  0  0  0  0  0  0  0  0  0  0
  149.4074  139.2260  154.5559 H   0  0  0  0  0  0  0  0  0  0  0  0
  150.4421  139.5736  155.9331 H   0  0  0  0  0  0  0  0  0  0  0  0
  150.7908  140.2966  154.3651 H   0  0  0  0  0  0  0  0  0  0  0  0
  149.1545  142.2989  153.5032 H   0  0  0  0  0  0  0  0  0  0  0  0
  146.4093  142.1291  154.9746 H   0  0  0  0  0  0  0  0  0  0  0  0
  146.8263  143.1422  153.5002 H   0  0  0  0  0  0  0  0  0  0  0  0
  147.4517  141.0537  152.2481 H   0  0  0  0  0  0  0  0  0  0  0  0
  147.0216  140.0485  153.7190 H   0  0  0  0  0  0  0  0  0  0  0  0
  150.9884  145.2796  161.3223 H   0  0  0  0  0  0  0  0  0  0  0  0
  149.9771  144.6651  160.0173 H   0  0  0  0  0  0  0  0  0  0  0  0
  151.3702  145.6856  159.6519 H   0  0  0  0  0  0  0  0  0  0  0  0
  1  2  1  0  0  0  0
  1 19  1  0  0  0  0
  1 20  1  0  0  0  0
  1 21  1  0  0  0  0
  2 17  2  0  0  0  0
  2  3  1  0  0  0  0
  3  4  2  0  0  0  0
  4  5  1  0  0  0  0
  4 22  1  0  0  0  0
  5  6  1  0  0  0  0
  5 17  1  0  0  0  0
  6  7  1  0  0  0  0
  6 23  1  0  0  0  0
  6 24  1  0  0  0  0
  7  8  2  0  0  0  0
  7  9  1  0  0  0  0
  9 10  1  0  0  0  0
  9 25  1  0  0  0  0
 10 11  1  0  0  0  0
 10 12  1  0  0  0  0
 10 14  1  0  0  0  0
 11 26  1  0  0  0  0
 11 27  1  0  0  0  0
 11 28  1  0  0  0  0
 12 13  3  0  0  0  0
 14 16  1  0  0  0  0
 14 15  1  0  0  0  0
 14 29  1  0  0  0  0
 15 16  1  0  0  0  0
 15 30  1  0  0  0  0
 15 31  1  0  0  0  0
 16 32  1  0  0  0  0
 16 33  1  0  0  0  0
 17 18  1  0  0  0  0
 18 34  1  0  0  0  0
 18 35  1  0  0  0  0
 18 36  1  0  0  0  0
M  END
> <s_m_source_file>
AV-unprocessed.smi

> <i_m_source_file_index>
2675

> <i_lp_mmshare_version>
43012

> <i_f3d_flags>
0

> <s_epik_input>
W0NIM11jMW5bY0hdbihjMVtDSDNdKVtDSDJdQyg9TylbTkhdW0NAQF0oW0NIM10pKEMjTilbQ0hdMltDSDJdW0NIMl0y

> <s_epik_cmdline>
J2VwaWtfcHl0aG9uJywgJy1waCcsICc3LjAnLCAnLXRuJywgJzgnLCAnLW1hJywgJzIwMCcsICctbWV0YWxfYmluZGluZycsICctaW1hZScsICc8aW5maWxlLm1hZT4nLCAnLW9tYWUnLCAnPG91dGZpbGUubWFlPic=

> <r_lp_tautomer_probability>
1

> <r_epik_Ionization_Penalty>
0.876174

> <r_epik_Ionization_Penalty_Charging>
0.876172

> <r_epik_Ionization_Penalty_Neutral>
2.64295e-06

> <r_epik_State_Penalty>
0.913958

> <r_epik_Charging_Adjusted_Penalty>
1.79013

> <i_epik_Tot_Q>
0

> <i_epik_Tot_abs_Q>
0

> <r_epik_Metal_State_Penalty>
0.359336

> <b_epik_Metal_Only>
0

> <s_lp_Force_Field>
OPLS_2005

> <r_lp_Energy>
14.5701

> <b_lp_Chiralities_Consistent>
1

> <s_lp_Variant>
AV-unprocessed.smi:2675-3

> <Gold.Version>
5.8.1

> <Gold.Id.Protein>
6NUR|6NUR_protein|mol2

> <Gold.PLP.Fitness>
44.6417

> <Gold.PLP.PLP>
-42.3075

> <Gold.PLP.part.hbond>
-1.0000

> <Gold.PLP.part.metal>
0.0000

> <Gold.PLP.part.buried>
-6.2361

> <Gold.PLP.part.nonpolar>
-35.6389

> <Gold.PLP.part.repulsive>
0.1111

> <Gold.PLP.ligand.clash>
0.0258

> <Gold.PLP.ligand.torsion>
1.0768

> <Gold.PLP.Chemscore.Hbond>
1.0000

> <Gold.PLP.Chemscore.CHOScore>
0.0000

> <Gold.PLP.Chemscore.Metal>
0.0000

> <Gold.Chemscore.Hbonds>
donor molecule, donor type, donor heavy atom, donor atom, acceptor molecule, acceptor atom, score
      L1  H     9    25       P1  8028  0.91

> <Gold.PLP.Chemscore.Internal.Correction>
1.5135

> <Gold.Rescore>
     Score         DG    S(hbond)    S(metal)    S(lipo)     H(rot)  DE(clash)    DE(int)     intcor
     11.02     -14.90       0.97        0.00      90.86       1.74       0.03       3.85       ----

> <Gold.Chemscore.Fitness>
11.0203

> <Gold.Chemscore.DG>
-14.8973

> <Gold.Chemscore.ZeroCoef>
-5.4800

> <Gold.Chemscore.Hbond>
0.9726

> <Gold.Chemscore.Metal>
0.0000

> <Gold.Chemscore.Lipo>
90.8584

> <Gold.Chemscore.Internal_Hbond>
0.0000

> <Gold.Chemscore.DEClash>
0.0288

> <Gold.Chemscore.DEInternal>
3.8481

> <Gold.Chemscore.Rot>
1.7429

> <Gold.Chemscore.Internal.Correction>
   9.000000E+99

> <Gold.Chemscore.Hbonds>
donor molecule, donor type, donor heavy atom, donor atom, acceptor molecule, acceptor atom, score
      L1  H     9    25       P1  8028  0.88

> <Gold.Chemscore.Hbond.Weighted>
-3.2485

> <Gold.Chemscore.Metal.Weighted>
-0.0000

> <Gold.Chemscore.Lipo.Weighted>
-10.6304

> <Gold.Chemscore.Internal_Hbond.Weighted>
0.0000

> <Gold.Chemscore.DEClash.Weighted>
0.0288

> <Gold.Chemscore.DEInternal.Weighted>
3.8481

> <Gold.Chemscore.Rot.Weighted>
4.4617

> <Gold.Chemscore.Internal.Correction.Weighted>
   9.000000E+99

> <Gold.Protein.RotatedTorsions>
[ 6907 6896 6895 6894 ] final   11.39 input  -60.11 | X-H torsion
[ 7974 7965 7964 7962 ] final  -95.35 input  175.53 | X-H torsion
[ 8008 7997 7996 7995 ] final  125.39 input   59.86 | X-H torsion
[ 10167 10162 10161 10158 ] final  142.90 input  -65.29 | X-H torsion
[ 10718 10713 10712 10709 ] final  155.21 input   66.30 | X-H torsion
[ 10763 10752 10751 10750 ] final   84.73 input  -60.55 | X-H torsion
[ 11005 11000 10999 10996 ] final  -37.12 input  -57.11 | X-H torsion

> <Gold.Protein.ActiveResidues>
 VAL166  LYS551  ARG553  GLY616  TRP617  ASP618  TYR619  PRO620  LYS621  CYS622 
 ASP623  PHE694  ASN695  SER759  ASP760  ASP761  ALA762  ILE779  LEU786  VAL792 
 PHE793  MET794  SER795  GLU796  ALA797  LYS798  CYS799  TRP800  GLU811  SER814 

> <Gold.Protein.RotatedAtoms>
  151.7536  135.0827  160.0334 H   0  0  0  0  0  0  0  0  0  0  0  0  # atno 6907 bound_to 6896
  152.3400  133.6052  159.5878 H   0  0  0  0  0  0  0  0  0  0  0  0  # atno 6908 bound_to 6896
  150.7474  133.9652  159.3570 H   0  0  0  0  0  0  0  0  0  0  0  0  # atno 6909 bound_to 6896
  145.3612  140.9492  143.2499 H   0  0  0  0  0  0  0  0  0  0  0  0  # atno 7974 bound_to 7965
  156.2832  140.2717  156.1942 H   0  0  0  0  0  0  0  0  0  0  0  0  # atno 8008 bound_to 7997
  155.0427  140.0386  157.2533 H   0  0  0  0  0  0  0  0  0  0  0  0  # atno 8009 bound_to 7997
  154.7261  140.2697  155.6503 H   0  0  0  0  0  0  0  0  0  0  0  0  # atno 8010 bound_to 7997
  139.4982  144.6076  151.6343 H   0  0  0  0  0  0  0  0  0  0  0  0  # atno 10167 bound_to 10162
  157.2214  131.0719  151.1910 H   0  0  0  0  0  0  0  0  0  0  0  0  # atno 10718 bound_to 10713
  153.1409  135.4643  154.9494 H   0  0  0  0  0  0  0  0  0  0  0  0  # atno 10763 bound_to 10752
  154.7746  135.3169  154.8121 H   0  0  0  0  0  0  0  0  0  0  0  0  # atno 10764 bound_to 10752
  153.8644  135.6909  153.4834 H   0  0  0  0  0  0  0  0  0  0  0  0  # atno 10765 bound_to 10752
  140.9928  133.6996  156.1880 H   0  0  0  0  0  0  0  0  0  0  0  0  # atno 11005 bound_to 11000
  144.8645  139.5128  143.6797 LP  0  0  0  0  0  0  0  0  0  0  0  0  # atno 17320 bound_to 7965
  146.2926  139.7184  142.9149 LP  0  0  0  0  0  0  0  0  0  0  0  0  # atno 17321 bound_to 7965
  140.5742  144.0057  150.6233 LP  0  0  0  0  0  0  0  0  0  0  0  0  # atno 17342 bound_to 10162
  140.3184  143.3153  152.0808 LP  0  0  0  0  0  0  0  0  0  0  0  0  # atno 17343 bound_to 10162
  157.3572  130.7112  149.6478 LP  0  0  0  0  0  0  0  0  0  0  0  0  # atno 17370 bound_to 10713
  155.9682  130.4236  150.4568 LP  0  0  0  0  0  0  0  0  0  0  0  0  # atno 17371 bound_to 10713
  140.7014  134.4560  157.5586 LP  0  0  0  0  0  0  0  0  0  0  0  0  # atno 17394 bound_to 11000
  139.9000  134.8578  156.1937 LP  0  0  0  0  0  0  0  0  0  0  0  0  # atno 17395 bound_to 11000

$$$$
