#       Name:                AV-unprocessed.smi:1000
#       Creating user name   scv26
#       Creation time:       Fri Mar 27 02:25:28 2020


#       File generated by GOLD software.
#

@<TRIPOS>MOLECULE
AV-unprocessed.smi:1000
    44    45     1
SMALL
NO_CHARGES


@<TRIPOS>ATOM
      1 ****        -4.3090   0.8772   3.8515 C.3            1 S1                 0.0000
      2 ****        -2.7487   0.7802   2.8539 S.o            1 S1                 0.0000
      3 ****        -2.0706   2.1488   2.9406 O.2            1 S1                 0.0000
      4 ****        -3.5984   0.7995   1.2362 C.2            1 S1                 0.0000
      5 ****        -4.1870   1.8812   0.7176 N.2            1 S1                 0.0000
      6 ****        -4.6971   1.4616  -0.4964 N.2            1 S1                 0.0000
      7 ****        -4.3611   0.1727  -0.5782 C.2            1 S1                 0.0000
      8 ****        -3.6713  -0.3051   0.4697 N.pl3          1 S1                 0.0000
      9 ****        -3.1577  -1.6479   0.6865 C.3            1 S1                 0.0000
     10 ****        -1.6377  -1.7016   0.5208 C.2            1 S1                 0.0000
     11 ****        -0.9321  -2.0582   1.4638 O.2            1 S1                 0.0000
     12 ****        -1.1465  -1.3334  -0.6728 N.am           1 S1                 0.0000
     13 ****         0.2704  -1.2370  -0.9996 C.3            1 S1                 0.0000
     14 ****         0.8651   0.0919  -0.5013 C.3            1 S1                 0.0000
     15 ****         2.3509   0.2190  -0.7926 C.2            1 S1                 0.0000
     16 ****         3.2695   0.2545   0.1924 C.2            1 S1                 0.0000
     17 ****         4.7662   0.3657  -0.0396 C.3            1 S1                 0.0000
     18 ****         5.1553   0.0909  -1.5019 C.3            1 S1                 0.0000
     19 ****         4.1905   0.7849  -2.4716 C.3            1 S1                 0.0000
     20 ****         2.7434   0.3031  -2.2634 C.3            1 S1                 0.0000
     21 ****        -5.1349   0.3846   3.3379 H              1 S1                 0.0000
     22 ****        -4.5798   1.9183   4.0269 H              1 S1                 0.0000
     23 ****        -4.1656   0.3896   4.8155 H              1 S1                 0.0000
     24 ****        -4.6234  -0.4384  -1.4294 H              1 S1                 0.0000
     25 ****        -3.4431  -1.9769   1.6866 H              1 S1                 0.0000
     26 ****        -3.6269  -2.3302  -0.0235 H              1 S1                 0.0000
     27 ****        -1.7998  -1.0596  -1.3925 H              1 S1                 0.0000
     28 ****         0.8141  -2.0835  -0.5764 H              1 S1                 0.0000
     29 ****         0.3679  -1.3139  -2.0825 H              1 S1                 0.0000
     30 ****         0.3454   0.9329  -0.9622 H              1 S1                 0.0000
     31 ****         0.7028   0.1862   0.5736 H              1 S1                 0.0000
     32 ****         2.9526   0.2110   1.2242 H              1 S1                 0.0000
     33 ****         5.0776   1.3693   0.2511 H              1 S1                 0.0000
     34 ****         5.2849  -0.3310   0.6191 H              1 S1                 0.0000
     35 ****         6.1794   0.4185  -1.6831 H              1 S1                 0.0000
     36 ****         5.1369  -0.9836  -1.6885 H              1 S1                 0.0000
     37 ****         4.2409   1.8634  -2.3159 H              1 S1                 0.0000
     38 ****         4.4964   0.6079  -3.5032 H              1 S1                 0.0000
     39 ****         2.6199  -0.6859  -2.7054 H              1 S1                 0.0000
     40 ****         2.0589   0.9714  -2.7871 H              1 S1                 0.0000
     41 ****        -4.2456   2.7948   1.1200 LP             1 S1                 0.0000
     42 ****        -5.2054   2.0039  -1.1654 LP             1 S1                 0.0000
     43 ****        -1.3525  -2.3117   2.3350 LP             1 S1                 0.0000
     44 ****         0.0618  -2.0944   1.3589 LP             1 S1                 0.0000
@<TRIPOS>BOND
    1    1    2 1     
    2    1   21 1     
    3    1   22 1     
    4    1   23 1     
    5    2    3 2     
    6    2    4 1     
    7    4    8 1     
    8    4    5 2     
    9    5    6 1     
   10    6    7 2     
   11    7    8 1     
   12    7   24 1     
   13    8    9 1     
   14    9   10 1     
   15    9   25 1     
   16    9   26 1     
   17   10   11 2     
   18   10   12 am    
   19   12   13 1     
   20   12   27 1     
   21   13   14 1     
   22   13   28 1     
   23   13   29 1     
   24   14   15 1     
   25   14   30 1     
   26   14   31 1     
   27   15   20 1     
   28   15   16 2     
   29   16   17 1     
   30   16   32 1     
   31   17   18 1     
   32   17   33 1     
   33   17   34 1     
   34   18   19 1     
   35   18   35 1     
   36   18   36 1     
   37   19   20 1     
   38   19   37 1     
   39   19   38 1     
   40   20   39 1     
   41   20   40 1     
   42    5   41 1     
   43    6   42 1     
   44   11   43 1     
   45   11   44 1     
@<TRIPOS>SUBSTRUCTURE
      1 S1             1
@<TRIPOS>SET
LONE_PAIRS      STATIC     ATOMS    <user>   **** ""
5 3 41 42 43 44
DONOR_HYDROGENS      STATIC     ATOMS    <user>   **** ""
1 27
ATOM$BLUE        STATIC     ATOMS    COLORGROUP SYSTEM
5 3 41 42 43 44
ATOM$RED        STATIC     ATOMS    COLORGROUP SYSTEM
1 27
