AV-unprocessed.smi:3122|AV-procd|sdf|11899|dock1
  -GOLD-   2272017283D 1   1.00000     0.00000
 Structure written by MMmdl.
 29 30  0  0  0  0  0  0  0  0  1 V2000
  152.7822  143.0341  159.0600 C   0  0  0  0  0  0  0  0  0  0  0  0
  152.6261  141.5355  159.3560 C   0  0  0  0  0  0  0  0  0  0  0  0
  153.7904  140.9808  160.1891 C   0  0  0  0  0  0  0  0  0  0  0  0
  152.4151  140.7399  158.1064 C   0  0  0  0  0  0  0  0  0  0  0  0
  153.1136  139.6803  157.6882 N   0  0  0  0  0  0  0  0  0  0  0  0
  152.5074  139.2659  156.5236 N   0  0  0  0  0  0  0  0  0  0  0  0
  151.4928  140.1100  156.3204 C   0  0  0  0  0  0  0  0  0  0  0  0
  150.4824  140.0586  155.2203 C   0  0  1  0  0  0  0  0  0  0  0  0
  150.6238  138.7924  154.3533 C   0  0  0  0  0  0  0  0  0  0  0  0
  149.5603  138.7432  153.3510 N   0  0  0  0  0  0  0  0  0  0  0  0
  148.2411  138.8417  153.9740 C   0  0  0  0  0  0  0  0  0  0  0  0
  148.1574  140.1015  154.8547 C   0  0  0  0  0  0  0  0  0  0  0  0
  149.1941  140.0721  155.8300 O   0  0  0  0  0  0  0  0  0  0  0  0
  151.3637  141.0419  157.3013 O   0  0  0  0  0  0  0  0  0  0  0  0
  151.9132  143.4204  158.5264 H   0  0  0  0  0  0  0  0  0  0  0  0
  153.6631  143.2287  158.4473 H   0  0  0  0  0  0  0  0  0  0  0  0
  152.8852  143.6078  159.9814 H   0  0  0  0  0  0  0  0  0  0  0  0
  151.7232  141.4248  159.9582 H   0  0  0  0  0  0  0  0  0  0  0  0
  153.6238  139.9349  160.4485 H   0  0  0  0  0  0  0  0  0  0  0  0
  153.9082  141.5369  161.1194 H   0  0  0  0  0  0  0  0  0  0  0  0
  154.7326  141.0423  159.6434 H   0  0  0  0  0  0  0  0  0  0  0  0
  150.6043  140.9526  154.6056 H   0  0  0  0  0  0  0  0  0  0  0  0
  151.5986  138.7767  153.8652 H   0  0  0  0  0  0  0  0  0  0  0  0
  150.5753  137.9051  154.9860 H   0  0  0  0  0  0  0  0  0  0  0  0
  149.6256  137.8759  152.8277 H   0  0  0  0  0  0  0  0  0  0  0  0
  147.4658  138.8675  153.2080 H   0  0  0  0  0  0  0  0  0  0  0  0
  148.0510  137.9569  154.5828 H   0  0  0  0  0  0  0  0  0  0  0  0
  148.2323  141.0070  154.2505 H   0  0  0  0  0  0  0  0  0  0  0  0
  147.1949  140.1391  155.3650 H   0  0  0  0  0  0  0  0  0  0  0  0
  1  2  1  0  0  0  0
  1 15  1  0  0  0  0
  1 16  1  0  0  0  0
  1 17  1  0  0  0  0
  2  3  1  0  0  0  0
  2  4  1  0  0  0  0
  2 18  1  0  0  0  0
  3 19  1  0  0  0  0
  3 20  1  0  0  0  0
  3 21  1  0  0  0  0
  4 14  1  0  0  0  0
  4  5  2  0  0  0  0
  5  6  1  0  0  0  0
  6  7  2  0  0  0  0
  7  8  1  0  0  0  0
  7 14  1  0  0  0  0
  8 13  1  0  0  0  0
  8  9  1  0  0  0  0
  8 22  1  0  0  0  0
  9 10  1  0  0  0  0
  9 23  1  0  0  0  0
  9 24  1  0  0  0  0
 10 11  1  0  0  0  0
 10 25  1  0  0  0  0
 11 12  1  0  0  0  0
 11 26  1  0  0  0  0
 11 27  1  0  0  0  0
 12 13  1  0  0  0  0
 12 28  1  0  0  0  0
 12 29  1  0  0  0  0
M  END
> <s_m_source_file>
AV-unprocessed.smi

> <i_m_source_file_index>
3122

> <i_lp_mmshare_version>
43012

> <i_f3d_flags>
0

> <s_epik_input>
W0NIM11bQ0hdKFtDSDNdKWMxbm5jKG8xKVtDQEBIXTJbQ0gyXVtOSF1bQ0gyXVtDSDJdTzI=

> <s_epik_cmdline>
J2VwaWtfcHl0aG9uJywgJy1waCcsICc3LjAnLCAnLXRuJywgJzgnLCAnLW1hJywgJzIwMCcsICctbWV0YWxfYmluZGluZycsICctaW1hZScsICc8aW5maWxlLm1hZT4nLCAnLW9tYWUnLCAnPG91dGZpbGUubWFlPic=

> <r_lp_tautomer_probability>
1

> <r_epik_Ionization_Penalty>
1.64488

> <r_epik_Ionization_Penalty_Charging>
0

> <r_epik_Ionization_Penalty_Neutral>
1.64488

> <r_epik_State_Penalty>
1.74649

> <r_epik_Charging_Adjusted_Penalty>
1.74649

> <i_epik_Tot_Q>
0

> <i_epik_Tot_abs_Q>
0

> <r_epik_Metal_State_Penalty>
1.74649

> <b_epik_Metal_Only>
0

> <s_lp_Force_Field>
OPLS_2005

> <r_lp_Energy>
11.3744

> <b_lp_Chiralities_Consistent>
1

> <s_lp_Variant>
AV-unprocessed.smi:3122-4

> <Gold.Version>
5.8.1

> <Gold.Id.Protein>
6NUR|6NUR_protein|mol2

> <Gold.PLP.Fitness>
31.5028

> <Gold.PLP.PLP>
-25.7937

> <Gold.PLP.part.hbond>
-4.0000

> <Gold.PLP.part.metal>
0.0000

> <Gold.PLP.part.buried>
-2.8677

> <Gold.PLP.part.nonpolar>
-19.5009

> <Gold.PLP.part.repulsive>
0.0377

> <Gold.PLP.ligand.clash>
0.0000

> <Gold.PLP.ligand.torsion>
0.1768

> <Gold.PLP.Chemscore.Hbond>
1.9920

> <Gold.PLP.Chemscore.CHOScore>
0.0000

> <Gold.PLP.Chemscore.Metal>
0.0000

> <Gold.Chemscore.Hbonds>
donor molecule, donor type, donor heavy atom, donor atom, acceptor molecule, acceptor atom, score
      L1  H    10    25       P1  7948  1.00
      P1  H  7997  8008       L1     5  0.96

> <Gold.PLP.Chemscore.Internal.Correction>
0.0868

> <Gold.Rescore>
     Score         DG    S(hbond)    S(metal)    S(lipo)     H(rot)  DE(clash)    DE(int)     intcor
     13.77     -14.08       1.54        0.00      56.74       1.24       0.10       0.22       ----

> <Gold.Chemscore.Fitness>
13.7667

> <Gold.Chemscore.DG>
-14.0839

> <Gold.Chemscore.ZeroCoef>
-5.4800

> <Gold.Chemscore.Hbond>
1.5404

> <Gold.Chemscore.Metal>
0.0000

> <Gold.Chemscore.Lipo>
56.7423

> <Gold.Chemscore.Internal_Hbond>
0.0000

> <Gold.Chemscore.DEClash>
0.0978

> <Gold.Chemscore.DEInternal>
0.2194

> <Gold.Chemscore.Rot>
1.2422

> <Gold.Chemscore.Internal.Correction>
   9.000000E+99

> <Gold.Chemscore.Hbonds>
donor molecule, donor type, donor heavy atom, donor atom, acceptor molecule, acceptor atom, score
      L1  H    10    25       P1  7948  0.63
      P1  H  7997  8008       L1     5  0.21

> <Gold.Chemscore.Hbond.Weighted>
-5.1450

> <Gold.Chemscore.Metal.Weighted>
-0.0000

> <Gold.Chemscore.Lipo.Weighted>
-6.6388

> <Gold.Chemscore.Internal_Hbond.Weighted>
0.0000

> <Gold.Chemscore.DEClash.Weighted>
0.0978

> <Gold.Chemscore.DEInternal.Weighted>
0.2194

> <Gold.Chemscore.Rot.Weighted>
3.1799

> <Gold.Chemscore.Internal.Correction.Weighted>
   9.000000E+99

> <Gold.Protein.RotatedTorsions>
[ 6907 6896 6895 6894 ] final  -86.78 input  -60.11 | X-H torsion
[ 7974 7965 7964 7962 ] final  -24.00 input  175.53 | X-H torsion
[ 8008 7997 7996 7995 ] final  -94.59 input   59.86 | X-H torsion
[ 10167 10162 10161 10158 ] final  -32.85 input  -65.29 | X-H torsion
[ 10718 10713 10712 10709 ] final   89.87 input   66.30 | X-H torsion
[ 10763 10752 10751 10750 ] final -140.44 input  -60.55 | X-H torsion
[ 11005 11000 10999 10996 ] final -147.84 input  -57.11 | X-H torsion

> <Gold.Protein.ActiveResidues>
 VAL166  LYS551  ARG553  GLY616  TRP617  ASP618  TYR619  PRO620  LYS621  CYS622 
 ASP623  PHE694  ASN695  SER759  ASP760  ASP761  ALA762  ILE779  LEU786  VAL792 
 PHE793  MET794  SER795  GLU796  ALA797  LYS798  CYS799  TRP800  GLU811  SER814 

> <Gold.Protein.RotatedAtoms>
  150.6866  134.2998  159.4701 H   0  0  0  0  0  0  0  0  0  0  0  0  # atno 6907 bound_to 6896
  152.0895  134.9414  160.0581 H   0  0  0  0  0  0  0  0  0  0  0  0  # atno 6908 bound_to 6896
  152.0736  133.4084  159.4507 H   0  0  0  0  0  0  0  0  0  0  0  0  # atno 6909 bound_to 6896
  146.1582  140.4692  142.8582 H   0  0  0  0  0  0  0  0  0  0  0  0  # atno 7974 bound_to 7965
  154.7504  140.0488  157.0889 H   0  0  0  0  0  0  0  0  0  0  0  0  # atno 8008 bound_to 7997
  155.0064  140.3131  155.4827 H   0  0  0  0  0  0  0  0  0  0  0  0  # atno 8009 bound_to 7997
  156.2884  140.2192  156.5176 H   0  0  0  0  0  0  0  0  0  0  0  0  # atno 8010 bound_to 7997
  140.7214  143.3664  151.1862 H   0  0  0  0  0  0  0  0  0  0  0  0  # atno 10167 bound_to 10162
  157.6957  131.0349  150.3491 H   0  0  0  0  0  0  0  0  0  0  0  0  # atno 10718 bound_to 10713
  154.8578  135.3553  154.5707 H   0  0  0  0  0  0  0  0  0  0  0  0  # atno 10763 bound_to 10752
  153.6320  135.7002  153.5277 H   0  0  0  0  0  0  0  0  0  0  0  0  # atno 10764 bound_to 10752
  153.3042  135.4197  155.1238 H   0  0  0  0  0  0  0  0  0  0  0  0  # atno 10765 bound_to 10752
  140.7675  134.3227  157.5084 H   0  0  0  0  0  0  0  0  0  0  0  0  # atno 11005 bound_to 11000
  144.7991  140.6179  143.6490 LP  0  0  0  0  0  0  0  0  0  0  0  0  # atno 17320 bound_to 7965
  145.4656  139.1508  143.3842 LP  0  0  0  0  0  0  0  0  0  0  0  0  # atno 17321 bound_to 7965
  139.7226  143.9198  152.2991 LP  0  0  0  0  0  0  0  0  0  0  0  0  # atno 17342 bound_to 10162
  139.8960  144.6938  150.8717 LP  0  0  0  0  0  0  0  0  0  0  0  0  # atno 17343 bound_to 10162
  156.3941  130.3903  149.7007 LP  0  0  0  0  0  0  0  0  0  0  0  0  # atno 17370 bound_to 10713
  156.4347  130.7832  151.2852 LP  0  0  0  0  0  0  0  0  0  0  0  0  # atno 17371 bound_to 10713
  139.8761  134.9240  156.3339 LP  0  0  0  0  0  0  0  0  0  0  0  0  # atno 17394 bound_to 11000
  140.9605  133.7391  156.0395 LP  0  0  0  0  0  0  0  0  0  0  0  0  # atno 17395 bound_to 11000

$$$$
