AV-unprocessed.smi:1412|AV-procd|sdf|5746|dock2
  -GOLD-   22720 5383D 1   1.00000     0.00000
 Structure written by MMmdl.
 41 42  0  0  0  0  0  0  0  0  3 V2000
  150.7045  133.5408  156.1577 C   0  0  0  0  0  0  0  0  0  0  0  0
  149.8589  133.8575  154.9115 C   0  0  0  0  0  0  0  0  0  0  0  0
  148.4528  134.4797  155.1700 C   0  0  1  0  0  0  0  0  0  0  0  0
  147.6971  133.6220  156.2203 C   0  0  0  0  0  0  0  0  0  0  0  0
  148.5955  135.9110  155.7708 C   0  0  0  0  0  0  0  0  0  0  0  0
  149.0614  135.8851  157.1587 N   0  0  0  0  0  0  0  0  0  0  0  0
  148.3015  135.9478  158.2614 C   0  0  0  0  0  0  0  0  0  0  0  0
  147.0907  136.1578  158.1688 O   0  0  0  0  0  0  0  0  0  0  0  0
  148.9884  135.7289  159.4036 N   0  5  0  0  0  0  0  0  0  0  0  0
  148.3333  135.6655  160.5744 C   0  0  0  0  0  0  0  0  0  0  0  0
  148.2425  136.7192  161.4021 N   0  0  0  0  0  0  0  0  0  0  0  0
  147.5270  136.4436  162.5590 N   0  0  0  0  0  0  0  0  0  0  0  0
  147.0869  135.1856  162.5700 C   0  0  0  0  0  0  0  0  0  0  0  0
  147.5069  134.2234  161.1683 S   0  0  0  0  0  0  0  0  0  0  0  0
  147.6606  134.5664  153.8874 N   0  3  0  0  0  0  0  0  0  0  0  0
  147.5831  133.3093  153.0931 C   0  0  0  0  0  0  0  0  0  0  0  0
  147.0220  133.6053  151.6951 C   0  0  0  0  0  0  0  0  0  0  0  0
  145.7210  134.1617  151.8308 O   0  0  0  0  0  0  0  0  0  0  0  0
  145.7446  135.3926  152.5416 C   0  0  0  0  0  0  0  0  0  0  0  0
  146.3063  135.1818  153.9601 C   0  0  0  0  0  0  0  0  0  0  0  0
  151.6772  133.1461  155.8638 H   0  0  0  0  0  0  0  0  0  0  0  0
  150.2340  132.7888  156.7903 H   0  0  0  0  0  0  0  0  0  0  0  0
  150.8879  134.4286  156.7621 H   0  0  0  0  0  0  0  0  0  0  0  0
  150.4531  134.5274  154.2899 H   0  0  0  0  0  0  0  0  0  0  0  0
  149.7488  132.9368  154.3378 H   0  0  0  0  0  0  0  0  0  0  0  0
  148.1377  133.7179  157.2129 H   0  0  0  0  0  0  0  0  0  0  0  0
  147.7182  132.5602  155.9724 H   0  0  0  0  0  0  0  0  0  0  0  0
  146.6532  133.9234  156.3144 H   0  0  0  0  0  0  0  0  0  0  0  0
  149.3263  136.4892  155.2057 H   0  0  0  0  0  0  0  0  0  0  0  0
  147.6654  136.4729  155.6835 H   0  0  0  0  0  0  0  0  0  0  0  0
  150.0503  135.7337  157.2971 H   0  0  0  0  0  0  0  0  0  0  0  0
  146.5106  134.8225  163.4076 H   0  0  0  0  0  0  0  0  0  0  0  0
  148.5589  132.8379  152.9949 H   0  0  0  0  0  0  0  0  0  0  0  0
  146.9332  132.5881  153.5900 H   0  0  0  0  0  0  0  0  0  0  0  0
  147.6746  134.2847  151.1437 H   0  0  0  0  0  0  0  0  0  0  0  0
  146.9534  132.6853  151.1146 H   0  0  0  0  0  0  0  0  0  0  0  0
  146.3410  136.1256  151.9955 H   0  0  0  0  0  0  0  0  0  0  0  0
  144.7298  135.7872  152.5951 H   0  0  0  0  0  0  0  0  0  0  0  0
  145.6385  134.5456  154.5421 H   0  0  0  0  0  0  0  0  0  0  0  0
  146.3251  136.1575  154.4418 H   0  0  0  0  0  0  0  0  0  0  0  0
  148.1983  135.2060  153.3182 H   0  0  0  0  0  0  0  0  0  0  0  0
  1  2  1  0  0  0  0
  1 21  1  0  0  0  0
  1 22  1  0  0  0  0
  1 23  1  0  0  0  0
  2  3  1  0  0  0  0
  2 24  1  0  0  0  0
  2 25  1  0  0  0  0
  3  4  1  0  0  0  0
  3  5  1  0  0  0  0
  3 15  1  0  0  0  0
  4 26  1  0  0  0  0
  4 27  1  0  0  0  0
  4 28  1  0  0  0  0
  5  6  1  0  0  0  0
  5 29  1  0  0  0  0
  5 30  1  0  0  0  0
  6  7  1  0  0  0  0
  6 31  1  0  0  0  0
  7  8  2  0  0  0  0
  7  9  1  0  0  0  0
  9 10  1  0  0  0  0
 10 14  1  0  0  0  0
 10 11  2  0  0  0  0
 11 12  1  0  0  0  0
 12 13  2  0  0  0  0
 13 14  1  0  0  0  0
 13 32  1  0  0  0  0
 15 20  1  0  0  0  0
 15 16  1  0  0  0  0
 15 41  1  0  0  0  0
 16 17  1  0  0  0  0
 16 33  1  0  0  0  0
 16 34  1  0  0  0  0
 17 18  1  0  0  0  0
 17 35  1  0  0  0  0
 17 36  1  0  0  0  0
 18 19  1  0  0  0  0
 19 20  1  0  0  0  0
 19 37  1  0  0  0  0
 19 38  1  0  0  0  0
 20 39  1  0  0  0  0
 20 40  1  0  0  0  0
M  CHG  1   9  -1
M  CHG  1  15   1
M  END
> <s_m_source_file>
AV-unprocessed.smi

> <i_m_source_file_index>
1412

> <i_lp_mmshare_version>
43012

> <i_f3d_flags>
0

> <s_epik_input>
W0NIMl0xW0NIMl1PW0NIMl1bQ0gyXU4xW0NAQF0oW0NIM10pKFtDSDJdW0NIM10pW0NIMl1bTkhdQyg9TylbTkhdYzJubltjSF1zMg==

> <s_epik_cmdline>
J2VwaWtfcHl0aG9uJywgJy1waCcsICc3LjAnLCAnLXRuJywgJzgnLCAnLW1hJywgJzIwMCcsICctbWV0YWxfYmluZGluZycsICctaW1hZScsICc8aW5maWxlLm1hZT4nLCAnLW9tYWUnLCAnPG91dGZpbGUubWFlPic=

> <r_lp_tautomer_probability>
1

> <r_epik_Ionization_Penalty>
4.35651

> <r_epik_Ionization_Penalty_Charging>
4.3235

> <r_epik_Ionization_Penalty_Neutral>
0.0330098

> <r_epik_State_Penalty>
4.4846

> <r_epik_Charging_Adjusted_Penalty>
8.8081

> <i_epik_Tot_Q>
0

> <i_epik_Tot_abs_Q>
2

> <r_epik_Metal_State_Penalty>
1.11611

> <b_epik_Metal_Only>
1

> <s_lp_Force_Field>
OPLS_2005

> <r_lp_Energy>
23.2339

> <b_lp_Chiralities_Consistent>
1

> <s_lp_Variant>
AV-unprocessed.smi:1412-7

> <Gold.Version>
5.8.1

> <Gold.Id.Protein>
6NUR|6NUR_protein|mol2

> <Gold.PLP.Fitness>
39.1149

> <Gold.PLP.PLP>
-25.9806

> <Gold.PLP.part.hbond>
-3.1024

> <Gold.PLP.part.metal>
0.0000

> <Gold.PLP.part.buried>
-5.0510

> <Gold.PLP.part.nonpolar>
-18.5505

> <Gold.PLP.part.repulsive>
0.1749

> <Gold.PLP.ligand.clash>
0.0000

> <Gold.PLP.ligand.torsion>
1.1532

> <Gold.PLP.Chemscore.Hbond>
5.0000

> <Gold.PLP.Chemscore.CHOScore>
0.0000

> <Gold.PLP.Chemscore.Metal>
0.0000

> <Gold.Chemscore.Hbonds>
donor molecule, donor type, donor heavy atom, donor atom, acceptor molecule, acceptor atom, score
      L1  H    15    41       P1  7948  2.00
      P1  H  6896  6909       L1     9  2.00
      P1  H  6931  6943       L1    11  0.95

> <Gold.PLP.Chemscore.Internal.Correction>
0.4406

> <Gold.Rescore>
     Score         DG    S(hbond)    S(metal)    S(lipo)     H(rot)  DE(clash)    DE(int)     intcor
     13.15     -15.04       2.51        0.00      51.22       1.88       0.04       1.85       ----

> <Gold.Chemscore.Fitness>
13.1523

> <Gold.Chemscore.DG>
-15.0414

> <Gold.Chemscore.ZeroCoef>
-5.4800

> <Gold.Chemscore.Hbond>
2.5077

> <Gold.Chemscore.Metal>
0.0000

> <Gold.Chemscore.Lipo>
51.2218

> <Gold.Chemscore.Internal_Hbond>
0.0000

> <Gold.Chemscore.DEClash>
0.0356

> <Gold.Chemscore.DEInternal>
1.8534

> <Gold.Chemscore.Rot>
1.8779

> <Gold.Chemscore.Internal.Correction>
   9.000000E+99

> <Gold.Chemscore.Hbonds>
donor molecule, donor type, donor heavy atom, donor atom, acceptor molecule, acceptor atom, score
      L1  H    15    41       P1  7948  0.98
      P1  H  6896  6909       L1     9  0.56
      P1  H  6931  6943       L1    11  0.22

> <Gold.Chemscore.Hbond.Weighted>
-8.3758

> <Gold.Chemscore.Metal.Weighted>
-0.0000

> <Gold.Chemscore.Lipo.Weighted>
-5.9929

> <Gold.Chemscore.Internal_Hbond.Weighted>
0.0000

> <Gold.Chemscore.DEClash.Weighted>
0.0356

> <Gold.Chemscore.DEInternal.Weighted>
1.8534

> <Gold.Chemscore.Rot.Weighted>
4.8074

> <Gold.Chemscore.Internal.Correction.Weighted>
   9.000000E+99

> <Gold.Protein.RotatedTorsions>
[ 6907 6896 6895 6894 ] final   52.48 input  -60.11 | X-H torsion
[ 7974 7965 7964 7962 ] final    8.32 input  175.53 | X-H torsion
[ 8008 7997 7996 7995 ] final   15.14 input   59.86 | X-H torsion
[ 10167 10162 10161 10158 ] final  -17.06 input  -65.29 | X-H torsion
[ 10718 10713 10712 10709 ] final -152.96 input   66.30 | X-H torsion
[ 10763 10752 10751 10750 ] final  -97.10 input  -60.55 | X-H torsion
[ 11005 11000 10999 10996 ] final   14.21 input  -57.11 | X-H torsion

> <Gold.Protein.ActiveResidues>
 VAL166  LYS551  ARG553  GLY616  TRP617  ASP618  TYR619  PRO620  LYS621  CYS622 
 ASP623  PHE694  ASN695  SER759  ASP760  ASP761  ALA762  ILE779  LEU786  VAL792 
 PHE793  MET794  SER795  GLU796  ALA797  LYS798  CYS799  TRP800  GLU811  SER814 

> <Gold.Protein.RotatedAtoms>
  152.3237  134.7348  160.0307 H   0  0  0  0  0  0  0  0  0  0  0  0  # atno 6907 bound_to 6896
  151.7788  133.3342  159.3473 H   0  0  0  0  0  0  0  0  0  0  0  0  # atno 6908 bound_to 6896
  150.7384  134.5881  159.6018 H   0  0  0  0  0  0  0  0  0  0  0  0  # atno 6909 bound_to 6896
  146.2417  139.9950  142.8422 H   0  0  0  0  0  0  0  0  0  0  0  0  # atno 7974 bound_to 7965
  154.8583  140.2940  155.5555 H   0  0  0  0  0  0  0  0  0  0  0  0  # atno 8008 bound_to 7997
  156.3019  140.2483  156.3486 H   0  0  0  0  0  0  0  0  0  0  0  0  # atno 8009 bound_to 7997
  154.8946  140.0393  157.1847 H   0  0  0  0  0  0  0  0  0  0  0  0  # atno 8010 bound_to 7997
  140.7242  143.5053  150.9818 H   0  0  0  0  0  0  0  0  0  0  0  0  # atno 10167 bound_to 10162
  156.4794  130.8296  151.2523 H   0  0  0  0  0  0  0  0  0  0  0  0  # atno 10718 bound_to 10713
  154.7298  135.5059  153.8945 H   0  0  0  0  0  0  0  0  0  0  0  0  # atno 10763 bound_to 10752
  153.0939  135.6667  153.9810 H   0  0  0  0  0  0  0  0  0  0  0  0  # atno 10764 bound_to 10752
  153.9614  135.3047  155.3412 H   0  0  0  0  0  0  0  0  0  0  0  0  # atno 10765 bound_to 10752
  140.4721  134.1021  155.7734 H   0  0  0  0  0  0  0  0  0  0  0  0  # atno 11005 bound_to 11000
  145.1468  140.9601  143.4456 LP  0  0  0  0  0  0  0  0  0  0  0  0  # atno 17320 bound_to 7965
  145.0243  139.3396  143.6056 LP  0  0  0  0  0  0  0  0  0  0  0  0  # atno 17321 bound_to 7965
  139.8764  143.7127  152.3161 LP  0  0  0  0  0  0  0  0  0  0  0  0  # atno 17342 bound_to 10162
  139.7394  144.7563  151.0676 LP  0  0  0  0  0  0  0  0  0  0  0  0  # atno 17343 bound_to 10162
  157.7484  131.0050  150.3096 LP  0  0  0  0  0  0  0  0  0  0  0  0  # atno 17370 bound_to 10713
  156.3537  130.3835  149.7308 LP  0  0  0  0  0  0  0  0  0  0  0  0  # atno 17371 bound_to 10713
  141.1572  133.8861  157.1946 LP  0  0  0  0  0  0  0  0  0  0  0  0  # atno 17394 bound_to 11000
  139.9879  135.0075  156.9905 LP  0  0  0  0  0  0  0  0  0  0  0  0  # atno 17395 bound_to 11000

$$$$
