AV-unprocessed.smi:650|AV-procd|sdf|3182|dock7
  -GOLD-   22720 0103D 1   1.00000     0.00000
 Structure written by MMmdl.
 43 44  0  0  0  0  0  0  0  0  2 V2000
  150.7011  142.3995  156.3014 C   0  0  0  0  0  0  0  0  0  0  0  0
  150.4078  141.1982  155.4693 C   0  0  0  0  0  0  0  0  0  0  0  0
  149.2522  140.6899  154.9462 C   0  0  0  0  0  0  0  0  0  0  0  0
  149.6946  139.5250  154.2647 C   0  0  0  0  0  0  0  0  0  0  0  0
  148.7769  138.6923  153.5748 N   0  0  0  0  0  0  0  0  0  0  0  0
  147.4365  138.7872  153.5605 C   0  0  0  0  0  0  0  0  0  0  0  0
  146.7789  139.6345  154.1655 O   0  0  0  0  0  0  0  0  0  0  0  0
  146.8877  137.8291  152.7989 N   0  0  0  0  0  0  0  0  0  0  0  0
  145.4595  137.6687  152.5397 C   0  0  0  0  0  0  0  0  0  0  0  0
  145.0765  136.2131  152.1978 C   0  0  2  0  0  0  0  0  0  0  0  0
  145.5661  135.8375  150.7878 C   0  0  0  0  0  0  0  0  0  0  0  0
  145.1781  134.3971  150.4165 C   0  0  0  0  0  0  0  0  0  0  0  0
  143.7100  134.1976  150.5117 N   0  3  1  0  0  0  0  0  0  0  0  0
  143.2895  132.8614  150.0172 C   0  0  0  0  0  0  0  0  0  0  0  0
  143.5537  132.6771  148.5130 C   0  0  0  0  0  0  0  0  0  0  0  0
  143.4486  133.9186  147.8486 O   0  0  0  0  0  0  0  0  0  0  0  0
  143.2110  134.5062  151.8772 C   0  0  0  0  0  0  0  0  0  0  0  0
  143.5598  135.9473  152.2841 C   0  0  0  0  0  0  0  0  0  0  0  0
  151.0028  139.3411  154.3589 N   0  0  0  0  0  0  0  0  0  0  0  0
  151.4664  140.4125  155.1315 O   0  0  0  0  0  0  0  0  0  0  0  0
  149.8436  142.6600  156.9220 H   0  0  0  0  0  0  0  0  0  0  0  0
  150.9363  143.2570  155.6711 H   0  0  0  0  0  0  0  0  0  0  0  0
  151.5507  142.2199  156.9607 H   0  0  0  0  0  0  0  0  0  0  0  0
  148.2530  141.0882  155.0401 H   0  0  0  0  0  0  0  0  0  0  0  0
  149.1864  137.9497  153.0279 H   0  0  0  0  0  0  0  0  0  0  0  0
  147.5063  137.1732  152.3448 H   0  0  0  0  0  0  0  0  0  0  0  0
  144.8671  138.0309  153.3819 H   0  0  0  0  0  0  0  0  0  0  0  0
  145.2121  138.3175  151.6991 H   0  0  0  0  0  0  0  0  0  0  0  0
  145.5772  135.5579  152.9125 H   0  0  0  0  0  0  0  0  0  0  0  0
  145.1443  136.5264  150.0543 H   0  0  0  0  0  0  0  0  0  0  0  0
  146.6492  135.9494  150.7269 H   0  0  0  0  0  0  0  0  0  0  0  0
  145.5135  134.1904  149.3994 H   0  0  0  0  0  0  0  0  0  0  0  0
  145.6880  133.6873  151.0700 H   0  0  0  0  0  0  0  0  0  0  0  0
  143.8285  132.0801  150.5554 H   0  0  0  0  0  0  0  0  0  0  0  0
  142.2323  132.7083  150.2388 H   0  0  0  0  0  0  0  0  0  0  0  0
  144.5636  132.2950  148.3615 H   0  0  0  0  0  0  0  0  0  0  0  0
  142.8750  131.9568  148.0582 H   0  0  0  0  0  0  0  0  0  0  0  0
  144.3176  134.2708  147.7260 H   0  0  0  0  0  0  0  0  0  0  0  0
  142.1300  134.3811  151.9252 H   0  0  0  0  0  0  0  0  0  0  0  0
  143.6407  133.8020  152.5914 H   0  0  0  0  0  0  0  0  0  0  0  0
  143.1993  136.1220  153.2978 H   0  0  0  0  0  0  0  0  0  0  0  0
  143.0248  136.6482  151.6415 H   0  0  0  0  0  0  0  0  0  0  0  0
  143.2938  134.8711  149.8836 H   0  0  0  0  0  0  0  0  0  0  0  0
  1  2  1  0  0  0  0
  1 21  1  0  0  0  0
  1 22  1  0  0  0  0
  1 23  1  0  0  0  0
  2 20  1  0  0  0  0
  2  3  2  0  0  0  0
  3  4  1  0  0  0  0
  3 24  1  0  0  0  0
  4  5  1  0  0  0  0
  4 19  2  0  0  0  0
  5  6  1  0  0  0  0
  5 25  1  0  0  0  0
  6  7  2  0  0  0  0
  6  8  1  0  0  0  0
  8  9  1  0  0  0  0
  8 26  1  0  0  0  0
  9 10  1  0  0  0  0
  9 27  1  0  0  0  0
  9 28  1  0  0  0  0
 10 18  1  0  0  0  0
 10 11  1  0  0  0  0
 10 29  1  0  0  0  0
 11 12  1  0  0  0  0
 11 30  1  0  0  0  0
 11 31  1  0  0  0  0
 12 13  1  0  0  0  0
 12 32  1  0  0  0  0
 12 33  1  0  0  0  0
 13 14  1  0  0  0  0
 13 17  1  0  0  0  0
 13 43  1  0  0  0  0
 14 15  1  0  0  0  0
 14 34  1  0  0  0  0
 14 35  1  0  0  0  0
 15 16  1  0  0  0  0
 15 36  1  0  0  0  0
 15 37  1  0  0  0  0
 16 38  1  0  0  0  0
 17 18  1  0  0  0  0
 17 39  1  0  0  0  0
 17 40  1  0  0  0  0
 18 41  1  0  0  0  0
 18 42  1  0  0  0  0
 19 20  1  0  0  0  0
M  CHG  1  13   1
M  END
> <s_m_source_file>
AV-unprocessed.smi

> <i_m_source_file_index>
650

> <i_lp_mmshare_version>
43012

> <i_f3d_flags>
0

> <s_epik_input>
W0NIM11jMVtjSF1jKG5vMSlbTkhdQyg9TylbTkhdW0NIMl1bQ0hdMltDSDJdW0NIMl1OKFtDSDJdW0NIMl0yKVtDSDJdW0NIMl1bT0hd

> <s_epik_cmdline>
J2VwaWtfcHl0aG9uJywgJy1waCcsICc3LjAnLCAnLXRuJywgJzgnLCAnLW1hJywgJzIwMCcsICctbWV0YWxfYmluZGluZycsICctaW1hZScsICc8aW5maWxlLm1hZT4nLCAnLW9tYWUnLCAnPG91dGZpbGUubWFlPic=

> <r_epik_Ionization_Penalty>
0.00179437

> <r_epik_Ionization_Penalty_Charging>
0.00177223

> <r_epik_Ionization_Penalty_Neutral>
2.21418e-05

> <r_epik_State_Penalty>
0.00120075

> <r_epik_Charging_Adjusted_Penalty>
0.00297297

> <i_epik_Tot_Q>
1

> <i_epik_Tot_abs_Q>
1

> <r_epik_Metal_State_Penalty>
-0

> <b_epik_Metal_Only>
0

> <s_lp_Force_Field>
OPLS_2005

> <r_lp_Energy>
15.9462

> <b_lp_Chiralities_Consistent>
1

> <s_lp_Variant>
AV-unprocessed.smi:650-1

> <Gold.Version>
5.8.1

> <Gold.Id.Protein>
6NUR|6NUR_protein|mol2

> <Gold.PLP.Fitness>
51.3792

> <Gold.PLP.PLP>
-40.0850

> <Gold.PLP.part.hbond>
-10.0000

> <Gold.PLP.part.metal>
0.0000

> <Gold.PLP.part.buried>
-1.6446

> <Gold.PLP.part.nonpolar>
-29.9586

> <Gold.PLP.part.repulsive>
0.3835

> <Gold.PLP.ligand.clash>
0.0000

> <Gold.PLP.ligand.torsion>
0.5035

> <Gold.PLP.Chemscore.Hbond>
4.0856

> <Gold.PLP.Chemscore.CHOScore>
0.0000

> <Gold.PLP.Chemscore.Metal>
0.0000

> <Gold.Chemscore.Hbonds>
donor molecule, donor type, donor heavy atom, donor atom, acceptor molecule, acceptor atom, score
      L1  H     5    25       P1  7948  0.93
      L1  H     8    26       P1  7948  1.00
      L1  H    13    43       P1 10186  0.11
      L1  H    16    38       P1  7921  1.00
      P1  H 10192 10197       L1    16  1.00

> <Gold.PLP.Chemscore.Internal.Correction>
0.0444

> <Gold.Rescore>
     Score         DG    S(hbond)    S(metal)    S(lipo)     H(rot)  DE(clash)    DE(int)     intcor
     17.15     -20.14       3.67        0.00      76.27       2.55       1.04       1.95       ----

> <Gold.Chemscore.Fitness>
17.1547

> <Gold.Chemscore.DG>
-20.1402

> <Gold.Chemscore.ZeroCoef>
-5.4800

> <Gold.Chemscore.Hbond>
3.6714

> <Gold.Chemscore.Metal>
0.0000

> <Gold.Chemscore.Lipo>
76.2723

> <Gold.Chemscore.Internal_Hbond>
0.0000

> <Gold.Chemscore.DEClash>
1.0356

> <Gold.Chemscore.DEInternal>
1.9500

> <Gold.Chemscore.Rot>
2.5492

> <Gold.Chemscore.Internal.Correction>
   9.000000E+99

> <Gold.Chemscore.Hbonds>
donor molecule, donor type, donor heavy atom, donor atom, acceptor molecule, acceptor atom, score
      L1  H     5    25       P1  7948  0.84
      L1  H     8    26       P1  7948  1.00
      L1  H    13    43       P1 10186  0.04
      L1  H    16    38       P1  7921  1.00
      P1  H 10192 10197       L1    16  0.78

> <Gold.Chemscore.Hbond.Weighted>
-12.2624

> <Gold.Chemscore.Metal.Weighted>
-0.0000

> <Gold.Chemscore.Lipo.Weighted>
-8.9239

> <Gold.Chemscore.Internal_Hbond.Weighted>
0.0000

> <Gold.Chemscore.DEClash.Weighted>
1.0356

> <Gold.Chemscore.DEInternal.Weighted>
1.9500

> <Gold.Chemscore.Rot.Weighted>
6.5260

> <Gold.Chemscore.Internal.Correction.Weighted>
   9.000000E+99

> <Gold.Protein.RotatedTorsions>
[ 6907 6896 6895 6894 ] final  -99.99 input  -60.11 | X-H torsion
[ 7974 7965 7964 7962 ] final   76.94 input  175.53 | X-H torsion
[ 8008 7997 7996 7995 ] final -139.52 input   59.86 | X-H torsion
[ 10167 10162 10161 10158 ] final  -95.04 input  -65.29 | X-H torsion
[ 10718 10713 10712 10709 ] final  170.82 input   66.30 | X-H torsion
[ 10763 10752 10751 10750 ] final  -43.50 input  -60.55 | X-H torsion
[ 11005 11000 10999 10996 ] final -143.77 input  -57.11 | X-H torsion

> <Gold.Protein.ActiveResidues>
 VAL166  LYS551  ARG553  GLY616  TRP617  ASP618  TYR619  PRO620  LYS621  CYS622 
 ASP623  PHE694  ASN695  SER759  ASP760  ASP761  ALA762  ILE779  LEU786  VAL792 
 PHE793  MET794  SER795  GLU796  ALA797  LYS798  CYS799  TRP800  GLU811  SER814 

> <Gold.Protein.RotatedAtoms>
  150.7100  134.0955  159.3946 H   0  0  0  0  0  0  0  0  0  0  0  0  # atno 6907 bound_to 6896
  151.8941  135.0402  160.0510 H   0  0  0  0  0  0  0  0  0  0  0  0  # atno 6908 bound_to 6896
  152.2467  133.5145  159.5338 H   0  0  0  0  0  0  0  0  0  0  0  0  # atno 6909 bound_to 6896
  145.6964  139.2568  143.1730 H   0  0  0  0  0  0  0  0  0  0  0  0  # atno 7974 bound_to 7965
  155.4462  140.0535  157.3005 H   0  0  0  0  0  0  0  0  0  0  0  0  # atno 8008 bound_to 7997
  154.4796  140.2076  155.9750 H   0  0  0  0  0  0  0  0  0  0  0  0  # atno 8009 bound_to 7997
  156.1186  140.3192  155.8180 H   0  0  0  0  0  0  0  0  0  0  0  0  # atno 8010 bound_to 7997
  140.3083  143.3120  152.0176 H   0  0  0  0  0  0  0  0  0  0  0  0  # atno 10167 bound_to 10162
  157.0026  131.0180  151.2826 H   0  0  0  0  0  0  0  0  0  0  0  0  # atno 10718 bound_to 10713
  153.9966  135.6698  153.4757 H   0  0  0  0  0  0  0  0  0  0  0  0  # atno 10763 bound_to 10752
  153.0681  135.4989  154.8240 H   0  0  0  0  0  0  0  0  0  0  0  0  # atno 10764 bound_to 10752
  154.7077  135.3091  154.9207 H   0  0  0  0  0  0  0  0  0  0  0  0  # atno 10765 bound_to 10752
  140.8091  134.2765  157.4948 H   0  0  0  0  0  0  0  0  0  0  0  0  # atno 11005 bound_to 11000
  146.0836  140.7736  142.9629 LP  0  0  0  0  0  0  0  0  0  0  0  0  # atno 17320 bound_to 7965
  144.6981  140.3528  143.7178 LP  0  0  0  0  0  0  0  0  0  0  0  0  # atno 17321 bound_to 7965
  139.4899  144.6404  151.6889 LP  0  0  0  0  0  0  0  0  0  0  0  0  # atno 17342 bound_to 10162
  140.5591  144.0299  150.6161 LP  0  0  0  0  0  0  0  0  0  0  0  0  # atno 17343 bound_to 10162
  157.5379  130.8100  149.7993 LP  0  0  0  0  0  0  0  0  0  0  0  0  # atno 17370 bound_to 10713
  156.0165  130.3811  150.2094 LP  0  0  0  0  0  0  0  0  0  0  0  0  # atno 17371 bound_to 10713
  139.8715  134.9473  156.3963 LP  0  0  0  0  0  0  0  0  0  0  0  0  # atno 17394 bound_to 11000
  140.9216  133.7641  155.9913 LP  0  0  0  0  0  0  0  0  0  0  0  0  # atno 17395 bound_to 11000

$$$$
