AV-unprocessed.smi:2129|AV-procd|sdf|8684|dock7
  -GOLD-   2272011433D 1   1.00000     0.00000
 Structure written by MMmdl.
 33 33  0  0  0  0  0  0  0  0  2 V2000
  150.8748  145.1081  160.3137 C   0  0  0  0  0  0  0  0  0  0  0  0
  150.5057  144.0888  159.2209 C   0  0  0  0  0  0  0  0  0  0  0  0
  151.6979  143.4935  158.4213 C   0  0  0  0  0  0  0  0  0  0  0  0
  152.7233  144.6043  158.1045 C   0  0  0  0  0  0  0  0  0  0  0  0
  152.4094  142.4111  159.2567 C   0  0  0  0  0  0  0  0  0  0  0  0
  151.2501  142.8500  157.1794 N   0  0  0  0  0  0  0  0  0  0  0  0
  150.4875  141.7519  157.0346 C   0  0  0  0  0  0  0  0  0  0  0  0
  150.0064  141.1205  157.9759 O   0  0  0  0  0  0  0  0  0  0  0  0
  150.2131  141.3149  155.5899 C   0  0  0  0  0  0  0  0  0  0  0  0
  150.4699  139.8820  155.3752 N   0  0  0  0  0  0  0  0  0  0  0  0
  149.4820  139.1299  154.7153 C   0  0  0  0  0  0  0  0  0  0  0  0
  149.6313  137.8123  154.4802 C   0  0  0  0  0  0  0  0  0  0  0  0
  150.8577  137.1653  154.9300 C   0  0  0  0  0  0  0  0  0  0  0  0
  151.0128  135.9638  154.7204 O   0  0  0  0  0  0  0  0  0  0  0  0
  151.7847  137.9370  155.5694 N   0  5  0  0  0  0  0  0  0  0  0  0
  151.6189  139.2760  155.8025 C   0  0  0  0  0  0  0  0  0  0  0  0
  152.4687  139.9540  156.3815 O   0  0  0  0  0  0  0  0  0  0  0  0
  149.9784  145.4596  160.8243 H   0  0  0  0  0  0  0  0  0  0  0  0
  151.3755  145.9827  159.8998 H   0  0  0  0  0  0  0  0  0  0  0  0
  151.5270  144.6728  161.0710 H   0  0  0  0  0  0  0  0  0  0  0  0
  149.9380  143.2837  159.6884 H   0  0  0  0  0  0  0  0  0  0  0  0
  149.8098  144.5612  158.5266 H   0  0  0  0  0  0  0  0  0  0  0  0
  153.1407  145.0256  159.0198 H   0  0  0  0  0  0  0  0  0  0  0  0
  152.2778  145.4297  157.5492 H   0  0  0  0  0  0  0  0  0  0  0  0
  153.5553  144.2217  157.5120 H   0  0  0  0  0  0  0  0  0  0  0  0
  152.7422  142.8054  160.2173 H   0  0  0  0  0  0  0  0  0  0  0  0
  153.2894  142.0268  158.7395 H   0  0  0  0  0  0  0  0  0  0  0  0
  151.7600  141.5590  159.4585 H   0  0  0  0  0  0  0  0  0  0  0  0
  151.5824  143.2767  156.3269 H   0  0  0  0  0  0  0  0  0  0  0  0
  149.1769  141.5591  155.3536 H   0  0  0  0  0  0  0  0  0  0  0  0
  150.8130  141.9085  154.8972 H   0  0  0  0  0  0  0  0  0  0  0  0
  148.6022  139.6829  154.4209 H   0  0  0  0  0  0  0  0  0  0  0  0
  148.8619  137.2482  153.9740 H   0  0  0  0  0  0  0  0  0  0  0  0
  1  2  1  0  0  0  0
  1 18  1  0  0  0  0
  1 19  1  0  0  0  0
  1 20  1  0  0  0  0
  2  3  1  0  0  0  0
  2 21  1  0  0  0  0
  2 22  1  0  0  0  0
  3  4  1  0  0  0  0
  3  5  1  0  0  0  0
  3  6  1  0  0  0  0
  4 23  1  0  0  0  0
  4 24  1  0  0  0  0
  4 25  1  0  0  0  0
  5 26  1  0  0  0  0
  5 27  1  0  0  0  0
  5 28  1  0  0  0  0
  6  7  1  0  0  0  0
  6 29  1  0  0  0  0
  7  8  2  0  0  0  0
  7  9  1  0  0  0  0
  9 10  1  0  0  0  0
  9 30  1  0  0  0  0
  9 31  1  0  0  0  0
 10 16  1  0  0  0  0
 10 11  1  0  0  0  0
 11 12  2  0  0  0  0
 11 32  1  0  0  0  0
 12 13  1  0  0  0  0
 12 33  1  0  0  0  0
 13 14  2  0  0  0  0
 13 15  1  0  0  0  0
 15 16  1  0  0  0  0
 16 17  2  0  0  0  0
M  CHG  1  15  -1
M  END
> <s_m_source_file>
AV-unprocessed.smi

> <i_m_source_file_index>
2129

> <i_lp_mmshare_version>
43012

> <i_f3d_flags>
0

> <s_epik_input>
W0NIM11bQ0gyXUMoW0NIM10pKFtDSDNdKVtOSF1DKD1PKVtDSDJdbjFbY0hdW2NIXWMoPU8pW25IXWMxPU8=

> <s_epik_cmdline>
J2VwaWtfcHl0aG9uJywgJy1waCcsICc3LjAnLCAnLXRuJywgJzgnLCAnLW1hJywgJzIwMCcsICctbWV0YWxfYmluZGluZycsICctaW1hZScsICc8aW5maWxlLm1hZT4nLCAnLW9tYWUnLCAnPG91dGZpbGUubWFlPic=

> <r_lp_tautomer_probability>
0.999537

> <r_epik_Ionization_Penalty>
3.14534

> <r_epik_Ionization_Penalty_Charging>
2.92803e-08

> <r_epik_Ionization_Penalty_Neutral>
3.14534

> <r_epik_State_Penalty>
3.14446

> <r_epik_Charging_Adjusted_Penalty>
3.14446

> <i_epik_Tot_Q>
-1

> <i_epik_Tot_abs_Q>
1

> <r_epik_Metal_State_Penalty>
0.465837

> <b_epik_Metal_Only>
1

> <s_lp_Force_Field>
OPLS_2005

> <r_lp_Energy>
14.5296

> <b_lp_Chiralities_Consistent>
1

> <s_lp_Variant>
AV-unprocessed.smi:2129-2

> <Gold.Version>
5.8.1

> <Gold.Id.Protein>
6NUR|6NUR_protein|mol2

> <Gold.PLP.Fitness>
39.3941

> <Gold.PLP.PLP>
-34.4012

> <Gold.PLP.part.hbond>
-2.0683

> <Gold.PLP.part.metal>
0.0000

> <Gold.PLP.part.buried>
-1.7196

> <Gold.PLP.part.nonpolar>
-31.0310

> <Gold.PLP.part.repulsive>
0.2634

> <Gold.PLP.ligand.clash>
0.0000

> <Gold.PLP.ligand.torsion>
0.5138

> <Gold.PLP.Chemscore.Hbond>
2.0000

> <Gold.PLP.Chemscore.CHOScore>
0.0000

> <Gold.PLP.Chemscore.Metal>
0.0000

> <Gold.Chemscore.Hbonds>
donor molecule, donor type, donor heavy atom, donor atom, acceptor molecule, acceptor atom, score
      P1  H  7997  8008       L1    17  1.00
      P1  H 10752 10764       L1    14  1.00

> <Gold.PLP.Chemscore.Internal.Correction>
0.0205

> <Gold.Rescore>
     Score         DG    S(hbond)    S(metal)    S(lipo)     H(rot)  DE(clash)    DE(int)     intcor
     13.88     -15.88       1.93        0.00      75.36       1.90       0.08       1.91       ----

> <Gold.Chemscore.Fitness>
13.8817

> <Gold.Chemscore.DG>
-15.8790

> <Gold.Chemscore.ZeroCoef>
-5.4800

> <Gold.Chemscore.Hbond>
1.9324

> <Gold.Chemscore.Metal>
0.0000

> <Gold.Chemscore.Lipo>
75.3554

> <Gold.Chemscore.Internal_Hbond>
0.0000

> <Gold.Chemscore.DEClash>
0.0835

> <Gold.Chemscore.DEInternal>
1.9138

> <Gold.Chemscore.Rot>
1.9031

> <Gold.Chemscore.Internal.Correction>
   9.000000E+99

> <Gold.Chemscore.Hbonds>
donor molecule, donor type, donor heavy atom, donor atom, acceptor molecule, acceptor atom, score
      P1  H  7997  8008       L1    17  1.00
      P1  H 10752 10764       L1    14  0.69

> <Gold.Chemscore.Hbond.Weighted>
-6.4544

> <Gold.Chemscore.Metal.Weighted>
-0.0000

> <Gold.Chemscore.Lipo.Weighted>
-8.8166

> <Gold.Chemscore.Internal_Hbond.Weighted>
0.0000

> <Gold.Chemscore.DEClash.Weighted>
0.0835

> <Gold.Chemscore.DEInternal.Weighted>
1.9138

> <Gold.Chemscore.Rot.Weighted>
4.8720

> <Gold.Chemscore.Internal.Correction.Weighted>
   9.000000E+99

> <Gold.Protein.RotatedTorsions>
[ 6907 6896 6895 6894 ] final -157.73 input  -60.11 | X-H torsion
[ 7974 7965 7964 7962 ] final   57.87 input  175.53 | X-H torsion
[ 8008 7997 7996 7995 ] final  -45.11 input   59.86 | X-H torsion
[ 10167 10162 10161 10158 ] final -101.14 input  -65.29 | X-H torsion
[ 10718 10713 10712 10709 ] final -142.56 input   66.30 | X-H torsion
[ 10763 10752 10751 10750 ] final  -63.04 input  -60.55 | X-H torsion
[ 11005 11000 10999 10996 ] final  -29.22 input  -57.11 | X-H torsion

> <Gold.Protein.ActiveResidues>
 VAL166  LYS551  ARG553  GLY616  TRP617  ASP618  TYR619  PRO620  LYS621  CYS622 
 ASP623  PHE694  ASN695  SER759  ASP760  ASP761  ALA762  ILE779  LEU786  VAL792 
 PHE793  MET794  SER795  GLU796  ALA797  LYS798  CYS799  TRP800  GLU811  SER814 

> <Gold.Protein.RotatedAtoms>
  151.3073  133.4096  159.2643 H   0  0  0  0  0  0  0  0  0  0  0  0  # atno 6907 bound_to 6896
  151.0144  134.9422  159.8035 H   0  0  0  0  0  0  0  0  0  0  0  0  # atno 6908 bound_to 6896
  152.5309  134.3037  159.9140 H   0  0  0  0  0  0  0  0  0  0  0  0  # atno 6909 bound_to 6896
  145.9244  139.3756  143.0459 H   0  0  0  0  0  0  0  0  0  0  0  0  # atno 7974 bound_to 7965
  154.3999  140.1405  156.3793 H   0  0  0  0  0  0  0  0  0  0  0  0  # atno 8008 bound_to 7997
  155.8019  140.3475  155.5387 H   0  0  0  0  0  0  0  0  0  0  0  0  # atno 8009 bound_to 7997
  155.8475  140.0936  157.1686 H   0  0  0  0  0  0  0  0  0  0  0  0  # atno 8010 bound_to 7997
  140.2444  143.3516  152.0772 H   0  0  0  0  0  0  0  0  0  0  0  0  # atno 10167 bound_to 10162
  156.3473  130.7669  151.1816 H   0  0  0  0  0  0  0  0  0  0  0  0  # atno 10718 bound_to 10713
  154.3091  135.6219  153.5457 H   0  0  0  0  0  0  0  0  0  0  0  0  # atno 10763 bound_to 10752
  152.9831  135.5697  154.5198 H   0  0  0  0  0  0  0  0  0  0  0  0  # atno 10764 bound_to 10752
  154.4844  135.2864  155.1522 H   0  0  0  0  0  0  0  0  0  0  0  0  # atno 10765 bound_to 10752
  140.9277  133.7358  156.0891 H   0  0  0  0  0  0  0  0  0  0  0  0  # atno 11005 bound_to 11000
  145.8508  140.9530  143.0750 LP  0  0  0  0  0  0  0  0  0  0  0  0  # atno 17320 bound_to 7965
  144.6757  140.0404  143.7481 LP  0  0  0  0  0  0  0  0  0  0  0  0  # atno 17321 bound_to 7965
  139.5066  144.6817  151.5990 LP  0  0  0  0  0  0  0  0  0  0  0  0  # atno 17342 bound_to 10162
  140.6088  143.9474  150.6438 LP  0  0  0  0  0  0  0  0  0  0  0  0  # atno 17343 bound_to 10162
  157.7456  131.0437  150.4758 LP  0  0  0  0  0  0  0  0  0  0  0  0  # atno 17370 bound_to 10713
  156.4948  130.4103  149.6386 LP  0  0  0  0  0  0  0  0  0  0  0  0  # atno 17371 bound_to 10713
  140.7904  134.3624  157.5466 LP  0  0  0  0  0  0  0  0  0  0  0  0  # atno 17394 bound_to 11000
  139.8789  134.9137  156.3089 LP  0  0  0  0  0  0  0  0  0  0  0  0  # atno 17395 bound_to 11000

$$$$
