#       Name:                AV-unprocessed.smi:2530
#       Creating user name   scv26
#       Creation time:       Fri Mar 27 14:00:22 2020


#       File generated by GOLD software.
#

@<TRIPOS>MOLECULE
AV-unprocessed.smi:2530
    49    51     1
SMALL
NO_CHARGES


@<TRIPOS>ATOM
      1 ****        -6.0708   0.8460   1.5949 C.3            1 S1                 0.0000
      2 ****        -4.6449   1.2595   1.8954 C.ar           1 S1                 0.0000
      3 ****        -4.3883   2.3484   2.7490 C.ar           1 S1                 0.0000
      4 ****        -3.0623   2.7305   3.0208 C.ar           1 S1                 0.0000
      5 ****        -1.9794   2.0279   2.4500 C.ar           1 S1                 0.0000
      6 ****        -0.5678   2.4939   2.7632 C.3            1 S1                 0.0000
      7 ****        -2.2302   0.9181   1.5997 C.ar           1 S1                 0.0000
      8 ****        -1.0938   0.1236   0.9548 C.3            1 S1                 0.0000
      9 ****        -1.3662  -1.2652   0.9547 O.3            1 S1                 0.0000
     10 ****        -0.8618   0.5816  -0.5026 C.3            1 S1                 0.0000
     11 ****         0.4202   0.1039  -1.0490 N.am           1 S1                 0.0000
     12 ****         0.3612  -1.0287  -1.8839 C.2            1 S1                 0.0000
     13 ****         1.4244  -1.5357  -2.4225 N.2            1 S1                 0.0000
     14 ****         2.6738  -0.9553  -2.1759 C.2            1 S1                 0.0000
     15 ****         3.8919  -1.6093  -2.8136 C.3            1 S1                 0.0000
     16 ****         3.8670  -3.1444  -2.9071 C.3            1 S1                 0.0000
     17 ****         5.3607  -3.1257  -2.5648 C.3            1 S1                 0.0000
     18 ****         5.1258  -1.7604  -1.9087 C.3            1 S1                 0.0000
     19 ****         2.7824   0.1293  -1.3722 C.2            1 S1                 0.0000
     20 ****         1.5986   0.7264  -0.7542 C.2            1 S1                 0.0000
     21 ****         1.6615   1.7137  -0.0219 O.2            1 S1                 0.0000
     22 ****        -3.5686   0.5518   1.3255 C.ar           1 S1                 0.0000
     23 ****        -6.7496   1.6950   1.6812 H              1 S1                 0.0000
     24 ****        -6.3932   0.0750   2.2947 H              1 S1                 0.0000
     25 ****        -6.1542   0.4488   0.5828 H              1 S1                 0.0000
     26 ****        -5.2061   2.8962   3.1945 H              1 S1                 0.0000
     27 ****        -2.8807   3.5728   3.6722 H              1 S1                 0.0000
     28 ****        -0.0274   1.7319   3.3250 H              1 S1                 0.0000
     29 ****        -0.5735   3.4061   3.3605 H              1 S1                 0.0000
     30 ****        -0.0230   2.7063   1.8438 H              1 S1                 0.0000
     31 ****        -0.1817   0.2512   1.5353 H              1 S1                 0.0000
     32 ****        -1.4351  -1.5554   1.8516 H              1 S1                 0.0000
     33 ****        -1.7081   0.2928  -1.1295 H              1 S1                 0.0000
     34 ****        -0.8595   1.6726  -0.5374 H              1 S1                 0.0000
     35 ****        -0.6352  -1.4459  -2.0392 H              1 S1                 0.0000
     36 ****         4.1433  -1.1487  -3.7707 H              1 S1                 0.0000
     37 ****         3.2706  -3.6220  -2.1273 H              1 S1                 0.0000
     38 ****         3.6288  -3.5378  -3.8957 H              1 S1                 0.0000
     39 ****         5.6837  -3.9121  -1.8820 H              1 S1                 0.0000
     40 ****         5.9981  -3.0677  -3.4486 H              1 S1                 0.0000
     41 ****         5.9135  -1.0272  -2.0843 H              1 S1                 0.0000
     42 ****         4.8811  -1.8453  -0.8482 H              1 S1                 0.0000
     43 ****         3.7515   0.5664  -1.1801 H              1 S1                 0.0000
     44 ****        -3.7759  -0.2810   0.6690 H              1 S1                 0.0000
     45 ****        -0.6241  -1.7550   0.4972 LP             1 S1                 0.0000
     46 ****        -2.2264  -1.4408   0.4758 LP             1 S1                 0.0000
     47 ****         1.3527  -2.3397  -3.0129 LP             1 S1                 0.0000
     48 ****         0.8280   2.0899   0.3829 LP             1 S1                 0.0000
     49 ****         2.5460   2.1396   0.1683 LP             1 S1                 0.0000
@<TRIPOS>BOND
    1    1    2 1     
    2    1   23 1     
    3    1   24 1     
    4    1   25 1     
    5    2   22 ar    
    6    2    3 ar    
    7    3    4 ar    
    8    3   26 1     
    9    4    5 ar    
   10    4   27 1     
   11    5    6 1     
   12    5    7 ar    
   13    6   28 1     
   14    6   29 1     
   15    6   30 1     
   16    7    8 1     
   17    7   22 ar    
   18    8    9 1     
   19    8   10 1     
   20    8   31 1     
   21    9   32 1     
   22   10   11 1     
   23   10   33 1     
   24   10   34 1     
   25   11   20 am    
   26   11   12 1     
   27   12   13 2     
   28   12   35 1     
   29   13   14 1     
   30   14   15 1     
   31   14   19 2     
   32   15   18 1     
   33   15   16 1     
   34   15   36 1     
   35   16   17 1     
   36   16   37 1     
   37   16   38 1     
   38   17   18 1     
   39   17   39 1     
   40   17   40 1     
   41   18   41 1     
   42   18   42 1     
   43   19   20 1     
   44   19   43 1     
   45   20   21 2     
   46   22   44 1     
   47    9   45 1     
   48    9   46 1     
   49   13   47 1     
   50   21   48 1     
   51   21   49 1     
@<TRIPOS>SUBSTRUCTURE
      1 S1             1
@<TRIPOS>SET
LONE_PAIRS      STATIC     ATOMS    <user>   **** ""
5 45 46 47 48 49
DONOR_HYDROGENS      STATIC     ATOMS    <user>   **** ""
1 32
ATOM$BLUE        STATIC     ATOMS    COLORGROUP SYSTEM
5 45 46 47 48 49
ATOM$RED        STATIC     ATOMS    COLORGROUP SYSTEM
1 32
