AV-unprocessed.smi:35|AV-procd|sdf|259|dock8
  -GOLD-   2262016 23D 1   1.00000     0.00000
 Structure written by MMmdl.
 29 30  0  0  0  0  0  0  0  0  1 V2000
  151.5067  136.7862  159.8268 O   0  0  0  0  0  0  0  0  0  0  0  0
  151.0404  137.7494  159.2220 C   0  0  0  0  0  0  0  0  0  0  0  0
  151.8238  138.8832  158.9899 N   0  0  0  0  0  0  0  0  0  0  0  0
  151.4058  140.0330  158.3170 C   0  0  0  0  0  0  0  0  0  0  0  0
  152.1846  140.9720  158.1571 O   0  0  0  0  0  0  0  0  0  0  0  0
  150.0787  140.0543  157.8332 N   0  0  0  0  0  0  0  0  0  0  0  0
  149.6003  141.2930  157.0984 C   0  0  2  0  0  0  0  0  0  0  0  0
  148.2239  141.2010  156.8679 O   0  0  0  0  0  0  0  0  0  0  0  0
  147.9701  140.9775  155.4833 C   0  0  1  0  0  0  0  0  0  0  0  0
  146.5563  141.4623  155.1301 C   0  0  0  0  0  0  0  0  0  0  0  0
  146.4086  142.8189  155.4912 O   0  0  0  0  0  0  0  0  0  0  0  0
  149.0838  141.7956  154.8314 C   0  0  2  0  0  0  0  0  0  0  0  0
  149.2916  141.4698  153.4694 O   0  0  0  0  0  0  0  0  0  0  0  0
  150.2831  141.4888  155.7229 C   0  0  2  0  0  0  0  0  0  0  0  0
  151.0012  140.3479  155.2759 O   0  0  0  0  0  0  0  0  0  0  0  0
  149.2631  138.9474  158.0376 C   0  0  0  0  0  0  0  0  0  0  0  0
  149.6846  137.8391  158.6912 C   0  0  0  0  0  0  0  0  0  0  0  0
  148.3709  136.3686  158.8794 Br  0  0  0  0  0  0  0  0  0  0  0  0
  152.7722  138.8674  159.3356 H   0  0  0  0  0  0  0  0  0  0  0  0
  149.7585  142.1278  157.7839 H   0  0  0  0  0  0  0  0  0  0  0  0
  148.0993  139.9215  155.2391 H   0  0  0  0  0  0  0  0  0  0  0  0
  146.3412  141.3246  154.0701 H   0  0  0  0  0  0  0  0  0  0  0  0
  145.8133  140.8927  155.6887 H   0  0  0  0  0  0  0  0  0  0  0  0
  147.2161  143.2707  155.2993 H   0  0  0  0  0  0  0  0  0  0  0  0
  148.8463  142.8581  154.9075 H   0  0  0  0  0  0  0  0  0  0  0  0
  149.9832  140.8281  153.4161 H   0  0  0  0  0  0  0  0  0  0  0  0
  150.9721  142.3324  155.7730 H   0  0  0  0  0  0  0  0  0  0  0  0
  150.6631  139.5887  155.7259 H   0  0  0  0  0  0  0  0  0  0  0  0
  148.2492  138.9476  157.6687 H   0  0  0  0  0  0  0  0  0  0  0  0
  1  2  2  0  0  0  0
  2 17  1  0  0  0  0
  2  3  1  0  0  0  0
  3 19  1  0  0  0  0
  3  4  1  0  0  0  0
  4  5  2  0  0  0  0
  4  6  1  0  0  0  0
  6  7  1  0  0  0  0
  6 16  1  0  0  0  0
  7 14  1  0  0  0  0
  7  8  1  0  0  0  0
  7 20  1  0  0  0  0
  8  9  1  0  0  0  0
  9 10  1  0  0  0  0
  9 12  1  0  0  0  0
  9 21  1  0  0  0  0
 10 11  1  0  0  0  0
 10 22  1  0  0  0  0
 10 23  1  0  0  0  0
 11 24  1  0  0  0  0
 12 13  1  0  0  0  0
 12 14  1  0  0  0  0
 12 25  1  0  0  0  0
 13 26  1  0  0  0  0
 14 15  1  0  0  0  0
 14 27  1  0  0  0  0
 15 28  1  0  0  0  0
 16 17  2  0  0  0  0
 16 29  1  0  0  0  0
 17 18  1  0  0  0  0
M  END
> <s_m_source_file>
AV-unprocessed.smi

> <i_m_source_file_index>
35

> <i_lp_mmshare_version>
43012

> <i_f3d_flags>
0

> <s_epik_input>
Tz1jMVtuSF1jKD1PKW4oW2NIXWMxQnIpW0NAQEhdMk9bQ0BASF0oW0NIMl1bT0hdKVtDQEBIXShbT0hdKVtDQEhdMltPSF0=

> <s_epik_cmdline>
J2VwaWtfcHl0aG9uJywgJy1waCcsICc3LjAnLCAnLXRuJywgJzgnLCAnLW1hJywgJzIwMCcsICctbWV0YWxfYmluZGluZycsICctaW1hZScsICc8aW5maWxlLm1hZT4nLCAnLW9tYWUnLCAnPG91dGZpbGUubWFlPic=

> <r_lp_tautomer_probability>
0.999537

> <r_epik_Ionization_Penalty>
0.10812

> <r_epik_Ionization_Penalty_Charging>
0.108119

> <r_epik_Ionization_Penalty_Neutral>
4.93006e-07

> <r_epik_State_Penalty>
0.0979238

> <r_epik_Charging_Adjusted_Penalty>
0.206043

> <i_epik_Tot_Q>
0

> <i_epik_Tot_abs_Q>
0

> <r_epik_Metal_State_Penalty>
3.07911

> <b_epik_Metal_Only>
0

> <s_epik_Chemistry_Notes>
This compound contains an acetal/aminal-like group ( X-CH(R)-Y where X, Y are N, S, or O) that may be acid/base labile, releasing an aldehyde.

> <s_lp_Force_Field>
OPLS_2005

> <r_lp_Energy>
37.6264

> <b_lp_Chiralities_Consistent>
1

> <s_lp_Variant>
AV-unprocessed.smi:35-13

> <Gold.Version>
5.8.1

> <Gold.Id.Protein>
6NUR|6NUR_protein|mol2

> <Gold.PLP.Fitness>
34.6985

> <Gold.PLP.PLP>
-24.3650

> <Gold.PLP.part.hbond>
-6.4320

> <Gold.PLP.part.metal>
0.0000

> <Gold.PLP.part.buried>
-0.5450

> <Gold.PLP.part.nonpolar>
-15.4847

> <Gold.PLP.part.repulsive>
0.1565

> <Gold.PLP.ligand.clash>
0.0000

> <Gold.PLP.ligand.torsion>
0.1496

> <Gold.PLP.Chemscore.Hbond>
3.5147

> <Gold.PLP.Chemscore.CHOScore>
0.0000

> <Gold.PLP.Chemscore.Metal>
0.0000

> <Gold.Chemscore.Hbonds>
donor molecule, donor type, donor heavy atom, donor atom, acceptor molecule, acceptor atom, score
      L1  H    11    24       P1  8028  0.38
      P1  H  6896  6908       L1     1  1.00
      P1  H  7989  7998       L1    15  1.00
      P1  H  8011  8017       L1    13  0.81

> <Gold.PLP.Chemscore.Internal.Correction>
0.0886

> <Gold.Rescore>
     Score         DG    S(hbond)    S(metal)    S(lipo)     H(rot)  DE(clash)    DE(int)     intcor
      6.74      -7.59       2.24        0.00      34.29       3.67       0.58       0.27       ----

> <Gold.Chemscore.Fitness>
6.7370

> <Gold.Chemscore.DG>
-7.5869

> <Gold.Chemscore.ZeroCoef>
-5.4800

> <Gold.Chemscore.Hbond>
2.2426

> <Gold.Chemscore.Metal>
0.0000

> <Gold.Chemscore.Lipo>
34.2900

> <Gold.Chemscore.Internal_Hbond>
0.0000

> <Gold.Chemscore.DEClash>
0.5764

> <Gold.Chemscore.DEInternal>
0.2735

> <Gold.Chemscore.Rot>
3.6701

> <Gold.Chemscore.Internal.Correction>
   9.000000E+99

> <Gold.Chemscore.Hbonds>
donor molecule, donor type, donor heavy atom, donor atom, acceptor molecule, acceptor atom, score
      L1  H    11    24       P1  8028  0.03
      P1  H  6896  6908       L1     1  0.99
      P1  H  7989  7998       L1    15  0.38
      P1  H  8011  8017       L1    13  0.15

> <Gold.Chemscore.Hbond.Weighted>
-7.4904

> <Gold.Chemscore.Metal.Weighted>
-0.0000

> <Gold.Chemscore.Lipo.Weighted>
-4.0119

> <Gold.Chemscore.Internal_Hbond.Weighted>
0.0000

> <Gold.Chemscore.DEClash.Weighted>
0.5764

> <Gold.Chemscore.DEInternal.Weighted>
0.2735

> <Gold.Chemscore.Rot.Weighted>
9.3955

> <Gold.Chemscore.Internal.Correction.Weighted>
   9.000000E+99

> <Gold.Protein.RotatedTorsions>
[ 6907 6896 6895 6894 ] final -123.53 input  -60.11 | X-H torsion
[ 7974 7965 7964 7962 ] final -102.91 input  175.53 | X-H torsion
[ 8008 7997 7996 7995 ] final -142.36 input   59.86 | X-H torsion
[ 10167 10162 10161 10158 ] final  100.54 input  -65.29 | X-H torsion
[ 10718 10713 10712 10709 ] final   53.38 input   66.30 | X-H torsion
[ 10763 10752 10751 10750 ] final  -66.52 input  -60.55 | X-H torsion
[ 11005 11000 10999 10996 ] final  138.26 input  -57.11 | X-H torsion

> <Gold.Protein.ActiveResidues>
 VAL166  LYS551  ARG553  GLY616  TRP617  ASP618  TYR619  PRO620  LYS621  CYS622 
 ASP623  PHE694  ASN695  SER759  ASP760  ASP761  ALA762  ILE779  LEU786  VAL792 
 PHE793  MET794  SER795  GLU796  ALA797  LYS798  CYS799  TRP800  GLU811  SER814 

> <Gold.Protein.RotatedAtoms>
  150.8680  133.7547  159.2970 H   0  0  0  0  0  0  0  0  0  0  0  0  # atno 6907 bound_to 6896
  151.5168  135.1065  159.9878 H   0  0  0  0  0  0  0  0  0  0  0  0  # atno 6908 bound_to 6896
  152.4674  133.7909  159.6957 H   0  0  0  0  0  0  0  0  0  0  0  0  # atno 6909 bound_to 6896
  145.2627  140.9274  143.3032 H   0  0  0  0  0  0  0  0  0  0  0  0  # atno 7974 bound_to 7965
  155.4930  140.0569  157.2951 H   0  0  0  0  0  0  0  0  0  0  0  0  # atno 8008 bound_to 7997
  154.4616  140.1999  156.0180 H   0  0  0  0  0  0  0  0  0  0  0  0  # atno 8009 bound_to 7997
  156.0900  140.3235  155.7808 H   0  0  0  0  0  0  0  0  0  0  0  0  # atno 8010 bound_to 7997
  139.7518  144.6981  151.0420 H   0  0  0  0  0  0  0  0  0  0  0  0  # atno 10167 bound_to 10162
  157.5161  130.8533  149.8498 H   0  0  0  0  0  0  0  0  0  0  0  0  # atno 10718 bound_to 10713
  154.3610  135.6116  153.5691 H   0  0  0  0  0  0  0  0  0  0  0  0  # atno 10763 bound_to 10752
  152.9793  135.5815  154.4632 H   0  0  0  0  0  0  0  0  0  0  0  0  # atno 10764 bound_to 10752
  154.4370  135.2849  155.1851 H   0  0  0  0  0  0  0  0  0  0  0  0  # atno 10765 bound_to 10752
  140.0171  134.9413  157.0398 H   0  0  0  0  0  0  0  0  0  0  0  0  # atno 11005 bound_to 11000
  144.9404  139.4195  143.6451 LP  0  0  0  0  0  0  0  0  0  0  0  0  # atno 17320 bound_to 7965
  146.3270  139.8361  142.8899 LP  0  0  0  0  0  0  0  0  0  0  0  0  # atno 17321 bound_to 7965
  140.7798  143.4800  151.0031 LP  0  0  0  0  0  0  0  0  0  0  0  0  # atno 17342 bound_to 10162
  139.8487  143.7467  152.3178 LP  0  0  0  0  0  0  0  0  0  0  0  0  # atno 17343 bound_to 10162
  156.0321  130.3761  150.1658 LP  0  0  0  0  0  0  0  0  0  0  0  0  # atno 17370 bound_to 10713
  156.9847  130.9875  151.3429 LP  0  0  0  0  0  0  0  0  0  0  0  0  # atno 17371 bound_to 10713
  140.4452  134.1640  155.7177 LP  0  0  0  0  0  0  0  0  0  0  0  0  # atno 17394 bound_to 11000
  141.1750  133.8532  157.1451 LP  0  0  0  0  0  0  0  0  0  0  0  0  # atno 17395 bound_to 11000

$$$$
