#       Name:                AV-unprocessed.smi:2562
#       Creating user name   scv26
#       Creation time:       Fri Mar 27 14:09:02 2020


#       File generated by GOLD software.
#

@<TRIPOS>MOLECULE
AV-unprocessed.smi:2562
    35    36     1
SMALL
NO_CHARGES


@<TRIPOS>ATOM
      1 ****        -2.5041   4.4860  -1.3411 C.3            1 S1                 0.0000
      2 ****        -1.9578   3.0545  -1.3119 C.3            1 S1                 0.0000
      3 ****        -0.4230   3.0079  -1.3261 C.3            1 S1                 0.0000
      4 ****         0.0982   1.6095  -1.2826 C.2            1 S1                 0.0000
      5 ****         0.3048   0.9145  -2.3996 N.2            1 S1                 0.0000
      6 ****         0.7159  -0.2766  -1.9166 N.pl3          1 S1                 0.0000
      7 ****         0.7186  -0.2389  -0.5814 C.2            1 S1                 0.0000
      8 ****         1.1275  -1.4245   0.2403 C.3            1 S1                 0.0000
      9 ****         1.0531  -1.1921   1.7650 C.3            1 S1                 0.0000
     10 ****         1.3933  -2.4359   2.4827 N.4            1 S1                 1.0000
     11 ****         0.5391  -3.5593   2.0501 C.3            1 S1                 0.0000
     12 ****         0.6051  -3.7172   0.5207 C.3            1 S1                 0.0000
     13 ****         0.2467  -2.4901  -0.1076 O.3            1 S1                 0.0000
     14 ****         0.3297   0.9433  -0.1113 N.2            1 S1                 0.0000
     15 ****         0.9631  -1.0551  -2.5108 H              1 S1                 0.0000
     16 ****        -3.5942   4.4856  -1.3274 H              1 S1                 0.0000
     17 ****        -2.1823   5.0129  -2.2399 H              1 S1                 0.0000
     18 ****        -2.1614   5.0555  -0.4768 H              1 S1                 0.0000
     19 ****        -2.3311   2.5477  -0.4212 H              1 S1                 0.0000
     20 ****        -2.3486   2.5030  -2.1678 H              1 S1                 0.0000
     21 ****        -0.0421   3.5035  -2.2202 H              1 S1                 0.0000
     22 ****        -0.0248   3.5600  -0.4738 H              1 S1                 0.0000
     23 ****         2.1475  -1.6891  -0.0448 H              1 S1                 0.0000
     24 ****         1.7399  -0.4027   2.0714 H              1 S1                 0.0000
     25 ****         0.0491  -0.8802   2.0573 H              1 S1                 0.0000
     26 ****         2.3573  -2.6677   2.2894 H              1 S1                 0.0000
     27 ****         0.8652  -4.4738   2.5457 H              1 S1                 0.0000
     28 ****        -0.4878  -3.3704   2.3656 H              1 S1                 0.0000
     29 ****         1.6039  -4.0215   0.2035 H              1 S1                 0.0000
     30 ****        -0.0835  -4.4965   0.1935 H              1 S1                 0.0000
     31 ****         1.2831  -2.2918   3.4766 H              1 S1                 0.0000
     32 ****         0.1860   1.2011  -3.3503 LP             1 S1                 0.0000
     33 ****         0.2724  -2.6174  -1.0992 LP             1 S1                 0.0000
     34 ****        -0.6812  -2.2445   0.1730 LP             1 S1                 0.0000
     35 ****         0.2336   1.2567   0.8334 LP             1 S1                 0.0000
@<TRIPOS>BOND
    1    1    2 1     
    2    1   16 1     
    3    1   17 1     
    4    1   18 1     
    5    2    3 1     
    6    2   19 1     
    7    2   20 1     
    8    3    4 1     
    9    3   21 1     
   10    3   22 1     
   11    4   14 1     
   12    4    5 2     
   13    5    6 1     
   14    6   15 1     
   15    6    7 1     
   16    7    8 1     
   17    7   14 2     
   18    8   13 1     
   19    8    9 1     
   20    8   23 1     
   21    9   10 1     
   22    9   24 1     
   23    9   25 1     
   24   10   11 1     
   25   10   26 1     
   26   10   31 1     
   27   11   12 1     
   28   11   27 1     
   29   11   28 1     
   30   12   13 1     
   31   12   29 1     
   32   12   30 1     
   33    5   32 1     
   34   13   33 1     
   35   13   34 1     
   36   14   35 1     
@<TRIPOS>SUBSTRUCTURE
      1 S1             1
@<TRIPOS>SET
LONE_PAIRS      STATIC     ATOMS    <user>   **** ""
4 32 33 34 35
DONOR_HYDROGENS      STATIC     ATOMS    <user>   **** ""
3 15 26 31
ATOM$BLUE        STATIC     ATOMS    COLORGROUP SYSTEM
4 32 33 34 35
ATOM$RED        STATIC     ATOMS    COLORGROUP SYSTEM
3 15 26 31
