AV-unprocessed.smi:1116|AV-procd|sdf|4810|dock6
  -GOLD-   22720 3363D 1   1.00000     0.00000
 Structure written by MMmdl.
 35 36  0  0  0  0  0  0  0  0  2 V2000
  151.5600  143.7875  159.4586 C   0  0  0  0  0  0  0  0  0  0  0  0
  152.4309  142.9946  160.3716 C   0  0  0  0  0  0  0  0  0  0  0  0
  153.2662  142.0407  159.9522 N   0  0  0  0  0  0  0  0  0  0  0  0
  153.9697  141.4407  161.0012 C   0  0  0  0  0  0  0  0  0  0  0  0
  154.9496  140.3446  160.7122 C   0  0  0  0  0  0  0  0  0  0  0  0
  154.3047  138.9510  160.7991 C   0  0  0  0  0  0  0  0  0  0  0  0
  153.9725  138.4266  159.4797 N   0  0  0  0  0  0  0  0  0  0  0  0
  153.3630  137.2542  159.2458 C   0  0  0  0  0  0  0  0  0  0  0  0
  153.0072  136.4882  160.1418 O   0  0  0  0  0  0  0  0  0  0  0  0
  153.1104  136.9054  157.7769 C   0  0  0  0  0  0  0  0  0  0  0  0
  152.3530  138.0116  157.0175 C   0  0  0  0  0  0  0  0  0  0  0  0
  150.8797  138.1377  157.4588 C   0  0  1  0  0  0  0  0  0  0  0  0
  150.3491  139.4595  157.1720 N   0  5  0  0  0  0  0  0  0  0  0  0
  149.2745  139.3235  156.3595 C   0  0  0  0  0  0  0  0  0  0  0  0
  148.5550  140.2124  155.9092 O   0  0  0  0  0  0  0  0  0  0  0  0
  149.0590  138.0357  156.0714 N   0  0  0  0  0  0  0  0  0  0  0  0
  149.9551  137.2452  156.6532 C   0  0  0  0  0  0  0  0  0  0  0  0
  150.0370  136.0204  156.5715 O   0  0  0  0  0  0  0  0  0  0  0  0
  153.6539  141.9613  162.2315 C   0  0  0  0  0  0  0  0  0  0  0  0
  152.4589  143.2241  162.1156 S   0  0  0  0  0  0  0  0  0  0  0  0
  151.6406  143.4202  158.4349 H   0  0  0  0  0  0  0  0  0  0  0  0
  151.8572  144.8359  159.4785 H   0  0  0  0  0  0  0  0  0  0  0  0
  150.5200  143.7107  159.7759 H   0  0  0  0  0  0  0  0  0  0  0  0
  155.3800  140.4913  159.7209 H   0  0  0  0  0  0  0  0  0  0  0  0
  155.7853  140.4009  161.4109 H   0  0  0  0  0  0  0  0  0  0  0  0
  154.9941  138.2529  161.2748 H   0  0  0  0  0  0  0  0  0  0  0  0
  153.4104  138.9789  161.4241 H   0  0  0  0  0  0  0  0  0  0  0  0
  154.2314  138.9912  158.6835 H   0  0  0  0  0  0  0  0  0  0  0  0
  154.0717  136.7176  157.2977 H   0  0  0  0  0  0  0  0  0  0  0  0
  152.5483  135.9719  157.7232 H   0  0  0  0  0  0  0  0  0  0  0  0
  152.8647  138.9679  157.1444 H   0  0  0  0  0  0  0  0  0  0  0  0
  152.3875  137.7914  155.9490 H   0  0  0  0  0  0  0  0  0  0  0  0
  150.7813  137.8679  158.5113 H   0  0  0  0  0  0  0  0  0  0  0  0
  148.3134  137.7067  155.4766 H   0  0  0  0  0  0  0  0  0  0  0  0
  154.0495  141.6791  163.1960 H   0  0  0  0  0  0  0  0  0  0  0  0
  1  2  1  0  0  0  0
  1 21  1  0  0  0  0
  1 22  1  0  0  0  0
  1 23  1  0  0  0  0
  2 20  1  0  0  0  0
  2  3  2  0  0  0  0
  3  4  1  0  0  0  0
  4  5  1  0  0  0  0
  4 19  2  0  0  0  0
  5  6  1  0  0  0  0
  5 24  1  0  0  0  0
  5 25  1  0  0  0  0
  6  7  1  0  0  0  0
  6 26  1  0  0  0  0
  6 27  1  0  0  0  0
  7  8  1  0  0  0  0
  7 28  1  0  0  0  0
  8  9  2  0  0  0  0
  8 10  1  0  0  0  0
 10 11  1  0  0  0  0
 10 29  1  0  0  0  0
 10 30  1  0  0  0  0
 11 12  1  0  0  0  0
 11 31  1  0  0  0  0
 11 32  1  0  0  0  0
 12 17  1  0  0  0  0
 12 13  1  0  0  0  0
 12 33  1  0  0  0  0
 13 14  1  0  0  0  0
 14 15  2  0  0  0  0
 14 16  1  0  0  0  0
 16 17  1  0  0  0  0
 16 34  1  0  0  0  0
 17 18  2  0  0  0  0
 19 20  1  0  0  0  0
 19 35  1  0  0  0  0
M  CHG  1  13  -1
M  END
> <s_m_source_file>
AV-unprocessed.smi

> <i_m_source_file_index>
1116

> <i_lp_mmshare_version>
43012

> <i_f3d_flags>
0

> <s_epik_input>
W0NIM11jMW5jKFtjSF1zMSlbQ0gyXVtDSDJdW05IXUMoPU8pW0NIMl1bQ0gyXVtDQEBIXTJbTkhdQyg9TylbTkhdQzI9Tw==

> <s_epik_cmdline>
J2VwaWtfcHl0aG9uJywgJy1waCcsICc3LjAnLCAnLXRuJywgJzgnLCAnLW1hJywgJzIwMCcsICctbWV0YWxfYmluZGluZycsICctaW1hZScsICc8aW5maWxlLm1hZT4nLCAnLW9tYWUnLCAnPG91dGZpbGUubWFlPic=

> <r_lp_tautomer_probability>
1

> <r_epik_Ionization_Penalty>
5.7962

> <r_epik_Ionization_Penalty_Charging>
5.79516

> <r_epik_Ionization_Penalty_Neutral>
0.00104588

> <r_epik_State_Penalty>
5.80096

> <r_epik_Charging_Adjusted_Penalty>
11.5961

> <i_epik_Tot_Q>
-1

> <i_epik_Tot_abs_Q>
1

> <r_epik_Metal_State_Penalty>
2.1448

> <b_epik_Metal_Only>
1

> <s_lp_Force_Field>
OPLS_2005

> <r_lp_Energy>
5.74046

> <b_lp_Chiralities_Consistent>
1

> <s_lp_Variant>
AV-unprocessed.smi:1116-4

> <Gold.Version>
5.8.1

> <Gold.Id.Protein>
6NUR|6NUR_protein|mol2

> <Gold.PLP.Fitness>
42.5681

> <Gold.PLP.PLP>
-35.5897

> <Gold.PLP.part.hbond>
-2.9128

> <Gold.PLP.part.metal>
0.0000

> <Gold.PLP.part.buried>
-4.7814

> <Gold.PLP.part.nonpolar>
-27.9918

> <Gold.PLP.part.repulsive>
0.3165

> <Gold.PLP.ligand.clash>
0.0000

> <Gold.PLP.ligand.torsion>
1.0216

> <Gold.PLP.Chemscore.Hbond>
2.9913

> <Gold.PLP.Chemscore.CHOScore>
0.0000

> <Gold.PLP.Chemscore.Metal>
0.0000

> <Gold.Chemscore.Hbonds>
donor molecule, donor type, donor heavy atom, donor atom, acceptor molecule, acceptor atom, score
      P1  H  6896  6907       L1     9  1.00

> <Gold.PLP.Chemscore.Internal.Correction>
0.0479

> <Gold.Rescore>
     Score         DG    S(hbond)    S(metal)    S(lipo)     H(rot)  DE(clash)    DE(int)     intcor
     15.51     -16.82       2.61        0.00      82.99       2.77       0.22       1.09       ----

> <Gold.Chemscore.Fitness>
15.5077

> <Gold.Chemscore.DG>
-16.8220

> <Gold.Chemscore.ZeroCoef>
-5.4800

> <Gold.Chemscore.Hbond>
2.6111

> <Gold.Chemscore.Metal>
0.0000

> <Gold.Chemscore.Lipo>
82.9885

> <Gold.Chemscore.Internal_Hbond>
0.0000

> <Gold.Chemscore.DEClash>
0.2213

> <Gold.Chemscore.DEInternal>
1.0929

> <Gold.Chemscore.Rot>
2.7691

> <Gold.Chemscore.Internal.Correction>
   9.000000E+99

> <Gold.Chemscore.Hbonds>
donor molecule, donor type, donor heavy atom, donor atom, acceptor molecule, acceptor atom, score
      P1  H  6896  6907       L1     9  1.00

> <Gold.Chemscore.Hbond.Weighted>
-8.7212

> <Gold.Chemscore.Metal.Weighted>
-0.0000

> <Gold.Chemscore.Lipo.Weighted>
-9.7097

> <Gold.Chemscore.Internal_Hbond.Weighted>
0.0000

> <Gold.Chemscore.DEClash.Weighted>
0.2213

> <Gold.Chemscore.DEInternal.Weighted>
1.0929

> <Gold.Chemscore.Rot.Weighted>
7.0889

> <Gold.Chemscore.Internal.Correction.Weighted>
   9.000000E+99

> <Gold.Protein.RotatedTorsions>
[ 6907 6896 6895 6894 ] final   44.43 input  -60.11 | X-H torsion
[ 7974 7965 7964 7962 ] final  -86.44 input  175.53 | X-H torsion
[ 8008 7997 7996 7995 ] final  -46.69 input   59.86 | X-H torsion
[ 10167 10162 10161 10158 ] final  -49.11 input  -65.29 | X-H torsion
[ 10718 10713 10712 10709 ] final  106.68 input   66.30 | X-H torsion
[ 10763 10752 10751 10750 ] final   60.32 input  -60.55 | X-H torsion
[ 11005 11000 10999 10996 ] final   30.10 input  -57.11 | X-H torsion

> <Gold.Protein.ActiveResidues>
 VAL166  LYS551  ARG553  GLY616  TRP617  ASP618  TYR619  PRO620  LYS621  CYS622 
 ASP623  PHE694  ASN695  SER759  ASP760  ASP761  ALA762  ILE779  LEU786  VAL792 
 PHE793  MET794  SER795  GLU796  ALA797  LYS798  CYS799  TRP800  GLU811  SER814 

> <Gold.Protein.RotatedAtoms>
  152.2324  134.8309  160.0471 H   0  0  0  0  0  0  0  0  0  0  0  0  # atno 6907 bound_to 6896
  151.9054  133.3543  159.3853 H   0  0  0  0  0  0  0  0  0  0  0  0  # atno 6908 bound_to 6896
  150.7029  134.4712  159.5470 H   0  0  0  0  0  0  0  0  0  0  0  0  # atno 6909 bound_to 6896
  145.4799  140.9557  143.1870 H   0  0  0  0  0  0  0  0  0  0  0  0  # atno 7974 bound_to 7965
  154.4009  140.1365  156.4053 H   0  0  0  0  0  0  0  0  0  0  0  0  # atno 8008 bound_to 7997
  155.7786  140.3482  155.5264 H   0  0  0  0  0  0  0  0  0  0  0  0  # atno 8009 bound_to 7997
  155.8696  140.0969  157.1549 H   0  0  0  0  0  0  0  0  0  0  0  0  # atno 8010 bound_to 7997
  140.6700  143.2711  151.4168 H   0  0  0  0  0  0  0  0  0  0  0  0  # atno 10167 bound_to 10162
  157.6659  131.0856  150.6042 H   0  0  0  0  0  0  0  0  0  0  0  0  # atno 10718 bound_to 10713
  152.9918  135.5540  154.5855 H   0  0  0  0  0  0  0  0  0  0  0  0  # atno 10763 bound_to 10752
  154.5227  135.2808  155.1250 H   0  0  0  0  0  0  0  0  0  0  0  0  # atno 10764 bound_to 10752
  154.2597  135.6383  153.5323 H   0  0  0  0  0  0  0  0  0  0  0  0  # atno 10765 bound_to 10752
  140.2979  134.2790  155.7760 H   0  0  0  0  0  0  0  0  0  0  0  0  # atno 11005 bound_to 11000
  144.7895  139.6358  143.7119 LP  0  0  0  0  0  0  0  0  0  0  0  0  # atno 17320 bound_to 7965
  146.2347  139.5882  142.9532 LP  0  0  0  0  0  0  0  0  0  0  0  0  # atno 17321 bound_to 7965
  139.5964  144.1387  152.2149 LP  0  0  0  0  0  0  0  0  0  0  0  0  # atno 17342 bound_to 10162
  140.0758  144.5741  150.7158 LP  0  0  0  0  0  0  0  0  0  0  0  0  # atno 17343 bound_to 10162
  156.6343  130.4441  149.5775 LP  0  0  0  0  0  0  0  0  0  0  0  0  # atno 17370 bound_to 10713
  156.2257  130.6764  151.1414 LP  0  0  0  0  0  0  0  0  0  0  0  0  # atno 17371 bound_to 10713
  141.2134  133.7627  156.9723 LP  0  0  0  0  0  0  0  0  0  0  0  0  # atno 17394 bound_to 11000
  140.1136  134.9461  157.2101 LP  0  0  0  0  0  0  0  0  0  0  0  0  # atno 17395 bound_to 11000

$$$$
