AV-unprocessed.smi:1695|AV-procd|sdf|6794|dock7
  -GOLD-   22720 7563D 1   1.00000     0.00000
 Structure written by MMmdl.
 52 54  0  0  0  0  0  0  0  0  3 V2000
  152.3875  143.9823  159.9903 C   0  0  0  0  0  0  0  0  0  0  0  0
  152.0890  142.8969  158.9700 C   0  0  0  0  0  0  0  0  0  0  0  0
  151.1671  143.1780  157.9363 C   0  0  0  0  0  0  0  0  0  0  0  0
  150.9136  142.1646  157.0197 C   0  0  0  0  0  0  0  0  0  0  0  0
  150.0731  142.1269  155.9048 N   0  3  0  0  0  0  0  0  0  0  0  0
  150.1603  140.9045  155.3104 C   0  0  0  0  0  0  0  0  0  0  0  0
  151.0398  140.1590  156.0339 N   0  0  0  0  0  0  0  0  0  0  0  0
  151.4983  138.7777  155.8334 C   0  0  0  0  0  0  0  0  0  0  0  0
  150.7936  138.0754  154.6555 C   0  0  1  0  0  0  0  0  0  0  0  0
  151.7281  137.2607  153.9744 O   0  0  0  0  0  0  0  0  0  0  0  0
  149.6236  137.1938  155.1350 C   0  0  0  0  0  0  0  0  0  0  0  0
  148.4432  137.2714  154.2361 N   0  3  1  0  0  0  0  0  0  0  0  0
  147.3618  136.3407  154.6479 C   0  0  0  0  0  0  0  0  0  0  0  0
  146.2134  136.3266  153.6206 C   0  0  0  0  0  0  0  0  0  0  0  0
  145.6415  137.7292  153.3259 C   0  0  1  0  0  0  0  0  0  0  0  0
  144.7204  138.2450  154.4474 C   0  0  0  0  0  0  0  0  0  0  0  0
  143.4371  138.4410  154.1347 N   0  0  0  0  0  0  0  0  0  0  0  0
  145.1506  138.4658  155.5773 O   0  0  0  0  0  0  0  0  0  0  0  0
  146.7997  138.6988  153.0086 C   0  0  0  0  0  0  0  0  0  0  0  0
  147.9343  138.6561  154.0505 C   0  0  0  0  0  0  0  0  0  0  0  0
  151.5403  140.9063  157.1054 C   0  0  0  0  0  0  0  0  0  0  0  0
  152.4534  140.6133  158.1155 C   0  0  0  0  0  0  0  0  0  0  0  0
  152.7242  141.6310  159.0580 C   0  0  0  0  0  0  0  0  0  0  0  0
  153.7138  141.3407  160.1736 C   0  0  0  0  0  0  0  0  0  0  0  0
  151.8303  144.8950  159.7772 H   0  0  0  0  0  0  0  0  0  0  0  0
  153.4490  144.2315  159.9859 H   0  0  0  0  0  0  0  0  0  0  0  0
  152.1133  143.6512  160.9922 H   0  0  0  0  0  0  0  0  0  0  0  0
  150.6807  144.1400  157.8628 H   0  0  0  0  0  0  0  0  0  0  0  0
  149.6263  140.5844  154.4270 H   0  0  0  0  0  0  0  0  0  0  0  0
  152.5759  138.8121  155.6658 H   0  0  0  0  0  0  0  0  0  0  0  0
  151.3470  138.2282  156.7635 H   0  0  0  0  0  0  0  0  0  0  0  0
  150.4378  138.8333  153.9592 H   0  0  0  0  0  0  0  0  0  0  0  0
  151.3487  136.9917  153.1514 H   0  0  0  0  0  0  0  0  0  0  0  0
  149.9747  136.1620  155.1960 H   0  0  0  0  0  0  0  0  0  0  0  0
  149.3231  137.4704  156.1469 H   0  0  0  0  0  0  0  0  0  0  0  0
  147.7645  135.3309  154.7335 H   0  0  0  0  0  0  0  0  0  0  0  0
  146.9990  136.6132  155.6392 H   0  0  0  0  0  0  0  0  0  0  0  0
  146.5800  135.8943  152.6886 H   0  0  0  0  0  0  0  0  0  0  0  0
  145.4213  135.6596  153.9641 H   0  0  0  0  0  0  0  0  0  0  0  0
  145.0287  137.6484  152.4265 H   0  0  0  0  0  0  0  0  0  0  0  0
  142.7902  138.7784  154.8330 H   0  0  0  0  0  0  0  0  0  0  0  0
  143.1159  138.2502  153.1963 H   0  0  0  0  0  0  0  0  0  0  0  0
  147.2114  138.4462  152.0305 H   0  0  0  0  0  0  0  0  0  0  0  0
  146.4241  139.7190  152.9168 H   0  0  0  0  0  0  0  0  0  0  0  0
  147.5991  139.0565  155.0074 H   0  0  0  0  0  0  0  0  0  0  0  0
  148.7364  139.3103  153.7124 H   0  0  0  0  0  0  0  0  0  0  0  0
  152.9377  139.6503  158.1820 H   0  0  0  0  0  0  0  0  0  0  0  0
  154.1080  140.3264  160.1041 H   0  0  0  0  0  0  0  0  0  0  0  0
  153.2349  141.4453  161.1473 H   0  0  0  0  0  0  0  0  0  0  0  0
  154.5574  142.0296  160.1260 H   0  0  0  0  0  0  0  0  0  0  0  0
  148.7587  136.9482  153.3325 H   0  0  0  0  0  0  0  0  0  0  0  0
  149.4848  142.8795  155.5701 H   0  0  0  0  0  0  0  0  0  0  0  0
  1  2  1  0  0  0  0
  1 25  1  0  0  0  0
  1 26  1  0  0  0  0
  1 27  1  0  0  0  0
  2 23  1  0  0  0  0
  2  3  2  0  0  0  0
  3  4  1  0  0  0  0
  3 28  1  0  0  0  0
  4 21  2  0  0  0  0
  4  5  1  0  0  0  0
  5  6  2  0  0  0  0
  5 52  1  0  0  0  0
  6  7  1  0  0  0  0
  6 29  1  0  0  0  0
  7  8  1  0  0  0  0
  7 21  1  0  0  0  0
  8  9  1  0  0  0  0
  8 30  1  0  0  0  0
  8 31  1  0  0  0  0
  9 10  1  0  0  0  0
  9 11  1  0  0  0  0
  9 32  1  0  0  0  0
 10 33  1  0  0  0  0
 11 12  1  0  0  0  0
 11 34  1  0  0  0  0
 11 35  1  0  0  0  0
 12 20  1  0  0  0  0
 12 13  1  0  0  0  0
 12 51  1  0  0  0  0
 13 14  1  0  0  0  0
 13 36  1  0  0  0  0
 13 37  1  0  0  0  0
 14 15  1  0  0  0  0
 14 38  1  0  0  0  0
 14 39  1  0  0  0  0
 15 16  1  0  0  0  0
 15 19  1  0  0  0  0
 15 40  1  0  0  0  0
 16 17  1  0  0  0  0
 16 18  2  0  0  0  0
 17 41  1  0  0  0  0
 17 42  1  0  0  0  0
 19 20  1  0  0  0  0
 19 43  1  0  0  0  0
 19 44  1  0  0  0  0
 20 45  1  0  0  0  0
 20 46  1  0  0  0  0
 21 22  1  0  0  0  0
 22 23  2  0  0  0  0
 22 47  1  0  0  0  0
 23 24  1  0  0  0  0
 24 48  1  0  0  0  0
 24 49  1  0  0  0  0
 24 50  1  0  0  0  0
M  CHG  1   5   1
M  CHG  1  12   1
M  END
> <s_m_source_file>
AV-unprocessed.smi

> <i_m_source_file_index>
1695

> <i_lp_mmshare_version>
43012

> <i_f3d_flags>
0

> <s_epik_input>
W0NIM11jKFtjSF0xKWMoW0NIM10pW2NIXWMoYzEyKW4oW2NIXW4yKVtDSDJdW0NASF0oW09IXSlbQ0gyXU4zW0NIMl1bQ0gyXVtDSF0oQyg9TylbTkgyXSlbQ0gyXVtDSDJdMw==

> <s_epik_cmdline>
J2VwaWtfcHl0aG9uJywgJy1waCcsICc3LjAnLCAnLXRuJywgJzgnLCAnLW1hJywgJzIwMCcsICctbWV0YWxfYmluZGluZycsICctaW1hZScsICc8aW5maWxlLm1hZT4nLCAnLW9tYWUnLCAnPG91dGZpbGUubWFlPic=

> <r_epik_Ionization_Penalty>
1.20173

> <r_epik_Ionization_Penalty_Charging>
1.20172

> <r_epik_Ionization_Penalty_Neutral>
1.7852e-06

> <r_epik_State_Penalty>
1.28089

> <r_epik_Charging_Adjusted_Penalty>
2.48261

> <i_epik_Tot_Q>
2

> <i_epik_Tot_abs_Q>
2

> <r_epik_Metal_State_Penalty>
1.35652

> <b_epik_Metal_Only>
0

> <s_lp_Force_Field>
OPLS_2005

> <r_lp_Energy>
25.0715

> <b_lp_Chiralities_Consistent>
1

> <s_lp_Variant>
AV-unprocessed.smi:1695-6

> <Gold.Version>
5.8.1

> <Gold.Id.Protein>
6NUR|6NUR_protein|mol2

> <Gold.PLP.Fitness>
57.8889

> <Gold.PLP.PLP>
-42.0644

> <Gold.PLP.part.hbond>
-5.0000

> <Gold.PLP.part.metal>
0.0000

> <Gold.PLP.part.buried>
-3.7138

> <Gold.PLP.part.nonpolar>
-33.2384

> <Gold.PLP.part.repulsive>
0.1875

> <Gold.PLP.ligand.clash>
0.0000

> <Gold.PLP.ligand.torsion>
1.1125

> <Gold.PLP.Chemscore.Hbond>
6.0000

> <Gold.PLP.Chemscore.CHOScore>
0.0000

> <Gold.PLP.Chemscore.Metal>
0.0000

> <Gold.Chemscore.Hbonds>
donor molecule, donor type, donor heavy atom, donor atom, acceptor molecule, acceptor atom, score
      L1  H     5    52       P1  8028  2.00
      L1  H    10    33       P1  7949  1.00
      L1  H    12    51       P1  7948  2.00
      P1  H 10752 10764       L1    10  0.93

> <Gold.PLP.Chemscore.Internal.Correction>
0.0495

> <Gold.Rescore>
     Score         DG    S(hbond)    S(metal)    S(lipo)     H(rot)  DE(clash)    DE(int)     intcor
     20.09     -21.34       3.12        0.00     110.23       2.91       0.09       1.15       ----

> <Gold.Chemscore.Fitness>
20.0910

> <Gold.Chemscore.DG>
-21.3360

> <Gold.Chemscore.ZeroCoef>
-5.4800

> <Gold.Chemscore.Hbond>
3.1185

> <Gold.Chemscore.Metal>
0.0000

> <Gold.Chemscore.Lipo>
110.2274

> <Gold.Chemscore.Internal_Hbond>
0.0000

> <Gold.Chemscore.DEClash>
0.0923

> <Gold.Chemscore.DEInternal>
1.1527

> <Gold.Chemscore.Rot>
2.9127

> <Gold.Chemscore.Internal.Correction>
   9.000000E+99

> <Gold.Chemscore.Hbonds>
donor molecule, donor type, donor heavy atom, donor atom, acceptor molecule, acceptor atom, score
      L1  H     5    52       P1  8028  0.95
      L1  H    10    33       P1  7949  0.73
      L1  H    12    51       P1  7948  1.00
      P1  H 10752 10764       L1    10  0.22

> <Gold.Chemscore.Hbond.Weighted>
-10.4159

> <Gold.Chemscore.Metal.Weighted>
-0.0000

> <Gold.Chemscore.Lipo.Weighted>
-12.8966

> <Gold.Chemscore.Internal_Hbond.Weighted>
0.0000

> <Gold.Chemscore.DEClash.Weighted>
0.0923

> <Gold.Chemscore.DEInternal.Weighted>
1.1527

> <Gold.Chemscore.Rot.Weighted>
7.4565

> <Gold.Chemscore.Internal.Correction.Weighted>
   9.000000E+99

> <Gold.Protein.RotatedTorsions>
[ 6907 6896 6895 6894 ] final -114.96 input  -60.11 | X-H torsion
[ 7974 7965 7964 7962 ] final -164.70 input  175.53 | X-H torsion
[ 8008 7997 7996 7995 ] final  -44.18 input   59.86 | X-H torsion
[ 10167 10162 10161 10158 ] final  -23.06 input  -65.29 | X-H torsion
[ 10718 10713 10712 10709 ] final   -3.69 input   66.30 | X-H torsion
[ 10763 10752 10751 10750 ] final  -71.74 input  -60.55 | X-H torsion
[ 11005 11000 10999 10996 ] final -110.93 input  -57.11 | X-H torsion

> <Gold.Protein.ActiveResidues>
 VAL166  LYS551  ARG553  GLY616  TRP617  ASP618  TYR619  PRO620  LYS621  CYS622 
 ASP623  PHE694  ASN695  SER759  ASP760  ASP761  ALA762  ILE779  LEU786  VAL792 
 PHE793  MET794  SER795  GLU796  ALA797  LYS798  CYS799  TRP800  GLU811  SER814 

> <Gold.Protein.RotatedAtoms>
  150.7942  133.8726  159.3262 H   0  0  0  0  0  0  0  0  0  0  0  0  # atno 6907 bound_to 6896
  151.6556  135.0994  160.0179 H   0  0  0  0  0  0  0  0  0  0  0  0  # atno 6908 bound_to 6896
  152.4021  133.6794  159.6360 H   0  0  0  0  0  0  0  0  0  0  0  0  # atno 6909 bound_to 6896
  144.7290  140.2923  143.6218 H   0  0  0  0  0  0  0  0  0  0  0  0  # atno 7974 bound_to 7965
  154.3997  140.1429  156.3640 H   0  0  0  0  0  0  0  0  0  0  0  0  # atno 8008 bound_to 7997
  155.8155  140.3471  155.5462 H   0  0  0  0  0  0  0  0  0  0  0  0  # atno 8009 bound_to 7997
  155.8343  140.0917  157.1764 H   0  0  0  0  0  0  0  0  0  0  0  0  # atno 8010 bound_to 7997
  140.7287  143.4477  151.0562 H   0  0  0  0  0  0  0  0  0  0  0  0  # atno 10167 bound_to 10162
  156.7724  130.5304  149.5765 H   0  0  0  0  0  0  0  0  0  0  0  0  # atno 10718 bound_to 10713
  154.4360  135.5952  153.6098 H   0  0  0  0  0  0  0  0  0  0  0  0  # atno 10763 bound_to 10752
  152.9802  135.5986  154.3781 H   0  0  0  0  0  0  0  0  0  0  0  0  # atno 10764 bound_to 10752
  154.3625  135.2841  155.2290 H   0  0  0  0  0  0  0  0  0  0  0  0  # atno 10765 bound_to 10752
  141.0764  133.9294  157.2381 H   0  0  0  0  0  0  0  0  0  0  0  0  # atno 11005 bound_to 11000
  145.7843  139.1903  143.2139 LP  0  0  0  0  0  0  0  0  0  0  0  0  # atno 17320 bound_to 7965
  146.0808  140.7766  142.9642 LP  0  0  0  0  0  0  0  0  0  0  0  0  # atno 17321 bound_to 7965
  139.8150  143.7898  152.3174 LP  0  0  0  0  0  0  0  0  0  0  0  0  # atno 17342 bound_to 10162
  139.7961  144.7392  150.9889 LP  0  0  0  0  0  0  0  0  0  0  0  0  # atno 17343 bound_to 10162
  156.1269  130.6150  151.0277 LP  0  0  0  0  0  0  0  0  0  0  0  0  # atno 17370 bound_to 10713
  157.6685  131.0866  150.7671 LP  0  0  0  0  0  0  0  0  0  0  0  0  # atno 17371 bound_to 10713
  139.9576  135.0162  156.9171 LP  0  0  0  0  0  0  0  0  0  0  0  0  # atno 17394 bound_to 11000
  140.5565  134.0577  155.7385 LP  0  0  0  0  0  0  0  0  0  0  0  0  # atno 17395 bound_to 11000

$$$$
