AV-unprocessed.smi:1648|AV-procd|sdf|6634|dock8
  -GOLD-   22720 7333D 1   1.00000     0.00000
 Structure written by MMmdl.
 41 41  0  0  0  0  0  0  0  0  1 V2000
  150.0342  135.1293  154.7188 C   0  0  0  0  0  0  0  0  0  0  0  0
  149.6286  136.5043  155.2532 C   0  0  0  0  0  0  0  0  0  0  0  0
  149.9293  136.8171  156.4026 O   0  0  0  0  0  0  0  0  0  0  0  0
  148.9596  137.3515  154.4519 N   0  0  0  0  0  0  0  0  0  0  0  0
  148.4889  138.6999  154.7792 C   0  0  1  0  0  0  0  0  0  0  0  0
  149.6899  139.4970  155.3200 C   0  0  0  0  0  0  0  0  0  0  0  0
  150.6698  139.7097  154.6042 O   0  0  0  0  0  0  0  0  0  0  0  0
  149.5938  139.9307  156.5871 N   0  0  0  0  0  0  0  0  0  0  0  0
  150.6163  140.6836  157.3119 C   0  0  1  0  0  0  0  0  0  0  0  0
  151.9903  140.0716  157.0082 C   0  0  0  0  0  0  0  0  0  0  0  0
  150.5713  142.1803  156.9346 C   0  0  0  0  0  0  0  0  0  0  0  0
  151.3354  143.0147  157.8450 N   0  0  0  0  0  0  0  0  0  0  0  0
  151.4477  144.3988  157.8200 C   0  0  0  0  0  0  0  0  0  0  0  0
  152.2783  144.7450  158.8616 C   0  0  0  0  0  0  0  0  0  0  0  0
  152.6723  143.5987  159.5481 N   0  0  0  0  0  0  0  0  0  0  0  0
  152.0688  142.6156  158.8934 C   0  0  0  0  0  0  0  0  0  0  0  0
  147.9462  139.3720  153.4835 C   0  0  0  0  0  0  0  0  0  0  0  0
  147.4578  140.8173  153.7158 C   0  0  0  0  0  0  0  0  0  0  0  0
  146.8074  138.5514  152.8467 C   0  0  0  0  0  0  0  0  0  0  0  0
  149.1810  134.6028  154.2926 H   0  0  0  0  0  0  0  0  0  0  0  0
  150.4405  134.5115  155.5201 H   0  0  0  0  0  0  0  0  0  0  0  0
  150.8001  135.2312  153.9497 H   0  0  0  0  0  0  0  0  0  0  0  0
  148.7909  137.0450  153.5047 H   0  0  0  0  0  0  0  0  0  0  0  0
  147.6902  138.6633  155.5221 H   0  0  0  0  0  0  0  0  0  0  0  0
  148.7495  139.7110  157.0953 H   0  0  0  0  0  0  0  0  0  0  0  0
  150.4547  140.5869  158.3870 H   0  0  0  0  0  0  0  0  0  0  0  0
  152.7796  140.5900  157.5533 H   0  0  0  0  0  0  0  0  0  0  0  0
  152.2264  140.1301  155.9451 H   0  0  0  0  0  0  0  0  0  0  0  0
  152.0251  139.0215  157.3006 H   0  0  0  0  0  0  0  0  0  0  0  0
  150.9782  142.3264  155.9331 H   0  0  0  0  0  0  0  0  0  0  0  0
  149.5406  142.5375  156.9071 H   0  0  0  0  0  0  0  0  0  0  0  0
  150.9510  145.0046  157.0765 H   0  0  0  0  0  0  0  0  0  0  0  0
  152.6172  145.7230  159.1698 H   0  0  0  0  0  0  0  0  0  0  0  0
  152.1686  141.5797  159.1812 H   0  0  0  0  0  0  0  0  0  0  0  0
  148.7526  139.4172  152.7491 H   0  0  0  0  0  0  0  0  0  0  0  0
  146.6797  140.8527  154.4788 H   0  0  0  0  0  0  0  0  0  0  0  0
  147.0423  141.2420  152.8015 H   0  0  0  0  0  0  0  0  0  0  0  0
  148.2644  141.4798  154.0305 H   0  0  0  0  0  0  0  0  0  0  0  0
  145.9710  138.4358  153.5365 H   0  0  0  0  0  0  0  0  0  0  0  0
  147.1371  137.5547  152.5532 H   0  0  0  0  0  0  0  0  0  0  0  0
  146.4293  139.0370  151.9466 H   0  0  0  0  0  0  0  0  0  0  0  0
  1  2  1  0  0  0  0
  1 20  1  0  0  0  0
  1 21  1  0  0  0  0
  1 22  1  0  0  0  0
  2  3  2  0  0  0  0
  2  4  1  0  0  0  0
  4  5  1  0  0  0  0
  4 23  1  0  0  0  0
  5  6  1  0  0  0  0
  5 17  1  0  0  0  0
  5 24  1  0  0  0  0
  6  7  2  0  0  0  0
  6  8  1  0  0  0  0
  8  9  1  0  0  0  0
  8 25  1  0  0  0  0
  9 10  1  0  0  0  0
  9 11  1  0  0  0  0
  9 26  1  0  0  0  0
 10 27  1  0  0  0  0
 10 28  1  0  0  0  0
 10 29  1  0  0  0  0
 11 12  1  0  0  0  0
 11 30  1  0  0  0  0
 11 31  1  0  0  0  0
 12 16  1  0  0  0  0
 12 13  1  0  0  0  0
 13 14  2  0  0  0  0
 13 32  1  0  0  0  0
 14 15  1  0  0  0  0
 14 33  1  0  0  0  0
 15 16  2  0  0  0  0
 16 34  1  0  0  0  0
 17 18  1  0  0  0  0
 17 19  1  0  0  0  0
 17 35  1  0  0  0  0
 18 36  1  0  0  0  0
 18 37  1  0  0  0  0
 18 38  1  0  0  0  0
 19 39  1  0  0  0  0
 19 40  1  0  0  0  0
 19 41  1  0  0  0  0
M  END
> <s_m_source_file>
AV-unprocessed.smi

> <i_m_source_file_index>
1648

> <i_lp_mmshare_version>
43012

> <i_f3d_flags>
0

> <s_epik_input>
W0NIM11DKD1PKVtOSF1bQ0BASF0oW0NIXShbQ0gzXSlbQ0gzXSlDKD1PKVtOSF1bQ0BIXShbQ0gzXSlbQ0gyXW4xW2NIXVtjSF1uW2NIXTE=

> <s_epik_cmdline>
J2VwaWtfcHl0aG9uJywgJy1waCcsICc3LjAnLCAnLXRuJywgJzgnLCAnLW1hJywgJzIwMCcsICctbWV0YWxfYmluZGluZycsICctaW1hZScsICc8aW5maWxlLm1hZT4nLCAnLW9tYWUnLCAnPG91dGZpbGUubWFlPic=

> <r_lp_tautomer_probability>
1

> <r_epik_Ionization_Penalty>
0.628885

> <r_epik_Ionization_Penalty_Charging>
0.628884

> <r_epik_Ionization_Penalty_Neutral>
4.35155e-07

> <r_epik_State_Penalty>
0.64556

> <r_epik_Charging_Adjusted_Penalty>
1.27444

> <i_epik_Tot_Q>
0

> <i_epik_Tot_abs_Q>
0

> <r_epik_Metal_State_Penalty>
0.30874

> <b_epik_Metal_Only>
0

> <s_lp_Force_Field>
OPLS_2005

> <r_lp_Energy>
9.11872

> <b_lp_Chiralities_Consistent>
1

> <s_lp_Variant>
AV-unprocessed.smi:1648-8

> <Gold.Version>
5.8.1

> <Gold.Id.Protein>
6NUR|6NUR_protein|mol2

> <Gold.PLP.Fitness>
42.3177

> <Gold.PLP.PLP>
-34.0612

> <Gold.PLP.part.hbond>
-2.0000

> <Gold.PLP.part.metal>
0.0000

> <Gold.PLP.part.buried>
-2.4411

> <Gold.PLP.part.nonpolar>
-30.6240

> <Gold.PLP.part.repulsive>
0.1396

> <Gold.PLP.ligand.clash>
0.0000

> <Gold.PLP.ligand.torsion>
0.4395

> <Gold.PLP.Chemscore.Hbond>
2.0000

> <Gold.PLP.Chemscore.CHOScore>
1.0000

> <Gold.PLP.Chemscore.Metal>
0.0000

> <Gold.Chemscore.Hbonds>
donor molecule, donor type, donor heavy atom, donor atom, acceptor molecule, acceptor atom, score
      L1  H     4    23       P1  7948  1.00
      P1  H  7989  7998       L1     7  1.00
      L1  C    13    32       P1  8028  1.00

> <Gold.PLP.Chemscore.Internal.Correction>
0.1356

> <Gold.Rescore>
     Score         DG    S(hbond)    S(metal)    S(lipo)     H(rot)  DE(clash)    DE(int)     intcor
     11.17     -14.40       1.99        0.00      74.47       2.52       0.11       3.12       ----

> <Gold.Chemscore.Fitness>
11.1676

> <Gold.Chemscore.DG>
-14.3988

> <Gold.Chemscore.ZeroCoef>
-5.4800

> <Gold.Chemscore.Hbond>
1.9943

> <Gold.Chemscore.Metal>
0.0000

> <Gold.Chemscore.Lipo>
74.4701

> <Gold.Chemscore.Internal_Hbond>
0.0000

> <Gold.Chemscore.DEClash>
0.1112

> <Gold.Chemscore.DEInternal>
3.1200

> <Gold.Chemscore.Rot>
2.5216

> <Gold.Chemscore.Internal.Correction>
   9.000000E+99

> <Gold.Chemscore.Hbonds>
donor molecule, donor type, donor heavy atom, donor atom, acceptor molecule, acceptor atom, score
      L1  H     4    23       P1  7948  1.00
      P1  H  7989  7998       L1     7  1.00

> <Gold.Chemscore.Hbond.Weighted>
-6.6611

> <Gold.Chemscore.Metal.Weighted>
-0.0000

> <Gold.Chemscore.Lipo.Weighted>
-8.7130

> <Gold.Chemscore.Internal_Hbond.Weighted>
0.0000

> <Gold.Chemscore.DEClash.Weighted>
0.1112

> <Gold.Chemscore.DEInternal.Weighted>
3.1200

> <Gold.Chemscore.Rot.Weighted>
6.4553

> <Gold.Chemscore.Internal.Correction.Weighted>
   9.000000E+99

> <Gold.Protein.RotatedTorsions>
[ 6907 6896 6895 6894 ] final  -55.94 input  -60.11 | X-H torsion
[ 7974 7965 7964 7962 ] final -120.32 input  175.53 | X-H torsion
[ 8008 7997 7996 7995 ] final   65.28 input   59.86 | X-H torsion
[ 10167 10162 10161 10158 ] final  -38.06 input  -65.29 | X-H torsion
[ 10718 10713 10712 10709 ] final   13.66 input   66.30 | X-H torsion
[ 10763 10752 10751 10750 ] final  138.88 input  -60.55 | X-H torsion
[ 11005 11000 10999 10996 ] final  -72.84 input  -57.11 | X-H torsion

> <Gold.Protein.ActiveResidues>
 VAL166  LYS551  ARG553  GLY616  TRP617  ASP618  TYR619  PRO620  LYS621  CYS622 
 ASP623  PHE694  ASN695  SER759  ASP760  ASP761  ALA762  ILE779  LEU786  VAL792 
 PHE793  MET794  SER795  GLU796  ALA797  LYS798  CYS799  TRP800  GLU811  SER814 

> <Gold.Protein.RotatedAtoms>
  150.8209  134.7416  159.6770 H   0  0  0  0  0  0  0  0  0  0  0  0  # atno 6907 bound_to 6896
  152.4325  134.5748  159.9941 H   0  0  0  0  0  0  0  0  0  0  0  0  # atno 6908 bound_to 6896
  151.5932  133.3327  159.3068 H   0  0  0  0  0  0  0  0  0  0  0  0  # atno 6909 bound_to 6896
  145.0527  140.8230  143.4200 H   0  0  0  0  0  0  0  0  0  0  0  0  # atno 7974 bound_to 7965
  155.6593  140.3497  155.4777 H   0  0  0  0  0  0  0  0  0  0  0  0  # atno 8008 bound_to 7997
  155.9782  140.1169  157.0774 H   0  0  0  0  0  0  0  0  0  0  0  0  # atno 8009 bound_to 7997
  154.4184  140.1143  156.5385 H   0  0  0  0  0  0  0  0  0  0  0  0  # atno 8010 bound_to 7997
  140.7102  143.3301  151.2588 H   0  0  0  0  0  0  0  0  0  0  0  0  # atno 10167 bound_to 10162
  157.0278  130.6180  149.5730 H   0  0  0  0  0  0  0  0  0  0  0  0  # atno 10718 bound_to 10713
  153.8969  135.3026  155.3448 H   0  0  0  0  0  0  0  0  0  0  0  0  # atno 10763 bound_to 10752
  154.7689  135.4896  153.9612 H   0  0  0  0  0  0  0  0  0  0  0  0  # atno 10764 bound_to 10752
  153.1266  135.6794  153.9346 H   0  0  0  0  0  0  0  0  0  0  0  0  # atno 10765 bound_to 10752
  141.1614  133.6859  156.7121 H   0  0  0  0  0  0  0  0  0  0  0  0  # atno 11005 bound_to 11000
  145.1507  139.2516  143.5442 LP  0  0  0  0  0  0  0  0  0  0  0  0  # atno 17320 bound_to 7965
  146.3519  140.1209  142.8600 LP  0  0  0  0  0  0  0  0  0  0  0  0  # atno 17321 bound_to 7965
  139.6781  143.9902  152.2793 LP  0  0  0  0  0  0  0  0  0  0  0  0  # atno 17342 bound_to 10162
  139.9523  144.6612  150.8160 LP  0  0  0  0  0  0  0  0  0  0  0  0  # atno 17343 bound_to 10162
  156.0080  130.5169  150.7894 LP  0  0  0  0  0  0  0  0  0  0  0  0  # atno 17370 bound_to 10713
  157.5201  131.0931  151.0090 LP  0  0  0  0  0  0  0  0  0  0  0  0  # atno 17371 bound_to 10713
  140.2879  134.8264  157.3991 LP  0  0  0  0  0  0  0  0  0  0  0  0  # atno 17394 bound_to 11000
  140.1373  134.5017  155.8058 LP  0  0  0  0  0  0  0  0  0  0  0  0  # atno 17395 bound_to 11000

$$$$
