AV-unprocessed.smi:1558|AV-procd|sdf|6273|dock10
  -GOLD-   22720 6463D 1   1.00000     0.00000
 Structure written by MMmdl.
 36 37  0  0  0  0  0  0  0  0  1 V2000
  148.2405  135.1210  154.0866 N   0  0  0  0  0  0  0  0  0  0  0  0
  148.8535  134.0279  154.5489 C   0  0  0  0  0  0  0  0  0  0  0  0
  148.5289  132.8951  154.2000 O   0  0  0  0  0  0  0  0  0  0  0  0
  149.9949  134.2359  155.5460 C   0  0  0  0  0  0  0  0  0  0  0  0
  150.3911  135.6317  155.6064 N   0  0  0  0  0  0  0  0  0  0  0  0
  150.3516  136.4835  156.6934 C   0  0  0  0  0  0  0  0  0  0  0  0
  150.8284  137.6819  156.2430 C   0  0  0  0  0  0  0  0  0  0  0  0
  151.0030  138.9012  156.9453 N   0  0  0  0  0  0  0  0  0  0  0  0
  151.0436  140.1402  156.4288 C   0  0  0  0  0  0  0  0  0  0  0  0
  150.9328  140.4118  155.2329 O   0  0  0  0  0  0  0  0  0  0  0  0
  151.2186  141.0609  157.3871 N   0  0  0  0  0  0  0  0  0  0  0  0
  151.2735  142.5017  157.1661 C   0  0  0  0  0  0  0  0  0  0  0  0
  151.8031  143.2398  158.4062 C   0  0  1  0  0  0  0  0  0  0  0  0
  152.1559  144.7020  158.1452 C   0  0  0  0  0  0  0  0  0  0  0  0
  152.0985  145.2800  159.5410 C   0  0  0  0  0  0  0  0  0  0  0  0
  150.9228  144.5223  160.1545 C   0  0  0  0  0  0  0  0  0  0  0  0
  150.8165  143.2973  159.4327 O   0  0  0  0  0  0  0  0  0  0  0  0
  151.1338  137.4858  154.8711 C   0  0  0  0  0  0  0  0  0  0  0  0
  150.8672  136.2446  154.4936 N   0  0  0  0  0  0  0  0  0  0  0  0
  147.4802  135.0274  153.4287 H   0  0  0  0  0  0  0  0  0  0  0  0
  148.5352  136.0355  154.3964 H   0  0  0  0  0  0  0  0  0  0  0  0
  149.6850  133.9008  156.5373 H   0  0  0  0  0  0  0  0  0  0  0  0
  150.8618  133.6373  155.2632 H   0  0  0  0  0  0  0  0  0  0  0  0
  149.9975  136.1609  157.6612 H   0  0  0  0  0  0  0  0  0  0  0  0
  151.0981  138.8223  157.9471 H   0  0  0  0  0  0  0  0  0  0  0  0
  151.3014  140.7446  158.3420 H   0  0  0  0  0  0  0  0  0  0  0  0
  151.9417  142.6798  156.3234 H   0  0  0  0  0  0  0  0  0  0  0  0
  150.2973  142.8908  156.8719 H   0  0  0  0  0  0  0  0  0  0  0  0
  152.6798  142.7275  158.8060 H   0  0  0  0  0  0  0  0  0  0  0  0
  153.1288  144.8272  157.6695 H   0  0  0  0  0  0  0  0  0  0  0  0
  151.4014  145.1742  157.5140 H   0  0  0  0  0  0  0  0  0  0  0  0
  153.0180  145.0448  160.0786 H   0  0  0  0  0  0  0  0  0  0  0  0
  151.9626  146.3617  159.5540 H   0  0  0  0  0  0  0  0  0  0  0  0
  151.0644  144.3418  161.2201 H   0  0  0  0  0  0  0  0  0  0  0  0
  149.9949  145.0805  160.0260 H   0  0  0  0  0  0  0  0  0  0  0  0
  151.5321  138.1861  154.1519 H   0  0  0  0  0  0  0  0  0  0  0  0
  1  2  1  0  0  0  0
  1 20  1  0  0  0  0
  1 21  1  0  0  0  0
  2  3  2  0  0  0  0
  2  4  1  0  0  0  0
  4  5  1  0  0  0  0
  4 22  1  0  0  0  0
  4 23  1  0  0  0  0
  5 19  1  0  0  0  0
  5  6  1  0  0  0  0
  6  7  2  0  0  0  0
  6 24  1  0  0  0  0
  7  8  1  0  0  0  0
  7 18  1  0  0  0  0
  8  9  1  0  0  0  0
  8 25  1  0  0  0  0
  9 10  2  0  0  0  0
  9 11  1  0  0  0  0
 11 12  1  0  0  0  0
 11 26  1  0  0  0  0
 12 13  1  0  0  0  0
 12 27  1  0  0  0  0
 12 28  1  0  0  0  0
 13 17  1  0  0  0  0
 13 14  1  0  0  0  0
 13 29  1  0  0  0  0
 14 15  1  0  0  0  0
 14 30  1  0  0  0  0
 14 31  1  0  0  0  0
 15 16  1  0  0  0  0
 15 32  1  0  0  0  0
 15 33  1  0  0  0  0
 16 17  1  0  0  0  0
 16 34  1  0  0  0  0
 16 35  1  0  0  0  0
 18 19  2  0  0  0  0
 18 36  1  0  0  0  0
M  END
> <s_m_source_file>
AV-unprocessed.smi

> <i_m_source_file_index>
1558

> <i_lp_mmshare_version>
43012

> <i_f3d_flags>
0

> <s_epik_input>
W05IMl1DKD1PKVtDSDJdbjFbY0hdYyhbY0hdbjEpW05IXUMoPU8pW05IXVtDSDJdW0NAQEhdMltDSDJdW0NIMl1bQ0gyXU8y

> <s_epik_cmdline>
J2VwaWtfcHl0aG9uJywgJy1waCcsICc3LjAnLCAnLXRuJywgJzgnLCAnLW1hJywgJzIwMCcsICctbWV0YWxfYmluZGluZycsICctaW1hZScsICc8aW5maWxlLm1hZT4nLCAnLW9tYWUnLCAnPG91dGZpbGUubWFlPic=

> <r_lp_tautomer_probability>
1

> <r_epik_Ionization_Penalty>
4.01684e-05

> <r_epik_Ionization_Penalty_Charging>
0

> <r_epik_Ionization_Penalty_Neutral>
4.01684e-05

> <r_epik_State_Penalty>
-0

> <r_epik_Charging_Adjusted_Penalty>
0

> <i_epik_Tot_Q>
0

> <i_epik_Tot_abs_Q>
0

> <r_epik_Metal_State_Penalty>
-0

> <b_epik_Metal_Only>
0

> <s_lp_Force_Field>
OPLS_2005

> <r_lp_Energy>
20.8688

> <b_lp_Chiralities_Consistent>
1

> <s_lp_Variant>
AV-unprocessed.smi:1558-2

> <Gold.Version>
5.8.1

> <Gold.Id.Protein>
6NUR|6NUR_protein|mol2

> <Gold.PLP.Fitness>
39.4899

> <Gold.PLP.PLP>
-34.2976

> <Gold.PLP.part.hbond>
-3.2466

> <Gold.PLP.part.metal>
0.0000

> <Gold.PLP.part.buried>
-7.4776

> <Gold.PLP.part.nonpolar>
-25.4957

> <Gold.PLP.part.repulsive>
1.6240

> <Gold.PLP.ligand.clash>
0.0000

> <Gold.PLP.ligand.torsion>
0.4146

> <Gold.PLP.Chemscore.Hbond>
2.0000

> <Gold.PLP.Chemscore.CHOScore>
0.0000

> <Gold.PLP.Chemscore.Metal>
0.0000

> <Gold.Chemscore.Hbonds>
donor molecule, donor type, donor heavy atom, donor atom, acceptor molecule, acceptor atom, score
      P1  H  7989  7998       L1    10  1.00
      P1  H 10752 10765       L1    19  0.49

> <Gold.PLP.Chemscore.Internal.Correction>
0.0214

> <Gold.Rescore>
     Score         DG    S(hbond)    S(metal)    S(lipo)     H(rot)  DE(clash)    DE(int)     intcor
     11.47     -14.46       1.76        0.00      77.46       2.33       0.06       2.93       ----

> <Gold.Chemscore.Fitness>
11.4671

> <Gold.Chemscore.DG>
-14.4553

> <Gold.Chemscore.ZeroCoef>
-5.4800

> <Gold.Chemscore.Hbond>
1.7599

> <Gold.Chemscore.Metal>
0.0000

> <Gold.Chemscore.Lipo>
77.4599

> <Gold.Chemscore.Internal_Hbond>
0.0000

> <Gold.Chemscore.DEClash>
0.0595

> <Gold.Chemscore.DEInternal>
2.9287

> <Gold.Chemscore.Rot>
2.3303

> <Gold.Chemscore.Internal.Correction>
   9.000000E+99

> <Gold.Chemscore.Hbonds>
donor molecule, donor type, donor heavy atom, donor atom, acceptor molecule, acceptor atom, score
      P1  H  7989  7998       L1    10  0.96
      P1  H 10752 10765       L1    19  0.05

> <Gold.Chemscore.Hbond.Weighted>
-5.8781

> <Gold.Chemscore.Metal.Weighted>
-0.0000

> <Gold.Chemscore.Lipo.Weighted>
-9.0628

> <Gold.Chemscore.Internal_Hbond.Weighted>
0.0000

> <Gold.Chemscore.DEClash.Weighted>
0.0595

> <Gold.Chemscore.DEInternal.Weighted>
2.9287

> <Gold.Chemscore.Rot.Weighted>
5.9656

> <Gold.Chemscore.Internal.Correction.Weighted>
   9.000000E+99

> <Gold.Protein.RotatedTorsions>
[ 6907 6896 6895 6894 ] final   78.44 input  -60.11 | X-H torsion
[ 7974 7965 7964 7962 ] final  -44.92 input  175.53 | X-H torsion
[ 8008 7997 7996 7995 ] final  122.28 input   59.86 | X-H torsion
[ 10167 10162 10161 10158 ] final   -6.03 input  -65.29 | X-H torsion
[ 10718 10713 10712 10709 ] final -101.33 input   66.30 | X-H torsion
[ 10763 10752 10751 10750 ] final  155.66 input  -60.55 | X-H torsion
[ 11005 11000 10999 10996 ] final  120.83 input  -57.11 | X-H torsion

> <Gold.Protein.ActiveResidues>
 VAL166  LYS551  ARG553  GLY616  TRP617  ASP618  TYR619  PRO620  LYS621  CYS622 
 ASP623  PHE694  ASN695  SER759  ASP760  ASP761  ALA762  ILE779  LEU786  VAL792 
 PHE793  MET794  SER795  GLU796  ALA797  LYS798  CYS799  TRP800  GLU811  SER814 

> <Gold.Protein.RotatedAtoms>
  152.5159  134.3664  159.9302 H   0  0  0  0  0  0  0  0  0  0  0  0  # atno 6907 bound_to 6896
  151.3617  133.3881  159.2698 H   0  0  0  0  0  0  0  0  0  0  0  0  # atno 6908 bound_to 6896
  150.9646  134.9048  159.7810 H   0  0  0  0  0  0  0  0  0  0  0  0  # atno 6909 bound_to 6896
  145.9872  140.7220  142.9334 H   0  0  0  0  0  0  0  0  0  0  0  0  # atno 7974 bound_to 7965
  156.2721  140.2789  156.1442 H   0  0  0  0  0  0  0  0  0  0  0  0  # atno 8008 bound_to 7997
  155.0921  140.0388  157.2689 H   0  0  0  0  0  0  0  0  0  0  0  0  # atno 8009 bound_to 7997
  154.6881  140.2623  155.6846 H   0  0  0  0  0  0  0  0  0  0  0  0  # atno 8010 bound_to 7997
  140.6983  143.6240  150.8585 H   0  0  0  0  0  0  0  0  0  0  0  0  # atno 10167 bound_to 10162
  156.0191  130.5368  150.6947 H   0  0  0  0  0  0  0  0  0  0  0  0  # atno 10718 bound_to 10713
  154.1719  135.2804  155.3078 H   0  0  0  0  0  0  0  0  0  0  0  0  # atno 10763 bound_to 10752
  154.6069  135.5511  153.7435 H   0  0  0  0  0  0  0  0  0  0  0  0  # atno 10764 bound_to 10752
  153.0162  135.6405  154.1859 H   0  0  0  0  0  0  0  0  0  0  0  0  # atno 10765 bound_to 10752
  139.9201  134.9636  156.7866 H   0  0  0  0  0  0  0  0  0  0  0  0  # atno 11005 bound_to 11000
  144.6878  140.3008  143.7263 LP  0  0  0  0  0  0  0  0  0  0  0  0  # atno 17320 bound_to 7965
  145.7683  139.1848  143.2227 LP  0  0  0  0  0  0  0  0  0  0  0  0  # atno 17321 bound_to 7965
  139.9960  143.5795  152.2893 LP  0  0  0  0  0  0  0  0  0  0  0  0  # atno 17342 bound_to 10162
  139.6467  144.7658  151.2229 LP  0  0  0  0  0  0  0  0  0  0  0  0  # atno 17343 bound_to 10162
  157.4620  131.0884  151.0735 LP  0  0  0  0  0  0  0  0  0  0  0  0  # atno 17370 bound_to 10713
  157.1220  130.6066  149.5507 LP  0  0  0  0  0  0  0  0  0  0  0  0  # atno 17371 bound_to 10713
  140.6501  133.9739  155.7751 LP  0  0  0  0  0  0  0  0  0  0  0  0  # atno 17394 bound_to 11000
  141.0714  134.0200  157.3521 LP  0  0  0  0  0  0  0  0  0  0  0  0  # atno 17395 bound_to 11000

$$$$
