AV-unprocessed.smi:696|AV-procd|sdf|3387|dock4
  -GOLD-   22720 0363D 1   1.00000     0.00000
 Structure written by MMmdl.
 37 38  0  0  0  0  0  0  0  0  2 V2000
  150.0502  141.3745  156.1530 O   0  0  0  0  0  0  0  0  0  0  0  0
  151.0690  140.9324  156.6854 C   0  0  0  0  0  0  0  0  0  0  0  0
  151.5152  139.6812  156.4929 N   0  0  0  0  0  0  0  0  0  0  0  0
  150.8788  138.6854  155.6384 C   0  0  0  0  0  0  0  0  0  0  0  0
  149.4363  138.3874  156.0974 C   0  0  0  0  0  0  0  0  0  0  0  0
  149.3190  137.5967  157.3933 C   0  0  0  0  0  0  0  0  0  0  0  0
  149.9626  136.5411  157.7341 N   0  0  0  0  0  0  0  0  0  0  0  0
  149.4753  136.2143  159.0414 N   0  5  0  0  0  0  0  0  0  0  0  0
  148.5494  137.1495  159.3644 C   0  0  0  0  0  0  0  0  0  0  0  0
  147.8841  137.2501  160.3930 O   0  0  0  0  0  0  0  0  0  0  0  0
  148.4415  138.0094  158.3573 N   0  0  0  0  0  0  0  0  0  0  0  0
  151.8979  141.8222  157.6241 C   0  0  0  0  0  0  0  0  0  0  0  0
  151.8355  141.2745  159.0693 C   0  0  0  0  0  0  0  0  0  0  0  0
  152.9529  141.8270  159.9708 C   0  0  0  0  0  0  0  0  0  0  0  0
  152.6385  143.1595  160.6744 C   0  0  0  0  0  0  0  0  0  0  0  0
  151.8481  144.2006  159.8615 C   0  0  0  0  0  0  0  0  0  0  0  0
  152.2138  144.2916  158.3712 C   0  0  0  0  0  0  0  0  0  0  0  0
  151.4346  143.2893  157.5012 C   0  0  0  0  0  0  0  0  0  0  0  0
  147.8350  138.8140  158.3045 H   0  0  0  0  0  0  0  0  0  0  0  0
  152.3600  139.4001  156.9690 H   0  0  0  0  0  0  0  0  0  0  0  0
  150.8757  139.0776  154.6207 H   0  0  0  0  0  0  0  0  0  0  0  0
  151.4795  137.7740  155.6218 H   0  0  0  0  0  0  0  0  0  0  0  0
  148.8864  139.3212  156.2205 H   0  0  0  0  0  0  0  0  0  0  0  0
  148.9197  137.8295  155.3154 H   0  0  0  0  0  0  0  0  0  0  0  0
  152.9346  141.7697  157.2865 H   0  0  0  0  0  0  0  0  0  0  0  0
  150.8569  141.4527  159.5174 H   0  0  0  0  0  0  0  0  0  0  0  0
  151.9509  140.1896  159.0367 H   0  0  0  0  0  0  0  0  0  0  0  0
  153.1812  141.0902  160.7417 H   0  0  0  0  0  0  0  0  0  0  0  0
  153.8725  141.9263  159.3930 H   0  0  0  0  0  0  0  0  0  0  0  0
  152.0840  142.9562  161.5911 H   0  0  0  0  0  0  0  0  0  0  0  0
  153.5816  143.6012  160.9980 H   0  0  0  0  0  0  0  0  0  0  0  0
  150.7794  144.0069  159.9606 H   0  0  0  0  0  0  0  0  0  0  0  0
  152.0049  145.1752  160.3249 H   0  0  0  0  0  0  0  0  0  0  0  0
  151.9583  145.2941  158.0259 H   0  0  0  0  0  0  0  0  0  0  0  0
  153.2897  144.1919  158.2232 H   0  0  0  0  0  0  0  0  0  0  0  0
  151.5389  143.5972  156.4594 H   0  0  0  0  0  0  0  0  0  0  0  0
  150.3693  143.3709  157.7233 H   0  0  0  0  0  0  0  0  0  0  0  0
  1  2  2  0  0  0  0
  2  3  1  0  0  0  0
  2 12  1  0  0  0  0
  3  4  1  0  0  0  0
  3 20  1  0  0  0  0
  4  5  1  0  0  0  0
  4 21  1  0  0  0  0
  4 22  1  0  0  0  0
  5  6  1  0  0  0  0
  5 23  1  0  0  0  0
  5 24  1  0  0  0  0
  6 11  1  0  0  0  0
  6  7  2  0  0  0  0
  7  8  1  0  0  0  0
  8  9  1  0  0  0  0
  9 10  2  0  0  0  0
  9 11  1  0  0  0  0
 11 19  1  0  0  0  0
 12 18  1  0  0  0  0
 12 13  1  0  0  0  0
 12 25  1  0  0  0  0
 13 14  1  0  0  0  0
 13 26  1  0  0  0  0
 13 27  1  0  0  0  0
 14 15  1  0  0  0  0
 14 28  1  0  0  0  0
 14 29  1  0  0  0  0
 15 16  1  0  0  0  0
 15 30  1  0  0  0  0
 15 31  1  0  0  0  0
 16 17  1  0  0  0  0
 16 32  1  0  0  0  0
 16 33  1  0  0  0  0
 17 18  1  0  0  0  0
 17 34  1  0  0  0  0
 17 35  1  0  0  0  0
 18 36  1  0  0  0  0
 18 37  1  0  0  0  0
M  CHG  1   8  -1
M  END
> <s_m_source_file>
AV-unprocessed.smi

> <i_m_source_file_index>
696

> <i_lp_mmshare_version>
43012

> <i_f3d_flags>
0

> <s_epik_input>
W0NIMl0xW0NIMl1bQ0gyXVtDSDJdW0NIMl1bQ0gyXVtDSF0xQyg9TylbTkhdW0NIMl1bQ0gyXWMybltuSF1jKD1PKVtuSF0y

> <s_epik_cmdline>
J2VwaWtfcHl0aG9uJywgJy1waCcsICc3LjAnLCAnLXRuJywgJzgnLCAnLW1hJywgJzIwMCcsICctbWV0YWxfYmluZGluZycsICctaW1hZScsICc8aW5maWxlLm1hZT4nLCAnLW9tYWUnLCAnPG91dGZpbGUubWFlPic=

> <r_lp_tautomer_probability>
1

> <r_epik_Ionization_Penalty>
14.1589

> <r_epik_Ionization_Penalty_Charging>
13.7723

> <r_epik_Ionization_Penalty_Neutral>
0.386566

> <r_epik_State_Penalty>
4.88838

> <r_epik_Charging_Adjusted_Penalty>
18.6607

> <i_epik_Tot_Q>
-1

> <i_epik_Tot_abs_Q>
1

> <r_epik_Metal_State_Penalty>
1.30742

> <b_epik_Metal_Only>
1

> <s_lp_Force_Field>
OPLS_2005

> <r_lp_Energy>
24.8818

> <b_lp_Chiralities_Consistent>
1

> <s_lp_Variant>
AV-unprocessed.smi:696-2

> <Gold.Version>
5.8.1

> <Gold.Id.Protein>
6NUR|6NUR_protein|mol2

> <Gold.PLP.Fitness>
41.3217

> <Gold.PLP.PLP>
-31.2170

> <Gold.PLP.part.hbond>
-3.0000

> <Gold.PLP.part.metal>
0.0000

> <Gold.PLP.part.buried>
-5.0184

> <Gold.PLP.part.nonpolar>
-24.2628

> <Gold.PLP.part.repulsive>
0.3410

> <Gold.PLP.ligand.clash>
0.0000

> <Gold.PLP.ligand.torsion>
0.3667

> <Gold.PLP.Chemscore.Hbond>
3.6000

> <Gold.PLP.Chemscore.CHOScore>
0.0000

> <Gold.PLP.Chemscore.Metal>
0.0000

> <Gold.Chemscore.Hbonds>
donor molecule, donor type, donor heavy atom, donor atom, acceptor molecule, acceptor atom, score
      P1  H  6896  6907       L1     8  1.85
      P1  H  6931  6943       L1    10  0.51
      P1  H  6934  6947       L1    10  0.80

> <Gold.PLP.Chemscore.Internal.Correction>
0.0381

> <Gold.Rescore>
     Score         DG    S(hbond)    S(metal)    S(lipo)     H(rot)  DE(clash)    DE(int)     intcor
     15.13     -15.25       1.90        0.00      78.56       2.25       0.00       0.12       ----

> <Gold.Chemscore.Fitness>
15.1331

> <Gold.Chemscore.DG>
-15.2529

> <Gold.Chemscore.ZeroCoef>
-5.4800

> <Gold.Chemscore.Hbond>
1.8986

> <Gold.Chemscore.Metal>
0.0000

> <Gold.Chemscore.Lipo>
78.5630

> <Gold.Chemscore.Internal_Hbond>
0.0000

> <Gold.Chemscore.DEClash>
0.0000

> <Gold.Chemscore.DEInternal>
0.1198

> <Gold.Chemscore.Rot>
2.2501

> <Gold.Chemscore.Internal.Correction>
   9.000000E+99

> <Gold.Chemscore.Hbonds>
donor molecule, donor type, donor heavy atom, donor atom, acceptor molecule, acceptor atom, score
      P1  H  6896  6907       L1     8  0.31
      P1  H  6931  6943       L1    10  0.36
      P1  H  6934  6947       L1    10  0.75

> <Gold.Chemscore.Hbond.Weighted>
-6.3414

> <Gold.Chemscore.Metal.Weighted>
-0.0000

> <Gold.Chemscore.Lipo.Weighted>
-9.1919

> <Gold.Chemscore.Internal_Hbond.Weighted>
0.0000

> <Gold.Chemscore.DEClash.Weighted>
0.0000

> <Gold.Chemscore.DEInternal.Weighted>
0.1198

> <Gold.Chemscore.Rot.Weighted>
5.7603

> <Gold.Chemscore.Internal.Correction.Weighted>
   9.000000E+99

> <Gold.Protein.RotatedTorsions>
[ 6907 6896 6895 6894 ] final  -66.84 input  -60.11 | X-H torsion
[ 7974 7965 7964 7962 ] final  169.91 input  175.53 | X-H torsion
[ 8008 7997 7996 7995 ] final   85.21 input   59.86 | X-H torsion
[ 10167 10162 10161 10158 ] final -133.03 input  -65.29 | X-H torsion
[ 10718 10713 10712 10709 ] final  -13.49 input   66.30 | X-H torsion
[ 10763 10752 10751 10750 ] final  -23.74 input  -60.55 | X-H torsion
[ 11005 11000 10999 10996 ] final  115.09 input  -57.11 | X-H torsion

> <Gold.Protein.ActiveResidues>
 VAL166  LYS551  ARG553  GLY616  TRP617  ASP618  TYR619  PRO620  LYS621  CYS622 
 ASP623  PHE694  ASN695  SER759  ASP760  ASP761  ALA762  ILE779  LEU786  VAL792 
 PHE793  MET794  SER795  GLU796  ALA797  LYS798  CYS799  TRP800  GLU811  SER814 

> <Gold.Protein.RotatedAtoms>
  150.7443  134.5965  159.6014 H   0  0  0  0  0  0  0  0  0  0  0  0  # atno 6907 bound_to 6896
  152.3338  134.7221  160.0291 H   0  0  0  0  0  0  0  0  0  0  0  0  # atno 6908 bound_to 6896
  151.7696  133.3304  159.3477 H   0  0  0  0  0  0  0  0  0  0  0  0  # atno 6909 bound_to 6896
  144.7340  139.9124  143.6416 H   0  0  0  0  0  0  0  0  0  0  0  0  # atno 7974 bound_to 7965
  155.9470  140.3404  155.6376 H   0  0  0  0  0  0  0  0  0  0  0  0  # atno 8008 bound_to 7997
  155.6967  140.0755  157.2445 H   0  0  0  0  0  0  0  0  0  0  0  0  # atno 8009 bound_to 7997
  154.4114  140.1647  156.2134 H   0  0  0  0  0  0  0  0  0  0  0  0  # atno 8010 bound_to 7997
  139.9025  143.6591  152.2592 H   0  0  0  0  0  0  0  0  0  0  0  0  # atno 10167 bound_to 10162
  156.6294  130.4897  149.6134 H   0  0  0  0  0  0  0  0  0  0  0  0  # atno 10718 bound_to 10713
  153.6727  135.6971  153.5142 H   0  0  0  0  0  0  0  0  0  0  0  0  # atno 10763 bound_to 10752
  153.2546  135.4264  155.0831 H   0  0  0  0  0  0  0  0  0  0  0  0  # atno 10764 bound_to 10752
  154.8422  135.3540  154.6271 H   0  0  0  0  0  0  0  0  0  0  0  0  # atno 10765 bound_to 10752
  139.9000  134.9578  156.6993 H   0  0  0  0  0  0  0  0  0  0  0  0  # atno 11005 bound_to 11000
  146.0991  139.3985  143.0358 LP  0  0  0  0  0  0  0  0  0  0  0  0  # atno 17320 bound_to 7965
  145.7604  140.9937  143.1203 LP  0  0  0  0  0  0  0  0  0  0  0  0  # atno 17321 bound_to 7965
  139.7013  144.7634  151.1268 LP  0  0  0  0  0  0  0  0  0  0  0  0  # atno 17342 bound_to 10162
  140.7704  143.5454  150.9265 LP  0  0  0  0  0  0  0  0  0  0  0  0  # atno 17343 bound_to 10162
  156.2247  130.6758  151.1403 LP  0  0  0  0  0  0  0  0  0  0  0  0  # atno 17370 bound_to 10713
  157.7204  131.0685  150.6158 LP  0  0  0  0  0  0  0  0  0  0  0  0  # atno 17371 bound_to 10713
  140.7163  133.9179  155.8117 LP  0  0  0  0  0  0  0  0  0  0  0  0  # atno 17394 bound_to 11000
  141.0261  134.0821  157.4066 LP  0  0  0  0  0  0  0  0  0  0  0  0  # atno 17395 bound_to 11000

$$$$
