AV-unprocessed.smi:265|AV-procd|sdf|2023|dock8
  -GOLD-   2262021223D 1   1.00000     0.00000
 Structure written by MMmdl.
 52 56  0  0  0  0  0  0  0  0  1 V2000
  151.8906  137.9149  155.2779 C   0  0  0  0  0  0  0  0  0  0  0  0
  151.6601  139.4295  155.3987 C   0  0  2  0  0  0  0  0  0  0  0  0
  152.3745  139.8823  156.5462 O   0  0  0  0  0  0  0  0  0  0  0  0
  151.6852  140.9826  157.1124 C   0  0  0  0  0  0  0  0  0  0  0  0
  150.2307  140.5595  156.9768 C   0  0  0  0  0  0  0  0  0  0  0  0
  150.1913  139.8999  155.6012 C   0  0  1  0  0  0  0  0  0  0  0  0
  149.9282  140.9117  154.6426 O   0  0  0  0  0  0  0  0  0  0  0  0
  149.0936  138.8120  155.4622 C   0  0  0  0  0  0  0  0  0  0  0  0
  148.6468  138.2680  156.7365 N   0  0  0  0  0  0  0  0  0  0  0  0
  147.7995  138.8752  157.6361 C   0  0  0  0  0  0  0  0  0  0  0  0
  147.5460  138.1866  158.7152 N   0  0  0  0  0  0  0  0  0  0  0  0
  148.2603  137.0069  158.5412 C   0  0  0  0  0  0  0  0  0  0  0  0
  148.4338  135.8295  159.3226 C   0  0  0  0  0  0  0  0  0  0  0  0
  147.8228  135.6496  160.5210 N   0  0  0  0  0  0  0  0  0  0  0  0
  147.8371  134.3042  161.0946 C   0  0  0  0  0  0  0  0  0  0  0  0
  147.4748  134.3463  162.5870 C   0  0  0  0  0  0  0  0  0  0  0  0
  146.1429  135.0743  162.8301 C   0  0  2  0  0  0  0  0  0  0  0  0
  145.0642  134.3107  162.3062 O   0  0  0  0  0  0  0  0  0  0  0  0
  143.7757  134.8247  162.6467 C   0  0  0  0  0  0  0  0  0  0  0  0
  143.6546  136.3337  162.3650 C   0  0  0  0  0  0  0  0  0  0  0  0
  142.5458  136.8615  162.3195 O   0  0  0  0  0  0  0  0  0  0  0  0
  144.7853  137.0427  162.2175 N   0  0  0  0  0  0  0  0  0  0  0  0
  146.1190  136.4554  162.1389 C   0  0  2  0  0  0  0  0  0  0  0  0
  146.5531  136.3596  160.6617 C   0  0  0  0  0  0  0  0  0  0  0  0
  149.2465  134.8612  158.8207 N   0  0  0  0  0  0  0  0  0  0  0  0
  149.8393  135.0245  157.6345 C   0  0  0  0  0  0  0  0  0  0  0  0
  149.7620  136.0621  156.7992 N   0  0  0  0  0  0  0  0  0  0  0  0
  148.9584  137.0428  157.3007 C   0  0  0  0  0  0  0  0  0  0  0  0
  146.0017  135.1886  163.9069 H   0  0  0  0  0  0  0  0  0  0  0  0
  146.8090  137.1196  162.6611 H   0  0  0  0  0  0  0  0  0  0  0  0
  151.3866  137.5020  154.4041 H   0  0  0  0  0  0  0  0  0  0  0  0
  151.5348  137.3838  156.1611 H   0  0  0  0  0  0  0  0  0  0  0  0
  152.9536  137.6966  155.1731 H   0  0  0  0  0  0  0  0  0  0  0  0
  152.0983  139.9146  154.5244 H   0  0  0  0  0  0  0  0  0  0  0  0
  151.9811  141.1543  158.1475 H   0  0  0  0  0  0  0  0  0  0  0  0
  151.8905  141.8861  156.5361 H   0  0  0  0  0  0  0  0  0  0  0  0
  150.0125  139.8240  157.7519 H   0  0  0  0  0  0  0  0  0  0  0  0
  149.5275  141.3853  157.0939 H   0  0  0  0  0  0  0  0  0  0  0  0
  149.0437  141.2194  154.7690 H   0  0  0  0  0  0  0  0  0  0  0  0
  148.2218  139.2196  154.9490 H   0  0  0  0  0  0  0  0  0  0  0  0
  149.4514  137.9823  154.8517 H   0  0  0  0  0  0  0  0  0  0  0  0
  147.3777  139.8559  157.4681 H   0  0  0  0  0  0  0  0  0  0  0  0
  147.1270  133.6744  160.5566 H   0  0  0  0  0  0  0  0  0  0  0  0
  148.8232  133.8536  160.9749 H   0  0  0  0  0  0  0  0  0  0  0  0
  147.4306  133.3350  162.9918 H   0  0  0  0  0  0  0  0  0  0  0  0
  148.2675  134.8615  163.1309 H   0  0  0  0  0  0  0  0  0  0  0  0
  143.0163  134.2812  162.0838 H   0  0  0  0  0  0  0  0  0  0  0  0
  143.5825  134.6468  163.7053 H   0  0  0  0  0  0  0  0  0  0  0  0
  144.7087  138.0387  162.0712 H   0  0  0  0  0  0  0  0  0  0  0  0
  146.6096  137.3618  160.2373 H   0  0  0  0  0  0  0  0  0  0  0  0
  145.7982  135.8231  160.0845 H   0  0  0  0  0  0  0  0  0  0  0  0
  150.4650  134.2070  157.3076 H   0  0  0  0  0  0  0  0  0  0  0  0
  1  2  1  0  0  0  0
  1 31  1  0  0  0  0
  1 32  1  0  0  0  0
  1 33  1  0  0  0  0
  2  6  1  0  0  0  0
  2  3  1  0  0  0  0
  2 34  1  0  0  0  0
  3  4  1  0  0  0  0
  4  5  1  0  0  0  0
  4 35  1  0  0  0  0
  4 36  1  0  0  0  0
  5  6  1  0  0  0  0
  5 37  1  0  0  0  0
  5 38  1  0  0  0  0
  6  7  1  0  0  0  0
  6  8  1  0  0  0  0
  7 39  1  0  0  0  0
  8  9  1  0  0  0  0
  8 40  1  0  0  0  0
  8 41  1  0  0  0  0
  9 28  1  0  0  0  0
  9 10  1  0  0  0  0
 10 11  2  0  0  0  0
 10 42  1  0  0  0  0
 11 12  1  0  0  0  0
 12 28  2  0  0  0  0
 12 13  1  0  0  0  0
 13 14  1  0  0  0  0
 13 25  2  0  0  0  0
 14 24  1  0  0  0  0
 14 15  1  0  0  0  0
 15 16  1  0  0  0  0
 15 43  1  0  0  0  0
 15 44  1  0  0  0  0
 16 17  1  0  0  0  0
 16 45  1  0  0  0  0
 16 46  1  0  0  0  0
 17 29  1  0  0  0  0
 17 23  1  0  0  0  0
 17 18  1  0  0  0  0
 18 19  1  0  0  0  0
 19 20  1  0  0  0  0
 19 47  1  0  0  0  0
 19 48  1  0  0  0  0
 20 21  2  0  0  0  0
 20 22  1  0  0  0  0
 22 23  1  0  0  0  0
 22 49  1  0  0  0  0
 23 30  1  0  0  0  0
 23 24  1  0  0  0  0
 24 50  1  0  0  0  0
 24 51  1  0  0  0  0
 25 26  1  0  0  0  0
 26 27  2  0  0  0  0
 26 52  1  0  0  0  0
 27 28  1  0  0  0  0
M  END
> <s_m_source_file>
AV-unprocessed.smi

> <i_m_source_file_index>
265

> <i_lp_mmshare_version>
43012

> <i_f3d_flags>
0

> <s_epik_input>
W0NIMl0xW0NIMl1PW0NAQEhdKFtDSDNdKVtDQEBdMShbT0hdKVtDSDJdbihbY0hdbjIpYyhjMjMpbltjSF1uYzNOKFtDSDJdW0NIMl00KVtDSDJdW0NAQEhdKFtDQEhdNDUpW05IXUMoPU8pW0NIMl1PNQ==

> <s_epik_cmdline>
J2VwaWtfcHl0aG9uJywgJy1waCcsICc3LjAnLCAnLXRuJywgJzgnLCAnLW1hJywgJzIwMCcsICctbWV0YWxfYmluZGluZycsICctaW1hZScsICc8aW5maWxlLm1hZT4nLCAnLW9tYWUnLCAnPG91dGZpbGUubWFlPic=

> <r_lp_tautomer_probability>
1

> <r_epik_Ionization_Penalty>
0.00221504

> <r_epik_Ionization_Penalty_Charging>
0

> <r_epik_Ionization_Penalty_Neutral>
0.00221504

> <r_epik_State_Penalty>
-0

> <r_epik_Charging_Adjusted_Penalty>
0

> <i_epik_Tot_Q>
0

> <i_epik_Tot_abs_Q>
0

> <r_epik_Metal_State_Penalty>
-0

> <b_epik_Metal_Only>
0

> <s_lp_Force_Field>
OPLS_2005

> <r_lp_Energy>
44.3548

> <b_lp_Chiralities_Consistent>
1

> <s_lp_Variant>
AV-unprocessed.smi:265-9

> <Gold.Version>
5.8.1

> <Gold.Id.Protein>
6NUR|6NUR_protein|mol2

> <Gold.PLP.Fitness>
42.9275

> <Gold.PLP.PLP>
-37.8330

> <Gold.PLP.part.hbond>
-5.0000

> <Gold.PLP.part.metal>
0.0000

> <Gold.PLP.part.buried>
-7.5162

> <Gold.PLP.part.nonpolar>
-25.8359

> <Gold.PLP.part.repulsive>
0.3306

> <Gold.PLP.ligand.clash>
0.0000

> <Gold.PLP.ligand.torsion>
1.5359

> <Gold.PLP.Chemscore.Hbond>
2.6058

> <Gold.PLP.Chemscore.CHOScore>
0.0000

> <Gold.PLP.Chemscore.Metal>
0.0000

> <Gold.Chemscore.Hbonds>
donor molecule, donor type, donor heavy atom, donor atom, acceptor molecule, acceptor atom, score
      P1  H  6896  6908       L1    25  0.60
      P1  H  6934  6947       L1    11  0.06
      P1  H  7989  7998       L1     7  0.66
      P1  H  7997  8010       L1     3  1.00

> <Gold.PLP.Chemscore.Internal.Correction>
0.3487

> <Gold.Rescore>
     Score         DG    S(hbond)    S(metal)    S(lipo)     H(rot)  DE(clash)    DE(int)     intcor
     10.43     -13.92       1.46        0.00      79.65       2.25       0.02       3.47       ----

> <Gold.Chemscore.Fitness>
10.4328

> <Gold.Chemscore.DG>
-13.9227

> <Gold.Chemscore.ZeroCoef>
-5.4800

> <Gold.Chemscore.Hbond>
1.4587

> <Gold.Chemscore.Metal>
0.0000

> <Gold.Chemscore.Lipo>
79.6469

> <Gold.Chemscore.Internal_Hbond>
0.0000

> <Gold.Chemscore.DEClash>
0.0212

> <Gold.Chemscore.DEInternal>
3.4687

> <Gold.Chemscore.Rot>
2.2453

> <Gold.Chemscore.Internal.Correction>
   9.000000E+99

> <Gold.Chemscore.Hbonds>
donor molecule, donor type, donor heavy atom, donor atom, acceptor molecule, acceptor atom, score
      P1  H  6896  6908       L1    25  0.04
      P1  H  6934  6947       L1    11  0.06
      P1  H  7989  7998       L1     7  0.25
      P1  H  7997  8010       L1     3  0.84

> <Gold.Chemscore.Hbond.Weighted>
-4.8719

> <Gold.Chemscore.Metal.Weighted>
-0.0000

> <Gold.Chemscore.Lipo.Weighted>
-9.3187

> <Gold.Chemscore.Internal_Hbond.Weighted>
0.0000

> <Gold.Chemscore.DEClash.Weighted>
0.0212

> <Gold.Chemscore.DEInternal.Weighted>
3.4687

> <Gold.Chemscore.Rot.Weighted>
5.7479

> <Gold.Chemscore.Internal.Correction.Weighted>
   9.000000E+99

> <Gold.Protein.RotatedTorsions>
[ 6907 6896 6895 6894 ] final  165.27 input  -60.11 | X-H torsion
[ 7974 7965 7964 7962 ] final -107.79 input  175.53 | X-H torsion
[ 8008 7997 7996 7995 ] final   73.83 input   59.86 | X-H torsion
[ 10167 10162 10161 10158 ] final  168.50 input  -65.29 | X-H torsion
[ 10718 10713 10712 10709 ] final   71.18 input   66.30 | X-H torsion
[ 10763 10752 10751 10750 ] final -168.61 input  -60.55 | X-H torsion
[ 11005 11000 10999 10996 ] final  141.25 input  -57.11 | X-H torsion

> <Gold.Protein.ActiveResidues>
 VAL166  LYS551  ARG553  GLY616  TRP617  ASP618  TYR619  PRO620  LYS621  CYS622 
 ASP623  PHE694  ASN695  SER759  ASP760  ASP761  ALA762  ILE779  LEU786  VAL792 
 PHE793  MET794  SER795  GLU796  ALA797  LYS798  CYS799  TRP800  GLU811  SER814 

> <Gold.Protein.RotatedAtoms>
  151.8970  133.3529  159.3817 H   0  0  0  0  0  0  0  0  0  0  0  0  # atno 6907 bound_to 6896
  150.7089  134.4866  159.5505 H   0  0  0  0  0  0  0  0  0  0  0  0  # atno 6908 bound_to 6896
  152.2447  134.8193  160.0506 H   0  0  0  0  0  0  0  0  0  0  0  0  # atno 6909 bound_to 6896
  145.2009  140.9056  143.3370 H   0  0  0  0  0  0  0  0  0  0  0  0  # atno 7974 bound_to 7965
  155.7894  140.3479  155.5341 H   0  0  0  0  0  0  0  0  0  0  0  0  # atno 8008 bound_to 7997
  155.8649  140.0977  157.1609 H   0  0  0  0  0  0  0  0  0  0  0  0  # atno 8009 bound_to 7997
  154.4014  140.1351  156.3994 H   0  0  0  0  0  0  0  0  0  0  0  0  # atno 8010 bound_to 7997
  139.4969  144.3808  151.9624 H   0  0  0  0  0  0  0  0  0  0  0  0  # atno 10167 bound_to 10162
  157.6438  130.9515  150.0753 H   0  0  0  0  0  0  0  0  0  0  0  0  # atno 10718 bound_to 10713
  154.6610  135.2925  154.9866 H   0  0  0  0  0  0  0  0  0  0  0  0  # atno 10763 bound_to 10752
  154.0926  135.6588  153.4859 H   0  0  0  0  0  0  0  0  0  0  0  0  # atno 10764 bound_to 10752
  153.0430  135.5223  154.7562 H   0  0  0  0  0  0  0  0  0  0  0  0  # atno 10765 bound_to 10752
  140.0387  134.9316  157.0802 H   0  0  0  0  0  0  0  0  0  0  0  0  # atno 11005 bound_to 11000
  144.9949  139.3654  143.6196 LP  0  0  0  0  0  0  0  0  0  0  0  0  # atno 17320 bound_to 7965
  146.3418  139.9147  142.8775 LP  0  0  0  0  0  0  0  0  0  0  0  0  # atno 17321 bound_to 7965
  140.3244  144.3389  150.6002 LP  0  0  0  0  0  0  0  0  0  0  0  0  # atno 17342 bound_to 10162
  140.5696  143.2182  151.7623 LP  0  0  0  0  0  0  0  0  0  0  0  0  # atno 17343 bound_to 10162
  156.1745  130.3647  149.9119 LP  0  0  0  0  0  0  0  0  0  0  0  0  # atno 17370 bound_to 10713
  156.7086  130.8961  151.3607 LP  0  0  0  0  0  0  0  0  0  0  0  0  # atno 17371 bound_to 10713
  140.4105  134.1986  155.7163 LP  0  0  0  0  0  0  0  0  0  0  0  0  # atno 17394 bound_to 11000
  141.1871  133.8288  157.1043 LP  0  0  0  0  0  0  0  0  0  0  0  0  # atno 17395 bound_to 11000

$$$$
