#       Name:                AV-unprocessed.smi:356
#       Creating user name   scv26
#       Creation time:       Thu Mar 26 22:35:05 2020


#       File generated by GOLD software.
#

@<TRIPOS>MOLECULE
AV-unprocessed.smi:356
    47    49     1
SMALL
NO_CHARGES


@<TRIPOS>ATOM
      1 ****        -2.0051   1.5137  -2.6732 C.3            1 S1                 0.0000
      2 ****        -2.2413   1.8626  -1.2422 C.2            1 S1                 0.0000
      3 ****        -2.7278   3.0469  -0.7760 N.pl3          1 S1                 1.0000
      4 ****        -2.8148   3.0065   0.6161 C.ar           1 S1                 0.0000
      5 ****        -3.2466   3.9641   1.5288 C.ar           1 S1                 0.0000
      6 ****        -3.2053   3.6037   2.8915 C.ar           1 S1                 0.0000
      7 ****        -2.7493   2.3339   3.3009 C.ar           1 S1                 0.0000
      8 ****        -2.3162   1.3703   2.3662 C.ar           1 S1                 0.0000
      9 ****        -2.3586   1.7343   1.0199 C.ar           1 S1                 0.0000
     10 ****        -2.0135   1.0633  -0.1608 N.pl3          1 S1                 0.0000
     11 ****        -1.4880  -0.3105  -0.0992 C.3            1 S1                 0.0000
     12 ****         0.0530  -0.3623  -0.1209 C.3            1 S1                 0.0000
     13 ****         0.5667   0.3177   1.0083 O.3            1 S1                 0.0000
     14 ****         0.5795  -1.8113  -0.1091 C.3            1 S1                 0.0000
     15 ****         2.0572  -1.8828  -0.2456 N.4            1 S1                 1.0000
     16 ****         2.6191  -3.1382   0.3067 C.3            1 S1                 0.0000
     17 ****         4.1537  -3.1326   0.2020 C.3            1 S1                 0.0000
     18 ****         4.5386  -2.9487  -1.1546 O.3            1 S1                 0.0000
     19 ****         4.0788  -1.7077  -1.6748 C.3            1 S1                 0.0000
     20 ****         2.5414  -1.6666  -1.6318 C.3            1 S1                 0.0000
     21 ****        -2.2345   2.3624  -3.3179 H              1 S1                 0.0000
     22 ****        -2.6383   0.6756  -2.9647 H              1 S1                 0.0000
     23 ****        -0.9629   1.2340  -2.8271 H              1 S1                 0.0000
     24 ****        -3.5965   4.9375   1.2169 H              1 S1                 0.0000
     25 ****        -3.5292   4.3155   3.6372 H              1 S1                 0.0000
     26 ****        -2.7307   2.0943   4.3544 H              1 S1                 0.0000
     27 ****        -1.9681   0.4031   2.6954 H              1 S1                 0.0000
     28 ****        -1.8915  -0.8145   0.7792 H              1 S1                 0.0000
     29 ****        -1.8877  -0.8443  -0.9622 H              1 S1                 0.0000
     30 ****         0.4013   0.1569  -1.0130 H              1 S1                 0.0000
     31 ****         0.2320  -0.0956   1.7896 H              1 S1                 0.0000
     32 ****         0.2739  -2.2821   0.8268 H              1 S1                 0.0000
     33 ****         0.1165  -2.3950  -0.9064 H              1 S1                 0.0000
     34 ****         2.3258  -3.2487   1.3513 H              1 S1                 0.0000
     35 ****         2.2093  -3.9922  -0.2355 H              1 S1                 0.0000
     36 ****         4.5850  -2.3479   0.8259 H              1 S1                 0.0000
     37 ****         4.5577  -4.0804   0.5581 H              1 S1                 0.0000
     38 ****         4.5078  -0.8796  -1.1083 H              1 S1                 0.0000
     39 ****         4.4286  -1.6052  -2.7021 H              1 S1                 0.0000
     40 ****         2.1315  -2.4363  -2.2877 H              1 S1                 0.0000
     41 ****         2.1977  -0.7062  -2.0138 H              1 S1                 0.0000
     42 ****         2.4321  -1.1337   0.3196 H              1 S1                 0.0000
     43 ****        -2.9809   3.8267  -1.3694 H              1 S1                 0.0000
     44 ****         0.2786   1.2750   0.9844 LP             1 S1                 0.0000
     45 ****         1.5655   0.2700   1.0041 LP             1 S1                 0.0000
     46 ****         4.1538  -3.6912  -1.7029 LP             1 S1                 0.0000
     47 ****         5.5366  -2.9736  -1.2133 LP             1 S1                 0.0000
@<TRIPOS>BOND
    1    1    2 1     
    2    1   21 1     
    3    1   22 1     
    4    1   23 1     
    5    2   10 1     
    6    2    3 2     
    7    3    4 1     
    8    3   43 1     
    9    4    9 ar    
   10    4    5 ar    
   11    5    6 ar    
   12    5   24 1     
   13    6    7 ar    
   14    6   25 1     
   15    7    8 ar    
   16    7   26 1     
   17    8    9 ar    
   18    8   27 1     
   19    9   10 1     
   20   10   11 1     
   21   11   12 1     
   22   11   28 1     
   23   11   29 1     
   24   12   13 1     
   25   12   14 1     
   26   12   30 1     
   27   13   31 1     
   28   14   15 1     
   29   14   32 1     
   30   14   33 1     
   31   15   20 1     
   32   15   16 1     
   33   15   42 1     
   34   16   17 1     
   35   16   34 1     
   36   16   35 1     
   37   17   18 1     
   38   17   36 1     
   39   17   37 1     
   40   18   19 1     
   41   19   20 1     
   42   19   38 1     
   43   19   39 1     
   44   20   40 1     
   45   20   41 1     
   46   13   44 1     
   47   13   45 1     
   48   18   46 1     
   49   18   47 1     
@<TRIPOS>SUBSTRUCTURE
      1 S1             1
@<TRIPOS>SET
LONE_PAIRS      STATIC     ATOMS    <user>   **** ""
4 44 45 46 47
DONOR_HYDROGENS      STATIC     ATOMS    <user>   **** ""
3 43 31 42
ATOM$BLUE        STATIC     ATOMS    COLORGROUP SYSTEM
4 44 45 46 47
ATOM$RED        STATIC     ATOMS    COLORGROUP SYSTEM
3 43 31 42
