AV-unprocessed.smi:2226|AV-procd|sdf|9007|dock1
  -GOLD-   2272012213D 1   1.00000     0.00000
 Structure written by MMmdl.
 41 43  0  0  0  0  0  0  0  0  3 V2000
  144.9066  142.4625  154.9525 C   0  0  0  0  0  0  0  0  0  0  0  0
  145.6047  141.2239  154.5329 N   0  3  2  0  0  0  0  0  0  0  0  0
  145.9475  140.2958  155.6381 C   0  0  2  0  0  0  0  0  0  0  0  0
  147.0721  140.8767  156.5326 C   0  0  0  0  0  0  0  0  0  0  0  0
  148.3171  141.3430  155.7538 C   0  0  0  0  0  0  0  0  0  0  0  0
  147.9569  142.0806  154.4499 C   0  0  0  0  0  0  0  0  0  0  0  0
  146.7864  141.4382  153.6624 C   0  0  1  0  0  0  0  0  0  0  0  0
  147.1336  140.1079  152.9538 C   0  0  0  0  0  0  0  0  0  0  0  0
  147.2953  138.8983  153.9062 C   0  0  2  0  0  0  0  0  0  0  0  0
  147.1759  137.6586  153.1385 N   0  0  0  0  0  0  0  0  0  0  0  0
  146.0275  137.0501  152.8017 C   0  0  0  0  0  0  0  0  0  0  0  0
  144.9119  137.4728  153.1061 O   0  0  0  0  0  0  0  0  0  0  0  0
  146.2492  135.9303  152.0961 N   0  0  0  0  0  0  0  0  0  0  0  0
  145.2521  135.0632  151.5929 C   0  0  0  0  0  0  0  0  0  0  0  0
  145.2186  134.6129  150.3397 N   0  3  0  0  0  0  0  0  0  0  0  0
  144.1228  133.7986  150.1936 C   0  0  0  0  0  0  0  0  0  0  0  0
  143.5026  133.7834  151.4199 C   0  0  0  0  0  0  0  0  0  0  0  0
  144.2009  134.5741  152.3104 O   0  0  0  0  0  0  0  0  0  0  0  0
  146.2461  138.8992  155.0441 C   0  0  0  0  0  0  0  0  0  0  0  0
  145.5294  143.0963  155.5831 H   0  0  0  0  0  0  0  0  0  0  0  0
  144.0019  142.2180  155.5097 H   0  0  0  0  0  0  0  0  0  0  0  0
  144.6085  143.0443  154.0799 H   0  0  0  0  0  0  0  0  0  0  0  0
  145.0614  140.1820  156.2646 H   0  0  0  0  0  0  0  0  0  0  0  0
  146.6753  141.7273  157.0872 H   0  0  0  0  0  0  0  0  0  0  0  0
  147.3632  140.1492  157.2911 H   0  0  0  0  0  0  0  0  0  0  0  0
  148.9155  141.9987  156.3870 H   0  0  0  0  0  0  0  0  0  0  0  0
  148.9717  140.5011  155.5453 H   0  0  0  0  0  0  0  0  0  0  0  0
  147.6898  143.1080  154.6989 H   0  0  0  0  0  0  0  0  0  0  0  0
  148.8397  142.1587  153.8148 H   0  0  0  0  0  0  0  0  0  0  0  0
  146.4997  142.1403  152.8780 H   0  0  0  0  0  0  0  0  0  0  0  0
  146.3267  139.8931  152.2508 H   0  0  0  0  0  0  0  0  0  0  0  0
  148.0307  140.2267  152.3450 H   0  0  0  0  0  0  0  0  0  0  0  0
  148.2852  138.9422  154.3517 H   0  0  0  0  0  0  0  0  0  0  0  0
  148.0408  137.2312  152.8404 H   0  0  0  0  0  0  0  0  0  0  0  0
  145.8696  134.8118  149.5903 H   0  0  0  0  0  0  0  0  0  0  0  0
  143.8978  133.3205  149.2510 H   0  0  0  0  0  0  0  0  0  0  0  0
  142.6174  133.2962  151.8028 H   0  0  0  0  0  0  0  0  0  0  0  0
  146.5500  138.2100  155.8331 H   0  0  0  0  0  0  0  0  0  0  0  0
  145.3069  138.5039  154.6533 H   0  0  0  0  0  0  0  0  0  0  0  0
  144.9303  140.7336  153.9630 H   0  0  0  0  0  0  0  0  0  0  0  0
  147.2068  135.6767  151.9028 H   0  0  0  0  0  0  0  0  0  0  0  0
  1  2  1  0  0  0  0
  1 20  1  0  0  0  0
  1 21  1  0  0  0  0
  1 22  1  0  0  0  0
  2  7  1  0  0  0  0
  2  3  1  0  0  0  0
  2 40  1  0  0  0  0
  3 19  1  0  0  0  0
  3  4  1  0  0  0  0
  3 23  1  0  0  0  0
  4  5  1  0  0  0  0
  4 24  1  0  0  0  0
  4 25  1  0  0  0  0
  5  6  1  0  0  0  0
  5 26  1  0  0  0  0
  5 27  1  0  0  0  0
  6  7  1  0  0  0  0
  6 28  1  0  0  0  0
  6 29  1  0  0  0  0
  7  8  1  0  0  0  0
  7 30  1  0  0  0  0
  8  9  1  0  0  0  0
  8 31  1  0  0  0  0
  8 32  1  0  0  0  0
  9 10  1  0  0  0  0
  9 19  1  0  0  0  0
  9 33  1  0  0  0  0
 10 34  1  0  0  0  0
 10 11  1  0  0  0  0
 11 13  1  0  0  0  0
 11 12  2  0  0  0  0
 13 14  1  0  0  0  0
 13 41  1  0  0  0  0
 14 18  1  0  0  0  0
 14 15  2  0  0  0  0
 15 35  1  0  0  0  0
 15 16  1  0  0  0  0
 16 36  1  0  0  0  0
 16 17  2  0  0  0  0
 17 37  1  0  0  0  0
 17 18  1  0  0  0  0
 19 38  1  0  0  0  0
 19 39  1  0  0  0  0
M  CHG  1   2   1
M  CHG  1  15   1
M  END
> <s_m_source_file>
AV-unprocessed.smi

> <i_m_source_file_index>
2226

> <i_lp_mmshare_version>
43012

> <i_f3d_flags>
0

> <s_epik_input>
W0NIMl0xW0NIMl1bQ0gyXVtDQEhdKE4oW0NIM10pW0NIXTEyKVtDSDJdW0NASF0oW0NIMl0yKVtOSF1DKD1PKVtOSF1jM25bY0hdW2NIXW8z

> <s_epik_cmdline>
J2VwaWtfcHl0aG9uJywgJy1waCcsICc3LjAnLCAnLXRuJywgJzgnLCAnLW1hJywgJzIwMCcsICctbWV0YWxfYmluZGluZycsICctaW1hZScsICc8aW5maWxlLm1hZT4nLCAnLW9tYWUnLCAnPG91dGZpbGUubWFlPic=

> <r_epik_Ionization_Penalty>
6.92532

> <r_epik_Ionization_Penalty_Charging>
6.82059

> <r_epik_Ionization_Penalty_Neutral>
0.104727

> <r_epik_State_Penalty>
2.17671

> <r_epik_Charging_Adjusted_Penalty>
8.99731

> <i_epik_Tot_Q>
2

> <i_epik_Tot_abs_Q>
2

> <r_epik_Metal_State_Penalty>
2.20618

> <b_epik_Metal_Only>
0

> <s_lp_Force_Field>
OPLS_2005

> <r_lp_Energy>
46.5098

> <b_lp_Chiralities_Consistent>
1

> <s_lp_Variant>
AV-unprocessed.smi:2226-7

> <Gold.Version>
5.8.1

> <Gold.Id.Protein>
6NUR|6NUR_protein|mol2

> <Gold.PLP.Fitness>
37.2488

> <Gold.PLP.PLP>
-23.8518

> <Gold.PLP.part.hbond>
-4.0000

> <Gold.PLP.part.metal>
0.0000

> <Gold.PLP.part.buried>
-1.6632

> <Gold.PLP.part.nonpolar>
-19.7594

> <Gold.PLP.part.repulsive>
0.3958

> <Gold.PLP.ligand.clash>
0.0000

> <Gold.PLP.ligand.torsion>
0.7325

> <Gold.PLP.Chemscore.Hbond>
4.9520

> <Gold.PLP.Chemscore.CHOScore>
0.0000

> <Gold.PLP.Chemscore.Metal>
0.0000

> <Gold.Chemscore.Hbonds>
donor molecule, donor type, donor heavy atom, donor atom, acceptor molecule, acceptor atom, score
      L1  H     2    40       P1 10175  2.00
      L1  H    10    34       P1  7948  1.00
      L1  H    13    41       P1  7948  0.96
      L1  H    15    35       P1  7921  0.91

> <Gold.PLP.Chemscore.Internal.Correction>
0.0060

> <Gold.Rescore>
     Score         DG    S(hbond)    S(metal)    S(lipo)     H(rot)  DE(clash)    DE(int)     intcor
     19.35     -21.67       3.76        0.00      53.06       1.00       0.15       2.17       ----

> <Gold.Chemscore.Fitness>
19.3508

> <Gold.Chemscore.DG>
-21.6714

> <Gold.Chemscore.ZeroCoef>
-5.4800

> <Gold.Chemscore.Hbond>
3.7555

> <Gold.Chemscore.Metal>
0.0000

> <Gold.Chemscore.Lipo>
53.0593

> <Gold.Chemscore.Internal_Hbond>
0.0000

> <Gold.Chemscore.DEClash>
0.1485

> <Gold.Chemscore.DEInternal>
2.1720

> <Gold.Chemscore.Rot>
1.0000

> <Gold.Chemscore.Internal.Correction>
   9.000000E+99

> <Gold.Chemscore.Hbonds>
donor molecule, donor type, donor heavy atom, donor atom, acceptor molecule, acceptor atom, score
      L1  H     2    40       P1 10175  0.95
      L1  H    10    34       P1  7948  0.97
      L1  H    13    41       P1  7948  0.92
      L1  H    15    35       P1  7921  0.75

> <Gold.Chemscore.Hbond.Weighted>
-12.5435

> <Gold.Chemscore.Metal.Weighted>
-0.0000

> <Gold.Chemscore.Lipo.Weighted>
-6.2079

> <Gold.Chemscore.Internal_Hbond.Weighted>
0.0000

> <Gold.Chemscore.DEClash.Weighted>
0.1485

> <Gold.Chemscore.DEInternal.Weighted>
2.1720

> <Gold.Chemscore.Rot.Weighted>
2.5600

> <Gold.Chemscore.Internal.Correction.Weighted>
   9.000000E+99

> <Gold.Protein.RotatedTorsions>
[ 6907 6896 6895 6894 ] final   99.31 input  -60.11 | X-H torsion
[ 7974 7965 7964 7962 ] final -159.72 input  175.53 | X-H torsion
[ 8008 7997 7996 7995 ] final   53.75 input   59.86 | X-H torsion
[ 10167 10162 10161 10158 ] final -164.36 input  -65.29 | X-H torsion
[ 10718 10713 10712 10709 ] final  -26.10 input   66.30 | X-H torsion
[ 10763 10752 10751 10750 ] final   98.03 input  -60.55 | X-H torsion
[ 11005 11000 10999 10996 ] final  -97.09 input  -57.11 | X-H torsion

> <Gold.Protein.ActiveResidues>
 VAL166  LYS551  ARG553  GLY616  TRP617  ASP618  TYR619  PRO620  LYS621  CYS622 
 ASP623  PHE694  ASN695  SER759  ASP760  ASP761  ALA762  ILE779  LEU786  VAL792 
 PHE793  MET794  SER795  GLU796  ALA797  LYS798  CYS799  TRP800  GLU811  SER814 

> <Gold.Protein.RotatedAtoms>
  152.5394  134.0448  159.8083 H   0  0  0  0  0  0  0  0  0  0  0  0  # atno 6907 bound_to 6896
  151.0599  133.5546  159.2642 H   0  0  0  0  0  0  0  0  0  0  0  0  # atno 6908 bound_to 6896
  151.2448  135.0609  159.9093 H   0  0  0  0  0  0  0  0  0  0  0  0  # atno 6909 bound_to 6896
  144.7454  140.3644  143.6089 H   0  0  0  0  0  0  0  0  0  0  0  0  # atno 7974 bound_to 7965
  155.4735  140.3466  155.4329 H   0  0  0  0  0  0  0  0  0  0  0  0  # atno 8008 bound_to 7997
  156.1085  140.1454  156.9400 H   0  0  0  0  0  0  0  0  0  0  0  0  # atno 8009 bound_to 7997
  154.4740  140.0891  156.7195 H   0  0  0  0  0  0  0  0  0  0  0  0  # atno 8010 bound_to 7997
  139.6256  144.0539  152.1972 H   0  0  0  0  0  0  0  0  0  0  0  0  # atno 10167 bound_to 10162
  156.4556  130.4493  149.6961 H   0  0  0  0  0  0  0  0  0  0  0  0  # atno 10718 bound_to 10713
  153.2841  135.4162  155.1106 H   0  0  0  0  0  0  0  0  0  0  0  0  # atno 10763 bound_to 10752
  154.8499  135.3502  154.6071 H   0  0  0  0  0  0  0  0  0  0  0  0  # atno 10764 bound_to 10752
  153.6493  135.7053  153.5272 H   0  0  0  0  0  0  0  0  0  0  0  0  # atno 10765 bound_to 10752
  141.1390  133.8145  157.0659 H   0  0  0  0  0  0  0  0  0  0  0  0  # atno 11005 bound_to 11000
  145.7143  139.1693  143.2521 LP  0  0  0  0  0  0  0  0  0  0  0  0  # atno 17320 bound_to 7965
  146.1324  140.7168  142.9406 LP  0  0  0  0  0  0  0  0  0  0  0  0  # atno 17321 bound_to 7965
  140.0191  144.6166  150.7582 LP  0  0  0  0  0  0  0  0  0  0  0  0  # atno 17342 bound_to 10162
  140.7409  143.2810  151.3598 LP  0  0  0  0  0  0  0  0  0  0  0  0  # atno 17343 bound_to 10162
  156.3770  130.7559  151.2548 LP  0  0  0  0  0  0  0  0  0  0  0  0  # atno 17370 bound_to 10713
  157.7500  131.0306  150.4147 LP  0  0  0  0  0  0  0  0  0  0  0  0  # atno 17371 bound_to 10713
  140.0542  134.9789  157.1190 LP  0  0  0  0  0  0  0  0  0  0  0  0  # atno 17394 bound_to 11000
  140.3945  134.2149  155.7165 LP  0  0  0  0  0  0  0  0  0  0  0  0  # atno 17395 bound_to 11000

$$$$
