AV-unprocessed.smi:601|AV-procd|sdf|3034|dock7
  -GOLD-   2262023553D 1   1.00000     0.00000
 Structure written by MMmdl.
 49 50  0  0  0  0  0  0  0  0  2 V2000
  150.6206  138.2722  155.0106 C   0  0  0  0  0  0  0  0  0  0  0  0
  150.4247  136.8686  155.5991 C   0  0  0  0  0  0  0  0  0  0  0  0
  149.4320  136.8228  156.7717 C   0  0  0  0  0  0  0  0  0  0  0  0
  149.0058  135.3949  157.1634 C   0  0  0  0  0  0  0  0  0  0  0  0
  148.0723  135.3886  158.3004 N   0  0  0  0  0  0  0  0  0  0  0  0
  148.4409  135.8861  159.5117 C   0  0  0  0  0  0  0  0  0  0  0  0
  149.5789  136.3132  159.7171 O   0  0  0  0  0  0  0  0  0  0  0  0
  147.4174  135.9001  160.6691 C   0  0  1  0  0  0  0  0  0  0  0  0
  147.6594  134.8882  161.8013 C   0  0  0  0  0  0  0  0  0  0  0  0
  147.1444  135.5993  163.0472 C   0  0  0  0  0  0  0  0  0  0  0  0
  146.7533  136.9925  162.5537 C   0  0  0  0  0  0  0  0  0  0  0  0
  147.4838  137.1440  161.3494 O   0  0  0  0  0  0  0  0  0  0  0  0
  146.7768  134.8969  158.0508 C   0  0  0  0  0  0  0  0  0  0  0  0
  146.2993  133.7660  158.6358 C   0  0  0  0  0  0  0  0  0  0  0  0
  147.0854  133.0293  159.5105 N   0  0  0  0  0  0  0  0  0  0  0  0
  144.9790  133.3229  158.3534 N   0  0  0  0  0  0  0  0  0  0  0  0
  144.4802  132.0968  159.0179 C   0  0  0  0  0  0  0  0  0  0  0  0
  143.1441  132.3128  159.7598 C   0  0  0  0  0  0  0  0  0  0  0  0
  142.5893  131.0563  160.4440 C   0  0  0  0  0  0  0  0  0  0  0  0
  144.1791  134.0199  157.4872 C   0  0  0  0  0  0  0  0  0  0  0  0
  143.0414  133.6109  157.2517 O   0  0  0  0  0  0  0  0  0  0  0  0
  144.6645  135.1510  156.9003 N   0  5  0  0  0  0  0  0  0  0  0  0
  145.9135  135.6369  157.1241 C   0  0  0  0  0  0  0  0  0  0  0  0
  146.3264  136.6605  156.5783 O   0  0  0  0  0  0  0  0  0  0  0  0
  151.2806  138.2384  154.1438 H   0  0  0  0  0  0  0  0  0  0  0  0
  151.0672  138.9532  155.7348 H   0  0  0  0  0  0  0  0  0  0  0  0
  149.6708  138.6997  154.6876 H   0  0  0  0  0  0  0  0  0  0  0  0
  150.0608  136.2116  154.8085 H   0  0  0  0  0  0  0  0  0  0  0  0
  151.3867  136.4609  155.9115 H   0  0  0  0  0  0  0  0  0  0  0  0
  149.8673  137.3308  157.6324 H   0  0  0  0  0  0  0  0  0  0  0  0
  148.5479  137.3985  156.4960 H   0  0  0  0  0  0  0  0  0  0  0  0
  148.5601  134.8848  156.3076 H   0  0  0  0  0  0  0  0  0  0  0  0
  149.8891  134.8081  157.4178 H   0  0  0  0  0  0  0  0  0  0  0  0
  146.4075  135.7561  160.2828 H   0  0  0  0  0  0  0  0  0  0  0  0
  147.1334  133.9506  161.6197 H   0  0  0  0  0  0  0  0  0  0  0  0
  148.7159  134.6546  161.9374 H   0  0  0  0  0  0  0  0  0  0  0  0
  146.2956  135.0843  163.4981 H   0  0  0  0  0  0  0  0  0  0  0  0
  147.9345  135.6637  163.7962 H   0  0  0  0  0  0  0  0  0  0  0  0
  145.6851  137.0434  162.3359 H   0  0  0  0  0  0  0  0  0  0  0  0
  146.9951  137.7775  163.2704 H   0  0  0  0  0  0  0  0  0  0  0  0
  148.0291  133.3075  159.7381 H   0  0  0  0  0  0  0  0  0  0  0  0
  146.7982  132.1166  159.8340 H   0  0  0  0  0  0  0  0  0  0  0  0
  144.3628  131.3014  158.2816 H   0  0  0  0  0  0  0  0  0  0  0  0
  145.2111  131.6836  159.7143 H   0  0  0  0  0  0  0  0  0  0  0  0
  143.2498  133.1046  160.5013 H   0  0  0  0  0  0  0  0  0  0  0  0
  142.4055  132.6728  159.0434 H   0  0  0  0  0  0  0  0  0  0  0  0
  141.6153  131.2568  160.8903 H   0  0  0  0  0  0  0  0  0  0  0  0
  143.2492  130.7108  161.2400 H   0  0  0  0  0  0  0  0  0  0  0  0
  142.4673  130.2413  159.7302 H   0  0  0  0  0  0  0  0  0  0  0  0
  1  2  1  0  0  0  0
  1 25  1  0  0  0  0
  1 26  1  0  0  0  0
  1 27  1  0  0  0  0
  2  3  1  0  0  0  0
  2 28  1  0  0  0  0
  2 29  1  0  0  0  0
  3  4  1  0  0  0  0
  3 30  1  0  0  0  0
  3 31  1  0  0  0  0
  4  5  1  0  0  0  0
  4 32  1  0  0  0  0
  4 33  1  0  0  0  0
  5  6  1  0  0  0  0
  5 13  1  0  0  0  0
  6  7  2  0  0  0  0
  6  8  1  0  0  0  0
  8 12  1  0  0  0  0
  8  9  1  0  0  0  0
  8 34  1  0  0  0  0
  9 10  1  0  0  0  0
  9 35  1  0  0  0  0
  9 36  1  0  0  0  0
 10 11  1  0  0  0  0
 10 37  1  0  0  0  0
 10 38  1  0  0  0  0
 11 12  1  0  0  0  0
 11 39  1  0  0  0  0
 11 40  1  0  0  0  0
 13 23  1  0  0  0  0
 13 14  2  0  0  0  0
 14 15  1  0  0  0  0
 14 16  1  0  0  0  0
 15 41  1  0  0  0  0
 15 42  1  0  0  0  0
 16 17  1  0  0  0  0
 16 20  1  0  0  0  0
 17 18  1  0  0  0  0
 17 43  1  0  0  0  0
 17 44  1  0  0  0  0
 18 19  1  0  0  0  0
 18 45  1  0  0  0  0
 18 46  1  0  0  0  0
 19 47  1  0  0  0  0
 19 48  1  0  0  0  0
 19 49  1  0  0  0  0
 20 21  2  0  0  0  0
 20 22  1  0  0  0  0
 22 23  1  0  0  0  0
 23 24  2  0  0  0  0
M  CHG  1  22  -1
M  END
> <s_m_source_file>
AV-unprocessed.smi

> <i_m_source_file_index>
601

> <i_lp_mmshare_version>
43012

> <i_f3d_flags>
0

> <s_epik_input>
TzFbQ0gyXVtDSDJdW0NIMl1bQ0BIXTFDKD1PKU4oW0NIMl1bQ0gyXVtDSDJdW0NIM10pYzJjKFtOSDJdKW4oW0NIMl1bQ0gyXVtDSDNdKWMoPU8pW25IXWMyPU8=

> <s_epik_cmdline>
J2VwaWtfcHl0aG9uJywgJy1waCcsICc3LjAnLCAnLXRuJywgJzgnLCAnLW1hJywgJzIwMCcsICctbWV0YWxfYmluZGluZycsICctaW1hZScsICc8aW5maWxlLm1hZT4nLCAnLW9tYWUnLCAnPG91dGZpbGUubWFlPic=

> <r_lp_tautomer_probability>
1

> <r_epik_Ionization_Penalty>
5.90608

> <r_epik_Ionization_Penalty_Charging>
4.55687e-07

> <r_epik_Ionization_Penalty_Neutral>
5.90608

> <r_epik_State_Penalty>
5.90604

> <r_epik_Charging_Adjusted_Penalty>
5.90604

> <i_epik_Tot_Q>
-1

> <i_epik_Tot_abs_Q>
1

> <r_epik_Metal_State_Penalty>
1.84043

> <b_epik_Metal_Only>
1

> <s_lp_Force_Field>
OPLS_2005

> <r_lp_Energy>
54.0415

> <b_lp_Chiralities_Consistent>
1

> <s_lp_Variant>
AV-unprocessed.smi:601-4

> <Gold.Version>
5.8.1

> <Gold.Id.Protein>
6NUR|6NUR_protein|mol2

> <Gold.PLP.Fitness>
37.1595

> <Gold.PLP.PLP>
-26.7207

> <Gold.PLP.part.hbond>
-4.0000

> <Gold.PLP.part.metal>
0.0000

> <Gold.PLP.part.buried>
-5.3905

> <Gold.PLP.part.nonpolar>
-18.6995

> <Gold.PLP.part.repulsive>
0.1502

> <Gold.PLP.ligand.clash>
0.0000

> <Gold.PLP.ligand.torsion>
1.6790

> <Gold.PLP.Chemscore.Hbond>
3.8800

> <Gold.PLP.Chemscore.CHOScore>
0.0000

> <Gold.PLP.Chemscore.Metal>
0.0000

> <Gold.Chemscore.Hbonds>
donor molecule, donor type, donor heavy atom, donor atom, acceptor molecule, acceptor atom, score
      P1  H  6896  6907       L1     7  0.94
      P1  H  6931  6943       L1    12  0.94
      P1  H  6934  6947       L1    12  0.93
      P1  H 11000 11005       L1    21  0.90

> <Gold.PLP.Chemscore.Internal.Correction>
2.1568

> <Gold.Rescore>
     Score         DG    S(hbond)    S(metal)    S(lipo)     H(rot)  DE(clash)    DE(int)     intcor
     12.78     -17.47       2.98        0.00      59.53       1.92       0.05       4.64       ----

> <Gold.Chemscore.Fitness>
12.7830

> <Gold.Chemscore.DG>
-17.4717

> <Gold.Chemscore.ZeroCoef>
-5.4800

> <Gold.Chemscore.Hbond>
2.9767

> <Gold.Chemscore.Metal>
0.0000

> <Gold.Chemscore.Lipo>
59.5301

> <Gold.Chemscore.Internal_Hbond>
0.0000

> <Gold.Chemscore.DEClash>
0.0477

> <Gold.Chemscore.DEInternal>
4.6409

> <Gold.Chemscore.Rot>
1.9201

> <Gold.Chemscore.Internal.Correction>
   9.000000E+99

> <Gold.Chemscore.Hbonds>
donor molecule, donor type, donor heavy atom, donor atom, acceptor molecule, acceptor atom, score
      P1  H  6896  6907       L1     7  0.35
      P1  H  6931  6943       L1    12  0.35
      P1  H  6934  6947       L1    12  0.31
      P1  H 11000 11005       L1    21  0.88

> <Gold.Chemscore.Hbond.Weighted>
-9.9420

> <Gold.Chemscore.Metal.Weighted>
-0.0000

> <Gold.Chemscore.Lipo.Weighted>
-6.9650

> <Gold.Chemscore.Internal_Hbond.Weighted>
0.0000

> <Gold.Chemscore.DEClash.Weighted>
0.0477

> <Gold.Chemscore.DEInternal.Weighted>
4.6409

> <Gold.Chemscore.Rot.Weighted>
4.9154

> <Gold.Chemscore.Internal.Correction.Weighted>
   9.000000E+99

> <Gold.Protein.RotatedTorsions>
[ 6907 6896 6895 6894 ] final  -66.01 input  -60.11 | X-H torsion
[ 7974 7965 7964 7962 ] final  -32.86 input  175.53 | X-H torsion
[ 8008 7997 7996 7995 ] final  162.00 input   59.86 | X-H torsion
[ 10167 10162 10161 10158 ] final -109.72 input  -65.29 | X-H torsion
[ 10718 10713 10712 10709 ] final   70.29 input   66.30 | X-H torsion
[ 10763 10752 10751 10750 ] final   69.80 input  -60.55 | X-H torsion
[ 11005 11000 10999 10996 ] final -112.17 input  -57.11 | X-H torsion

> <Gold.Protein.ActiveResidues>
 VAL166  LYS551  ARG553  GLY616  TRP617  ASP618  TYR619  PRO620  LYS621  CYS622 
 ASP623  PHE694  ASN695  SER759  ASP760  ASP761  ALA762  ILE779  LEU786  VAL792 
 PHE793  MET794  SER795  GLU796  ALA797  LYS798  CYS799  TRP800  GLU811  SER814 

> <Gold.Protein.RotatedAtoms>
  150.7490  134.6081  159.6071 H   0  0  0  0  0  0  0  0  0  0  0  0  # atno 6907 bound_to 6896
  152.3423  134.7115  160.0269 H   0  0  0  0  0  0  0  0  0  0  0  0  # atno 6908 bound_to 6896
  151.7563  133.3294  159.3442 H   0  0  0  0  0  0  0  0  0  0  0  0  # atno 6909 bound_to 6896
  146.0956  140.5845  142.8844 H   0  0  0  0  0  0  0  0  0  0  0  0  # atno 7974 bound_to 7965
  156.2063  140.1762  156.7793 H   0  0  0  0  0  0  0  0  0  0  0  0  # atno 8008 bound_to 7997
  154.5659  140.0691  156.8921 H   0  0  0  0  0  0  0  0  0  0  0  0  # atno 8009 bound_to 7997
  155.2761  140.3346  155.4264 H   0  0  0  0  0  0  0  0  0  0  0  0  # atno 8010 bound_to 7997
  140.1522  143.4189  152.1486 H   0  0  0  0  0  0  0  0  0  0  0  0  # atno 10167 bound_to 10162
  157.6392  130.9470  150.0631 H   0  0  0  0  0  0  0  0  0  0  0  0  # atno 10718 bound_to 10713
  153.0307  135.5197  154.7344 H   0  0  0  0  0  0  0  0  0  0  0  0  # atno 10763 bound_to 10752
  154.6362  135.2906  155.0160 H   0  0  0  0  0  0  0  0  0  0  0  0  # atno 10764 bound_to 10752
  154.1095  135.6624  153.4935 H   0  0  0  0  0  0  0  0  0  0  0  0  # atno 10765 bound_to 10752
  141.0691  133.9410  157.2521 H   0  0  0  0  0  0  0  0  0  0  0  0  # atno 11005 bound_to 11000
  144.7393  140.4897  143.6881 LP  0  0  0  0  0  0  0  0  0  0  0  0  # atno 17320 bound_to 7965
  145.5954  139.1499  143.3159 LP  0  0  0  0  0  0  0  0  0  0  0  0  # atno 17321 bound_to 7965
  139.5420  144.7265  151.4703 LP  0  0  0  0  0  0  0  0  0  0  0  0  # atno 17342 bound_to 10162
  140.6695  143.8325  150.6982 LP  0  0  0  0  0  0  0  0  0  0  0  0  # atno 17343 bound_to 10162
  156.1658  130.3645  149.9235 LP  0  0  0  0  0  0  0  0  0  0  0  0  # atno 17370 bound_to 10713
  156.7222  130.9011  151.3619 LP  0  0  0  0  0  0  0  0  0  0  0  0  # atno 17371 bound_to 10713
  139.9505  135.0176  156.8980 LP  0  0  0  0  0  0  0  0  0  0  0  0  # atno 17394 bound_to 11000
  140.5711  134.0442  155.7431 LP  0  0  0  0  0  0  0  0  0  0  0  0  # atno 17395 bound_to 11000

$$$$
