AV-unprocessed.smi:676|AV-procd|sdf|3309|dock7
  -GOLD-   22720 0273D 1   1.00000     0.00000
 Structure written by MMmdl.
 42 43  0  0  0  0  0  0  0  0  1 V2000
  146.8168  139.2795  152.9001 C   0  0  0  0  0  0  0  0  0  0  0  0
  148.0644  138.8970  153.4658 O   0  0  0  0  0  0  0  0  0  0  0  0
  148.5576  139.6787  154.5626 C   0  0  1  0  0  0  0  0  0  0  0  0
  148.6996  141.1502  154.1539 C   0  0  0  0  0  0  0  0  0  0  0  0
  147.7962  139.3228  155.8541 C   0  0  0  0  0  0  0  0  0  0  0  0
  148.7519  138.1408  156.0036 C   0  0  2  0  0  0  0  0  0  0  0  0
  149.1246  137.8896  157.3916 N   0  0  0  0  0  0  0  0  0  0  0  0
  148.5288  136.9871  158.1839 C   0  0  0  0  0  0  0  0  0  0  0  0
  147.6032  136.2673  157.8062 O   0  0  0  0  0  0  0  0  0  0  0  0
  149.0871  136.8731  159.6095 C   0  0  0  0  0  0  0  0  0  0  0  0
  148.2823  136.0048  160.4847 N   0  0  0  0  0  0  0  0  0  0  0  0
  147.7209  136.5962  161.6340 C   0  0  0  0  0  0  0  0  0  0  0  0
  146.9731  135.8945  162.5002 C   0  0  0  0  0  0  0  0  0  0  0  0
  146.7482  134.4943  162.2296 C   0  0  0  0  0  0  0  0  0  0  0  0
  147.2835  133.9179  161.1352 C   0  0  0  0  0  0  0  0  0  0  0  0
  148.1035  134.6806  160.1867 C   0  0  0  0  0  0  0  0  0  0  0  0
  148.5983  134.1615  159.1858 O   0  0  0  0  0  0  0  0  0  0  0  0
  149.7923  138.9418  155.1787 C   0  0  0  0  0  0  0  0  0  0  0  0
  150.6548  138.1232  154.2117 C   0  0  0  0  0  0  0  0  0  0  0  0
  150.7760  139.8223  155.9725 C   0  0  0  0  0  0  0  0  0  0  0  0
  146.4947  138.5108  152.1980 H   0  0  0  0  0  0  0  0  0  0  0  0
  146.8986  140.2110  152.3404 H   0  0  0  0  0  0  0  0  0  0  0  0
  146.0349  139.3891  153.6507 H   0  0  0  0  0  0  0  0  0  0  0  0
  149.1643  141.7458  154.9389 H   0  0  0  0  0  0  0  0  0  0  0  0
  147.7339  141.6144  153.9560 H   0  0  0  0  0  0  0  0  0  0  0  0
  149.3123  141.2545  153.2583 H   0  0  0  0  0  0  0  0  0  0  0  0
  147.9092  140.0780  156.6340 H   0  0  0  0  0  0  0  0  0  0  0  0
  146.7512  139.0394  155.7345 H   0  0  0  0  0  0  0  0  0  0  0  0
  148.3822  137.2567  155.4786 H   0  0  0  0  0  0  0  0  0  0  0  0
  149.8810  138.4388  157.7729 H   0  0  0  0  0  0  0  0  0  0  0  0
  150.1113  136.5038  159.5430 H   0  0  0  0  0  0  0  0  0  0  0  0
  149.1714  137.8701  160.0458 H   0  0  0  0  0  0  0  0  0  0  0  0
  147.9427  137.6451  161.7675 H   0  0  0  0  0  0  0  0  0  0  0  0
  146.5546  136.3636  163.3785 H   0  0  0  0  0  0  0  0  0  0  0  0
  146.1486  133.9059  162.9085 H   0  0  0  0  0  0  0  0  0  0  0  0
  147.1055  132.8689  160.9495 H   0  0  0  0  0  0  0  0  0  0  0  0
  151.4450  137.5846  154.7360 H   0  0  0  0  0  0  0  0  0  0  0  0
  151.1286  138.7599  153.4642 H   0  0  0  0  0  0  0  0  0  0  0  0
  150.0706  137.3741  153.6770 H   0  0  0  0  0  0  0  0  0  0  0  0
  151.5070  139.2216  156.5149 H   0  0  0  0  0  0  0  0  0  0  0  0
  150.2695  140.4465  156.7088 H   0  0  0  0  0  0  0  0  0  0  0  0
  151.3342  140.4897  155.3152 H   0  0  0  0  0  0  0  0  0  0  0  0
  1  2  1  0  0  0  0
  1 21  1  0  0  0  0
  1 22  1  0  0  0  0
  1 23  1  0  0  0  0
  2  3  1  0  0  0  0
  3 18  1  0  0  0  0
  3  4  1  0  0  0  0
  3  5  1  0  0  0  0
  4 24  1  0  0  0  0
  4 25  1  0  0  0  0
  4 26  1  0  0  0  0
  5  6  1  0  0  0  0
  5 27  1  0  0  0  0
  5 28  1  0  0  0  0
  6  7  1  0  0  0  0
  6 18  1  0  0  0  0
  6 29  1  0  0  0  0
  7  8  1  0  0  0  0
  7 30  1  0  0  0  0
  8  9  2  0  0  0  0
  8 10  1  0  0  0  0
 10 11  1  0  0  0  0
 10 31  1  0  0  0  0
 10 32  1  0  0  0  0
 11 16  1  0  0  0  0
 11 12  1  0  0  0  0
 12 13  2  0  0  0  0
 12 33  1  0  0  0  0
 13 14  1  0  0  0  0
 13 34  1  0  0  0  0
 14 15  2  0  0  0  0
 14 35  1  0  0  0  0
 15 16  1  0  0  0  0
 15 36  1  0  0  0  0
 16 17  2  0  0  0  0
 18 19  1  0  0  0  0
 18 20  1  0  0  0  0
 19 37  1  0  0  0  0
 19 38  1  0  0  0  0
 19 39  1  0  0  0  0
 20 40  1  0  0  0  0
 20 41  1  0  0  0  0
 20 42  1  0  0  0  0
M  END
> <s_m_source_file>
AV-unprocessed.smi

> <i_m_source_file_index>
676

> <i_lp_mmshare_version>
43012

> <i_f3d_flags>
0

> <s_epik_input>
W0NIM11PW0NAQF0xKFtDSDNdKVtDSDJdW0NASF0oQzEoW0NIM10pW0NIM10pW05IXUMoPU8pW0NIMl1uMltjSF1bY0hdW2NIXVtjSF1jMj1P

> <s_epik_cmdline>
J2VwaWtfcHl0aG9uJywgJy1waCcsICc3LjAnLCAnLXRuJywgJzgnLCAnLW1hJywgJzIwMCcsICctbWV0YWxfYmluZGluZycsICctaW1hZScsICc8aW5maWxlLm1hZT4nLCAnLW9tYWUnLCAnPG91dGZpbGUubWFlPic=

> <r_lp_tautomer_probability>
1

> <r_epik_Ionization_Penalty>
4.09771e-07

> <r_epik_Ionization_Penalty_Charging>
3.90712e-07

> <r_epik_Ionization_Penalty_Neutral>
1.90591e-08

> <r_epik_State_Penalty>
-0

> <r_epik_Charging_Adjusted_Penalty>
3.90712e-07

> <i_epik_Tot_Q>
0

> <i_epik_Tot_abs_Q>
0

> <r_epik_Metal_State_Penalty>
-0

> <b_epik_Metal_Only>
0

> <s_lp_Force_Field>
OPLS_2005

> <r_lp_Energy>
31.664

> <b_lp_Chiralities_Consistent>
1

> <s_lp_Variant>
AV-unprocessed.smi:676-3

> <Gold.Version>
5.8.1

> <Gold.Id.Protein>
6NUR|6NUR_protein|mol2

> <Gold.PLP.Fitness>
34.8665

> <Gold.PLP.PLP>
-32.3420

> <Gold.PLP.part.hbond>
-1.0000

> <Gold.PLP.part.metal>
0.0000

> <Gold.PLP.part.buried>
-3.7129

> <Gold.PLP.part.nonpolar>
-29.5558

> <Gold.PLP.part.repulsive>
1.1371

> <Gold.PLP.ligand.clash>
0.0000

> <Gold.PLP.ligand.torsion>
0.4253

> <Gold.PLP.Chemscore.Hbond>
1.0000

> <Gold.PLP.Chemscore.CHOScore>
0.0000

> <Gold.PLP.Chemscore.Metal>
0.0000

> <Gold.Chemscore.Hbonds>
donor molecule, donor type, donor heavy atom, donor atom, acceptor molecule, acceptor atom, score
      P1  H  6896  6909       L1    17  0.96

> <Gold.PLP.Chemscore.Internal.Correction>
0.3751

> <Gold.Rescore>
     Score         DG    S(hbond)    S(metal)    S(lipo)     H(rot)  DE(clash)    DE(int)     intcor
     12.12     -13.10       0.83        0.00      76.85       1.62       0.45       0.53       ----

> <Gold.Chemscore.Fitness>
12.1166

> <Gold.Chemscore.DG>
-13.0956

> <Gold.Chemscore.ZeroCoef>
-5.4800

> <Gold.Chemscore.Hbond>
0.8277

> <Gold.Chemscore.Metal>
0.0000

> <Gold.Chemscore.Lipo>
76.8543

> <Gold.Chemscore.Internal_Hbond>
0.0000

> <Gold.Chemscore.DEClash>
0.4450

> <Gold.Chemscore.DEInternal>
0.5340

> <Gold.Chemscore.Rot>
1.6175

> <Gold.Chemscore.Internal.Correction>
   9.000000E+99

> <Gold.Chemscore.Hbonds>
donor molecule, donor type, donor heavy atom, donor atom, acceptor molecule, acceptor atom, score
      P1  H  6896  6909       L1    17  0.61

> <Gold.Chemscore.Hbond.Weighted>
-2.7644

> <Gold.Chemscore.Metal.Weighted>
-0.0000

> <Gold.Chemscore.Lipo.Weighted>
-8.9920

> <Gold.Chemscore.Internal_Hbond.Weighted>
0.0000

> <Gold.Chemscore.DEClash.Weighted>
0.4450

> <Gold.Chemscore.DEInternal.Weighted>
0.5340

> <Gold.Chemscore.Rot.Weighted>
4.1408

> <Gold.Chemscore.Internal.Correction.Weighted>
   9.000000E+99

> <Gold.Protein.RotatedTorsions>
[ 6907 6896 6895 6894 ] final   20.40 input  -60.11 | X-H torsion
[ 7974 7965 7964 7962 ] final    4.81 input  175.53 | X-H torsion
[ 8008 7997 7996 7995 ] final -161.88 input   59.86 | X-H torsion
[ 10167 10162 10161 10158 ] final  -23.02 input  -65.29 | X-H torsion
[ 10718 10713 10712 10709 ] final -130.47 input   66.30 | X-H torsion
[ 10763 10752 10751 10750 ] final   64.35 input  -60.55 | X-H torsion
[ 11005 11000 10999 10996 ] final  135.62 input  -57.11 | X-H torsion

> <Gold.Protein.ActiveResidues>
 VAL166  LYS551  ARG553  GLY616  TRP617  ASP618  TYR619  PRO620  LYS621  CYS622 
 ASP623  PHE694  ASN695  SER759  ASP760  ASP761  ALA762  ILE779  LEU786  VAL792 
 PHE793  MET794  SER795  GLU796  ALA797  LYS798  CYS799  TRP800  GLU811  SER814 

> <Gold.Protein.RotatedAtoms>
  151.8957  135.0398  160.0501 H   0  0  0  0  0  0  0  0  0  0  0  0  # atno 6907 bound_to 6896
  152.2399  133.5122  159.5272 H   0  0  0  0  0  0  0  0  0  0  0  0  # atno 6908 bound_to 6896
  150.7050  134.1019  159.4011 H   0  0  0  0  0  0  0  0  0  0  0  0  # atno 6909 bound_to 6896
  146.2443  140.0479  142.8377 H   0  0  0  0  0  0  0  0  0  0  0  0  # atno 7974 bound_to 7965
  155.7986  140.0888  157.1969 H   0  0  0  0  0  0  0  0  0  0  0  0  # atno 8008 bound_to 7997
  154.3982  140.1476  156.3306 H   0  0  0  0  0  0  0  0  0  0  0  0  # atno 8009 bound_to 7997
  155.8486  140.3435  155.5681 H   0  0  0  0  0  0  0  0  0  0  0  0  # atno 8010 bound_to 7997
  140.7287  143.4481  151.0557 H   0  0  0  0  0  0  0  0  0  0  0  0  # atno 10167 bound_to 10162
  156.2148  130.6941  151.0690 H   0  0  0  0  0  0  0  0  0  0  0  0  # atno 10718 bound_to 10713
  153.0052  135.5396  154.6495 H   0  0  0  0  0  0  0  0  0  0  0  0  # atno 10763 bound_to 10752
  154.5731  135.2843  155.0810 H   0  0  0  0  0  0  0  0  0  0  0  0  # atno 10764 bound_to 10752
  154.1968  135.6491  153.5128 H   0  0  0  0  0  0  0  0  0  0  0  0  # atno 10765 bound_to 10752
  139.9992  134.9485  157.0033 H   0  0  0  0  0  0  0  0  0  0  0  0  # atno 11005 bound_to 11000
  145.1011  140.9346  143.4712 LP  0  0  0  0  0  0  0  0  0  0  0  0  # atno 17320 bound_to 7965
  145.0672  139.3059  143.5850 LP  0  0  0  0  0  0  0  0  0  0  0  0  # atno 17321 bound_to 7965
  139.8155  143.7892  152.3174 LP  0  0  0  0  0  0  0  0  0  0  0  0  # atno 17342 bound_to 10162
  139.7957  144.7393  150.9894 LP  0  0  0  0  0  0  0  0  0  0  0  0  # atno 17343 bound_to 10162
  157.7057  131.0757  150.6674 LP  0  0  0  0  0  0  0  0  0  0  0  0  # atno 17370 bound_to 10713
  156.6735  130.4546  149.5650 LP  0  0  0  0  0  0  0  0  0  0  0  0  # atno 17371 bound_to 10713
  140.4760  134.1338  155.7210 LP  0  0  0  0  0  0  0  0  0  0  0  0  # atno 17394 bound_to 11000
  141.1628  133.8759  157.1799 LP  0  0  0  0  0  0  0  0  0  0  0  0  # atno 17395 bound_to 11000

$$$$
