AV-unprocessed.smi:2229|AV-procd|sdf|9032|dock6
  -GOLD-   2272012243D 1   1.00000     0.00000
 Structure written by MMmdl.
 43 44  0  0  0  0  0  0  0  0  2 V2000
  151.9101  144.5427  157.1537 C   0  0  0  0  0  0  0  0  0  0  0  0
  151.7707  144.0158  158.5925 C   0  0  0  0  0  0  0  0  0  0  0  0
  151.8429  145.1750  159.5980 C   0  0  0  0  0  0  0  0  0  0  0  0
  152.8141  142.9315  158.9356 C   0  0  0  0  0  0  0  0  0  0  0  0
  152.7631  142.4725  160.4023 C   0  0  0  0  0  0  0  0  0  0  0  0
  154.0113  141.6902  160.8695 C   0  0  1  0  0  0  0  0  0  0  0  0
  154.0677  141.4580  162.3836 C   0  0  0  0  0  0  0  0  0  0  0  0
  155.0763  140.3273  162.5507 C   0  0  0  0  0  0  0  0  0  0  0  0
  154.8083  139.3988  161.3657 C   0  0  0  0  0  0  0  0  0  0  0  0
  154.2184  140.2811  160.2469 C   0  0  1  0  0  0  0  0  0  0  0  0
  152.9791  139.6906  159.7378 N   0  0  0  0  0  0  0  0  0  0  0  0
  152.8281  139.1121  158.5359 C   0  0  0  0  0  0  0  0  0  0  0  0
  153.7543  138.9354  157.7444 O   0  0  0  0  0  0  0  0  0  0  0  0
  151.4098  138.6739  158.1629 C   0  0  0  0  0  0  0  0  0  0  0  0
  150.9363  139.3905  156.9775 N   0  0  0  0  0  0  0  0  0  0  0  0
  151.5794  139.3497  155.7656 C   0  0  0  0  0  0  0  0  0  0  0  0
  150.9783  140.0922  154.9065 N   0  0  0  0  0  0  0  0  0  0  0  0
  149.8585  140.6720  155.5842 N   0  5  0  0  0  0  0  0  0  0  0  0
  149.8880  140.2057  156.8520 C   0  0  0  0  0  0  0  0  0  0  0  0
  149.1123  140.4528  157.7744 O   0  0  0  0  0  0  0  0  0  0  0  0
  152.9044  144.9523  156.9744 H   0  0  0  0  0  0  0  0  0  0  0  0
  151.1849  145.3320  156.9547 H   0  0  0  0  0  0  0  0  0  0  0  0
  151.7316  143.7595  156.4172 H   0  0  0  0  0  0  0  0  0  0  0  0
  150.7791  143.5705  158.6853 H   0  0  0  0  0  0  0  0  0  0  0  0
  152.8140  145.6697  159.5632 H   0  0  0  0  0  0  0  0  0  0  0  0
  151.6842  144.8226  160.6175 H   0  0  0  0  0  0  0  0  0  0  0  0
  151.0791  145.9245  159.3895 H   0  0  0  0  0  0  0  0  0  0  0  0
  152.6875  142.0719  158.2763 H   0  0  0  0  0  0  0  0  0  0  0  0
  153.8069  143.3301  158.7269 H   0  0  0  0  0  0  0  0  0  0  0  0
  152.6183  143.3430  161.0414 H   0  0  0  0  0  0  0  0  0  0  0  0
  151.8873  141.8382  160.5349 H   0  0  0  0  0  0  0  0  0  0  0  0
  154.8894  142.2806  160.6024 H   0  0  0  0  0  0  0  0  0  0  0  0
  154.3563  142.3520  162.9373 H   0  0  0  0  0  0  0  0  0  0  0  0
  153.0918  141.1373  162.7513 H   0  0  0  0  0  0  0  0  0  0  0  0
  156.0886  140.7279  162.4822 H   0  0  0  0  0  0  0  0  0  0  0  0
  154.9840  139.8201  163.5113 H   0  0  0  0  0  0  0  0  0  0  0  0
  155.7144  138.8833  161.0455 H   0  0  0  0  0  0  0  0  0  0  0  0
  154.0952  138.6309  161.6707 H   0  0  0  0  0  0  0  0  0  0  0  0
  154.9480  140.3576  159.4385 H   0  0  0  0  0  0  0  0  0  0  0  0
  152.1571  139.7926  160.3154 H   0  0  0  0  0  0  0  0  0  0  0  0
  151.4063  137.5974  157.9838 H   0  0  0  0  0  0  0  0  0  0  0  0
  150.7265  138.8471  158.9960 H   0  0  0  0  0  0  0  0  0  0  0  0
  152.4781  138.7436  155.6401 H   0  0  0  0  0  0  0  0  0  0  0  0
  1  2  1  0  0  0  0
  1 21  1  0  0  0  0
  1 22  1  0  0  0  0
  1 23  1  0  0  0  0
  2  3  1  0  0  0  0
  2  4  1  0  0  0  0
  2 24  1  0  0  0  0
  3 25  1  0  0  0  0
  3 26  1  0  0  0  0
  3 27  1  0  0  0  0
  4  5  1  0  0  0  0
  4 28  1  0  0  0  0
  4 29  1  0  0  0  0
  5  6  1  0  0  0  0
  5 30  1  0  0  0  0
  5 31  1  0  0  0  0
  6 10  1  0  0  0  0
  6  7  1  0  0  0  0
  6 32  1  0  0  0  0
  7  8  1  0  0  0  0
  7 33  1  0  0  0  0
  7 34  1  0  0  0  0
  8  9  1  0  0  0  0
  8 35  1  0  0  0  0
  8 36  1  0  0  0  0
  9 10  1  0  0  0  0
  9 37  1  0  0  0  0
  9 38  1  0  0  0  0
 10 11  1  0  0  0  0
 10 39  1  0  0  0  0
 11 12  1  0  0  0  0
 11 40  1  0  0  0  0
 12 13  2  0  0  0  0
 12 14  1  0  0  0  0
 14 15  1  0  0  0  0
 14 41  1  0  0  0  0
 14 42  1  0  0  0  0
 15 19  1  0  0  0  0
 15 16  1  0  0  0  0
 16 17  2  0  0  0  0
 16 43  1  0  0  0  0
 17 18  1  0  0  0  0
 18 19  1  0  0  0  0
 19 20  2  0  0  0  0
M  CHG  1  18  -1
M  END
> <s_m_source_file>
AV-unprocessed.smi

> <i_m_source_file_index>
2229

> <i_lp_mmshare_version>
43012

> <i_f3d_flags>
0

> <s_epik_input>
W0NIM11bQ0hdKFtDSDNdKVtDSDJdW0NIMl1bQ0BASF0xW0NIMl1bQ0gyXVtDSDJdW0NASF0xW05IXUMoPU8pW0NIMl1uMltjSF1uW25IXWMyPU8=

> <s_epik_cmdline>
J2VwaWtfcHl0aG9uJywgJy1waCcsICc3LjAnLCAnLXRuJywgJzgnLCAnLW1hJywgJzIwMCcsICctbWV0YWxfYmluZGluZycsICctaW1hZScsICc8aW5maWxlLm1hZT4nLCAnLW9tYWUnLCAnPG91dGZpbGUubWFlPic=

> <r_lp_tautomer_probability>
1

> <r_epik_Ionization_Penalty>
13.6733

> <r_epik_Ionization_Penalty_Charging>
13.6725

> <r_epik_Ionization_Penalty_Neutral>
0.000837689

> <r_epik_State_Penalty>
5.67062

> <r_epik_Charging_Adjusted_Penalty>
19.3431

> <i_epik_Tot_Q>
-1

> <i_epik_Tot_abs_Q>
1

> <r_epik_Metal_State_Penalty>
1.61781

> <b_epik_Metal_Only>
1

> <s_lp_Force_Field>
OPLS_2005

> <r_lp_Energy>
25.9104

> <b_lp_Chiralities_Consistent>
1

> <s_lp_Variant>
AV-unprocessed.smi:2229-6

> <Gold.Version>
5.8.1

> <Gold.Id.Protein>
6NUR|6NUR_protein|mol2

> <Gold.PLP.Fitness>
47.0104

> <Gold.PLP.PLP>
-41.4718

> <Gold.PLP.part.hbond>
-1.8941

> <Gold.PLP.part.metal>
0.0000

> <Gold.PLP.part.buried>
-4.4251

> <Gold.PLP.part.nonpolar>
-36.0381

> <Gold.PLP.part.repulsive>
0.2915

> <Gold.PLP.ligand.clash>
0.0000

> <Gold.PLP.ligand.torsion>
0.2621

> <Gold.PLP.Chemscore.Hbond>
2.0000

> <Gold.PLP.Chemscore.CHOScore>
0.0000

> <Gold.PLP.Chemscore.Metal>
0.0000

> <Gold.Chemscore.Hbonds>
donor molecule, donor type, donor heavy atom, donor atom, acceptor molecule, acceptor atom, score
      P1  H  7989  7998       L1    17  1.00
      P1  H  7997  8010       L1    13  1.00

> <Gold.PLP.Chemscore.Internal.Correction>
0.0628

> <Gold.Rescore>
     Score         DG    S(hbond)    S(metal)    S(lipo)     H(rot)  DE(clash)    DE(int)     intcor
     17.51     -17.96       1.97        0.00     107.10       2.59       0.02       0.44       ----

> <Gold.Chemscore.Fitness>
17.5062

> <Gold.Chemscore.DG>
-17.9579

> <Gold.Chemscore.ZeroCoef>
-5.4800

> <Gold.Chemscore.Hbond>
1.9724

> <Gold.Chemscore.Metal>
0.0000

> <Gold.Chemscore.Lipo>
107.0983

> <Gold.Chemscore.Internal_Hbond>
0.0000

> <Gold.Chemscore.DEClash>
0.0157

> <Gold.Chemscore.DEInternal>
0.4360

> <Gold.Chemscore.Rot>
2.5939

> <Gold.Chemscore.Internal.Correction>
   9.000000E+99

> <Gold.Chemscore.Hbonds>
donor molecule, donor type, donor heavy atom, donor atom, acceptor molecule, acceptor atom, score
      P1  H  7989  7998       L1    17  0.98
      P1  H  7997  8010       L1    13  0.96

> <Gold.Chemscore.Hbond.Weighted>
-6.5879

> <Gold.Chemscore.Metal.Weighted>
-0.0000

> <Gold.Chemscore.Lipo.Weighted>
-12.5305

> <Gold.Chemscore.Internal_Hbond.Weighted>
0.0000

> <Gold.Chemscore.DEClash.Weighted>
0.0157

> <Gold.Chemscore.DEInternal.Weighted>
0.4360

> <Gold.Chemscore.Rot.Weighted>
6.6405

> <Gold.Chemscore.Internal.Correction.Weighted>
   9.000000E+99

> <Gold.Protein.RotatedTorsions>
[ 6907 6896 6895 6894 ] final   40.93 input  -60.11 | X-H torsion
[ 7974 7965 7964 7962 ] final  130.72 input  175.53 | X-H torsion
[ 8008 7997 7996 7995 ] final   21.56 input   59.86 | X-H torsion
[ 10167 10162 10161 10158 ] final  138.45 input  -65.29 | X-H torsion
[ 10718 10713 10712 10709 ] final -157.36 input   66.30 | X-H torsion
[ 10763 10752 10751 10750 ] final  163.07 input  -60.55 | X-H torsion
[ 11005 11000 10999 10996 ] final   93.52 input  -57.11 | X-H torsion

> <Gold.Protein.ActiveResidues>
 VAL166  LYS551  ARG553  GLY616  TRP617  ASP618  TYR619  PRO620  LYS621  CYS622 
 ASP623  PHE694  ASN695  SER759  ASP760  ASP761  ALA762  ILE779  LEU786  VAL792 
 PHE793  MET794  SER795  GLU796  ALA797  LYS798  CYS799  TRP800  GLU811  SER814 

> <Gold.Protein.RotatedAtoms>
  152.1888  134.8690  160.0519 H   0  0  0  0  0  0  0  0  0  0  0  0  # atno 6907 bound_to 6896
  151.9586  133.3683  159.4035 H   0  0  0  0  0  0  0  0  0  0  0  0  # atno 6908 bound_to 6896
  150.6931  134.4188  159.5239 H   0  0  0  0  0  0  0  0  0  0  0  0  # atno 6909 bound_to 6896
  145.0149  139.4186  143.5226 H   0  0  0  0  0  0  0  0  0  0  0  0  # atno 7974 bound_to 7965
  154.9525  140.3067  155.5068 H   0  0  0  0  0  0  0  0  0  0  0  0  # atno 8008 bound_to 7997
  156.2985  140.2316  156.4541 H   0  0  0  0  0  0  0  0  0  0  0  0  # atno 8009 bound_to 7997
  154.8041  140.0432  157.1283 H   0  0  0  0  0  0  0  0  0  0  0  0  # atno 8010 bound_to 7997
  139.5110  144.6352  151.5714 H   0  0  0  0  0  0  0  0  0  0  0  0  # atno 10167 bound_to 10162
  156.5392  130.8556  151.2743 H   0  0  0  0  0  0  0  0  0  0  0  0  # atno 10718 bound_to 10713
  154.2880  135.2761  155.2667 H   0  0  0  0  0  0  0  0  0  0  0  0  # atno 10763 bound_to 10752
  154.5159  135.5770  153.6645 H   0  0  0  0  0  0  0  0  0  0  0  0  # atno 10764 bound_to 10752
  152.9918  135.6192  154.3043 H   0  0  0  0  0  0  0  0  0  0  0  0  # atno 10765 bound_to 10752
  139.8809  134.8794  156.3729 H   0  0  0  0  0  0  0  0  0  0  0  0  # atno 11005 bound_to 11000
  146.3476  139.9614  142.8717 LP  0  0  0  0  0  0  0  0  0  0  0  0  # atno 17320 bound_to 7965
  145.1973  140.9839  143.4176 LP  0  0  0  0  0  0  0  0  0  0  0  0  # atno 17321 bound_to 7965
  140.6099  143.9456  150.6445 LP  0  0  0  0  0  0  0  0  0  0  0  0  # atno 17342 bound_to 10162
  140.2695  143.3466  152.1251 LP  0  0  0  0  0  0  0  0  0  0  0  0  # atno 17343 bound_to 10162
  157.7408  130.9858  150.2403 LP  0  0  0  0  0  0  0  0  0  0  0  0  # atno 17370 bound_to 10713
  156.2987  130.3755  149.7771 LP  0  0  0  0  0  0  0  0  0  0  0  0  # atno 17371 bound_to 10713
  140.9451  133.7488  156.0198 LP  0  0  0  0  0  0  0  0  0  0  0  0  # atno 17394 bound_to 11000
  140.8172  134.3331  157.5393 LP  0  0  0  0  0  0  0  0  0  0  0  0  # atno 17395 bound_to 11000

$$$$
