AV-unprocessed.smi:3241|AV-procd|sdf|12392|dock10
  -GOLD-   2272018263D 1   1.00000     0.00000
 Structure written by MMmdl.
 43 44  0  0  0  0  0  0  0  0  1 V2000
  151.3900  144.3936  158.1975 C   0  0  0  0  0  0  0  0  0  0  0  0
  152.1804  143.8406  159.3947 C   0  0  1  0  0  0  0  0  0  0  0  0
  151.7848  144.5765  160.6908 C   0  0  0  0  0  0  0  0  0  0  0  0
  152.5555  144.0435  161.9073 C   0  0  0  0  0  0  0  0  0  0  0  0
  152.3533  142.5307  162.0644 C   0  0  0  0  0  0  0  0  0  0  0  0
  152.7590  141.7854  160.7845 C   0  0  0  0  0  0  0  0  0  0  0  0
  151.9949  142.3131  159.5500 C   0  0  2  0  0  0  0  0  0  0  0  0
  152.4961  141.6981  158.3688 O   0  0  0  0  0  0  0  0  0  0  0  0
  152.2938  140.2944  158.2914 C   0  0  0  0  0  0  0  0  0  0  0  0
  151.9207  139.9328  156.8501 C   0  0  0  0  0  0  0  0  0  0  0  0
  152.2623  138.5454  156.5566 N   0  0  0  0  0  0  0  0  0  0  0  0
  151.1549  137.7704  156.0059 C   0  0  0  0  0  0  0  0  0  0  0  0
  150.9217  138.0924  154.5207 C   0  0  0  0  0  0  0  0  0  0  0  0
  149.9407  139.1468  154.3337 N   0  0  0  0  0  0  0  0  0  0  0  0
  148.6608  139.0431  153.8307 C   0  0  0  0  0  0  0  0  0  0  0  0
  148.1135  140.2939  153.8505 C   0  0  0  0  0  0  0  0  0  0  0  0
  149.1487  141.1069  154.3914 C   0  0  0  0  0  0  0  0  0  0  0  0
  150.2427  140.4186  154.6753 N   0  0  0  0  0  0  0  0  0  0  0  0
  150.3204  144.2149  158.3118 H   0  0  0  0  0  0  0  0  0  0  0  0
  151.7068  143.9297  157.2631 H   0  0  0  0  0  0  0  0  0  0  0  0
  151.5384  145.4686  158.0933 H   0  0  0  0  0  0  0  0  0  0  0  0
  153.2384  144.0351  159.2109 H   0  0  0  0  0  0  0  0  0  0  0  0
  151.9707  145.6457  160.5837 H   0  0  0  0  0  0  0  0  0  0  0  0
  150.7133  144.4665  160.8648 H   0  0  0  0  0  0  0  0  0  0  0  0
  153.6181  144.2619  161.7937 H   0  0  0  0  0  0  0  0  0  0  0  0
  152.2280  144.5584  162.8109 H   0  0  0  0  0  0  0  0  0  0  0  0
  152.9361  142.1635  162.9095 H   0  0  0  0  0  0  0  0  0  0  0  0
  151.3078  142.3218  162.2947 H   0  0  0  0  0  0  0  0  0  0  0  0
  153.8322  141.8969  160.6240 H   0  0  0  0  0  0  0  0  0  0  0  0
  152.5782  140.7205  160.9254 H   0  0  0  0  0  0  0  0  0  0  0  0
  150.9294  142.1010  159.6584 H   0  0  0  0  0  0  0  0  0  0  0  0
  153.1771  139.7376  158.6042 H   0  0  0  0  0  0  0  0  0  0  0  0
  151.4775  140.0113  158.9571 H   0  0  0  0  0  0  0  0  0  0  0  0
  150.8484  140.0788  156.7161 H   0  0  0  0  0  0  0  0  0  0  0  0
  152.4193  140.6076  156.1532 H   0  0  0  0  0  0  0  0  0  0  0  0
  152.6233  138.0923  157.3900 H   0  0  0  0  0  0  0  0  0  0  0  0
  151.3687  136.7059  156.1080 H   0  0  0  0  0  0  0  0  0  0  0  0
  150.2424  137.9591  156.5729 H   0  0  0  0  0  0  0  0  0  0  0  0
  151.8562  138.3741  154.0322 H   0  0  0  0  0  0  0  0  0  0  0  0
  150.5583  137.2026  154.0057 H   0  0  0  0  0  0  0  0  0  0  0  0
  148.2509  138.0982  153.5058 H   0  0  0  0  0  0  0  0  0  0  0  0
  147.1237  140.5835  153.5298 H   0  0  0  0  0  0  0  0  0  0  0  0
  149.1387  142.1700  154.5821 H   0  0  0  0  0  0  0  0  0  0  0  0
  1  2  1  0  0  0  0
  1 19  1  0  0  0  0
  1 20  1  0  0  0  0
  1 21  1  0  0  0  0
  2  7  1  0  0  0  0
  2  3  1  0  0  0  0
  2 22  1  0  0  0  0
  3  4  1  0  0  0  0
  3 23  1  0  0  0  0
  3 24  1  0  0  0  0
  4  5  1  0  0  0  0
  4 25  1  0  0  0  0
  4 26  1  0  0  0  0
  5  6  1  0  0  0  0
  5 27  1  0  0  0  0
  5 28  1  0  0  0  0
  6  7  1  0  0  0  0
  6 29  1  0  0  0  0
  6 30  1  0  0  0  0
  7  8  1  0  0  0  0
  7 31  1  0  0  0  0
  8  9  1  0  0  0  0
  9 10  1  0  0  0  0
  9 32  1  0  0  0  0
  9 33  1  0  0  0  0
 10 11  1  0  0  0  0
 10 34  1  0  0  0  0
 10 35  1  0  0  0  0
 11 12  1  0  0  0  0
 11 36  1  0  0  0  0
 12 13  1  0  0  0  0
 12 37  1  0  0  0  0
 12 38  1  0  0  0  0
 13 14  1  0  0  0  0
 13 39  1  0  0  0  0
 13 40  1  0  0  0  0
 14 18  1  0  0  0  0
 14 15  1  0  0  0  0
 15 16  2  0  0  0  0
 15 41  1  0  0  0  0
 16 17  1  0  0  0  0
 16 42  1  0  0  0  0
 17 18  2  0  0  0  0
 17 43  1  0  0  0  0
M  END
> <s_m_source_file>
AV-unprocessed.smi

> <i_m_source_file_index>
3241

> <i_lp_mmshare_version>
43012

> <i_f3d_flags>
0

> <s_epik_input>
W0NIM11bQ0BASF0xW0NIMl1bQ0gyXVtDSDJdW0NIMl1bQ0BIXTFPW0NIMl1bQ0gyXVtOSF1bQ0gyXVtDSDJdbjJbY0hdW2NIXVtjSF1uMg==

> <s_epik_cmdline>
J2VwaWtfcHl0aG9uJywgJy1waCcsICc3LjAnLCAnLXRuJywgJzgnLCAnLW1hJywgJzIwMCcsICctbWV0YWxfYmluZGluZycsICctaW1hZScsICc8aW5maWxlLm1hZT4nLCAnLW9tYWUnLCAnPG91dGZpbGUubWFlPic=

> <r_lp_tautomer_probability>
1

> <r_epik_Ionization_Penalty>
2.47055

> <r_epik_Ionization_Penalty_Charging>
0

> <r_epik_Ionization_Penalty_Neutral>
2.47055

> <r_epik_State_Penalty>
2.6322

> <r_epik_Charging_Adjusted_Penalty>
2.6322

> <i_epik_Tot_Q>
0

> <i_epik_Tot_abs_Q>
0

> <r_epik_Metal_State_Penalty>
2.63108

> <b_epik_Metal_Only>
0

> <s_lp_Force_Field>
OPLS_2005

> <r_lp_Energy>
16.4595

> <b_lp_Chiralities_Consistent>
1

> <s_lp_Variant>
AV-unprocessed.smi:3241-8

> <Gold.Version>
5.8.1

> <Gold.Id.Protein>
6NUR|6NUR_protein|mol2

> <Gold.PLP.Fitness>
47.0743

> <Gold.PLP.PLP>
-42.0014

> <Gold.PLP.part.hbond>
-1.0000

> <Gold.PLP.part.metal>
0.0000

> <Gold.PLP.part.buried>
-0.5107

> <Gold.PLP.part.nonpolar>
-39.3977

> <Gold.PLP.part.repulsive>
0.0963

> <Gold.PLP.ligand.clash>
0.0000

> <Gold.PLP.ligand.torsion>
1.1678

> <Gold.PLP.Chemscore.Hbond>
0.9760

> <Gold.PLP.Chemscore.CHOScore>
1.4801

> <Gold.PLP.Chemscore.Metal>
0.0000

> <Gold.Chemscore.Hbonds>
donor molecule, donor type, donor heavy atom, donor atom, acceptor molecule, acceptor atom, score
      P1  H  7989  7998       L1    18  0.99
      L1  C    15    41       P1  7948  0.90
      L1  C    17    43       P1  8028  0.41

> <Gold.PLP.Chemscore.Internal.Correction>
0.0402

> <Gold.Rescore>
     Score         DG    S(hbond)    S(metal)    S(lipo)     H(rot)  DE(clash)    DE(int)     intcor
     15.90     -18.51       0.82        0.00     127.15       1.79       0.20       2.41       ----

> <Gold.Chemscore.Fitness>
15.8974

> <Gold.Chemscore.DG>
-18.5096

> <Gold.Chemscore.ZeroCoef>
-5.4800

> <Gold.Chemscore.Hbond>
0.8193

> <Gold.Chemscore.Metal>
0.0000

> <Gold.Chemscore.Lipo>
127.1456

> <Gold.Chemscore.Internal_Hbond>
0.0000

> <Gold.Chemscore.DEClash>
0.1992

> <Gold.Chemscore.DEInternal>
2.4130

> <Gold.Chemscore.Rot>
1.7901

> <Gold.Chemscore.Internal.Correction>
   9.000000E+99

> <Gold.Chemscore.Hbonds>
donor molecule, donor type, donor heavy atom, donor atom, acceptor molecule, acceptor atom, score
      P1  H  7989  7998       L1    18  0.31

> <Gold.Chemscore.Hbond.Weighted>
-2.7363

> <Gold.Chemscore.Metal.Weighted>
-0.0000

> <Gold.Chemscore.Lipo.Weighted>
-14.8760

> <Gold.Chemscore.Internal_Hbond.Weighted>
0.0000

> <Gold.Chemscore.DEClash.Weighted>
0.1992

> <Gold.Chemscore.DEInternal.Weighted>
2.4130

> <Gold.Chemscore.Rot.Weighted>
4.5827

> <Gold.Chemscore.Internal.Correction.Weighted>
   9.000000E+99

> <Gold.Protein.RotatedTorsions>
[ 6907 6896 6895 6894 ] final -113.65 input  -60.11 | X-H torsion
[ 7974 7965 7964 7962 ] final -159.82 input  175.53 | X-H torsion
[ 8008 7997 7996 7995 ] final   15.92 input   59.86 | X-H torsion
[ 10167 10162 10161 10158 ] final -156.49 input  -65.29 | X-H torsion
[ 10718 10713 10712 10709 ] final   26.22 input   66.30 | X-H torsion
[ 10763 10752 10751 10750 ] final   71.73 input  -60.55 | X-H torsion
[ 11005 11000 10999 10996 ] final  -53.21 input  -57.11 | X-H torsion

> <Gold.Protein.ActiveResidues>
 VAL166  LYS551  ARG553  GLY616  TRP617  ASP618  TYR619  PRO620  LYS621  CYS622 
 ASP623  PHE694  ASN695  SER759  ASP760  ASP761  ALA762  ILE779  LEU786  VAL792 
 PHE793  MET794  SER795  GLU796  ALA797  LYS798  CYS799  TRP800  GLU811  SER814 

> <Gold.Protein.RotatedAtoms>
  150.7844  133.8915  159.3314 H   0  0  0  0  0  0  0  0  0  0  0  0  # atno 6907 bound_to 6896
  151.6769  135.0966  160.0218 H   0  0  0  0  0  0  0  0  0  0  0  0  # atno 6908 bound_to 6896
  152.3904  133.6632  159.6268 H   0  0  0  0  0  0  0  0  0  0  0  0  # atno 6909 bound_to 6896
  144.7450  140.3630  143.6092 H   0  0  0  0  0  0  0  0  0  0  0  0  # atno 7974 bound_to 7965
  154.8695  140.2956  155.5490 H   0  0  0  0  0  0  0  0  0  0  0  0  # atno 8008 bound_to 7997
  156.3021  140.2463  156.3615 H   0  0  0  0  0  0  0  0  0  0  0  0  # atno 8009 bound_to 7997
  154.8832  140.0397  157.1784 H   0  0  0  0  0  0  0  0  0  0  0  0  # atno 8010 bound_to 7997
  139.6846  143.9523  152.2354 H   0  0  0  0  0  0  0  0  0  0  0  0  # atno 10167 bound_to 10162
  157.2039  130.6903  149.6200 H   0  0  0  0  0  0  0  0  0  0  0  0  # atno 10718 bound_to 10713
  153.0416  135.5126  154.7637 H   0  0  0  0  0  0  0  0  0  0  0  0  # atno 10763 bound_to 10752
  154.6570  135.2933  154.9917 H   0  0  0  0  0  0  0  0  0  0  0  0  # atno 10764 bound_to 10752
  154.0781  135.6668  153.4886 H   0  0  0  0  0  0  0  0  0  0  0  0  # atno 10765 bound_to 10752
  141.0964  133.6624  156.4138 H   0  0  0  0  0  0  0  0  0  0  0  0  # atno 11005 bound_to 11000
  145.7157  139.1696  143.2513 LP  0  0  0  0  0  0  0  0  0  0  0  0  # atno 17320 bound_to 7965
  146.1314  140.7180  142.9410 LP  0  0  0  0  0  0  0  0  0  0  0  0  # atno 17321 bound_to 7965
  139.9322  144.6734  150.8351 LP  0  0  0  0  0  0  0  0  0  0  0  0  # atno 17342 bound_to 10162
  140.7663  143.3301  151.2429 LP  0  0  0  0  0  0  0  0  0  0  0  0  # atno 17343 bound_to 10162
  155.9697  130.4573  150.5959 LP  0  0  0  0  0  0  0  0  0  0  0  0  # atno 17370 bound_to 10713
  157.3739  131.0770  151.1534 LP  0  0  0  0  0  0  0  0  0  0  0  0  # atno 17371 bound_to 10713
  140.5129  134.6378  157.5291 LP  0  0  0  0  0  0  0  0  0  0  0  0  # atno 17394 bound_to 11000
  139.9802  134.7149  155.9874 LP  0  0  0  0  0  0  0  0  0  0  0  0  # atno 17395 bound_to 11000

$$$$
