AV-unprocessed.smi:3193|AV-procd|sdf|12207|dock7
  -GOLD-   2272018 43D 1   1.00000     0.00000
 Structure written by MMmdl.
 41 42  0  0  0  0  0  0  0  0  3 V2000
  152.1794  144.9766  158.6392 C   0  0  0  0  0  0  0  0  0  0  0  0
  151.3085  143.9779  159.4287 C   0  0  2  0  0  0  0  0  0  0  0  0
  151.6408  144.0038  160.9357 C   0  0  0  0  0  0  0  0  0  0  0  0
  152.9896  143.3346  161.2494 C   0  0  0  0  0  0  0  0  0  0  0  0
  153.0380  141.9004  160.7035 C   0  0  0  0  0  0  0  0  0  0  0  0
  152.7195  141.8590  159.2003 C   0  0  0  0  0  0  0  0  0  0  0  0
  151.3586  142.5228  158.8895 C   0  0  2  0  0  0  0  0  0  0  0  0
  150.9890  142.4317  157.3952 C   0  0  0  0  0  0  0  0  0  0  0  0
  149.5267  142.4649  157.1919 N   0  3  0  0  0  0  0  0  0  0  0  0
  149.0128  141.3591  156.3578 C   0  0  0  0  0  0  0  0  0  0  0  0
  149.0763  141.6940  154.8581 C   0  0  0  0  0  0  0  0  0  0  0  0
  148.5270  140.6290  154.0107 N   0  0  0  0  0  0  0  0  0  0  0  0
  147.3874  140.6779  153.2483 C   0  0  0  0  0  0  0  0  0  0  0  0
  147.2865  139.4652  152.6164 C   0  0  0  0  0  0  0  0  0  0  0  0
  148.3717  138.7305  153.0122 N   0  3  0  0  0  0  0  0  0  0  0  0
  149.1276  139.4411  153.8559 C   0  0  0  0  0  0  0  0  0  0  0  0
  153.2307  144.6905  158.6309 H   0  0  0  0  0  0  0  0  0  0  0  0
  152.1167  145.9739  159.0753 H   0  0  0  0  0  0  0  0  0  0  0  0
  151.8517  145.0644  157.6036 H   0  0  0  0  0  0  0  0  0  0  0  0
  150.2799  144.3275  159.3288 H   0  0  0  0  0  0  0  0  0  0  0  0
  151.6393  145.0296  161.3059 H   0  0  0  0  0  0  0  0  0  0  0  0
  150.8529  143.4867  161.4851 H   0  0  0  0  0  0  0  0  0  0  0  0
  153.8047  143.9189  160.8217 H   0  0  0  0  0  0  0  0  0  0  0  0
  153.1555  143.3258  162.3270 H   0  0  0  0  0  0  0  0  0  0  0  0
  154.0212  141.4663  160.8877 H   0  0  0  0  0  0  0  0  0  0  0  0
  152.3218  141.2814  161.2451 H   0  0  0  0  0  0  0  0  0  0  0  0
  153.5162  142.3523  158.6429 H   0  0  0  0  0  0  0  0  0  0  0  0
  152.7186  140.8203  158.8690 H   0  0  0  0  0  0  0  0  0  0  0  0
  150.5963  141.9667  159.4386 H   0  0  0  0  0  0  0  0  0  0  0  0
  151.4291  143.2705  156.8539 H   0  0  0  0  0  0  0  0  0  0  0  0
  151.3922  141.5182  156.9559 H   0  0  0  0  0  0  0  0  0  0  0  0
  149.0808  142.4212  158.0972 H   0  0  0  0  0  0  0  0  0  0  0  0
  149.5744  140.4480  156.5692 H   0  0  0  0  0  0  0  0  0  0  0  0
  147.9769  141.1636  156.6379 H   0  0  0  0  0  0  0  0  0  0  0  0
  148.4993  142.5968  154.6538 H   0  0  0  0  0  0  0  0  0  0  0  0
  150.1031  141.8988  154.5503 H   0  0  0  0  0  0  0  0  0  0  0  0
  146.7488  141.5489  153.2098 H   0  0  0  0  0  0  0  0  0  0  0  0
  146.5466  139.0814  151.9288 H   0  0  0  0  0  0  0  0  0  0  0  0
  150.0439  139.1168  154.3167 H   0  0  0  0  0  0  0  0  0  0  0  0
  149.2864  143.3423  156.7532 H   0  0  0  0  0  0  0  0  0  0  0  0
  148.5796  137.7883  152.7041 H   0  0  0  0  0  0  0  0  0  0  0  0
  1  2  1  0  0  0  0
  1 17  1  0  0  0  0
  1 18  1  0  0  0  0
  1 19  1  0  0  0  0
  2  7  1  0  0  0  0
  2  3  1  0  0  0  0
  2 20  1  0  0  0  0
  3  4  1  0  0  0  0
  3 21  1  0  0  0  0
  3 22  1  0  0  0  0
  4  5  1  0  0  0  0
  4 23  1  0  0  0  0
  4 24  1  0  0  0  0
  5  6  1  0  0  0  0
  5 25  1  0  0  0  0
  5 26  1  0  0  0  0
  6  7  1  0  0  0  0
  6 27  1  0  0  0  0
  6 28  1  0  0  0  0
  7  8  1  0  0  0  0
  7 29  1  0  0  0  0
  8  9  1  0  0  0  0
  8 30  1  0  0  0  0
  8 31  1  0  0  0  0
  9 10  1  0  0  0  0
  9 32  1  0  0  0  0
  9 40  1  0  0  0  0
 10 11  1  0  0  0  0
 10 33  1  0  0  0  0
 10 34  1  0  0  0  0
 11 12  1  0  0  0  0
 11 35  1  0  0  0  0
 11 36  1  0  0  0  0
 12 16  1  0  0  0  0
 12 13  1  0  0  0  0
 13 14  2  0  0  0  0
 13 37  1  0  0  0  0
 14 15  1  0  0  0  0
 14 38  1  0  0  0  0
 15 16  2  0  0  0  0
 15 41  1  0  0  0  0
 16 39  1  0  0  0  0
M  CHG  1   9   1
M  CHG  1  15   1
M  END
> <s_m_source_file>
AV-unprocessed.smi

> <i_m_source_file_index>
3193

> <i_lp_mmshare_version>
43012

> <i_f3d_flags>
0

> <s_epik_input>
W0NIM11bQ0BASF0xW0NIMl1bQ0gyXVtDSDJdW0NIMl1bQ0BIXTFbQ0gyXVtOSF1bQ0gyXVtDSDJdbjJbY0hdW2NIXW5bY0hdMg==

> <s_epik_cmdline>
J2VwaWtfcHl0aG9uJywgJy1waCcsICc3LjAnLCAnLXRuJywgJzgnLCAnLW1hJywgJzIwMCcsICctbWV0YWxfYmluZGluZycsICctaW1hZScsICc8aW5maWxlLm1hZT4nLCAnLW9tYWUnLCAnPG91dGZpbGUubWFlPic=

> <r_lp_tautomer_probability>
1

> <r_epik_Ionization_Penalty>
1.50262

> <r_epik_Ionization_Penalty_Charging>
0.00193432

> <r_epik_Ionization_Penalty_Neutral>
1.50068

> <r_epik_State_Penalty>
1.11854

> <r_epik_Charging_Adjusted_Penalty>
1.12048

> <i_epik_Tot_Q>
2

> <i_epik_Tot_abs_Q>
2

> <r_epik_Metal_State_Penalty>
5.11322

> <b_epik_Metal_Only>
0

> <s_lp_Force_Field>
OPLS_2005

> <r_lp_Energy>
29.0126

> <b_lp_Chiralities_Consistent>
1

> <s_lp_Variant>
AV-unprocessed.smi:3193-7

> <Gold.Version>
5.8.1

> <Gold.Id.Protein>
6NUR|6NUR_protein|mol2

> <Gold.PLP.Fitness>
50.9562

> <Gold.PLP.PLP>
-40.5478

> <Gold.PLP.part.hbond>
-3.0000

> <Gold.PLP.part.metal>
0.0000

> <Gold.PLP.part.buried>
-1.0968

> <Gold.PLP.part.nonpolar>
-36.0964

> <Gold.PLP.part.repulsive>
0.0534

> <Gold.PLP.ligand.clash>
0.0000

> <Gold.PLP.ligand.torsion>
0.8306

> <Gold.PLP.Chemscore.Hbond>
4.0000

> <Gold.PLP.Chemscore.CHOScore>
0.0000

> <Gold.PLP.Chemscore.Metal>
0.0000

> <Gold.Chemscore.Hbonds>
donor molecule, donor type, donor heavy atom, donor atom, acceptor molecule, acceptor atom, score
      L1  H     9    40       P1  8028  2.00
      L1  H    15    41       P1  7948  2.00

> <Gold.PLP.Chemscore.Internal.Correction>
0.0698

> <Gold.Rescore>
     Score         DG    S(hbond)    S(metal)    S(lipo)     H(rot)  DE(clash)    DE(int)     intcor
     19.05     -19.96       1.93        0.00     111.96       1.98       0.16       0.75       ----

> <Gold.Chemscore.Fitness>
19.0480

> <Gold.Chemscore.DG>
-19.9571

> <Gold.Chemscore.ZeroCoef>
-5.4800

> <Gold.Chemscore.Hbond>
1.9280

> <Gold.Chemscore.Metal>
0.0000

> <Gold.Chemscore.Lipo>
111.9642

> <Gold.Chemscore.Internal_Hbond>
0.0000

> <Gold.Chemscore.DEClash>
0.1572

> <Gold.Chemscore.DEInternal>
0.7519

> <Gold.Chemscore.Rot>
1.9774

> <Gold.Chemscore.Internal.Correction>
   9.000000E+99

> <Gold.Chemscore.Hbonds>
donor molecule, donor type, donor heavy atom, donor atom, acceptor molecule, acceptor atom, score
      L1  H     9    40       P1  8028  0.98
      L1  H    15    41       P1  7948  1.00

> <Gold.Chemscore.Hbond.Weighted>
-6.4394

> <Gold.Chemscore.Metal.Weighted>
-0.0000

> <Gold.Chemscore.Lipo.Weighted>
-13.0998

> <Gold.Chemscore.Internal_Hbond.Weighted>
0.0000

> <Gold.Chemscore.DEClash.Weighted>
0.1572

> <Gold.Chemscore.DEInternal.Weighted>
0.7519

> <Gold.Chemscore.Rot.Weighted>
5.0622

> <Gold.Chemscore.Internal.Correction.Weighted>
   9.000000E+99

> <Gold.Protein.RotatedTorsions>
[ 6907 6896 6895 6894 ] final  117.94 input  -60.11 | X-H torsion
[ 7974 7965 7964 7962 ] final -115.16 input  175.53 | X-H torsion
[ 8008 7997 7996 7995 ] final  -18.00 input   59.86 | X-H torsion
[ 10167 10162 10161 10158 ] final  160.42 input  -65.29 | X-H torsion
[ 10718 10713 10712 10709 ] final -174.83 input   66.30 | X-H torsion
[ 10763 10752 10751 10750 ] final  140.18 input  -60.55 | X-H torsion
[ 11005 11000 10999 10996 ] final   39.81 input  -57.11 | X-H torsion

> <Gold.Protein.ActiveResidues>
 VAL166  LYS551  ARG553  GLY616  TRP617  ASP618  TYR619  PRO620  LYS621  CYS622 
 ASP623  PHE694  ASN695  SER759  ASP760  ASP761  ALA762  ILE779  LEU786  VAL792 
 PHE793  MET794  SER795  GLU796  ALA797  LYS798  CYS799  TRP800  GLU811  SER814 

> <Gold.Protein.RotatedAtoms>
  152.4578  133.7758  159.6823 H   0  0  0  0  0  0  0  0  0  0  0  0  # atno 6907 bound_to 6896
  150.8510  133.7777  159.3032 H   0  0  0  0  0  0  0  0  0  0  0  0  # atno 6908 bound_to 6896
  151.5373  135.1071  159.9969 H   0  0  0  0  0  0  0  0  0  0  0  0  # atno 6909 bound_to 6896
  145.1116  140.8615  143.3866 H   0  0  0  0  0  0  0  0  0  0  0  0  # atno 7974 bound_to 7965
  154.4938  140.2127  155.9492 H   0  0  0  0  0  0  0  0  0  0  0  0  # atno 8008 bound_to 7997
  156.1341  140.3191  155.8363 H   0  0  0  0  0  0  0  0  0  0  0  0  # atno 8009 bound_to 7997
  155.4241  140.0499  157.3014 H   0  0  0  0  0  0  0  0  0  0  0  0  # atno 8010 bound_to 7997
  139.4840  144.4635  151.8672 H   0  0  0  0  0  0  0  0  0  0  0  0  # atno 10167 bound_to 10162
  156.7909  130.9517  151.3120 H   0  0  0  0  0  0  0  0  0  0  0  0  # atno 10718 bound_to 10713
  153.9185  135.3003  155.3448 H   0  0  0  0  0  0  0  0  0  0  0  0  # atno 10763 bound_to 10752
  154.7588  135.4944  153.9427 H   0  0  0  0  0  0  0  0  0  0  0  0  # atno 10764 bound_to 10752
  153.1155  135.6769  153.9529 H   0  0  0  0  0  0  0  0  0  0  0  0  # atno 10765 bound_to 10752
  140.1991  134.3892  155.8105 H   0  0  0  0  0  0  0  0  0  0  0  0  # atno 11005 bound_to 11000
  145.0840  139.2938  143.5769 LP  0  0  0  0  0  0  0  0  0  0  0  0  # atno 17320 bound_to 7965
  146.3526  140.0356  142.8647 LP  0  0  0  0  0  0  0  0  0  0  0  0  # atno 17321 bound_to 7965
  140.4099  144.2382  150.5889 LP  0  0  0  0  0  0  0  0  0  0  0  0  # atno 17342 bound_to 10162
  140.4976  143.2328  151.8727 LP  0  0  0  0  0  0  0  0  0  0  0  0  # atno 17343 bound_to 10162
  157.6601  130.8958  149.9812 LP  0  0  0  0  0  0  0  0  0  0  0  0  # atno 17370 bound_to 10713
  156.1160  130.3648  149.9968 LP  0  0  0  0  0  0  0  0  0  0  0  0  # atno 17371 bound_to 10713
  141.2227  133.7085  156.8227 LP  0  0  0  0  0  0  0  0  0  0  0  0  # atno 17394 bound_to 11000
  140.2074  134.8853  157.3236 LP  0  0  0  0  0  0  0  0  0  0  0  0  # atno 17395 bound_to 11000

$$$$
