AV-unprocessed.smi:2336|AV-procd|sdf|9331|dock3
  -GOLD-   2272012553D 1   1.00000     0.00000
 Structure written by MMmdl.
 49 50  0  0  0  0  0  0  0  0  1 V2000
  146.8276  141.8102  153.7197 C   0  0  0  0  0  0  0  0  0  0  0  0
  147.8820  140.8700  154.3329 C   0  0  0  0  0  0  0  0  0  0  0  0
  149.1746  141.6286  154.6902 C   0  0  0  0  0  0  0  0  0  0  0  0
  148.1167  139.5505  153.5091 C   0  0  2  0  0  0  0  0  0  0  0  0
  146.7694  138.9209  153.0306 C   0  0  0  0  0  0  0  0  0  0  0  0
  146.9196  137.5701  152.5028 N   0  0  0  0  0  0  0  0  0  0  0  0
  145.9268  136.6890  152.3176 C   0  0  0  0  0  0  0  0  0  0  0  0
  144.7534  136.9123  152.6138 O   0  0  0  0  0  0  0  0  0  0  0  0
  146.3931  135.5472  151.7837 N   0  0  0  0  0  0  0  0  0  0  0  0
  145.6754  134.3912  151.3708 C   0  0  0  0  0  0  0  0  0  0  0  0
  144.4176  134.4227  150.7207 C   0  0  0  0  0  0  0  0  0  0  0  0
  143.8230  133.2024  150.3416 C   0  0  0  0  0  0  0  0  0  0  0  0
  144.3922  131.9977  150.5583 N   0  0  0  0  0  0  0  0  0  0  0  0
  145.5960  131.9719  151.1682 C   0  0  0  0  0  0  0  0  0  0  0  0
  146.2764  133.1329  151.5871 C   0  0  0  0  0  0  0  0  0  0  0  0
  147.4867  133.0358  152.1889 F   0  0  0  0  0  0  0  0  0  0  0  0
  149.0044  138.5916  154.2217 N   0  0  0  0  0  0  0  0  0  0  0  0
  148.6574  138.4604  155.6509 C   0  0  0  0  0  0  0  0  0  0  0  0
  149.5490  137.4426  156.3842 C   0  0  0  0  0  0  0  0  0  0  0  0
  150.9545  137.8211  156.3118 N   0  0  0  0  0  0  0  0  0  0  0  0
  151.8023  136.8702  157.0143 C   0  0  0  0  0  0  0  0  0  0  0  0
  151.3267  137.9372  154.9074 C   0  0  0  0  0  0  0  0  0  0  0  0
  150.4326  138.9494  154.1667 C   0  0  0  0  0  0  0  0  0  0  0  0
  147.1736  142.2707  152.7948 H   0  0  0  0  0  0  0  0  0  0  0  0
  146.5814  142.6188  154.4085 H   0  0  0  0  0  0  0  0  0  0  0  0
  145.9035  141.2742  153.5023 H   0  0  0  0  0  0  0  0  0  0  0  0
  147.4777  140.6165  155.3068 H   0  0  0  0  0  0  0  0  0  0  0  0
  149.6091  142.1514  153.8407 H   0  0  0  0  0  0  0  0  0  0  0  0
  149.9297  140.9541  155.0946 H   0  0  0  0  0  0  0  0  0  0  0  0
  148.9759  142.3838  155.4510 H   0  0  0  0  0  0  0  0  0  0  0  0
  148.6437  139.8377  152.5978 H   0  0  0  0  0  0  0  0  0  0  0  0
  146.0788  138.7987  153.8637 H   0  0  0  0  0  0  0  0  0  0  0  0
  146.2761  139.5809  152.3151 H   0  0  0  0  0  0  0  0  0  0  0  0
  147.8533  137.2929  152.2375 H   0  0  0  0  0  0  0  0  0  0  0  0
  147.3955  135.4854  151.6798 H   0  0  0  0  0  0  0  0  0  0  0  0
  143.9069  135.3455  150.4938 H   0  0  0  0  0  0  0  0  0  0  0  0
  142.8651  133.1945  149.8430 H   0  0  0  0  0  0  0  0  0  0  0  0
  146.0321  130.9964  151.3244 H   0  0  0  0  0  0  0  0  0  0  0  0
  148.7379  139.4312  156.1425 H   0  0  0  0  0  0  0  0  0  0  0  0
  147.6326  138.1321  155.7948 H   0  0  0  0  0  0  0  0  0  0  0  0
  149.2391  137.3795  157.4278 H   0  0  0  0  0  0  0  0  0  0  0  0
  149.4030  136.4500  155.9546 H   0  0  0  0  0  0  0  0  0  0  0  0
  152.8476  137.1767  156.9661 H   0  0  0  0  0  0  0  0  0  0  0  0
  151.7199  135.8725  156.5810 H   0  0  0  0  0  0  0  0  0  0  0  0
  151.5228  136.8076  158.0665 H   0  0  0  0  0  0  0  0  0  0  0  0
  152.3680  138.2516  154.8283 H   0  0  0  0  0  0  0  0  0  0  0  0
  151.2577  136.9633  154.4196 H   0  0  0  0  0  0  0  0  0  0  0  0
  150.7818  138.9641  153.1354 H   0  0  0  0  0  0  0  0  0  0  0  0
  150.5869  139.9500  154.5737 H   0  0  0  0  0  0  0  0  0  0  0  0
  1  2  1  0  0  0  0
  1 24  1  0  0  0  0
  1 25  1  0  0  0  0
  1 26  1  0  0  0  0
  2  3  1  0  0  0  0
  2  4  1  0  0  0  0
  2 27  1  0  0  0  0
  3 28  1  0  0  0  0
  3 29  1  0  0  0  0
  3 30  1  0  0  0  0
  4  5  1  0  0  0  0
  4 17  1  0  0  0  0
  4 31  1  0  0  0  0
  5  6  1  0  0  0  0
  5 32  1  0  0  0  0
  5 33  1  0  0  0  0
  6  7  1  0  0  0  0
  6 34  1  0  0  0  0
  7  8  2  0  0  0  0
  7  9  1  0  0  0  0
  9 10  1  0  0  0  0
  9 35  1  0  0  0  0
 10 15  1  0  0  0  0
 10 11  2  0  0  0  0
 11 12  1  0  0  0  0
 11 36  1  0  0  0  0
 12 13  2  0  0  0  0
 12 37  1  0  0  0  0
 13 14  1  0  0  0  0
 14 15  2  0  0  0  0
 14 38  1  0  0  0  0
 15 16  1  0  0  0  0
 17 23  1  0  0  0  0
 17 18  1  0  0  0  0
 18 19  1  0  0  0  0
 18 39  1  0  0  0  0
 18 40  1  0  0  0  0
 19 20  1  0  0  0  0
 19 41  1  0  0  0  0
 19 42  1  0  0  0  0
 20 21  1  0  0  0  0
 20 22  1  0  0  0  0
 21 43  1  0  0  0  0
 21 44  1  0  0  0  0
 21 45  1  0  0  0  0
 22 23  1  0  0  0  0
 22 46  1  0  0  0  0
 22 47  1  0  0  0  0
 23 48  1  0  0  0  0
 23 49  1  0  0  0  0
M  END
> <s_m_source_file>
AV-unprocessed.smi

> <i_m_source_file_index>
2336

> <i_lp_mmshare_version>
43012

> <i_f3d_flags>
0

> <s_epik_input>
W0NIMl0xW0NIMl1OKFtDSDNdKVtDSDJdW0NIMl1OMVtDQEhdKFtDSF0oW0NIM10pW0NIM10pW0NIMl1bTkhdQyg9TylbTkhdYzJbY0hdW2NIXW5bY0hdYzJG

> <s_epik_cmdline>
J2VwaWtfcHl0aG9uJywgJy1waCcsICc3LjAnLCAnLXRuJywgJzgnLCAnLW1hJywgJzIwMCcsICctbWV0YWxfYmluZGluZycsICctaW1hZScsICc8aW5maWxlLm1hZT4nLCAnLW9tYWUnLCAnPG91dGZpbGUubWFlPic=

> <r_epik_Ionization_Penalty>
2.58102

> <r_epik_Ionization_Penalty_Charging>
0

> <r_epik_Ionization_Penalty_Neutral>
2.58102

> <r_epik_State_Penalty>
2.00874

> <r_epik_Charging_Adjusted_Penalty>
2.00874

> <i_epik_Tot_Q>
0

> <i_epik_Tot_abs_Q>
0

> <r_epik_Metal_State_Penalty>
2.00867

> <b_epik_Metal_Only>
0

> <s_lp_Force_Field>
OPLS_2005

> <r_lp_Energy>
52.971

> <b_lp_Chiralities_Consistent>
1

> <s_lp_Variant>
AV-unprocessed.smi:2336-5

> <Gold.Version>
5.8.1

> <Gold.Id.Protein>
6NUR|6NUR_protein|mol2

> <Gold.PLP.Fitness>
42.8349

> <Gold.PLP.PLP>
-35.4057

> <Gold.PLP.part.hbond>
-1.9510

> <Gold.PLP.part.metal>
0.0000

> <Gold.PLP.part.buried>
-2.8516

> <Gold.PLP.part.nonpolar>
-31.1043

> <Gold.PLP.part.repulsive>
0.6337

> <Gold.PLP.ligand.clash>
0.0000

> <Gold.PLP.ligand.torsion>
1.0000

> <Gold.PLP.Chemscore.Hbond>
2.0000

> <Gold.PLP.Chemscore.CHOScore>
1.0000

> <Gold.PLP.Chemscore.Metal>
0.0000

> <Gold.Chemscore.Hbonds>
donor molecule, donor type, donor heavy atom, donor atom, acceptor molecule, acceptor atom, score
      L1  H     6    34       P1  7948  1.00
      L1  H     9    35       P1  7948  1.00
      L1  C    12    37       P1 10186  1.00

> <Gold.PLP.Chemscore.Internal.Correction>
0.4291

> <Gold.Rescore>
     Score         DG    S(hbond)    S(metal)    S(lipo)     H(rot)  DE(clash)    DE(int)     intcor
     16.23     -18.32       1.93        0.00      90.31       1.63       0.19       1.90       ----

> <Gold.Chemscore.Fitness>
16.2285

> <Gold.Chemscore.DG>
-18.3166

> <Gold.Chemscore.ZeroCoef>
-5.4800

> <Gold.Chemscore.Hbond>
1.9274

> <Gold.Chemscore.Metal>
0.0000

> <Gold.Chemscore.Lipo>
90.3074

> <Gold.Chemscore.Internal_Hbond>
0.0000

> <Gold.Chemscore.DEClash>
0.1885

> <Gold.Chemscore.DEInternal>
1.8995

> <Gold.Chemscore.Rot>
1.6277

> <Gold.Chemscore.Internal.Correction>
   9.000000E+99

> <Gold.Chemscore.Hbonds>
donor molecule, donor type, donor heavy atom, donor atom, acceptor molecule, acceptor atom, score
      L1  H     6    34       P1  7948  0.94
      L1  H     9    35       P1  7948  0.93

> <Gold.Chemscore.Hbond.Weighted>
-6.4376

> <Gold.Chemscore.Metal.Weighted>
-0.0000

> <Gold.Chemscore.Lipo.Weighted>
-10.5660

> <Gold.Chemscore.Internal_Hbond.Weighted>
0.0000

> <Gold.Chemscore.DEClash.Weighted>
0.1885

> <Gold.Chemscore.DEInternal.Weighted>
1.8995

> <Gold.Chemscore.Rot.Weighted>
4.1670

> <Gold.Chemscore.Internal.Correction.Weighted>
   9.000000E+99

> <Gold.Protein.RotatedTorsions>
[ 6907 6896 6895 6894 ] final  -14.39 input  -60.11 | X-H torsion
[ 7974 7965 7964 7962 ] final   79.52 input  175.53 | X-H torsion
[ 8008 7997 7996 7995 ] final   89.96 input   59.86 | X-H torsion
[ 10167 10162 10161 10158 ] final -124.95 input  -65.29 | X-H torsion
[ 10718 10713 10712 10709 ] final   86.13 input   66.30 | X-H torsion
[ 10763 10752 10751 10750 ] final  -66.89 input  -60.55 | X-H torsion
[ 11005 11000 10999 10996 ] final   35.70 input  -57.11 | X-H torsion

> <Gold.Protein.ActiveResidues>
 VAL166  LYS551  ARG553  GLY616  TRP617  ASP618  TYR619  PRO620  LYS621  CYS622 
 ASP623  PHE694  ASN695  SER759  ASP760  ASP761  ALA762  ILE779  LEU786  VAL792 
 PHE793  MET794  SER795  GLU796  ALA797  LYS798  CYS799  TRP800  GLU811  SER814 

> <Gold.Protein.RotatedAtoms>
  151.3402  135.0862  159.9368 H   0  0  0  0  0  0  0  0  0  0  0  0  # atno 6907 bound_to 6896
  152.5213  133.9455  159.7657 H   0  0  0  0  0  0  0  0  0  0  0  0  # atno 6908 bound_to 6896
  150.9810  133.6192  159.2752 H   0  0  0  0  0  0  0  0  0  0  0  0  # atno 6909 bound_to 6896
  145.6631  139.2476  143.1911 H   0  0  0  0  0  0  0  0  0  0  0  0  # atno 7974 bound_to 7965
  156.0062  140.3355  155.6895 H   0  0  0  0  0  0  0  0  0  0  0  0  # atno 8008 bound_to 7997
  155.6222  140.0676  157.2692 H   0  0  0  0  0  0  0  0  0  0  0  0  # atno 8009 bound_to 7997
  154.4265  140.1774  156.1371 H   0  0  0  0  0  0  0  0  0  0  0  0  # atno 8010 bound_to 7997
  139.9873  143.5679  152.2356 H   0  0  0  0  0  0  0  0  0  0  0  0  # atno 10167 bound_to 10162
  157.6924  131.0203  150.2927 H   0  0  0  0  0  0  0  0  0  0  0  0  # atno 10718 bound_to 10713
  154.3665  135.6104  153.5718 H   0  0  0  0  0  0  0  0  0  0  0  0  # atno 10763 bound_to 10752
  152.9791  135.5828  154.4572 H   0  0  0  0  0  0  0  0  0  0  0  0  # atno 10764 bound_to 10752
  154.4318  135.2848  155.1884 H   0  0  0  0  0  0  0  0  0  0  0  0  # atno 10765 bound_to 10752
  140.2400  134.3426  155.7929 H   0  0  0  0  0  0  0  0  0  0  0  0  # atno 11005 bound_to 11000
  146.1109  140.7430  142.9504 LP  0  0  0  0  0  0  0  0  0  0  0  0  # atno 17320 bound_to 7965
  144.7082  140.3937  143.7101 LP  0  0  0  0  0  0  0  0  0  0  0  0  # atno 17321 bound_to 7965
  139.6366  144.7650  151.2425 LP  0  0  0  0  0  0  0  0  0  0  0  0  # atno 17342 bound_to 10162
  140.7468  143.6388  150.8354 LP  0  0  0  0  0  0  0  0  0  0  0  0  # atno 17343 bound_to 10162
  156.3455  130.3822  149.7372 LP  0  0  0  0  0  0  0  0  0  0  0  0  # atno 17370 bound_to 10713
  156.4867  130.8066  151.3078 LP  0  0  0  0  0  0  0  0  0  0  0  0  # atno 17371 bound_to 10713
  141.2211  133.7293  156.8870 LP  0  0  0  0  0  0  0  0  0  0  0  0  # atno 17394 bound_to 11000
  140.1663  134.9131  157.2778 LP  0  0  0  0  0  0  0  0  0  0  0  0  # atno 17395 bound_to 11000

$$$$
