AV-unprocessed.smi:820|AV-procd|sdf|3836|dock3
  -GOLD-   22720 1283D 1   1.00000     0.00000
 Structure written by MMmdl.
 32 33  0  0  0  0  0  0  0  0  1 V2000
  145.7782  136.3659  151.7037 C   0  0  0  0  0  0  0  0  0  0  0  0
  146.2870  137.3747  152.7371 C   0  0  0  0  0  0  0  0  0  0  0  0
  146.7681  138.9402  151.9556 S   0  0  0  0  0  0  0  0  0  0  0  0
  147.5690  139.9382  153.1763 C   0  0  0  0  0  0  0  0  0  0  0  0
  147.1401  141.2451  153.4896 C   0  0  0  0  0  0  0  0  0  0  0  0
  147.8468  141.9586  154.4770 C   0  0  0  0  0  0  0  0  0  0  0  0
  148.9466  141.3376  155.1177 C   0  0  0  0  0  0  0  0  0  0  0  0
  149.7513  141.9575  156.1119 N   0  0  0  0  0  0  0  0  0  0  0  0
  150.8117  141.4599  156.7770 C   0  0  0  0  0  0  0  0  0  0  0  0
  151.2764  140.3351  156.5880 O   0  0  0  0  0  0  0  0  0  0  0  0
  151.3470  142.4297  157.7254 C   0  0  0  0  0  0  0  0  0  0  0  0
  151.4375  143.7314  157.3670 C   0  0  0  0  0  0  0  0  0  0  0  0
  151.8894  144.7226  158.2018 O   0  0  0  0  0  0  0  0  0  0  0  0
  152.0184  144.3364  159.5649 C   0  0  0  0  0  0  0  0  0  0  0  0
  152.6093  142.9228  159.6656 C   0  0  0  0  0  0  0  0  0  0  0  0
  151.7942  141.9968  158.9550 O   0  0  0  0  0  0  0  0  0  0  0  0
  149.2921  140.0309  154.7124 C   0  0  0  0  0  0  0  0  0  0  0  0
  148.6218  139.3373  153.7681 N   0  0  0  0  0  0  0  0  0  0  0  0
  145.4882  135.4305  152.1830 H   0  0  0  0  0  0  0  0  0  0  0  0
  146.5475  136.1382  150.9656 H   0  0  0  0  0  0  0  0  0  0  0  0
  144.9078  136.7524  151.1726 H   0  0  0  0  0  0  0  0  0  0  0  0
  145.5106  137.5714  153.4769 H   0  0  0  0  0  0  0  0  0  0  0  0
  147.1460  136.9611  153.2662 H   0  0  0  0  0  0  0  0  0  0  0  0
  146.2993  141.7054  152.9945 H   0  0  0  0  0  0  0  0  0  0  0  0
  147.5400  142.9662  154.7093 H   0  0  0  0  0  0  0  0  0  0  0  0
  149.5285  142.9227  156.3093 H   0  0  0  0  0  0  0  0  0  0  0  0
  151.1288  144.1304  156.4111 H   0  0  0  0  0  0  0  0  0  0  0  0
  152.6553  145.0546  160.0813 H   0  0  0  0  0  0  0  0  0  0  0  0
  151.0385  144.3738  160.0429 H   0  0  0  0  0  0  0  0  0  0  0  0
  153.6203  142.9007  159.2560 H   0  0  0  0  0  0  0  0  0  0  0  0
  152.6779  142.6109  160.7077 H   0  0  0  0  0  0  0  0  0  0  0  0
  150.1320  139.5218  155.1625 H   0  0  0  0  0  0  0  0  0  0  0  0
  1  2  1  0  0  0  0
  1 19  1  0  0  0  0
  1 20  1  0  0  0  0
  1 21  1  0  0  0  0
  2  3  1  0  0  0  0
  2 22  1  0  0  0  0
  2 23  1  0  0  0  0
  3  4  1  0  0  0  0
  4 18  1  0  0  0  0
  4  5  2  0  0  0  0
  5  6  1  0  0  0  0
  5 24  1  0  0  0  0
  6  7  2  0  0  0  0
  6 25  1  0  0  0  0
  7  8  1  0  0  0  0
  7 17  1  0  0  0  0
  8  9  1  0  0  0  0
  8 26  1  0  0  0  0
  9 10  2  0  0  0  0
  9 11  1  0  0  0  0
 11 16  1  0  0  0  0
 11 12  2  0  0  0  0
 12 13  1  0  0  0  0
 12 27  1  0  0  0  0
 13 14  1  0  0  0  0
 14 15  1  0  0  0  0
 14 28  1  0  0  0  0
 14 29  1  0  0  0  0
 15 16  1  0  0  0  0
 15 30  1  0  0  0  0
 15 31  1  0  0  0  0
 17 18  2  0  0  0  0
 17 32  1  0  0  0  0
M  END
> <s_m_source_file>
AV-unprocessed.smi

> <i_m_source_file_index>
820

> <i_lp_mmshare_version>
43012

> <i_f3d_flags>
0

> <s_epik_input>
W0NIM11bQ0gyXVNjMVtjSF1bY0hdYyhbY0hdbjEpW05IXUMoPU8pQzI9W0NIXU9bQ0gyXVtDSDJdTzI=

> <s_epik_cmdline>
J2VwaWtfcHl0aG9uJywgJy1waCcsICc3LjAnLCAnLXRuJywgJzgnLCAnLW1hJywgJzIwMCcsICctbWV0YWxfYmluZGluZycsICctaW1hZScsICc8aW5maWxlLm1hZT4nLCAnLW9tYWUnLCAnPG91dGZpbGUubWFlPic=

> <r_lp_tautomer_probability>
1

> <r_epik_Ionization_Penalty>
8.32294e-05

> <r_epik_Ionization_Penalty_Charging>
0

> <r_epik_Ionization_Penalty_Neutral>
8.32294e-05

> <r_epik_State_Penalty>
-0

> <r_epik_Charging_Adjusted_Penalty>
0

> <i_epik_Tot_Q>
0

> <i_epik_Tot_abs_Q>
0

> <r_epik_Metal_State_Penalty>
0.0397586

> <b_epik_Metal_Only>
0

> <s_lp_Force_Field>
OPLS_2005

> <r_lp_Energy>
6.19244

> <b_lp_Chiralities_Consistent>
1

> <s_lp_Variant>
AV-unprocessed.smi:820-1

> <Gold.Version>
5.8.1

> <Gold.Id.Protein>
6NUR|6NUR_protein|mol2

> <Gold.PLP.Fitness>
40.9900

> <Gold.PLP.PLP>
-36.5650

> <Gold.PLP.part.hbond>
-1.0000

> <Gold.PLP.part.metal>
0.0000

> <Gold.PLP.part.buried>
-2.2205

> <Gold.PLP.part.nonpolar>
-34.5758

> <Gold.PLP.part.repulsive>
1.5347

> <Gold.PLP.ligand.clash>
0.0971

> <Gold.PLP.ligand.torsion>
0.6684

> <Gold.PLP.Chemscore.Hbond>
1.0000

> <Gold.PLP.Chemscore.CHOScore>
0.9470

> <Gold.PLP.Chemscore.Metal>
0.0000

> <Gold.Chemscore.Hbonds>
donor molecule, donor type, donor heavy atom, donor atom, acceptor molecule, acceptor atom, score
      L1  H     8    26       P1  8028  0.99
      L1  C    12    27       P1  8028  0.98

> <Gold.PLP.Chemscore.Internal.Correction>
0.0179

> <Gold.Rescore>
     Score         DG    S(hbond)    S(metal)    S(lipo)     H(rot)  DE(clash)    DE(int)     intcor
     14.68     -16.88       0.93        0.00      95.84       1.14       0.06       2.14       ----

> <Gold.Chemscore.Fitness>
14.6771

> <Gold.Chemscore.DG>
-16.8785

> <Gold.Chemscore.ZeroCoef>
-5.4800

> <Gold.Chemscore.Hbond>
0.9314

> <Gold.Chemscore.Metal>
0.0000

> <Gold.Chemscore.Lipo>
95.8415

> <Gold.Chemscore.Internal_Hbond>
0.0000

> <Gold.Chemscore.DEClash>
0.0594

> <Gold.Chemscore.DEInternal>
2.1420

> <Gold.Chemscore.Rot>
1.1429

> <Gold.Chemscore.Internal.Correction>
   9.000000E+99

> <Gold.Chemscore.Hbonds>
donor molecule, donor type, donor heavy atom, donor atom, acceptor molecule, acceptor atom, score
      L1  H     8    26       P1  8028  0.88

> <Gold.Chemscore.Hbond.Weighted>
-3.1109

> <Gold.Chemscore.Metal.Weighted>
-0.0000

> <Gold.Chemscore.Lipo.Weighted>
-11.2135

> <Gold.Chemscore.Internal_Hbond.Weighted>
0.0000

> <Gold.Chemscore.DEClash.Weighted>
0.0594

> <Gold.Chemscore.DEInternal.Weighted>
2.1420

> <Gold.Chemscore.Rot.Weighted>
2.9259

> <Gold.Chemscore.Internal.Correction.Weighted>
   9.000000E+99

> <Gold.Protein.RotatedTorsions>
[ 6907 6896 6895 6894 ] final  -50.36 input  -60.11 | X-H torsion
[ 7974 7965 7964 7962 ] final   96.00 input  175.53 | X-H torsion
[ 8008 7997 7996 7995 ] final   90.95 input   59.86 | X-H torsion
[ 10167 10162 10161 10158 ] final   97.52 input  -65.29 | X-H torsion
[ 10718 10713 10712 10709 ] final  100.31 input   66.30 | X-H torsion
[ 10763 10752 10751 10750 ] final  -47.82 input  -60.55 | X-H torsion
[ 11005 11000 10999 10996 ] final -146.39 input  -57.11 | X-H torsion

> <Gold.Protein.ActiveResidues>
 VAL166  LYS551  ARG553  GLY616  TRP617  ASP618  TYR619  PRO620  LYS621  CYS622 
 ASP623  PHE694  ASN695  SER759  ASP760  ASP761  ALA762  ILE779  LEU786  VAL792 
 PHE793  MET794  SER795  GLU796  ALA797  LYS798  CYS799  TRP800  GLU811  SER814 

> <Gold.Protein.RotatedAtoms>
  150.8714  134.8089  159.7157 H   0  0  0  0  0  0  0  0  0  0  0  0  # atno 6907 bound_to 6896
  152.4717  134.4940  159.9714 H   0  0  0  0  0  0  0  0  0  0  0  0  # atno 6908 bound_to 6896
  151.5028  133.3462  159.2907 H   0  0  0  0  0  0  0  0  0  0  0  0  # atno 6909 bound_to 6896
  145.4447  139.2298  143.3072 H   0  0  0  0  0  0  0  0  0  0  0  0  # atno 7974 bound_to 7965
  156.0180  140.3343  155.7009 H   0  0  0  0  0  0  0  0  0  0  0  0  # atno 8008 bound_to 7997
  155.6063  140.0660  157.2737 H   0  0  0  0  0  0  0  0  0  0  0  0  # atno 8009 bound_to 7997
  154.4305  140.1801  156.1213 H   0  0  0  0  0  0  0  0  0  0  0  0  # atno 8010 bound_to 7997
  139.7793  144.6894  151.0045 H   0  0  0  0  0  0  0  0  0  0  0  0  # atno 10167 bound_to 10162
  157.6857  131.0694  150.5080 H   0  0  0  0  0  0  0  0  0  0  0  0  # atno 10718 bound_to 10713
  154.0676  135.6609  153.4820 H   0  0  0  0  0  0  0  0  0  0  0  0  # atno 10763 bound_to 10752
  153.0403  135.5149  154.7598 H   0  0  0  0  0  0  0  0  0  0  0  0  # atno 10764 bound_to 10752
  154.6654  135.3021  154.9779 H   0  0  0  0  0  0  0  0  0  0  0  0  # atno 10765 bound_to 10752
  140.7825  134.3063  157.5041 H   0  0  0  0  0  0  0  0  0  0  0  0  # atno 11005 bound_to 11000
  146.2537  140.5199  142.8882 LP  0  0  0  0  0  0  0  0  0  0  0  0  # atno 17320 bound_to 7965
  144.8099  140.6367  143.6422 LP  0  0  0  0  0  0  0  0  0  0  0  0  # atno 17321 bound_to 7965
  140.7818  143.4501  151.0426 LP  0  0  0  0  0  0  0  0  0  0  0  0  # atno 17342 bound_to 10162
  139.8182  143.7857  152.3175 LP  0  0  0  0  0  0  0  0  0  0  0  0  # atno 17343 bound_to 10162
  156.5399  130.4205  149.6159 LP  0  0  0  0  0  0  0  0  0  0  0  0  # atno 17370 bound_to 10713
  156.2995  130.7169  151.2037 LP  0  0  0  0  0  0  0  0  0  0  0  0  # atno 17371 bound_to 10713
  139.8741  134.9326  156.3560 LP  0  0  0  0  0  0  0  0  0  0  0  0  # atno 17394 bound_to 11000
  140.9469  133.7477  156.0220 LP  0  0  0  0  0  0  0  0  0  0  0  0  # atno 17395 bound_to 11000

$$$$
