AV-unprocessed.smi:2413|AV-procd|sdf|9536|dock1
  -GOLD-   2272013163D 1   1.00000     0.00000
 Structure written by MMmdl.
 46 47  0  0  0  0  0  0  0  0  2 V2000
  151.3081  131.3283  156.5699 C   0  0  0  0  0  0  0  0  0  0  0  0
  150.7883  132.5690  155.8523 C   0  0  0  0  0  0  0  0  0  0  0  0
  150.1417  132.4535  154.8116 O   0  0  0  0  0  0  0  0  0  0  0  0
  151.0691  133.7490  156.4267 N   0  0  0  0  0  0  0  0  0  0  0  0
  150.6776  135.0582  155.9107 C   0  0  0  0  0  0  0  0  0  0  0  0
  151.2982  136.2160  156.7144 C   0  0  2  0  0  0  0  0  0  0  0  0
  150.9045  137.6061  156.1753 C   0  0  0  0  0  0  0  0  0  0  0  0
  151.6220  138.6701  156.8766 N   0  0  0  0  0  0  0  0  0  0  0  0
  151.1847  139.9973  156.6661 C   0  0  0  0  0  0  0  0  0  0  0  0
  150.4234  140.3552  155.5343 C   0  0  0  0  0  0  0  0  0  0  0  0
  150.0269  141.7001  155.4244 C   0  0  0  0  0  0  0  0  0  0  0  0
  150.3856  142.6021  156.3687 N   0  3  0  0  0  0  0  0  0  0  0  0
  151.1581  142.2239  157.4012 C   0  0  0  0  0  0  0  0  0  0  0  0
  151.4630  143.2260  158.5239 C   0  0  0  0  0  0  0  0  0  0  0  0
  152.2610  142.5510  159.6645 C   0  0  0  0  0  0  0  0  0  0  0  0
  150.1434  143.7904  159.0805 C   0  0  0  0  0  0  0  0  0  0  0  0
  152.3444  144.3830  158.0010 C   0  0  0  0  0  0  0  0  0  0  0  0
  151.5165  140.9435  157.5745 N   0  0  0  0  0  0  0  0  0  0  0  0
  153.0672  138.4622  156.9238 C   0  0  0  0  0  0  0  0  0  0  0  0
  153.3893  137.0498  157.4392 C   0  0  0  0  0  0  0  0  0  0  0  0
  152.7147  136.0814  156.6438 O   0  0  0  0  0  0  0  0  0  0  0  0
  152.3684  131.4340  156.8013 H   0  0  0  0  0  0  0  0  0  0  0  0
  151.1820  130.4407  155.9493 H   0  0  0  0  0  0  0  0  0  0  0  0
  150.7637  131.1740  157.5017 H   0  0  0  0  0  0  0  0  0  0  0  0
  151.6031  133.7412  157.2837 H   0  0  0  0  0  0  0  0  0  0  0  0
  151.0159  135.1157  154.8759 H   0  0  0  0  0  0  0  0  0  0  0  0
  149.5907  135.1557  155.8790 H   0  0  0  0  0  0  0  0  0  0  0  0
  150.9875  136.1249  157.7572 H   0  0  0  0  0  0  0  0  0  0  0  0
  151.1203  137.6702  155.1077 H   0  0  0  0  0  0  0  0  0  0  0  0
  149.8305  137.7455  156.3016 H   0  0  0  0  0  0  0  0  0  0  0  0
  150.1501  139.6439  154.7697 H   0  0  0  0  0  0  0  0  0  0  0  0
  149.4294  142.0845  154.6107 H   0  0  0  0  0  0  0  0  0  0  0  0
  152.5216  143.2674  160.4444 H   0  0  0  0  0  0  0  0  0  0  0  0
  153.1909  142.1155  159.2965 H   0  0  0  0  0  0  0  0  0  0  0  0
  151.6922  141.7548  160.1469 H   0  0  0  0  0  0  0  0  0  0  0  0
  149.5122  142.9973  159.4838 H   0  0  0  0  0  0  0  0  0  0  0  0
  149.5721  144.3025  158.3053 H   0  0  0  0  0  0  0  0  0  0  0  0
  150.3238  144.5061  159.8833 H   0  0  0  0  0  0  0  0  0  0  0  0
  152.6003  145.0786  158.8010 H   0  0  0  0  0  0  0  0  0  0  0  0
  151.8402  144.9641  157.2281 H   0  0  0  0  0  0  0  0  0  0  0  0
  153.2798  144.0120  157.5799 H   0  0  0  0  0  0  0  0  0  0  0  0
  153.4750  138.5950  155.9208 H   0  0  0  0  0  0  0  0  0  0  0  0
  153.5613  139.1878  157.5674 H   0  0  0  0  0  0  0  0  0  0  0  0
  154.4624  136.8670  157.3839 H   0  0  0  0  0  0  0  0  0  0  0  0
  153.1024  136.9421  158.4865 H   0  0  0  0  0  0  0  0  0  0  0  0
  150.0751  143.5701  156.2828 H   0  0  0  0  0  0  0  0  0  0  0  0
  1  2  1  0  0  0  0
  1 22  1  0  0  0  0
  1 23  1  0  0  0  0
  1 24  1  0  0  0  0
  2  3  2  0  0  0  0
  2  4  1  0  0  0  0
  4  5  1  0  0  0  0
  4 25  1  0  0  0  0
  5  6  1  0  0  0  0
  5 26  1  0  0  0  0
  5 27  1  0  0  0  0
  6 21  1  0  0  0  0
  6  7  1  0  0  0  0
  6 28  1  0  0  0  0
  7  8  1  0  0  0  0
  7 29  1  0  0  0  0
  7 30  1  0  0  0  0
  8  9  1  0  0  0  0
  8 19  1  0  0  0  0
  9 18  1  0  0  0  0
  9 10  2  0  0  0  0
 10 11  1  0  0  0  0
 10 31  1  0  0  0  0
 11 12  2  0  0  0  0
 11 32  1  0  0  0  0
 12 13  1  0  0  0  0
 12 46  1  0  0  0  0
 13 14  1  0  0  0  0
 13 18  2  0  0  0  0
 14 15  1  0  0  0  0
 14 16  1  0  0  0  0
 14 17  1  0  0  0  0
 15 33  1  0  0  0  0
 15 34  1  0  0  0  0
 15 35  1  0  0  0  0
 16 36  1  0  0  0  0
 16 37  1  0  0  0  0
 16 38  1  0  0  0  0
 17 39  1  0  0  0  0
 17 40  1  0  0  0  0
 17 41  1  0  0  0  0
 19 20  1  0  0  0  0
 19 42  1  0  0  0  0
 19 43  1  0  0  0  0
 20 21  1  0  0  0  0
 20 44  1  0  0  0  0
 20 45  1  0  0  0  0
M  CHG  1  12   1
M  END
> <s_m_source_file>
AV-unprocessed.smi

> <i_m_source_file_index>
2413

> <i_lp_mmshare_version>
43012

> <i_f3d_flags>
0

> <s_epik_input>
W0NIM11DKD1PKVtOSF1bQ0gyXVtDQEBIXTFbQ0gyXU4oW0NIMl1bQ0gyXU8xKWMyW2NIXVtjSF1uYyhuMilDKFtDSDNdKShbQ0gzXSlbQ0gzXQ==

> <s_epik_cmdline>
J2VwaWtfcHl0aG9uJywgJy1waCcsICc3LjAnLCAnLXRuJywgJzgnLCAnLW1hJywgJzIwMCcsICctbWV0YWxfYmluZGluZycsICctaW1hZScsICc8aW5maWxlLm1hZT4nLCAnLW9tYWUnLCAnPG91dGZpbGUubWFlPic=

> <r_lp_tautomer_probability>
0.999336

> <r_epik_Ionization_Penalty>
2.26127

> <r_epik_Ionization_Penalty_Charging>
2.26127

> <r_epik_Ionization_Penalty_Neutral>
4.08984e-07

> <r_epik_State_Penalty>
2.40914

> <r_epik_Charging_Adjusted_Penalty>
4.67041

> <i_epik_Tot_Q>
1

> <i_epik_Tot_abs_Q>
1

> <r_epik_Metal_State_Penalty>
2.42208

> <b_epik_Metal_Only>
0

> <s_lp_Force_Field>
OPLS_2005

> <r_lp_Energy>
13.7164

> <b_lp_Chiralities_Consistent>
1

> <s_lp_Variant>
AV-unprocessed.smi:2413-3

> <Gold.Version>
5.8.1

> <Gold.Id.Protein>
6NUR|6NUR_protein|mol2

> <Gold.PLP.Fitness>
40.4053

> <Gold.PLP.PLP>
-31.7373

> <Gold.PLP.part.hbond>
-2.0000

> <Gold.PLP.part.metal>
0.0000

> <Gold.PLP.part.buried>
-3.8468

> <Gold.PLP.part.nonpolar>
-26.0468

> <Gold.PLP.part.repulsive>
0.2361

> <Gold.PLP.ligand.clash>
0.0000

> <Gold.PLP.ligand.torsion>
0.3885

> <Gold.PLP.Chemscore.Hbond>
2.9840

> <Gold.PLP.Chemscore.CHOScore>
0.0000

> <Gold.PLP.Chemscore.Metal>
0.0000

> <Gold.Chemscore.Hbonds>
donor molecule, donor type, donor heavy atom, donor atom, acceptor molecule, acceptor atom, score
      L1  H    12    46       P1  8028  1.98
      P1  H 10752 10764       L1    21  1.00

> <Gold.PLP.Chemscore.Internal.Correction>
0.4929

> <Gold.Rescore>
     Score         DG    S(hbond)    S(metal)    S(lipo)     H(rot)  DE(clash)    DE(int)     intcor
     16.55     -17.01       1.89        0.00      83.23       1.77       0.14       0.33       ----

> <Gold.Chemscore.Fitness>
16.5468

> <Gold.Chemscore.DG>
-17.0110

> <Gold.Chemscore.ZeroCoef>
-5.4800

> <Gold.Chemscore.Hbond>
1.8949

> <Gold.Chemscore.Metal>
0.0000

> <Gold.Chemscore.Lipo>
83.2317

> <Gold.Chemscore.Internal_Hbond>
0.0000

> <Gold.Chemscore.DEClash>
0.1388

> <Gold.Chemscore.DEInternal>
0.3253

> <Gold.Chemscore.Rot>
1.7719

> <Gold.Chemscore.Internal.Correction>
   9.000000E+99

> <Gold.Chemscore.Hbonds>
donor molecule, donor type, donor heavy atom, donor atom, acceptor molecule, acceptor atom, score
      L1  H    12    46       P1  8028  0.93
      P1  H 10752 10764       L1    21  0.85

> <Gold.Chemscore.Hbond.Weighted>
-6.3290

> <Gold.Chemscore.Metal.Weighted>
-0.0000

> <Gold.Chemscore.Lipo.Weighted>
-9.7381

> <Gold.Chemscore.Internal_Hbond.Weighted>
0.0000

> <Gold.Chemscore.DEClash.Weighted>
0.1388

> <Gold.Chemscore.DEInternal.Weighted>
0.3253

> <Gold.Chemscore.Rot.Weighted>
4.5361

> <Gold.Chemscore.Internal.Correction.Weighted>
   9.000000E+99

> <Gold.Protein.RotatedTorsions>
[ 6907 6896 6895 6894 ] final  115.88 input  -60.11 | X-H torsion
[ 7974 7965 7964 7962 ] final  -51.00 input  175.53 | X-H torsion
[ 8008 7997 7996 7995 ] final  157.78 input   59.86 | X-H torsion
[ 10167 10162 10161 10158 ] final -155.74 input  -65.29 | X-H torsion
[ 10718 10713 10712 10709 ] final  120.08 input   66.30 | X-H torsion
[ 10763 10752 10751 10750 ] final  -22.28 input  -60.55 | X-H torsion
[ 11005 11000 10999 10996 ] final  -81.21 input  -57.11 | X-H torsion

> <Gold.Protein.ActiveResidues>
 VAL166  LYS551  ARG553  GLY616  TRP617  ASP618  TYR619  PRO620  LYS621  CYS622 
 ASP623  PHE694  ASN695  SER759  ASP760  ASP761  ALA762  ILE779  LEU786  VAL792 
 PHE793  MET794  SER795  GLU796  ALA797  LYS798  CYS799  TRP800  GLU811  SER814 

> <Gold.Protein.RotatedAtoms>
  152.4713  133.8037  159.6966 H   0  0  0  0  0  0  0  0  0  0  0  0  # atno 6907 bound_to 6896
  150.8704  133.7504  159.2969 H   0  0  0  0  0  0  0  0  0  0  0  0  # atno 6908 bound_to 6896
  151.5040  135.1066  159.9888 H   0  0  0  0  0  0  0  0  0  0  0  0  # atno 6909 bound_to 6896
  145.9238  140.7810  142.9634 H   0  0  0  0  0  0  0  0  0  0  0  0  # atno 7974 bound_to 7965
  156.2343  140.1876  156.7160 H   0  0  0  0  0  0  0  0  0  0  0  0  # atno 8008 bound_to 7997
  154.6078  140.0626  156.9482 H   0  0  0  0  0  0  0  0  0  0  0  0  # atno 8009 bound_to 7997
  155.2066  140.3296  155.4337 H   0  0  0  0  0  0  0  0  0  0  0  0  # atno 8010 bound_to 7997
  139.6906  143.9426  152.2383 H   0  0  0  0  0  0  0  0  0  0  0  0  # atno 10167 bound_to 10162
  157.5916  131.1063  150.7986 H   0  0  0  0  0  0  0  0  0  0  0  0  # atno 10718 bound_to 10713
  153.6494  135.6981  153.5214 H   0  0  0  0  0  0  0  0  0  0  0  0  # atno 10763 bound_to 10752
  153.2719  135.4212  155.0995 H   0  0  0  0  0  0  0  0  0  0  0  0  # atno 10764 bound_to 10752
  154.8480  135.3580  154.6038 H   0  0  0  0  0  0  0  0  0  0  0  0  # atno 10765 bound_to 10752
  141.1667  133.7186  156.8389 H   0  0  0  0  0  0  0  0  0  0  0  0  # atno 11005 bound_to 11000
  144.6756  140.2017  143.7386 LP  0  0  0  0  0  0  0  0  0  0  0  0  # atno 17320 bound_to 7965
  145.8516  139.2178  143.1769 LP  0  0  0  0  0  0  0  0  0  0  0  0  # atno 17321 bound_to 7965
  139.9241  144.6781  150.8430 LP  0  0  0  0  0  0  0  0  0  0  0  0  # atno 17342 bound_to 10162
  140.7681  143.3354  151.2321 LP  0  0  0  0  0  0  0  0  0  0  0  0  # atno 17343 bound_to 10162
  156.8407  130.5047  149.5321 LP  0  0  0  0  0  0  0  0  0  0  0  0  # atno 17370 bound_to 10713
  156.0971  130.5941  150.9833 LP  0  0  0  0  0  0  0  0  0  0  0  0  # atno 17371 bound_to 10713
  140.1997  134.8906  157.3155 LP  0  0  0  0  0  0  0  0  0  0  0  0  # atno 17394 bound_to 11000
  140.2200  134.4034  155.7570 LP  0  0  0  0  0  0  0  0  0  0  0  0  # atno 17395 bound_to 11000

$$$$
