AV-unprocessed.smi:1056|AV-procd|sdf|4640|dock6
  -GOLD-   22720 3143D 1   1.00000     0.00000
 Structure written by MMmdl.
 45 47  0  0  0  0  0  0  0  0  2 V2000
  152.1671  143.5754  161.0960 C   0  0  0  0  0  0  0  0  0  0  0  0
  151.9949  142.7870  159.8088 C   0  0  0  0  0  0  0  0  0  0  0  0
  151.0597  143.2496  158.8555 C   0  0  0  0  0  0  0  0  0  0  0  0
  150.9218  142.5056  157.6898 C   0  0  0  0  0  0  0  0  0  0  0  0
  150.1009  142.6931  156.5755 N   0  3  0  0  0  0  0  0  0  0  0  0
  150.3191  141.6930  155.6771 C   0  0  0  0  0  0  0  0  0  0  0  0
  151.2668  140.8702  156.2026 N   0  0  0  0  0  0  0  0  0  0  0  0
  151.8652  139.6465  155.6525 C   0  0  0  0  0  0  0  0  0  0  0  0
  150.8241  138.5485  155.3512 C   0  0  2  0  0  0  0  0  0  0  0  0
  149.9540  139.0287  154.3431 O   0  0  0  0  0  0  0  0  0  0  0  0
  149.9993  138.1719  156.6031 C   0  0  0  0  0  0  0  0  0  0  0  0
  149.4147  136.8269  156.5900 N   0  0  0  0  0  0  0  0  0  0  0  0
  148.1168  136.7635  155.9170 C   0  0  0  0  0  0  0  0  0  0  0  0
  147.5967  135.3214  155.8117 C   0  0  0  0  0  0  0  0  0  0  0  0
  147.7200  134.6002  157.0740 N   0  0  0  0  0  0  0  0  0  0  0  0
  148.5359  134.9581  158.0787 C   0  0  0  0  0  0  0  0  0  0  0  0
  148.6403  134.2809  159.0989 O   0  0  0  0  0  0  0  0  0  0  0  0
  149.3319  136.2709  157.9500 C   0  0  0  0  0  0  0  0  0  0  0  0
  151.6738  141.3381  157.4559 C   0  0  0  0  0  0  0  0  0  0  0  0
  152.6009  140.8691  158.3830 C   0  0  0  0  0  0  0  0  0  0  0  0
  152.7573  141.6130  159.5746 C   0  0  0  0  0  0  0  0  0  0  0  0
  153.7616  141.1266  160.6057 C   0  0  0  0  0  0  0  0  0  0  0  0
  151.5047  144.4411  161.1256 H   0  0  0  0  0  0  0  0  0  0  0  0
  153.1915  143.9367  161.1900 H   0  0  0  0  0  0  0  0  0  0  0  0
  151.9384  142.9515  161.9605 H   0  0  0  0  0  0  0  0  0  0  0  0
  150.4767  144.1429  159.0261 H   0  0  0  0  0  0  0  0  0  0  0  0
  149.8311  141.5748  154.7203 H   0  0  0  0  0  0  0  0  0  0  0  0
  152.4246  139.9139  154.7551 H   0  0  0  0  0  0  0  0  0  0  0  0
  152.5966  139.2860  156.3774 H   0  0  0  0  0  0  0  0  0  0  0  0
  151.3426  137.6668  154.9723 H   0  0  0  0  0  0  0  0  0  0  0  0
  149.7354  138.3106  153.7691 H   0  0  0  0  0  0  0  0  0  0  0  0
  150.6706  138.2261  157.4618 H   0  0  0  0  0  0  0  0  0  0  0  0
  149.2314  138.9230  156.7991 H   0  0  0  0  0  0  0  0  0  0  0  0
  147.3926  137.3783  156.4551 H   0  0  0  0  0  0  0  0  0  0  0  0
  148.1815  137.1718  154.9093 H   0  0  0  0  0  0  0  0  0  0  0  0
  146.5553  135.3142  155.4899 H   0  0  0  0  0  0  0  0  0  0  0  0
  148.1660  134.7770  155.0576 H   0  0  0  0  0  0  0  0  0  0  0  0
  147.1834  133.7509  157.1753 H   0  0  0  0  0  0  0  0  0  0  0  0
  150.3365  136.1085  158.3432 H   0  0  0  0  0  0  0  0  0  0  0  0
  148.8524  136.9920  158.6142 H   0  0  0  0  0  0  0  0  0  0  0  0
  153.1796  139.9750  158.2034 H   0  0  0  0  0  0  0  0  0  0  0  0
  154.2993  140.2451  160.2548 H   0  0  0  0  0  0  0  0  0  0  0  0
  153.2568  140.8615  161.5351 H   0  0  0  0  0  0  0  0  0  0  0  0
  154.4991  141.9004  160.8198 H   0  0  0  0  0  0  0  0  0  0  0  0
  149.4402  143.4464  156.4350 H   0  0  0  0  0  0  0  0  0  0  0  0
  1  2  1  0  0  0  0
  1 23  1  0  0  0  0
  1 24  1  0  0  0  0
  1 25  1  0  0  0  0
  2 21  1  0  0  0  0
  2  3  2  0  0  0  0
  3  4  1  0  0  0  0
  3 26  1  0  0  0  0
  4 19  2  0  0  0  0
  4  5  1  0  0  0  0
  5  6  2  0  0  0  0
  5 45  1  0  0  0  0
  6  7  1  0  0  0  0
  6 27  1  0  0  0  0
  7  8  1  0  0  0  0
  7 19  1  0  0  0  0
  8  9  1  0  0  0  0
  8 28  1  0  0  0  0
  8 29  1  0  0  0  0
  9 10  1  0  0  0  0
  9 11  1  0  0  0  0
  9 30  1  0  0  0  0
 10 31  1  0  0  0  0
 11 12  1  0  0  0  0
 11 32  1  0  0  0  0
 11 33  1  0  0  0  0
 12 18  1  0  0  0  0
 12 13  1  0  0  0  0
 13 14  1  0  0  0  0
 13 34  1  0  0  0  0
 13 35  1  0  0  0  0
 14 15  1  0  0  0  0
 14 36  1  0  0  0  0
 14 37  1  0  0  0  0
 15 16  1  0  0  0  0
 15 38  1  0  0  0  0
 16 17  2  0  0  0  0
 16 18  1  0  0  0  0
 18 39  1  0  0  0  0
 18 40  1  0  0  0  0
 19 20  1  0  0  0  0
 20 21  2  0  0  0  0
 20 41  1  0  0  0  0
 21 22  1  0  0  0  0
 22 42  1  0  0  0  0
 22 43  1  0  0  0  0
 22 44  1  0  0  0  0
M  CHG  1   5   1
M  END
> <s_m_source_file>
AV-unprocessed.smi

> <i_m_source_file_index>
1056

> <i_lp_mmshare_version>
43012

> <i_f3d_flags>
0

> <s_epik_input>
W0NIM11jKFtjSF0xKWMoW0NIM10pW2NIXWMoYzEyKW4oW2NIXW4yKVtDSDJdW0NASF0oW09IXSlbQ0gyXU4zW0NIMl1bQ0gyXVtOSF1DKD1PKVtDSDJdMw==

> <s_epik_cmdline>
J2VwaWtfcHl0aG9uJywgJy1waCcsICc3LjAnLCAnLXRuJywgJzgnLCAnLW1hJywgJzIwMCcsICctbWV0YWxfYmluZGluZycsICctaW1hZScsICc8aW5maWxlLm1hZT4nLCAnLW9tYWUnLCAnPG91dGZpbGUubWFlPic=

> <r_epik_Ionization_Penalty>
2.47196

> <r_epik_Ionization_Penalty_Charging>
1.21809

> <r_epik_Ionization_Penalty_Neutral>
1.25387

> <r_epik_State_Penalty>
2.6255

> <r_epik_Charging_Adjusted_Penalty>
3.84359

> <i_epik_Tot_Q>
1

> <i_epik_Tot_abs_Q>
1

> <r_epik_Metal_State_Penalty>
2.76698

> <b_epik_Metal_Only>
0

> <s_lp_Force_Field>
OPLS_2005

> <r_lp_Energy>
35.3562

> <b_lp_Chiralities_Consistent>
1

> <s_lp_Variant>
AV-unprocessed.smi:1056-11

> <Gold.Version>
5.8.1

> <Gold.Id.Protein>
6NUR|6NUR_protein|mol2

> <Gold.PLP.Fitness>
43.1814

> <Gold.PLP.PLP>
-35.4099

> <Gold.PLP.part.hbond>
-1.9412

> <Gold.PLP.part.metal>
0.0000

> <Gold.PLP.part.buried>
-5.4130

> <Gold.PLP.part.nonpolar>
-28.1142

> <Gold.PLP.part.repulsive>
0.0801

> <Gold.PLP.ligand.clash>
0.0000

> <Gold.PLP.ligand.torsion>
0.6279

> <Gold.PLP.Chemscore.Hbond>
3.0000

> <Gold.PLP.Chemscore.CHOScore>
0.0000

> <Gold.PLP.Chemscore.Metal>
0.0000

> <Gold.Chemscore.Hbonds>
donor molecule, donor type, donor heavy atom, donor atom, acceptor molecule, acceptor atom, score
      L1  H     5    45       P1  8028  2.00
      P1  H  6896  6908       L1    17  0.99

> <Gold.PLP.Chemscore.Internal.Correction>
0.0274

> <Gold.Rescore>
     Score         DG    S(hbond)    S(metal)    S(lipo)     H(rot)  DE(clash)    DE(int)     intcor
     15.09     -16.70       1.86        0.00      94.84       2.37       0.06       1.55       ----

> <Gold.Chemscore.Fitness>
15.0889

> <Gold.Chemscore.DG>
-16.7013

> <Gold.Chemscore.ZeroCoef>
-5.4800

> <Gold.Chemscore.Hbond>
1.8557

> <Gold.Chemscore.Metal>
0.0000

> <Gold.Chemscore.Lipo>
94.8438

> <Gold.Chemscore.Internal_Hbond>
0.0000

> <Gold.Chemscore.DEClash>
0.0637

> <Gold.Chemscore.DEInternal>
1.5487

> <Gold.Chemscore.Rot>
2.3724

> <Gold.Chemscore.Internal.Correction>
   9.000000E+99

> <Gold.Chemscore.Hbonds>
donor molecule, donor type, donor heavy atom, donor atom, acceptor molecule, acceptor atom, score
      L1  H     5    45       P1  8028  0.95
      P1  H  6896  6908       L1    17  0.45

> <Gold.Chemscore.Hbond.Weighted>
-6.1980

> <Gold.Chemscore.Metal.Weighted>
-0.0000

> <Gold.Chemscore.Lipo.Weighted>
-11.0967

> <Gold.Chemscore.Internal_Hbond.Weighted>
0.0000

> <Gold.Chemscore.DEClash.Weighted>
0.0637

> <Gold.Chemscore.DEInternal.Weighted>
1.5487

> <Gold.Chemscore.Rot.Weighted>
6.0734

> <Gold.Chemscore.Internal.Correction.Weighted>
   9.000000E+99

> <Gold.Protein.RotatedTorsions>
[ 6907 6896 6895 6894 ] final  139.25 input  -60.11 | X-H torsion
[ 7974 7965 7964 7962 ] final   36.93 input  175.53 | X-H torsion
[ 8008 7997 7996 7995 ] final   32.12 input   59.86 | X-H torsion
[ 10167 10162 10161 10158 ] final  146.58 input  -65.29 | X-H torsion
[ 10718 10713 10712 10709 ] final   43.19 input   66.30 | X-H torsion
[ 10763 10752 10751 10750 ] final  -21.94 input  -60.55 | X-H torsion
[ 11005 11000 10999 10996 ] final   78.95 input  -57.11 | X-H torsion

> <Gold.Protein.ActiveResidues>
 VAL166  LYS551  ARG553  GLY616  TRP617  ASP618  TYR619  PRO620  LYS621  CYS622 
 ASP623  PHE694  ASN695  SER759  ASP760  ASP761  ALA762  ILE779  LEU786  VAL792 
 PHE793  MET794  SER795  GLU796  ALA797  LYS798  CYS799  TRP800  GLU811  SER814 

> <Gold.Protein.RotatedAtoms>
  152.2571  133.5264  159.5359 H   0  0  0  0  0  0  0  0  0  0  0  0  # atno 6907 bound_to 6896
  150.7112  134.0881  159.3931 H   0  0  0  0  0  0  0  0  0  0  0  0  # atno 6908 bound_to 6896
  151.8800  135.0457  160.0538 H   0  0  0  0  0  0  0  0  0  0  0  0  # atno 6909 bound_to 6896
  146.1175  139.5956  142.9312 H   0  0  0  0  0  0  0  0  0  0  0  0  # atno 7974 bound_to 7965
  155.1174  140.3245  155.4506 H   0  0  0  0  0  0  0  0  0  0  0  0  # atno 8008 bound_to 7997
  156.2673  140.2033  156.6245 H   0  0  0  0  0  0  0  0  0  0  0  0  # atno 8009 bound_to 7997
  154.6709  140.0536  157.0152 H   0  0  0  0  0  0  0  0  0  0  0  0  # atno 8010 bound_to 7997
  139.4904  144.5818  151.6856 H   0  0  0  0  0  0  0  0  0  0  0  0  # atno 10167 bound_to 10162
  157.4132  130.7926  149.7449 H   0  0  0  0  0  0  0  0  0  0  0  0  # atno 10718 bound_to 10713
  153.6441  135.6984  153.5231 H   0  0  0  0  0  0  0  0  0  0  0  0  # atno 10763 bound_to 10752
  153.2759  135.4200  155.1032 H   0  0  0  0  0  0  0  0  0  0  0  0  # atno 10764 bound_to 10752
  154.8492  135.3590  154.5985 H   0  0  0  0  0  0  0  0  0  0  0  0  # atno 10765 bound_to 10752
  139.9192  134.7804  156.1715 H   0  0  0  0  0  0  0  0  0  0  0  0  # atno 11005 bound_to 11000
  145.5536  141.0411  143.2265 LP  0  0  0  0  0  0  0  0  0  0  0  0  # atno 17320 bound_to 7965
  144.7566  139.7059  143.7251 LP  0  0  0  0  0  0  0  0  0  0  0  0  # atno 17321 bound_to 7965
  140.5426  144.0554  150.6094 LP  0  0  0  0  0  0  0  0  0  0  0  0  # atno 17342 bound_to 10162
  140.3582  143.2923  152.0413 LP  0  0  0  0  0  0  0  0  0  0  0  0  # atno 17343 bound_to 10162
  155.9857  130.3981  150.3249 LP  0  0  0  0  0  0  0  0  0  0  0  0  # atno 17370 bound_to 10713
  157.1389  131.0291  151.2936 LP  0  0  0  0  0  0  0  0  0  0  0  0  # atno 17371 bound_to 10713
  141.0697  133.6802  156.2116 LP  0  0  0  0  0  0  0  0  0  0  0  0  # atno 17394 bound_to 11000
  140.6527  134.5050  157.5578 LP  0  0  0  0  0  0  0  0  0  0  0  0  # atno 17395 bound_to 11000

$$$$
