AV-unprocessed.smi:511|AV-procd|sdf|2767|dock9
  -GOLD-   2262023233D 1   1.00000     0.00000
 Structure written by MMmdl.
 44 46  0  0  0  0  0  0  0  0  2 V2000
  151.2504  144.8823  159.5382 C   0  0  0  0  0  0  0  0  0  0  0  0
  151.8985  144.2203  160.6085 O   0  0  0  0  0  0  0  0  0  0  0  0
  152.0941  142.8382  160.3580 C   0  0  0  0  0  0  0  0  0  0  0  0
  152.8570  142.6607  159.0383 C   0  0  0  0  0  0  0  0  0  0  0  0
  153.4443  141.3262  158.9206 N   0  0  0  0  0  0  0  0  0  0  0  0
  153.2319  140.3801  157.9635 C   0  0  0  0  0  0  0  0  0  0  0  0
  152.3882  140.5881  156.8710 N   0  0  0  0  0  0  0  0  0  0  0  0
  151.2443  141.4937  156.7939 C   0  0  0  0  0  0  0  0  0  0  0  0
  150.0122  140.7733  156.2124 C   0  0  0  0  0  0  0  0  0  0  0  0
  150.3149  140.3244  154.8536 N   0  0  0  0  0  0  0  0  0  0  0  0
  149.1615  139.6297  154.3007 C   0  0  0  0  0  0  0  0  0  0  0  0
  151.4583  139.4129  154.9035 C   0  0  0  0  0  0  0  0  0  0  0  0
  152.6754  140.1382  155.5122 C   0  0  0  0  0  0  0  0  0  0  0  0
  153.8603  139.2225  158.1781 N   0  0  0  0  0  0  0  0  0  0  0  0
  154.5538  139.4558  159.3548 C   0  0  0  0  0  0  0  0  0  0  0  0
  154.3137  140.7082  159.8266 C   0  0  0  0  0  0  0  0  0  0  0  0
  154.8838  141.2333  161.0879 C   0  0  0  0  0  0  0  0  0  0  0  0
  154.6060  142.3611  161.4911 O   0  0  0  0  0  0  0  0  0  0  0  0
  155.7109  140.3270  161.6989 N   0  5  0  0  0  0  0  0  0  0  0  0
  155.9923  139.0550  161.2488 C   0  0  0  0  0  0  0  0  0  0  0  0
  156.7554  138.3040  161.8579 O   0  0  0  0  0  0  0  0  0  0  0  0
  155.4159  138.5992  160.0925 N   0  0  0  0  0  0  0  0  0  0  0  0
  155.6887  137.2479  159.5945 C   0  0  0  0  0  0  0  0  0  0  0  0
  151.1196  145.9356  159.7866 H   0  0  0  0  0  0  0  0  0  0  0  0
  150.2645  144.4555  159.3497 H   0  0  0  0  0  0  0  0  0  0  0  0
  151.8404  144.8221  158.6230 H   0  0  0  0  0  0  0  0  0  0  0  0
  152.6627  142.3900  161.1737 H   0  0  0  0  0  0  0  0  0  0  0  0
  151.1322  142.3255  160.3103 H   0  0  0  0  0  0  0  0  0  0  0  0
  152.1876  142.8595  158.2084 H   0  0  0  0  0  0  0  0  0  0  0  0
  153.6425  143.4086  158.9450 H   0  0  0  0  0  0  0  0  0  0  0  0
  151.0226  141.9120  157.7748 H   0  0  0  0  0  0  0  0  0  0  0  0
  151.5074  142.3469  156.1669 H   0  0  0  0  0  0  0  0  0  0  0  0
  149.7292  139.9276  156.8415 H   0  0  0  0  0  0  0  0  0  0  0  0
  149.1632  141.4573  156.1882 H   0  0  0  0  0  0  0  0  0  0  0  0
  149.3721  139.2860  153.2874 H   0  0  0  0  0  0  0  0  0  0  0  0
  148.3004  140.2972  154.2532 H   0  0  0  0  0  0  0  0  0  0  0  0
  148.8900  138.7636  154.9063 H   0  0  0  0  0  0  0  0  0  0  0  0
  151.2139  138.5258  155.4895 H   0  0  0  0  0  0  0  0  0  0  0  0
  151.6981  139.0755  153.8946 H   0  0  0  0  0  0  0  0  0  0  0  0
  152.9656  140.9900  154.8952 H   0  0  0  0  0  0  0  0  0  0  0  0
  153.5291  139.4599  155.5288 H   0  0  0  0  0  0  0  0  0  0  0  0
  155.4476  136.5017  160.3534 H   0  0  0  0  0  0  0  0  0  0  0  0
  156.7436  137.1443  159.3370 H   0  0  0  0  0  0  0  0  0  0  0  0
  155.1085  137.0026  158.7051 H   0  0  0  0  0  0  0  0  0  0  0  0
  1  2  1  0  0  0  0
  1 24  1  0  0  0  0
  1 25  1  0  0  0  0
  1 26  1  0  0  0  0
  2  3  1  0  0  0  0
  3  4  1  0  0  0  0
  3 27  1  0  0  0  0
  3 28  1  0  0  0  0
  4  5  1  0  0  0  0
  4 29  1  0  0  0  0
  4 30  1  0  0  0  0
  5 16  1  0  0  0  0
  5  6  1  0  0  0  0
  6  7  1  0  0  0  0
  6 14  2  0  0  0  0
  7 13  1  0  0  0  0
  7  8  1  0  0  0  0
  8  9  1  0  0  0  0
  8 31  1  0  0  0  0
  8 32  1  0  0  0  0
  9 10  1  0  0  0  0
  9 33  1  0  0  0  0
  9 34  1  0  0  0  0
 10 11  1  0  0  0  0
 10 12  1  0  0  0  0
 11 35  1  0  0  0  0
 11 36  1  0  0  0  0
 11 37  1  0  0  0  0
 12 13  1  0  0  0  0
 12 38  1  0  0  0  0
 12 39  1  0  0  0  0
 13 40  1  0  0  0  0
 13 41  1  0  0  0  0
 14 15  1  0  0  0  0
 15 22  1  0  0  0  0
 15 16  2  0  0  0  0
 16 17  1  0  0  0  0
 17 18  2  0  0  0  0
 17 19  1  0  0  0  0
 19 20  1  0  0  0  0
 20 21  2  0  0  0  0
 20 22  1  0  0  0  0
 22 23  1  0  0  0  0
 23 42  1  0  0  0  0
 23 43  1  0  0  0  0
 23 44  1  0  0  0  0
M  CHG  1  19  -1
M  END
> <s_m_source_file>
AV-unprocessed.smi

> <i_m_source_file_index>
511

> <i_lp_mmshare_version>
43012

> <i_f3d_flags>
0

> <s_epik_input>
W0NIM11uMWMoPU8pW25IXWMoPU8pYyhjMTIpbihbQ0gyXVtDSDJdT1tDSDNdKWMobjIpTjNbQ0gyXVtDSDJdTihbQ0gzXSlbQ0gyXVtDSDJdMw==

> <s_epik_cmdline>
J2VwaWtfcHl0aG9uJywgJy1waCcsICc3LjAnLCAnLXRuJywgJzgnLCAnLW1hJywgJzIwMCcsICctbWV0YWxfYmluZGluZycsICctaW1hZScsICc8aW5maWxlLm1hZT4nLCAnLW9tYWUnLCAnPG91dGZpbGUubWFlPic=

> <r_epik_Ionization_Penalty>
7.66215

> <r_epik_Ionization_Penalty_Charging>
0.0825427

> <r_epik_Ionization_Penalty_Neutral>
7.5796

> <r_epik_State_Penalty>
7.65676

> <r_epik_Charging_Adjusted_Penalty>
7.73931

> <i_epik_Tot_Q>
-1

> <i_epik_Tot_abs_Q>
1

> <r_epik_Metal_State_Penalty>
3.6066

> <b_epik_Metal_Only>
1

> <s_lp_Force_Field>
OPLS_2005

> <r_lp_Energy>
52.5947

> <b_lp_Chiralities_Consistent>
1

> <s_lp_Variant>
AV-unprocessed.smi:511-4

> <Gold.Version>
5.8.1

> <Gold.Id.Protein>
6NUR|6NUR_protein|mol2

> <Gold.PLP.Fitness>
41.3945

> <Gold.PLP.PLP>
-39.2468

> <Gold.PLP.part.hbond>
-2.0000

> <Gold.PLP.part.metal>
0.0000

> <Gold.PLP.part.buried>
-0.0520

> <Gold.PLP.part.nonpolar>
-35.7407

> <Gold.PLP.part.repulsive>
0.1107

> <Gold.PLP.ligand.clash>
0.0016

> <Gold.PLP.ligand.torsion>
0.5747

> <Gold.PLP.Chemscore.Hbond>
1.0000

> <Gold.PLP.Chemscore.CHOScore>
0.0000

> <Gold.PLP.Chemscore.Metal>
0.0000

> <Gold.Chemscore.Hbonds>
donor molecule, donor type, donor heavy atom, donor atom, acceptor molecule, acceptor atom, score
      P1  H  7997  8008       L1    14  0.04

> <Gold.PLP.Chemscore.Internal.Correction>
0.2987

> <Gold.Rescore>
     Score         DG    S(hbond)    S(metal)    S(lipo)     H(rot)  DE(clash)    DE(int)     intcor
      8.17     -10.43       0.01        0.00      74.39       1.47       0.12       2.14       ----

> <Gold.Chemscore.Fitness>
8.1667

> <Gold.Chemscore.DG>
-10.4304

> <Gold.Chemscore.ZeroCoef>
-5.4800

> <Gold.Chemscore.Hbond>
0.0056

> <Gold.Chemscore.Metal>
0.0000

> <Gold.Chemscore.Lipo>
74.3921

> <Gold.Chemscore.Internal_Hbond>
0.0000

> <Gold.Chemscore.DEClash>
0.1192

> <Gold.Chemscore.DEInternal>
2.1445

> <Gold.Chemscore.Rot>
1.4735

> <Gold.Chemscore.Internal.Correction>
   9.000000E+99

> <Gold.Chemscore.Hbond.Weighted>
-0.0187

> <Gold.Chemscore.Metal.Weighted>
-0.0000

> <Gold.Chemscore.Lipo.Weighted>
-8.7039

> <Gold.Chemscore.Internal_Hbond.Weighted>
0.0000

> <Gold.Chemscore.DEClash.Weighted>
0.1192

> <Gold.Chemscore.DEInternal.Weighted>
2.1445

> <Gold.Chemscore.Rot.Weighted>
3.7722

> <Gold.Chemscore.Internal.Correction.Weighted>
   9.000000E+99

> <Gold.Protein.RotatedTorsions>
[ 6907 6896 6895 6894 ] final  125.17 input  -60.11 | X-H torsion
[ 7974 7965 7964 7962 ] final  139.90 input  175.53 | X-H torsion
[ 8008 7997 7996 7995 ] final -131.89 input   59.86 | X-H torsion
[ 10167 10162 10161 10158 ] final  166.79 input  -65.29 | X-H torsion
[ 10718 10713 10712 10709 ] final -174.56 input   66.30 | X-H torsion
[ 10763 10752 10751 10750 ] final  -46.04 input  -60.55 | X-H torsion
[ 11005 11000 10999 10996 ] final   45.27 input  -57.11 | X-H torsion

> <Gold.Protein.ActiveResidues>
 VAL166  LYS551  ARG553  GLY616  TRP617  ASP618  TYR619  PRO620  LYS621  CYS622 
 ASP623  PHE694  ASN695  SER759  ASP760  ASP761  ALA762  ILE779  LEU786  VAL792 
 PHE793  MET794  SER795  GLU796  ALA797  LYS798  CYS799  TRP800  GLU811  SER814 

> <Gold.Protein.RotatedAtoms>
  152.4015  133.6824  159.6319 H   0  0  0  0  0  0  0  0  0  0  0  0  # atno 6907 bound_to 6896
  150.7905  133.8783  159.3287 H   0  0  0  0  0  0  0  0  0  0  0  0  # atno 6908 bound_to 6896
  151.6548  135.0998  160.0219 H   0  0  0  0  0  0  0  0  0  0  0  0  # atno 6909 bound_to 6896
  144.9236  139.5136  143.5651 H   0  0  0  0  0  0  0  0  0  0  0  0  # atno 7974 bound_to 7965
  155.3198  140.0461  157.3039 H   0  0  0  0  0  0  0  0  0  0  0  0  # atno 8008 bound_to 7997
  154.5386  140.2280  155.8645 H   0  0  0  0  0  0  0  0  0  0  0  0  # atno 8009 bound_to 7997
  156.1859  140.3062  155.9244 H   0  0  0  0  0  0  0  0  0  0  0  0  # atno 8010 bound_to 7997
  139.4932  144.3990  151.9431 H   0  0  0  0  0  0  0  0  0  0  0  0  # atno 10167 bound_to 10162
  156.7870  130.9504  151.3120 H   0  0  0  0  0  0  0  0  0  0  0  0  # atno 10718 bound_to 10713
  154.0384  135.6647  153.4787 H   0  0  0  0  0  0  0  0  0  0  0  0  # atno 10763 bound_to 10752
  153.0511  135.5084  154.7865 H   0  0  0  0  0  0  0  0  0  0  0  0  # atno 10764 bound_to 10752
  154.6833  135.3049  154.9548 H   0  0  0  0  0  0  0  0  0  0  0  0  # atno 10765 bound_to 10752
  140.1475  134.4504  155.8405 H   0  0  0  0  0  0  0  0  0  0  0  0  # atno 11005 bound_to 11000
  146.3216  139.8133  142.8941 LP  0  0  0  0  0  0  0  0  0  0  0  0  # atno 17320 bound_to 7965
  145.3256  141.0254  143.3475 LP  0  0  0  0  0  0  0  0  0  0  0  0  # atno 17321 bound_to 7965
  140.3429  144.3181  150.5963 LP  0  0  0  0  0  0  0  0  0  0  0  0  # atno 17342 bound_to 10162
  140.5550  143.2200  151.7862 LP  0  0  0  0  0  0  0  0  0  0  0  0  # atno 17343 bound_to 10162
  157.6619  130.8973  149.9848 LP  0  0  0  0  0  0  0  0  0  0  0  0  # atno 17370 bound_to 10713
  156.1183  130.3647  149.9931 LP  0  0  0  0  0  0  0  0  0  0  0  0  # atno 17371 bound_to 10713
  141.2194  133.6858  156.7360 LP  0  0  0  0  0  0  0  0  0  0  0  0  # atno 17394 bound_to 11000
  140.2646  134.8440  157.3790 LP  0  0  0  0  0  0  0  0  0  0  0  0  # atno 17395 bound_to 11000

$$$$
