AV-unprocessed.smi:2965|AV-procd|sdf|11323|dock4
  -GOLD-   2272016233D 1   1.00000     0.00000
 Structure written by MMmdl.
 36 37  0  0  0  0  0  0  0  0  1 V2000
  149.4690  139.8429  157.6440 O   0  0  0  0  0  0  0  0  0  0  0  0
  149.8746  140.6494  156.8060 C   0  0  0  0  0  0  0  0  0  0  0  0
  151.3692  140.9827  156.6978 C   0  0  0  0  0  0  0  0  0  0  0  0
  151.9549  141.4285  157.9731 N   0  0  0  0  0  0  0  0  0  0  0  0
  151.6022  142.7147  158.4266 C   0  0  0  0  0  0  0  0  0  0  0  0
  152.0747  143.2433  159.5716 C   0  0  0  0  0  0  0  0  0  0  0  0
  151.6255  144.6107  160.0633 C   0  0  0  0  0  0  0  0  0  0  0  0
  152.1412  144.8859  161.2615 F   0  0  0  0  0  0  0  0  0  0  0  0
  152.0278  145.5528  159.2115 F   0  0  0  0  0  0  0  0  0  0  0  0
  150.2966  144.6751  160.1541 F   0  0  0  0  0  0  0  0  0  0  0  0
  152.9597  142.4021  160.3536 C   0  0  0  0  0  0  0  0  0  0  0  0
  153.2960  141.1643  159.9410 C   0  0  0  0  0  0  0  0  0  0  0  0
  152.7864  140.6097  158.6849 C   0  0  0  0  0  0  0  0  0  0  0  0
  153.0863  139.4800  158.2973 O   0  0  0  0  0  0  0  0  0  0  0  0
  149.0657  141.2920  155.9502 N   0  0  0  0  0  0  0  0  0  0  0  0
  147.6217  141.1082  155.8497 C   0  0  0  0  0  0  0  0  0  0  0  0
  146.9100  142.4123  155.4506 C   0  0  1  0  0  0  0  0  0  0  0  0
  146.8851  142.7090  153.9511 C   0  0  0  0  0  0  0  0  0  0  0  0
  145.7043  143.6466  153.8505 C   0  0  0  0  0  0  0  0  0  0  0  0
  144.7359  143.0489  154.8687 C   0  0  0  0  0  0  0  0  0  0  0  0
  145.5374  142.3617  155.8277 O   0  0  0  0  0  0  0  0  0  0  0  0
  151.9118  140.1122  156.3237 H   0  0  0  0  0  0  0  0  0  0  0  0
  151.4922  141.7467  155.9290 H   0  0  0  0  0  0  0  0  0  0  0  0
  150.9102  143.2430  157.7868 H   0  0  0  0  0  0  0  0  0  0  0  0
  153.3626  142.7709  161.2852 H   0  0  0  0  0  0  0  0  0  0  0  0
  153.9583  140.5655  160.5491 H   0  0  0  0  0  0  0  0  0  0  0  0
  149.4850  141.9436  155.3027 H   0  0  0  0  0  0  0  0  0  0  0  0
  147.3737  140.3067  155.1519 H   0  0  0  0  0  0  0  0  0  0  0  0
  147.2613  140.7835  156.8261 H   0  0  0  0  0  0  0  0  0  0  0  0
  147.3609  143.2570  155.9745 H   0  0  0  0  0  0  0  0  0  0  0  0
  147.8138  143.1496  153.5870 H   0  0  0  0  0  0  0  0  0  0  0  0
  146.6893  141.7996  153.3812 H   0  0  0  0  0  0  0  0  0  0  0  0
  146.0002  144.6509  154.1571 H   0  0  0  0  0  0  0  0  0  0  0  0
  145.2853  143.7049  152.8457 H   0  0  0  0  0  0  0  0  0  0  0  0
  144.1162  143.8105  155.3430 H   0  0  0  0  0  0  0  0  0  0  0  0
  144.0751  142.3253  154.3901 H   0  0  0  0  0  0  0  0  0  0  0  0
  1  2  2  0  0  0  0
  2  3  1  0  0  0  0
  2 15  1  0  0  0  0
  3  4  1  0  0  0  0
  3 22  1  0  0  0  0
  3 23  1  0  0  0  0
  4 13  1  0  0  0  0
  4  5  1  0  0  0  0
  5  6  2  0  0  0  0
  5 24  1  0  0  0  0
  6  7  1  0  0  0  0
  6 11  1  0  0  0  0
  7  8  1  0  0  0  0
  7  9  1  0  0  0  0
  7 10  1  0  0  0  0
 11 12  2  0  0  0  0
 11 25  1  0  0  0  0
 12 13  1  0  0  0  0
 12 26  1  0  0  0  0
 13 14  2  0  0  0  0
 15 16  1  0  0  0  0
 15 27  1  0  0  0  0
 16 17  1  0  0  0  0
 16 28  1  0  0  0  0
 16 29  1  0  0  0  0
 17 21  1  0  0  0  0
 17 18  1  0  0  0  0
 17 30  1  0  0  0  0
 18 19  1  0  0  0  0
 18 31  1  0  0  0  0
 18 32  1  0  0  0  0
 19 20  1  0  0  0  0
 19 33  1  0  0  0  0
 19 34  1  0  0  0  0
 20 21  1  0  0  0  0
 20 35  1  0  0  0  0
 20 36  1  0  0  0  0
M  END
> <s_m_source_file>
AV-unprocessed.smi

> <i_m_source_file_index>
2965

> <i_lp_mmshare_version>
43012

> <i_f3d_flags>
0

> <s_epik_input>
TzFbQ0gyXVtDSDJdW0NIMl1bQ0BIXTFbQ0gyXVtOSF1DKD1PKVtDSDJdbjJbY0hdYyhDKEYpKEYpRilbY0hdW2NIXWMyPU8=

> <s_epik_cmdline>
J2VwaWtfcHl0aG9uJywgJy1waCcsICc3LjAnLCAnLXRuJywgJzgnLCAnLW1hJywgJzIwMCcsICctbWV0YWxfYmluZGluZycsICctaW1hZScsICc8aW5maWxlLm1hZT4nLCAnLW9tYWUnLCAnPG91dGZpbGUubWFlPic=

> <r_lp_tautomer_probability>
1

> <r_epik_Ionization_Penalty>
4.53327e-08

> <r_epik_Ionization_Penalty_Charging>
1.84737e-08

> <r_epik_Ionization_Penalty_Neutral>
2.6859e-08

> <r_epik_State_Penalty>
-0

> <r_epik_Charging_Adjusted_Penalty>
1.84737e-08

> <i_epik_Tot_Q>
0

> <i_epik_Tot_abs_Q>
0

> <r_epik_Metal_State_Penalty>
-0

> <b_epik_Metal_Only>
0

> <s_lp_Force_Field>
OPLS_2005

> <r_lp_Energy>
29.2256

> <b_lp_Chiralities_Consistent>
1

> <s_lp_Variant>
AV-unprocessed.smi:2965-2

> <Gold.Version>
5.8.1

> <Gold.Id.Protein>
6NUR|6NUR_protein|mol2

> <Gold.PLP.Fitness>
45.1942

> <Gold.PLP.PLP>
-43.3781

> <Gold.PLP.part.hbond>
-1.0000

> <Gold.PLP.part.metal>
0.0000

> <Gold.PLP.part.buried>
-3.3412

> <Gold.PLP.part.nonpolar>
-38.6608

> <Gold.PLP.part.repulsive>
0.1700

> <Gold.PLP.ligand.clash>
0.0000

> <Gold.PLP.ligand.torsion>
0.6299

> <Gold.PLP.Chemscore.Hbond>
1.0000

> <Gold.PLP.Chemscore.CHOScore>
0.0000

> <Gold.PLP.Chemscore.Metal>
0.0000

> <Gold.Chemscore.Hbonds>
donor molecule, donor type, donor heavy atom, donor atom, acceptor molecule, acceptor atom, score
      P1  H  7997  8009       L1    14  0.81

> <Gold.PLP.Chemscore.Internal.Correction>
0.0758

> <Gold.Rescore>
     Score         DG    S(hbond)    S(metal)    S(lipo)     H(rot)  DE(clash)    DE(int)     intcor
     12.06     -13.53       0.88        0.00      84.60       1.87       0.76       0.71       ----

> <Gold.Chemscore.Fitness>
12.0552

> <Gold.Chemscore.DG>
-13.5279

> <Gold.Chemscore.ZeroCoef>
-5.4800

> <Gold.Chemscore.Hbond>
0.8780

> <Gold.Chemscore.Metal>
0.0000

> <Gold.Chemscore.Lipo>
84.5962

> <Gold.Chemscore.Internal_Hbond>
0.0000

> <Gold.Chemscore.DEClash>
0.7580

> <Gold.Chemscore.DEInternal>
0.7148

> <Gold.Chemscore.Rot>
1.8681

> <Gold.Chemscore.Internal.Correction>
   9.000000E+99

> <Gold.Chemscore.Hbonds>
donor molecule, donor type, donor heavy atom, donor atom, acceptor molecule, acceptor atom, score
      P1  H  7997  8009       L1    14  0.13

> <Gold.Chemscore.Hbond.Weighted>
-2.9324

> <Gold.Chemscore.Metal.Weighted>
-0.0000

> <Gold.Chemscore.Lipo.Weighted>
-9.8978

> <Gold.Chemscore.Internal_Hbond.Weighted>
0.0000

> <Gold.Chemscore.DEClash.Weighted>
0.7580

> <Gold.Chemscore.DEInternal.Weighted>
0.7148

> <Gold.Chemscore.Rot.Weighted>
4.7822

> <Gold.Chemscore.Internal.Correction.Weighted>
   9.000000E+99

> <Gold.Protein.RotatedTorsions>
[ 6907 6896 6895 6894 ] final -165.93 input  -60.11 | X-H torsion
[ 7974 7965 7964 7962 ] final -107.56 input  175.53 | X-H torsion
[ 8008 7997 7996 7995 ] final  150.32 input   59.86 | X-H torsion
[ 10167 10162 10161 10158 ] final  -57.05 input  -65.29 | X-H torsion
[ 10718 10713 10712 10709 ] final  179.09 input   66.30 | X-H torsion
[ 10763 10752 10751 10750 ] final   48.56 input  -60.55 | X-H torsion
[ 11005 11000 10999 10996 ] final -166.54 input  -57.11 | X-H torsion

> <Gold.Protein.ActiveResidues>
 VAL166  LYS551  ARG553  GLY616  TRP617  ASP618  TYR619  PRO620  LYS621  CYS622 
 ASP623  PHE694  ASN695  SER759  ASP760  ASP761  ALA762  ILE779  LEU786  VAL792 
 PHE793  MET794  SER795  GLU796  ALA797  LYS798  CYS799  TRP800  GLU811  SER814 

> <Gold.Protein.RotatedAtoms>
  151.4355  133.3658  159.2774 H   0  0  0  0  0  0  0  0  0  0  0  0  # atno 6907 bound_to 6896
  150.9194  134.8614  159.7490 H   0  0  0  0  0  0  0  0  0  0  0  0  # atno 6908 bound_to 6896
  152.4974  134.4291  159.9558 H   0  0  0  0  0  0  0  0  0  0  0  0  # atno 6909 bound_to 6896
  145.2038  140.9067  143.3354 H   0  0  0  0  0  0  0  0  0  0  0  0  # atno 7974 bound_to 7965
  156.2720  140.2078  156.5999 H   0  0  0  0  0  0  0  0  0  0  0  0  # atno 8008 bound_to 7997
  154.6915  140.0530  157.0391 H   0  0  0  0  0  0  0  0  0  0  0  0  # atno 8009 bound_to 7997
  155.0860  140.3191  155.4590 H   0  0  0  0  0  0  0  0  0  0  0  0  # atno 8010 bound_to 7997
  140.6281  143.2447  151.5311 H   0  0  0  0  0  0  0  0  0  0  0  0  # atno 10167 bound_to 10162
  156.8809  130.9815  151.3062 H   0  0  0  0  0  0  0  0  0  0  0  0  # atno 10718 bound_to 10713
  152.9791  135.5940  154.3945 H   0  0  0  0  0  0  0  0  0  0  0  0  # atno 10763 bound_to 10752
  154.3597  135.2767  155.2328 H   0  0  0  0  0  0  0  0  0  0  0  0  # atno 10764 bound_to 10752
  154.4331  135.6031  153.6136 H   0  0  0  0  0  0  0  0  0  0  0  0  # atno 10765 bound_to 10752
  140.5633  134.5311  157.5147 H   0  0  0  0  0  0  0  0  0  0  0  0  # atno 11005 bound_to 11000
  144.9922  139.3679  143.6209 LP  0  0  0  0  0  0  0  0  0  0  0  0  # atno 17320 bound_to 7965
  146.3412  139.9109  142.8780 LP  0  0  0  0  0  0  0  0  0  0  0  0  # atno 17321 bound_to 7965
  139.5499  144.2424  152.1510 LP  0  0  0  0  0  0  0  0  0  0  0  0  # atno 17342 bound_to 10162
  140.1660  144.4980  150.6605 LP  0  0  0  0  0  0  0  0  0  0  0  0  # atno 17343 bound_to 10162
  157.6141  130.8605  149.8999 LP  0  0  0  0  0  0  0  0  0  0  0  0  # atno 17370 bound_to 10713
  156.0678  130.3689  150.0841 LP  0  0  0  0  0  0  0  0  0  0  0  0  # atno 17371 bound_to 10713
  139.9397  134.7810  156.0710 LP  0  0  0  0  0  0  0  0  0  0  0  0  # atno 17394 bound_to 11000
  141.1101  133.6646  156.2958 LP  0  0  0  0  0  0  0  0  0  0  0  0  # atno 17395 bound_to 11000

$$$$
