AV-unprocessed.smi:1701|AV-procd|sdf|6843|dock1
  -GOLD-   22720 8 23D 1   1.00000     0.00000
 Structure written by MMmdl.
 54 56  0  0  0  0  0  0  0  0  4 V2000
  145.8395  130.0448  151.4680 C   0  0  0  0  0  0  0  0  0  0  0  0
  146.2153  131.4902  151.8272 C   0  0  0  0  0  0  0  0  0  0  0  0
  145.2175  132.4707  151.3994 N   0  0  0  0  0  0  0  0  0  0  0  0
  143.9794  132.0087  150.7671 C   0  0  0  0  0  0  0  0  0  0  0  0
  143.7475  132.6147  149.3744 C   0  0  0  0  0  0  0  0  0  0  0  0
  145.3576  133.8329  151.7619 C   0  0  0  0  0  0  0  0  0  0  0  0
  144.8419  134.9064  150.9935 C   0  0  0  0  0  0  0  0  0  0  0  0
  145.0250  136.2348  151.4279 C   0  0  0  0  0  0  0  0  0  0  0  0
  145.7197  136.4977  152.6261 C   0  0  0  0  0  0  0  0  0  0  0  0
  145.8632  137.8638  153.0010 N   0  0  0  0  0  0  0  0  0  0  0  0
  146.4106  138.4303  154.1053 C   0  0  0  0  0  0  0  0  0  0  0  0
  146.8951  137.7143  154.9777 O   0  0  0  0  0  0  0  0  0  0  0  0
  146.4215  139.7915  154.2317 N   0  5  0  0  0  0  0  0  0  0  0  0
  147.4077  140.7720  153.7446 C   0  0  2  0  0  0  0  0  0  0  0  0
  148.8060  140.3904  154.2441 C   0  0  0  0  0  0  0  0  0  0  0  0
  148.9266  141.0051  155.6520 C   0  0  0  0  0  0  0  0  0  0  0  0
  147.8702  142.0432  155.7729 N   0  3  2  0  0  0  0  0  0  0  0  0
  146.9571  141.8001  156.9272 C   0  0  0  0  0  0  0  0  0  0  0  0
  145.7345  142.7248  156.9101 C   0  0  0  0  0  0  0  0  0  0  0  0
  144.9418  142.5152  155.6185 C   0  0  0  0  0  0  0  0  0  0  0  0
  145.8327  142.8398  154.4121 C   0  0  0  0  0  0  0  0  0  0  0  0
  147.2203  142.1392  154.4355 C   0  0  2  0  0  0  0  0  0  0  0  0
  146.2136  135.3935  153.3611 C   0  0  0  0  0  0  0  0  0  0  0  0
  146.0158  134.1371  152.9073 N   0  3  0  0  0  0  0  0  0  0  0  0
  146.5866  129.3503  151.8522 H   0  0  0  0  0  0  0  0  0  0  0  0
  145.7889  129.8997  150.3897 H   0  0  0  0  0  0  0  0  0  0  0  0
  144.8764  129.7596  151.8914 H   0  0  0  0  0  0  0  0  0  0  0  0
  146.3975  131.5835  152.8977 H   0  0  0  0  0  0  0  0  0  0  0  0
  147.1686  131.7330  151.3568 H   0  0  0  0  0  0  0  0  0  0  0  0
  143.9728  130.9198  150.7087 H   0  0  0  0  0  0  0  0  0  0  0  0
  143.1369  132.2672  151.4092 H   0  0  0  0  0  0  0  0  0  0  0  0
  142.8331  132.2182  148.9332 H   0  0  0  0  0  0  0  0  0  0  0  0
  144.5671  132.3839  148.6936 H   0  0  0  0  0  0  0  0  0  0  0  0
  143.6429  133.6978  149.4175 H   0  0  0  0  0  0  0  0  0  0  0  0
  144.3094  134.7412  150.0696 H   0  0  0  0  0  0  0  0  0  0  0  0
  144.6310  137.0493  150.8374 H   0  0  0  0  0  0  0  0  0  0  0  0
  145.4976  138.5250  152.3316 H   0  0  0  0  0  0  0  0  0  0  0  0
  147.3976  140.8845  152.6597 H   0  0  0  0  0  0  0  0  0  0  0  0
  148.9895  139.3148  154.2375 H   0  0  0  0  0  0  0  0  0  0  0  0
  149.5526  140.8443  153.5911 H   0  0  0  0  0  0  0  0  0  0  0  0
  148.8131  140.2311  156.4140 H   0  0  0  0  0  0  0  0  0  0  0  0
  149.9096  141.4533  155.8006 H   0  0  0  0  0  0  0  0  0  0  0  0
  146.6151  140.7638  156.9223 H   0  0  0  0  0  0  0  0  0  0  0  0
  147.5162  141.9377  157.8532 H   0  0  0  0  0  0  0  0  0  0  0  0
  145.0997  142.5142  157.7712 H   0  0  0  0  0  0  0  0  0  0  0  0
  146.0470  143.7660  156.9981 H   0  0  0  0  0  0  0  0  0  0  0  0
  144.5824  141.4872  155.5624 H   0  0  0  0  0  0  0  0  0  0  0  0
  144.0574  143.1529  155.6112 H   0  0  0  0  0  0  0  0  0  0  0  0
  145.2969  142.6432  153.4815 H   0  0  0  0  0  0  0  0  0  0  0  0
  146.0040  143.9171  154.4189 H   0  0  0  0  0  0  0  0  0  0  0  0
  147.8738  142.8105  153.8748 H   0  0  0  0  0  0  0  0  0  0  0  0
  146.7568  135.4453  154.2913 H   0  0  0  0  0  0  0  0  0  0  0  0
  148.3157  142.9328  155.9433 H   0  0  0  0  0  0  0  0  0  0  0  0
  146.3870  133.3681  153.4652 H   0  0  0  0  0  0  0  0  0  0  0  0
  1  2  1  0  0  0  0
  1 25  1  0  0  0  0
  1 26  1  0  0  0  0
  1 27  1  0  0  0  0
  2  3  1  0  0  0  0
  2 28  1  0  0  0  0
  2 29  1  0  0  0  0
  3  4  1  0  0  0  0
  3  6  1  0  0  0  0
  4  5  1  0  0  0  0
  4 30  1  0  0  0  0
  4 31  1  0  0  0  0
  5 32  1  0  0  0  0
  5 33  1  0  0  0  0
  5 34  1  0  0  0  0
  6 24  1  0  0  0  0
  6  7  2  0  0  0  0
  7  8  1  0  0  0  0
  7 35  1  0  0  0  0
  8  9  2  0  0  0  0
  8 36  1  0  0  0  0
  9 10  1  0  0  0  0
  9 23  1  0  0  0  0
 10 11  1  0  0  0  0
 10 37  1  0  0  0  0
 11 12  2  0  0  0  0
 11 13  1  0  0  0  0
 13 14  1  0  0  0  0
 14 22  1  0  0  0  0
 14 15  1  0  0  0  0
 14 38  1  0  0  0  0
 15 16  1  0  0  0  0
 15 39  1  0  0  0  0
 15 40  1  0  0  0  0
 16 17  1  0  0  0  0
 16 41  1  0  0  0  0
 16 42  1  0  0  0  0
 17 22  1  0  0  0  0
 17 18  1  0  0  0  0
 17 53  1  0  0  0  0
 18 19  1  0  0  0  0
 18 43  1  0  0  0  0
 18 44  1  0  0  0  0
 19 20  1  0  0  0  0
 19 45  1  0  0  0  0
 19 46  1  0  0  0  0
 20 21  1  0  0  0  0
 20 47  1  0  0  0  0
 20 48  1  0  0  0  0
 21 22  1  0  0  0  0
 21 49  1  0  0  0  0
 21 50  1  0  0  0  0
 22 51  1  0  0  0  0
 23 24  2  0  0  0  0
 23 52  1  0  0  0  0
 24 54  1  0  0  0  0
M  CHG  1  13  -1
M  CHG  1  17   1
M  CHG  1  24   1
M  END
> <s_m_source_file>
AV-unprocessed.smi

> <i_m_source_file_index>
1701

> <i_lp_mmshare_version>
43012

> <i_f3d_flags>
0

> <s_epik_input>
W0NIM11bQ0gyXU4oW0NIMl1bQ0gzXSljMVtjSF1bY0hdYyhbY0hdbjEpW05IXUMoPU8pW05IXVtDQEhdKFtDSDJdW0NIMl0yKVtDQEBIXShOMjMpW0NIMl1bQ0gyXVtDSDJdW0NIMl0z

> <s_epik_cmdline>
J2VwaWtfcHl0aG9uJywgJy1waCcsICc3LjAnLCAnLXRuJywgJzgnLCAnLW1hJywgJzIwMCcsICctbWV0YWxfYmluZGluZycsICctaW1hZScsICc8aW5maWxlLm1hZT4nLCAnLW9tYWUnLCAnPG91dGZpbGUubWFlPic=

> <r_lp_tautomer_probability>
0.999994

> <r_epik_Ionization_Penalty>
7.37095

> <r_epik_Ionization_Penalty_Charging>
7.37095

> <r_epik_Ionization_Penalty_Neutral>
3.78969e-06

> <r_epik_State_Penalty>
6.83842

> <r_epik_Charging_Adjusted_Penalty>
14.2094

> <i_epik_Tot_Q>
1

> <i_epik_Tot_abs_Q>
3

> <r_epik_Metal_State_Penalty>
2.78552

> <b_epik_Metal_Only>
1

> <s_lp_Force_Field>
OPLS_2005

> <r_lp_Energy>
56.3102

> <b_lp_Chiralities_Consistent>
1

> <s_lp_Variant>
AV-unprocessed.smi:1701-23

> <Gold.Version>
5.8.1

> <Gold.Id.Protein>
6NUR|6NUR_protein|mol2

> <Gold.PLP.Fitness>
47.5698

> <Gold.PLP.PLP>
-43.8056

> <Gold.PLP.part.hbond>
-1.0000

> <Gold.PLP.part.metal>
0.0000

> <Gold.PLP.part.buried>
-4.2440

> <Gold.PLP.part.nonpolar>
-38.3881

> <Gold.PLP.part.repulsive>
0.3092

> <Gold.PLP.ligand.clash>
0.0000

> <Gold.PLP.ligand.torsion>
1.3438

> <Gold.PLP.Chemscore.Hbond>
2.0000

> <Gold.PLP.Chemscore.CHOScore>
0.0000

> <Gold.PLP.Chemscore.Metal>
0.0000

> <Gold.Chemscore.Hbonds>
donor molecule, donor type, donor heavy atom, donor atom, acceptor molecule, acceptor atom, score
      L1  H    17    53       P1  8028  2.00

> <Gold.PLP.Chemscore.Internal.Correction>
0.4518

> <Gold.Rescore>
     Score         DG    S(hbond)    S(metal)    S(lipo)     H(rot)  DE(clash)    DE(int)     intcor
     14.54     -17.63       0.98        0.00     104.06       1.28       0.15       2.94       ----

> <Gold.Chemscore.Fitness>
14.5405

> <Gold.Chemscore.DG>
-17.6271

> <Gold.Chemscore.ZeroCoef>
-5.4800

> <Gold.Chemscore.Hbond>
0.9757

> <Gold.Chemscore.Metal>
0.0000

> <Gold.Chemscore.Lipo>
104.0585

> <Gold.Chemscore.Internal_Hbond>
0.0000

> <Gold.Chemscore.DEClash>
0.1505

> <Gold.Chemscore.DEInternal>
2.9362

> <Gold.Chemscore.Rot>
1.2838

> <Gold.Chemscore.Internal.Correction>
   9.000000E+99

> <Gold.Chemscore.Hbonds>
donor molecule, donor type, donor heavy atom, donor atom, acceptor molecule, acceptor atom, score
      L1  H    17    53       P1  8028  0.92

> <Gold.Chemscore.Hbond.Weighted>
-3.2588

> <Gold.Chemscore.Metal.Weighted>
-0.0000

> <Gold.Chemscore.Lipo.Weighted>
-12.1748

> <Gold.Chemscore.Internal_Hbond.Weighted>
0.0000

> <Gold.Chemscore.DEClash.Weighted>
0.1505

> <Gold.Chemscore.DEInternal.Weighted>
2.9362

> <Gold.Chemscore.Rot.Weighted>
3.2865

> <Gold.Chemscore.Internal.Correction.Weighted>
   9.000000E+99

> <Gold.Protein.RotatedTorsions>
[ 6907 6896 6895 6894 ] final  146.76 input  -60.11 | X-H torsion
[ 7974 7965 7964 7962 ] final   26.82 input  175.53 | X-H torsion
[ 8008 7997 7996 7995 ] final  -68.40 input   59.86 | X-H torsion
[ 10167 10162 10161 10158 ] final   71.08 input  -65.29 | X-H torsion
[ 10718 10713 10712 10709 ] final  -67.80 input   66.30 | X-H torsion
[ 10763 10752 10751 10750 ] final    2.13 input  -60.55 | X-H torsion
[ 11005 11000 10999 10996 ] final -179.84 input  -57.11 | X-H torsion

> <Gold.Protein.ActiveResidues>
 VAL166  LYS551  ARG553  GLY616  TRP617  ASP618  TYR619  PRO620  LYS621  CYS622 
 ASP623  PHE694  ASN695  SER759  ASP760  ASP761  ALA762  ILE779  LEU786  VAL792 
 PHE793  MET794  SER795  GLU796  ALA797  LYS798  CYS799  TRP800  GLU811  SER814 

> <Gold.Protein.RotatedAtoms>
  152.1637  133.4598  159.4873 H   0  0  0  0  0  0  0  0  0  0  0  0  # atno 6907 bound_to 6896
  150.6910  134.2039  159.4342 H   0  0  0  0  0  0  0  0  0  0  0  0  # atno 6908 bound_to 6896
  151.9943  134.9962  160.0613 H   0  0  0  0  0  0  0  0  0  0  0  0  # atno 6909 bound_to 6896
  146.1817  139.7276  142.8895 H   0  0  0  0  0  0  0  0  0  0  0  0  # atno 7974 bound_to 7965
  154.4865  140.0874  156.7498 H   0  0  0  0  0  0  0  0  0  0  0  0  # atno 8008 bound_to 7997
  155.4337  140.3451  155.4264 H   0  0  0  0  0  0  0  0  0  0  0  0  # atno 8009 bound_to 7997
  156.1269  140.1490  156.9111 H   0  0  0  0  0  0  0  0  0  0  0  0  # atno 8010 bound_to 7997
  140.0499  144.5320  150.7371 H   0  0  0  0  0  0  0  0  0  0  0  0  # atno 10167 bound_to 10162
  156.0538  130.4284  150.1908 H   0  0  0  0  0  0  0  0  0  0  0  0  # atno 10718 bound_to 10713
  153.2994  135.6954  153.7217 H   0  0  0  0  0  0  0  0  0  0  0  0  # atno 10763 bound_to 10752
  153.6137  135.3440  155.2988 H   0  0  0  0  0  0  0  0  0  0  0  0  # atno 10764 bound_to 10752
  154.8546  135.4369  154.2100 H   0  0  0  0  0  0  0  0  0  0  0  0  # atno 10765 bound_to 10752
  140.4142  134.6664  157.4630 H   0  0  0  0  0  0  0  0  0  0  0  0  # atno 11005 bound_to 11000
  145.4056  141.0390  143.3046 LP  0  0  0  0  0  0  0  0  0  0  0  0  # atno 17320 bound_to 7965
  144.8327  139.5602  143.6936 LP  0  0  0  0  0  0  0  0  0  0  0  0  # atno 17321 bound_to 7965
  140.7221  143.2599  151.4243 LP  0  0  0  0  0  0  0  0  0  0  0  0  # atno 17342 bound_to 10162
  139.5959  144.1398  152.2143 LP  0  0  0  0  0  0  0  0  0  0  0  0  # atno 17343 bound_to 10162
  156.9987  130.9915  151.3396 LP  0  0  0  0  0  0  0  0  0  0  0  0  # atno 17370 bound_to 10713
  157.5490  130.8169  149.8121 LP  0  0  0  0  0  0  0  0  0  0  0  0  # atno 17371 bound_to 10713
  140.0246  134.6497  155.9191 LP  0  0  0  0  0  0  0  0  0  0  0  0  # atno 17394 bound_to 11000
  141.1809  133.6546  156.5017 LP  0  0  0  0  0  0  0  0  0  0  0  0  # atno 17395 bound_to 11000

$$$$
