#       Name:                AV-unprocessed.smi:1738
#       Creating user name   scv26
#       Creation time:       Fri Mar 27 08:21:35 2020


#       File generated by GOLD software.
#

@<TRIPOS>MOLECULE
AV-unprocessed.smi:1738
    49    51     1
SMALL
NO_CHARGES


@<TRIPOS>ATOM
      1 ****        -7.3944   0.3139   0.9010 C.3            1 S1                 0.0000
      2 ****        -7.0179  -1.4266   0.4423 S.o2           1 S1                 0.0000
      3 ****        -7.4455  -2.2991   1.5470 O.2            1 S1                 0.0000
      4 ****        -7.5423  -1.6601  -0.9125 O.2            1 S1                 0.0000
      5 ****        -5.2308  -1.4663   0.3678 C.ar           1 S1                 0.0000
      6 ****        -4.5690  -1.4336  -0.8760 C.ar           1 S1                 0.0000
      7 ****        -3.1612  -1.4156  -0.8784 C.ar           1 S1                 0.0000
      8 ****        -2.4739  -1.4122   0.3603 C.ar           1 S1                 0.0000
      9 ****        -1.0586  -1.4151   0.4877 N.am           1 S1                 0.0000
     10 ****        -0.1404  -1.0059  -0.4042 C.2            1 S1                 0.0000
     11 ****        -0.3858  -0.5048  -1.5011 O.2            1 S1                 0.0000
     12 ****         1.1048  -1.1842   0.0597 N.am           1 S1                 0.0000
     13 ****         2.3183  -0.8348  -0.6745 C.3            1 S1                 0.0000
     14 ****         3.5816  -1.4606  -0.0977 C.3            1 S1                 0.0000
     15 ****         4.6974  -0.6068  -0.7099 C.3            1 S1                 0.0000
     16 ****         4.1119   0.7269  -0.9943 N.4            1 S1                 1.0000
     17 ****         4.8492   1.8579  -0.3693 C.3            1 S1                 0.0000
     18 ****         3.9898   3.1307  -0.3489 C.3            1 S1                 0.0000
     19 ****         2.7127   2.9352   0.4900 C.3            1 S1                 0.0000
     20 ****         2.2939   1.4559   0.5900 C.3            1 S1                 0.0000
     21 ****         2.6526   0.6689  -0.6945 C.3            1 S1                 0.0000
     22 ****        -3.2443  -1.4461   1.5428 C.ar           1 S1                 0.0000
     23 ****        -4.5936  -1.4584   1.5579 N.ar           1 S1                 0.0000
     24 ****        -8.4732   0.4423   0.9856 H              1 S1                 0.0000
     25 ****        -7.0081   0.9836   0.1331 H              1 S1                 0.0000
     26 ****        -6.9250   0.5479   1.8564 H              1 S1                 0.0000
     27 ****        -5.1191  -1.4265  -1.8052 H              1 S1                 0.0000
     28 ****        -2.6416  -1.4158  -1.8238 H              1 S1                 0.0000
     29 ****        -0.7063  -1.7183   1.3840 H              1 S1                 0.0000
     30 ****         1.2213  -1.5960   0.9742 H              1 S1                 0.0000
     31 ****         2.2181  -1.1846  -1.7044 H              1 S1                 0.0000
     32 ****         3.5929  -1.3595   0.9885 H              1 S1                 0.0000
     33 ****         3.6805  -2.5196  -0.3382 H              1 S1                 0.0000
     34 ****         5.5713  -0.5633  -0.0585 H              1 S1                 0.0000
     35 ****         5.0216  -1.0380  -1.6577 H              1 S1                 0.0000
     36 ****         5.1346   1.6036   0.6530 H              1 S1                 0.0000
     37 ****         5.7740   2.0272  -0.9216 H              1 S1                 0.0000
     38 ****         4.5633   3.9745   0.0360 H              1 S1                 0.0000
     39 ****         3.7175   3.3903  -1.3730 H              1 S1                 0.0000
     40 ****         2.8611   3.3288   1.4962 H              1 S1                 0.0000
     41 ****         1.9064   3.5238   0.0509 H              1 S1                 0.0000
     42 ****         2.7933   0.9976   1.4449 H              1 S1                 0.0000
     43 ****         1.2255   1.4041   0.8007 H              1 S1                 0.0000
     44 ****         2.1195   1.1358  -1.5241 H              1 S1                 0.0000
     45 ****        -2.7631  -1.4543   2.5100 H              1 S1                 0.0000
     46 ****         4.1797   0.8567  -1.9939 H              1 S1                 0.0000
     47 ****        -1.3341  -0.3741  -1.7902 LP             1 S1                 0.0000
     48 ****         0.3632  -0.2283  -2.1033 LP             1 S1                 0.0000
     49 ****        -5.1025  -1.4615   2.4187 LP             1 S1                 0.0000
@<TRIPOS>BOND
    1    1    2 1     
    2    1   24 1     
    3    1   25 1     
    4    1   26 1     
    5    2    3 2     
    6    2    4 2     
    7    2    5 1     
    8    5   23 ar    
    9    5    6 ar    
   10    6    7 ar    
   11    6   27 1     
   12    7    8 ar    
   13    7   28 1     
   14    8    9 1     
   15    8   22 ar    
   16    9   10 am    
   17    9   29 1     
   18   10   11 2     
   19   10   12 am    
   20   12   13 1     
   21   12   30 1     
   22   13   21 1     
   23   13   14 1     
   24   13   31 1     
   25   14   15 1     
   26   14   32 1     
   27   14   33 1     
   28   15   16 1     
   29   15   34 1     
   30   15   35 1     
   31   16   21 1     
   32   16   17 1     
   33   16   46 1     
   34   17   18 1     
   35   17   36 1     
   36   17   37 1     
   37   18   19 1     
   38   18   38 1     
   39   18   39 1     
   40   19   20 1     
   41   19   40 1     
   42   19   41 1     
   43   20   21 1     
   44   20   42 1     
   45   20   43 1     
   46   21   44 1     
   47   22   23 ar    
   48   22   45 1     
   49   11   47 1     
   50   11   48 1     
   51   23   49 1     
@<TRIPOS>SUBSTRUCTURE
      1 S1             1
@<TRIPOS>SET
LONE_PAIRS      STATIC     ATOMS    <user>   **** ""
5 3 4 47 48 49
DONOR_HYDROGENS      STATIC     ATOMS    <user>   **** ""
3 29 30 46
ATOM$BLUE        STATIC     ATOMS    COLORGROUP SYSTEM
5 3 4 47 48 49
ATOM$RED        STATIC     ATOMS    COLORGROUP SYSTEM
3 29 30 46
