AV-unprocessed.smi:538|AV-procd|sdf|2866|dock10
  -GOLD-   2262023363D 1   1.00000     0.00000
 Structure written by MMmdl.
 43 44  0  0  0  0  0  0  0  0  1 V2000
  145.9159  143.1136  154.5750 C   0  0  0  0  0  0  0  0  0  0  0  0
  146.8351  142.2877  153.8826 O   0  0  0  0  0  0  0  0  0  0  0  0
  147.8638  141.7961  154.7263 C   0  0  0  0  0  0  0  0  0  0  0  0
  148.8255  140.9339  153.8989 C   0  0  0  0  0  0  0  0  0  0  0  0
  149.8892  140.3732  154.7116 N   0  0  0  0  0  0  0  0  0  0  0  0
  150.5076  140.8181  155.8735 C   0  0  0  0  0  0  0  0  0  0  0  0
  150.2013  141.9524  156.5071 N   0  0  0  0  0  0  0  0  0  0  0  0
  151.0830  141.9510  157.5791 C   0  0  0  0  0  0  0  0  0  0  0  0
  151.8715  140.8505  157.5593 C   0  0  0  0  0  0  0  0  0  0  0  0
  152.9046  140.5948  158.5680 C   0  0  0  0  0  0  0  0  0  0  0  0
  153.6155  139.5894  158.5219 O   0  0  0  0  0  0  0  0  0  0  0  0
  152.9943  141.5616  159.5336 N   0  0  0  0  0  0  0  0  0  0  0  0
  154.0207  141.3379  160.5689 C   0  0  0  0  0  0  0  0  0  0  0  0
  152.2019  142.6955  159.6026 C   0  0  0  0  0  0  0  0  0  0  0  0
  152.3284  143.5175  160.5140 O   0  0  0  0  0  0  0  0  0  0  0  0
  151.2571  142.8925  158.6263 N   0  0  0  0  0  0  0  0  0  0  0  0
  150.4028  144.0829  158.6634 C   0  0  0  0  0  0  0  0  0  0  0  0
  151.4984  140.0924  156.4486 N   0  0  0  0  0  0  0  0  0  0  0  0
  152.0489  138.8159  156.0022 C   0  0  0  0  0  0  0  0  0  0  0  0
  150.9540  137.7674  155.7614 C   0  0  0  0  0  0  0  0  0  0  0  0
  151.5495  136.5039  155.5151 O   0  0  0  0  0  0  0  0  0  0  0  0
  150.6308  135.4344  155.6491 C   0  0  0  0  0  0  0  0  0  0  0  0
  145.1504  143.4683  153.8850 H   0  0  0  0  0  0  0  0  0  0  0  0
  146.4126  143.9847  155.0041 H   0  0  0  0  0  0  0  0  0  0  0  0
  145.4185  142.5641  155.3752 H   0  0  0  0  0  0  0  0  0  0  0  0
  148.4090  142.6378  155.1558 H   0  0  0  0  0  0  0  0  0  0  0  0
  147.4466  141.2229  155.5559 H   0  0  0  0  0  0  0  0  0  0  0  0
  148.2851  140.1270  153.4036 H   0  0  0  0  0  0  0  0  0  0  0  0
  149.2808  141.5389  153.1145 H   0  0  0  0  0  0  0  0  0  0  0  0
  150.2265  139.4834  154.3735 H   0  0  0  0  0  0  0  0  0  0  0  0
  154.1427  142.1534  161.2819 H   0  0  0  0  0  0  0  0  0  0  0  0
  155.0008  141.1861  160.1132 H   0  0  0  0  0  0  0  0  0  0  0  0
  153.7810  140.4457  161.1497 H   0  0  0  0  0  0  0  0  0  0  0  0
  151.0076  144.9908  158.6565 H   0  0  0  0  0  0  0  0  0  0  0  0
  149.7928  144.0861  159.5679 H   0  0  0  0  0  0  0  0  0  0  0  0
  149.7234  144.1426  157.8129 H   0  0  0  0  0  0  0  0  0  0  0  0
  152.6305  138.9768  155.0952 H   0  0  0  0  0  0  0  0  0  0  0  0
  152.7602  138.4484  156.7421 H   0  0  0  0  0  0  0  0  0  0  0  0
  150.2948  137.7072  156.6287 H   0  0  0  0  0  0  0  0  0  0  0  0
  150.3423  138.0631  154.9079 H   0  0  0  0  0  0  0  0  0  0  0  0
  151.1349  134.4910  155.4396 H   0  0  0  0  0  0  0  0  0  0  0  0
  149.8011  135.5361  154.9484 H   0  0  0  0  0  0  0  0  0  0  0  0
  150.2303  135.3843  156.6624 H   0  0  0  0  0  0  0  0  0  0  0  0
  1  2  1  0  0  0  0
  1 23  1  0  0  0  0
  1 24  1  0  0  0  0
  1 25  1  0  0  0  0
  2  3  1  0  0  0  0
  3  4  1  0  0  0  0
  3 26  1  0  0  0  0
  3 27  1  0  0  0  0
  4  5  1  0  0  0  0
  4 28  1  0  0  0  0
  4 29  1  0  0  0  0
  5  6  1  0  0  0  0
  5 30  1  0  0  0  0
  6 18  1  0  0  0  0
  6  7  2  0  0  0  0
  7  8  1  0  0  0  0
  8 16  1  0  0  0  0
  8  9  2  0  0  0  0
  9 10  1  0  0  0  0
  9 18  1  0  0  0  0
 10 11  2  0  0  0  0
 10 12  1  0  0  0  0
 12 13  1  0  0  0  0
 12 14  1  0  0  0  0
 13 31  1  0  0  0  0
 13 32  1  0  0  0  0
 13 33  1  0  0  0  0
 14 15  2  0  0  0  0
 14 16  1  0  0  0  0
 16 17  1  0  0  0  0
 17 34  1  0  0  0  0
 17 35  1  0  0  0  0
 17 36  1  0  0  0  0
 18 19  1  0  0  0  0
 19 20  1  0  0  0  0
 19 37  1  0  0  0  0
 19 38  1  0  0  0  0
 20 21  1  0  0  0  0
 20 39  1  0  0  0  0
 20 40  1  0  0  0  0
 21 22  1  0  0  0  0
 22 41  1  0  0  0  0
 22 42  1  0  0  0  0
 22 43  1  0  0  0  0
M  END
> <s_m_source_file>
AV-unprocessed.smi

> <i_m_source_file_index>
538

> <i_lp_mmshare_version>
43012

> <i_f3d_flags>
0

> <s_epik_input>
W0NIM11PW0NIMl1bQ0gyXVtOSF1jKG4xKW4oW0NIMl1bQ0gyXU9bQ0gzXSljKGMxMiljKD1PKW4oW0NIM10pYyg9TyluMltDSDNd

> <s_epik_cmdline>
J2VwaWtfcHl0aG9uJywgJy1waCcsICc3LjAnLCAnLXRuJywgJzgnLCAnLW1hJywgJzIwMCcsICctbWV0YWxfYmluZGluZycsICctaW1hZScsICc8aW5maWxlLm1hZT4nLCAnLW9tYWUnLCAnPG91dGZpbGUubWFlPic=

> <r_lp_tautomer_probability>
1

> <r_epik_Ionization_Penalty>
5.57243e-05

> <r_epik_Ionization_Penalty_Charging>
2.44156e-09

> <r_epik_Ionization_Penalty_Neutral>
5.57218e-05

> <r_epik_State_Penalty>
-0

> <r_epik_Charging_Adjusted_Penalty>
2.44156e-09

> <i_epik_Tot_Q>
0

> <i_epik_Tot_abs_Q>
0

> <r_epik_Metal_State_Penalty>
-0

> <b_epik_Metal_Only>
0

> <s_lp_Force_Field>
OPLS_2005

> <r_lp_Energy>
28.2468

> <b_lp_Chiralities_Consistent>
1

> <s_lp_Variant>
AV-unprocessed.smi:538-1

> <Gold.Version>
5.8.1

> <Gold.Id.Protein>
6NUR|6NUR_protein|mol2

> <Gold.PLP.Fitness>
45.1714

> <Gold.PLP.PLP>
-39.8185

> <Gold.PLP.part.hbond>
-2.0000

> <Gold.PLP.part.metal>
0.0000

> <Gold.PLP.part.buried>
-5.3834

> <Gold.PLP.part.nonpolar>
-33.6038

> <Gold.PLP.part.repulsive>
0.5565

> <Gold.PLP.ligand.clash>
0.0000

> <Gold.PLP.ligand.torsion>
0.3358

> <Gold.PLP.Chemscore.Hbond>
2.0000

> <Gold.PLP.Chemscore.CHOScore>
0.0000

> <Gold.PLP.Chemscore.Metal>
0.0000

> <Gold.Chemscore.Hbonds>
donor molecule, donor type, donor heavy atom, donor atom, acceptor molecule, acceptor atom, score
      P1  H  7997  8009       L1    11  1.00
      P1  H 10752 10763       L1    21  0.95

> <Gold.PLP.Chemscore.Internal.Correction>
0.0246

> <Gold.Rescore>
     Score         DG    S(hbond)    S(metal)    S(lipo)     H(rot)  DE(clash)    DE(int)     intcor
      7.80     -10.38       1.16        0.00      58.68       2.28       0.13       2.45       ----

> <Gold.Chemscore.Fitness>
7.7963

> <Gold.Chemscore.DG>
-10.3825

> <Gold.Chemscore.ZeroCoef>
-5.4800

> <Gold.Chemscore.Hbond>
1.1596

> <Gold.Chemscore.Metal>
0.0000

> <Gold.Chemscore.Lipo>
58.6805

> <Gold.Chemscore.Internal_Hbond>
0.0000

> <Gold.Chemscore.DEClash>
0.1334

> <Gold.Chemscore.DEInternal>
2.4528

> <Gold.Chemscore.Rot>
2.2797

> <Gold.Chemscore.Internal.Correction>
   9.000000E+99

> <Gold.Chemscore.Hbonds>
donor molecule, donor type, donor heavy atom, donor atom, acceptor molecule, acceptor atom, score
      P1  H  7997  8009       L1    11  0.43
      P1  H 10752 10763       L1    21  0.22

> <Gold.Chemscore.Hbond.Weighted>
-3.8730

> <Gold.Chemscore.Metal.Weighted>
-0.0000

> <Gold.Chemscore.Lipo.Weighted>
-6.8656

> <Gold.Chemscore.Internal_Hbond.Weighted>
0.0000

> <Gold.Chemscore.DEClash.Weighted>
0.1334

> <Gold.Chemscore.DEInternal.Weighted>
2.4528

> <Gold.Chemscore.Rot.Weighted>
5.8361

> <Gold.Chemscore.Internal.Correction.Weighted>
   9.000000E+99

> <Gold.Protein.RotatedTorsions>
[ 6907 6896 6895 6894 ] final  -74.32 input  -60.11 | X-H torsion
[ 7974 7965 7964 7962 ] final  -20.17 input  175.53 | X-H torsion
[ 8008 7997 7996 7995 ] final  129.19 input   59.86 | X-H torsion
[ 10167 10162 10161 10158 ] final   42.19 input  -65.29 | X-H torsion
[ 10718 10713 10712 10709 ] final   37.05 input   66.30 | X-H torsion
[ 10763 10752 10751 10750 ] final   64.79 input  -60.55 | X-H torsion
[ 11005 11000 10999 10996 ] final -116.90 input  -57.11 | X-H torsion

> <Gold.Protein.ActiveResidues>
 VAL166  LYS551  ARG553  GLY616  TRP617  ASP618  TYR619  PRO620  LYS621  CYS622 
 ASP623  PHE694  ASN695  SER759  ASP760  ASP761  ALA762  ILE779  LEU786  VAL792 
 PHE793  MET794  SER795  GLU796  ALA797  LYS798  CYS799  TRP800  GLU811  SER814 

> <Gold.Protein.RotatedAtoms>
  150.7097  134.4886  159.5504 H   0  0  0  0  0  0  0  0  0  0  0  0  # atno 6907 bound_to 6896
  152.2508  134.8131  160.0455 H   0  0  0  0  0  0  0  0  0  0  0  0  # atno 6908 bound_to 6896
  151.8879  133.3474  159.3825 H   0  0  0  0  0  0  0  0  0  0  0  0  # atno 6909 bound_to 6896
  146.1802  140.4165  142.8497 H   0  0  0  0  0  0  0  0  0  0  0  0  # atno 7974 bound_to 7965
  156.2931  140.2626  156.2559 H   0  0  0  0  0  0  0  0  0  0  0  0  # atno 8008 bound_to 7997
  154.9837  140.0389  157.2307 H   0  0  0  0  0  0  0  0  0  0  0  0  # atno 8009 bound_to 7997
  154.7749  140.2784  155.6114 H   0  0  0  0  0  0  0  0  0  0  0  0  # atno 8010 bound_to 7997
  140.3568  144.2280  150.6141 H   0  0  0  0  0  0  0  0  0  0  0  0  # atno 10167 bound_to 10162
  157.3422  130.7554  149.6920 H   0  0  0  0  0  0  0  0  0  0  0  0  # atno 10718 bound_to 10713
  153.0070  135.5380  154.6566 H   0  0  0  0  0  0  0  0  0  0  0  0  # atno 10763 bound_to 10752
  154.5785  135.2848  155.0759 H   0  0  0  0  0  0  0  0  0  0  0  0  # atno 10764 bound_to 10752
  154.1897  135.6502  153.5109 H   0  0  0  0  0  0  0  0  0  0  0  0  # atno 10765 bound_to 10752
  141.0391  133.9864  157.3024 H   0  0  0  0  0  0  0  0  0  0  0  0  # atno 11005 bound_to 11000
  144.8303  140.6696  143.6295 LP  0  0  0  0  0  0  0  0  0  0  0  0  # atno 17320 bound_to 7965
  145.4097  139.1582  143.4132 LP  0  0  0  0  0  0  0  0  0  0  0  0  # atno 17321 bound_to 7965
  140.5166  143.2276  151.8454 LP  0  0  0  0  0  0  0  0  0  0  0  0  # atno 17342 bound_to 10162
  139.4819  144.4887  151.9213 LP  0  0  0  0  0  0  0  0  0  0  0  0  # atno 17343 bound_to 10162
  155.9709  130.4164  150.4230 LP  0  0  0  0  0  0  0  0  0  0  0  0  # atno 17370 bound_to 10713
  157.2280  131.0497  151.2509 LP  0  0  0  0  0  0  0  0  0  0  0  0  # atno 17371 bound_to 10713
  139.9262  135.0201  156.8243 LP  0  0  0  0  0  0  0  0  0  0  0  0  # atno 17394 bound_to 11000
  140.6268  133.9943  155.7643 LP  0  0  0  0  0  0  0  0  0  0  0  0  # atno 17395 bound_to 11000

$$$$
