AV-unprocessed.smi:1426|AV-procd|sdf|5805|dock6
  -GOLD-   22720 5453D 1   1.00000     0.00000
 Structure written by MMmdl.
 43 45  0  0  0  0  0  0  0  0  1 V2000
  145.0968  138.0286  152.9145 O   0  0  0  0  0  0  0  0  0  0  0  0
  146.1839  137.6429  152.4860 C   0  0  0  0  0  0  0  0  0  0  0  0
  146.3418  136.5131  151.7816 N   0  0  0  0  0  0  0  0  0  0  0  0
  145.2778  135.5756  151.4354 C   0  0  0  0  0  0  0  0  0  0  0  0
  145.8207  134.1504  151.2226 C   0  0  2  0  0  0  0  0  0  0  0  0
  144.7519  133.1337  150.8769 C   0  0  0  0  0  0  0  0  0  0  0  0
  145.4569  131.8146  151.1799 C   0  0  0  0  0  0  0  0  0  0  0  0
  146.3785  132.0953  152.2300 O   0  0  0  0  0  0  0  0  0  0  0  0
  146.4486  133.4998  152.4568 C   0  0  0  0  0  0  0  0  0  0  0  0
  147.3572  138.2797  152.6417 N   0  0  0  0  0  0  0  0  0  0  0  0
  147.6395  139.5161  153.2942 C   0  0  0  0  0  0  0  0  0  0  0  0
  146.7675  140.6318  153.2256 C   0  0  0  0  0  0  0  0  0  0  0  0
  147.1241  141.8287  153.8706 C   0  0  0  0  0  0  0  0  0  0  0  0
  148.3422  141.8716  154.5679 C   0  0  0  0  0  0  0  0  0  0  0  0
  149.1732  140.8150  154.6611 N   0  0  0  0  0  0  0  0  0  0  0  0
  148.8364  139.6493  154.0564 C   0  0  0  0  0  0  0  0  0  0  0  0
  149.7311  138.5664  154.2151 N   0  0  0  0  0  0  0  0  0  0  0  0
  151.1563  138.8075  154.4174 C   0  0  0  0  0  0  0  0  0  0  0  0
  151.7075  137.4881  154.9496 C   0  0  0  0  0  0  0  0  0  0  0  0
  150.5577  136.9855  155.8168 C   0  0  0  0  0  0  0  0  0  0  0  0
  149.3072  137.4610  155.0699 C   0  0  0  0  0  0  0  0  0  0  0  0
  147.2713  136.2794  151.4640 H   0  0  0  0  0  0  0  0  0  0  0  0
  144.4912  135.5783  152.1921 H   0  0  0  0  0  0  0  0  0  0  0  0
  144.8126  135.9286  150.5147 H   0  0  0  0  0  0  0  0  0  0  0  0
  146.5595  134.1604  150.4193 H   0  0  0  0  0  0  0  0  0  0  0  0
  143.8873  133.2523  151.5318 H   0  0  0  0  0  0  0  0  0  0  0  0
  144.4093  133.2038  149.8442 H   0  0  0  0  0  0  0  0  0  0  0  0
  144.7591  131.0259  151.4622 H   0  0  0  0  0  0  0  0  0  0  0  0
  146.0181  131.4740  150.3089 H   0  0  0  0  0  0  0  0  0  0  0  0
  147.4762  133.8238  152.6241 H   0  0  0  0  0  0  0  0  0  0  0  0
  145.8709  133.7324  153.3523 H   0  0  0  0  0  0  0  0  0  0  0  0
  148.1453  137.8631  152.1681 H   0  0  0  0  0  0  0  0  0  0  0  0
  145.8273  140.5974  152.6990 H   0  0  0  0  0  0  0  0  0  0  0  0
  146.4791  142.6937  153.8287 H   0  0  0  0  0  0  0  0  0  0  0  0
  148.6538  142.7742  155.0723 H   0  0  0  0  0  0  0  0  0  0  0  0
  151.6445  139.1063  153.4895 H   0  0  0  0  0  0  0  0  0  0  0  0
  151.3192  139.5907  155.1589 H   0  0  0  0  0  0  0  0  0  0  0  0
  151.8842  136.7960  154.1249 H   0  0  0  0  0  0  0  0  0  0  0  0
  152.6404  137.6075  155.5011 H   0  0  0  0  0  0  0  0  0  0  0  0
  150.5769  135.9062  155.9692 H   0  0  0  0  0  0  0  0  0  0  0  0
  150.6039  137.4640  156.7960 H   0  0  0  0  0  0  0  0  0  0  0  0
  148.5173  137.7555  155.7626 H   0  0  0  0  0  0  0  0  0  0  0  0
  148.9234  136.6576  154.4407 H   0  0  0  0  0  0  0  0  0  0  0  0
  1  2  2  0  0  0  0
  2  3  1  0  0  0  0
  2 10  1  0  0  0  0
  3  4  1  0  0  0  0
  3 22  1  0  0  0  0
  4  5  1  0  0  0  0
  4 23  1  0  0  0  0
  4 24  1  0  0  0  0
  5  9  1  0  0  0  0
  5  6  1  0  0  0  0
  5 25  1  0  0  0  0
  6  7  1  0  0  0  0
  6 26  1  0  0  0  0
  6 27  1  0  0  0  0
  7  8  1  0  0  0  0
  7 28  1  0  0  0  0
  7 29  1  0  0  0  0
  8  9  1  0  0  0  0
  9 30  1  0  0  0  0
  9 31  1  0  0  0  0
 10 11  1  0  0  0  0
 10 32  1  0  0  0  0
 11 16  1  0  0  0  0
 11 12  2  0  0  0  0
 12 13  1  0  0  0  0
 12 33  1  0  0  0  0
 13 14  2  0  0  0  0
 13 34  1  0  0  0  0
 14 15  1  0  0  0  0
 14 35  1  0  0  0  0
 15 16  2  0  0  0  0
 16 17  1  0  0  0  0
 17 21  1  0  0  0  0
 17 18  1  0  0  0  0
 18 19  1  0  0  0  0
 18 36  1  0  0  0  0
 18 37  1  0  0  0  0
 19 20  1  0  0  0  0
 19 38  1  0  0  0  0
 19 39  1  0  0  0  0
 20 21  1  0  0  0  0
 20 40  1  0  0  0  0
 20 41  1  0  0  0  0
 21 42  1  0  0  0  0
 21 43  1  0  0  0  0
M  END
> <s_m_source_file>
AV-unprocessed.smi

> <i_m_source_file_index>
1426

> <i_lp_mmshare_version>
43012

> <i_f3d_flags>
0

> <s_epik_input>
W0NIMl0xT1tDSDJdW0NIMl1bQ0BIXTFbQ0gyXVtOSF1DKD1PKVtOSF1jMltjSF1bY0hdW2NIXW5jMk4zW0NIMl1bQ0gyXVtDSDJdW0NIMl0z

> <s_epik_cmdline>
J2VwaWtfcHl0aG9uJywgJy1waCcsICc3LjAnLCAnLXRuJywgJzgnLCAnLW1hJywgJzIwMCcsICctbWV0YWxfYmluZGluZycsICctaW1hZScsICc8aW5maWxlLm1hZT4nLCAnLW9tYWUnLCAnPG91dGZpbGUubWFlPic=

> <r_lp_tautomer_probability>
1

> <r_epik_Ionization_Penalty>
0.0999657

> <r_epik_Ionization_Penalty_Charging>
0

> <r_epik_Ionization_Penalty_Neutral>
0.0999657

> <r_epik_State_Penalty>
0.0894442

> <r_epik_Charging_Adjusted_Penalty>
0.0894442

> <i_epik_Tot_Q>
0

> <i_epik_Tot_abs_Q>
0

> <r_epik_Metal_State_Penalty>
0.076486

> <b_epik_Metal_Only>
0

> <s_lp_Force_Field>
OPLS_2005

> <r_lp_Energy>
47.443

> <b_lp_Chiralities_Consistent>
1

> <s_lp_Variant>
AV-unprocessed.smi:1426-1

> <Gold.Version>
5.8.1

> <Gold.Id.Protein>
6NUR|6NUR_protein|mol2

> <Gold.PLP.Fitness>
39.9221

> <Gold.PLP.PLP>
-33.5391

> <Gold.PLP.part.hbond>
-2.5509

> <Gold.PLP.part.metal>
0.0000

> <Gold.PLP.part.buried>
-1.5862

> <Gold.PLP.part.nonpolar>
-31.8156

> <Gold.PLP.part.repulsive>
2.4467

> <Gold.PLP.ligand.clash>
0.0000

> <Gold.PLP.ligand.torsion>
0.9627

> <Gold.PLP.Chemscore.Hbond>
1.6640

> <Gold.PLP.Chemscore.CHOScore>
1.0000

> <Gold.PLP.Chemscore.Metal>
0.0000

> <Gold.Chemscore.Hbonds>
donor molecule, donor type, donor heavy atom, donor atom, acceptor molecule, acceptor atom, score
      L1  H     3    22       P1  7948  0.96
      L1  H    10    32       P1  7948  0.86
      L1  C    14    35       P1  8028  1.00

> <Gold.PLP.Chemscore.Internal.Correction>
0.3164

> <Gold.Rescore>
     Score         DG    S(hbond)    S(metal)    S(lipo)     H(rot)  DE(clash)    DE(int)     intcor
     15.42     -16.37       1.75        0.00      73.31       1.38       0.05       0.90       ----

> <Gold.Chemscore.Fitness>
15.4232

> <Gold.Chemscore.DG>
-16.3730

> <Gold.Chemscore.ZeroCoef>
-5.4800

> <Gold.Chemscore.Hbond>
1.7507

> <Gold.Chemscore.Metal>
0.0000

> <Gold.Chemscore.Lipo>
73.3099

> <Gold.Chemscore.Internal_Hbond>
0.0000

> <Gold.Chemscore.DEClash>
0.0547

> <Gold.Chemscore.DEInternal>
0.8951

> <Gold.Chemscore.Rot>
1.3796

> <Gold.Chemscore.Internal.Correction>
   9.000000E+99

> <Gold.Chemscore.Hbonds>
donor molecule, donor type, donor heavy atom, donor atom, acceptor molecule, acceptor atom, score
      L1  H     3    22       P1  7948  0.92
      L1  H    10    32       P1  7948  0.85

> <Gold.Chemscore.Hbond.Weighted>
-5.8474

> <Gold.Chemscore.Metal.Weighted>
-0.0000

> <Gold.Chemscore.Lipo.Weighted>
-8.5773

> <Gold.Chemscore.Internal_Hbond.Weighted>
0.0000

> <Gold.Chemscore.DEClash.Weighted>
0.0547

> <Gold.Chemscore.DEInternal.Weighted>
0.8951

> <Gold.Chemscore.Rot.Weighted>
3.5317

> <Gold.Chemscore.Internal.Correction.Weighted>
   9.000000E+99

> <Gold.Protein.RotatedTorsions>
[ 6907 6896 6895 6894 ] final   82.98 input  -60.11 | X-H torsion
[ 7974 7965 7964 7962 ] final  -94.94 input  175.53 | X-H torsion
[ 8008 7997 7996 7995 ] final  -40.84 input   59.86 | X-H torsion
[ 10167 10162 10161 10158 ] final -177.39 input  -65.29 | X-H torsion
[ 10718 10713 10712 10709 ] final -139.53 input   66.30 | X-H torsion
[ 10763 10752 10751 10750 ] final  -36.76 input  -60.55 | X-H torsion
[ 11005 11000 10999 10996 ] final  -21.06 input  -57.11 | X-H torsion

> <Gold.Protein.ActiveResidues>
 VAL166  LYS551  ARG553  GLY616  TRP617  ASP618  TYR619  PRO620  LYS621  CYS622 
 ASP623  PHE694  ASN695  SER759  ASP760  ASP761  ALA762  ILE779  LEU786  VAL792 
 PHE793  MET794  SER795  GLU796  ALA797  LYS798  CYS799  TRP800  GLU811  SER814 

> <Gold.Protein.RotatedAtoms>
  152.5314  134.2966  159.9062 H   0  0  0  0  0  0  0  0  0  0  0  0  # atno 6907 bound_to 6896
  151.2917  133.4156  159.2641 H   0  0  0  0  0  0  0  0  0  0  0  0  # atno 6908 bound_to 6896
  151.0195  134.9474  159.8108 H   0  0  0  0  0  0  0  0  0  0  0  0  # atno 6909 bound_to 6896
  145.3667  140.9499  143.2470 H   0  0  0  0  0  0  0  0  0  0  0  0  # atno 7974 bound_to 7965
  154.4008  140.1515  156.3093 H   0  0  0  0  0  0  0  0  0  0  0  0  # atno 8008 bound_to 7997
  155.8629  140.3452  155.5747 H   0  0  0  0  0  0  0  0  0  0  0  0  # atno 8009 bound_to 7997
  155.7859  140.0850  157.2025 H   0  0  0  0  0  0  0  0  0  0  0  0  # atno 8010 bound_to 7997
  139.5483  144.2178  152.1029 H   0  0  0  0  0  0  0  0  0  0  0  0  # atno 10167 bound_to 10162
  156.3118  130.7486  151.1563 H   0  0  0  0  0  0  0  0  0  0  0  0  # atno 10718 bound_to 10713
  153.8850  135.6818  153.4764 H   0  0  0  0  0  0  0  0  0  0  0  0  # atno 10763 bound_to 10752
  153.1212  135.4739  154.9197 H   0  0  0  0  0  0  0  0  0  0  0  0  # atno 10764 bound_to 10752
  154.7650  135.3221  154.8256 H   0  0  0  0  0  0  0  0  0  0  0  0  # atno 10765 bound_to 10752
  140.8524  133.7847  155.9981 H   0  0  0  0  0  0  0  0  0  0  0  0  # atno 11005 bound_to 11000
  144.8606  139.5182  143.6814 LP  0  0  0  0  0  0  0  0  0  0  0  0  # atno 17320 bound_to 7965
  146.2903  139.7121  142.9165 LP  0  0  0  0  0  0  0  0  0  0  0  0  # atno 17321 bound_to 7965
  140.1668  144.4973  150.6601 LP  0  0  0  0  0  0  0  0  0  0  0  0  # atno 17342 bound_to 10162
  140.6737  143.2296  151.5560 LP  0  0  0  0  0  0  0  0  0  0  0  0  # atno 17343 bound_to 10162
  157.7393  131.0531  150.5242 LP  0  0  0  0  0  0  0  0  0  0  0  0  # atno 17370 bound_to 10713
  156.5383  130.4202  149.6166 LP  0  0  0  0  0  0  0  0  0  0  0  0  # atno 17371 bound_to 10713
  140.8775  134.2652  157.5161 LP  0  0  0  0  0  0  0  0  0  0  0  0  # atno 17394 bound_to 11000
  139.8704  134.9598  156.4344 LP  0  0  0  0  0  0  0  0  0  0  0  0  # atno 17395 bound_to 11000

$$$$
