#       Name:                AV-unprocessed.smi:209
#       Creating user name   scv26
#       Creation time:       Thu Mar 26 19:52:39 2020


#       File generated by GOLD software.
#

@<TRIPOS>MOLECULE
AV-unprocessed.smi:209
    58    62     1
SMALL
NO_CHARGES


@<TRIPOS>ATOM
      1 ****        -4.1614   4.5641  -1.0322 O.2            1 S1                 0.0000
      2 ****        -3.7714   3.7749  -0.1743 C.2            1 S1                 0.0000
      3 ****        -4.3070   2.5859   0.0966 N.am           1 S1                 0.0000
      4 ****        -3.5686   1.8441   1.1045 C.3            1 S1                 0.0000
      5 ****        -2.2351   2.6169   1.2597 C.3            1 S1                 0.0000
      6 ****        -2.6065   4.0382   0.7697 C.3            1 S1                 0.0000
      7 ****        -1.4399   4.8750   0.2031 C.3            1 S1                 0.0000
      8 ****        -0.5061   4.0437  -0.6806 C.3            1 S1                 0.0000
      9 ****        -0.0316   2.8071   0.0881 C.3            1 S1                 0.0000
     10 ****        -1.1726   1.9762   0.4620 N.3            1 S1                 0.0000
     11 ****        -0.7969   0.7160   0.8007 C.ar           1 S1                 0.0000
     12 ****        -0.8830   0.3014   2.0932 N.ar           1 S1                 0.0000
     13 ****        -0.5072  -0.9358   2.4305 C.ar           1 S1                 0.0000
     14 ****        -0.0250  -1.9038   1.6488 N.ar           1 S1                 0.0000
     15 ****         0.0622  -1.4941   0.3510 C.ar           1 S1                 0.0000
     16 ****        -0.2985  -0.2135  -0.1542 C.ar           1 S1                 0.0000
     17 ****        -0.0810  -0.1672  -1.5257 N.2            1 S1                 0.0000
     18 ****         0.3874  -1.3509  -1.8139 C.2            1 S1                 0.0000
     19 ****         0.5141  -2.2094  -0.7448 N.pl3          1 S1                 0.0000
     20 ****         1.0004  -3.5806  -0.7776 C.3            1 S1                 0.0000
     21 ****         2.5360  -3.6992  -0.7810 C.3            1 S1                 0.0000
     22 ****         3.0826  -3.0622   0.5127 C.3            1 S1                 0.0000
     23 ****         4.4821  -3.2170   0.6426 O.3            1 S1                 0.0000
     24 ****         3.0738  -5.0939  -1.1317 C.3            1 S1                 0.0000
     25 ****         3.9112  -4.5724  -2.1871 O.3            1 S1                 0.0000
     26 ****         3.2443  -3.2950  -2.0819 C.3            1 S1                 0.0000
     27 ****        -1.9278   2.6560   2.3055 H              1 S1                 0.0000
     28 ****        -3.0393   4.5909   1.6050 H              1 S1                 0.0000
     29 ****        -5.0985   2.1967  -0.3952 H              1 S1                 0.0000
     30 ****        -4.1358   1.8702   2.0356 H              1 S1                 0.0000
     31 ****        -3.4545   0.7990   0.8152 H              1 S1                 0.0000
     32 ****        -1.8141   5.7356  -0.3530 H              1 S1                 0.0000
     33 ****        -0.8660   5.2844   1.0353 H              1 S1                 0.0000
     34 ****        -1.0193   3.7423  -1.5947 H              1 S1                 0.0000
     35 ****         0.3501   4.6455  -0.9860 H              1 S1                 0.0000
     36 ****         0.6749   2.2525  -0.5300 H              1 S1                 0.0000
     37 ****         0.5057   3.1054   0.9895 H              1 S1                 0.0000
     38 ****        -0.6056  -1.1850   3.4767 H              1 S1                 0.0000
     39 ****         0.6525  -1.6307  -2.8230 H              1 S1                 0.0000
     40 ****         0.5784  -4.1177   0.0728 H              1 S1                 0.0000
     41 ****         0.5776  -4.0570  -1.6630 H              1 S1                 0.0000
     42 ****         2.8748  -1.9927   0.5434 H              1 S1                 0.0000
     43 ****         2.6104  -3.5026   1.3914 H              1 S1                 0.0000
     44 ****         4.7577  -2.8026   1.4460 H              1 S1                 0.0000
     45 ****         3.6473  -5.5701  -0.3358 H              1 S1                 0.0000
     46 ****         2.3162  -5.7767  -1.5195 H              1 S1                 0.0000
     47 ****         2.5713  -3.1263  -2.9231 H              1 S1                 0.0000
     48 ****         3.9429  -2.4648  -1.9720 H              1 S1                 0.0000
     49 ****        -3.7051   5.4469  -1.1439 LP             1 S1                 0.0000
     50 ****        -4.9350   4.3233  -1.6184 LP             1 S1                 0.0000
     51 ****        -1.7033   1.8578  -0.3772 LP             1 S1                 0.0000
     52 ****        -1.2290   0.9251   2.7941 LP             1 S1                 0.0000
     53 ****         0.2384  -2.8124   1.9729 LP             1 S1                 0.0000
     54 ****        -0.2456   0.5974  -2.1488 LP             1 S1                 0.0000
     55 ****         4.9422  -2.7864  -0.1338 LP             1 S1                 0.0000
     56 ****         4.7125  -4.1897   0.6689 LP             1 S1                 0.0000
     57 ****         3.7871  -5.0267  -3.0693 LP             1 S1                 0.0000
     58 ****         4.8847  -4.5450  -1.9603 LP             1 S1                 0.0000
@<TRIPOS>BOND
    1    1    2 2     
    2    2    6 1     
    3    2    3 am    
    4    3    4 1     
    5    3   29 1     
    6    4    5 1     
    7    4   30 1     
    8    4   31 1     
    9    5   27 1     
   10    5   10 1     
   11    5    6 1     
   12    6   28 1     
   13    6    7 1     
   14    7    8 1     
   15    7   32 1     
   16    7   33 1     
   17    8    9 1     
   18    8   34 1     
   19    8   35 1     
   20    9   10 1     
   21    9   36 1     
   22    9   37 1     
   23   10   11 1     
   24   11   16 ar    
   25   11   12 ar    
   26   12   13 ar    
   27   13   14 ar    
   28   13   38 1     
   29   14   15 ar    
   30   15   19 1     
   31   15   16 ar    
   32   16   17 1     
   33   17   18 2     
   34   18   19 1     
   35   18   39 1     
   36   19   20 1     
   37   20   21 1     
   38   20   40 1     
   39   20   41 1     
   40   21   26 1     
   41   21   22 1     
   42   21   24 1     
   43   22   23 1     
   44   22   42 1     
   45   22   43 1     
   46   23   44 1     
   47   24   25 1     
   48   24   45 1     
   49   24   46 1     
   50   25   26 1     
   51   26   47 1     
   52   26   48 1     
   53    1   49 1     
   54    1   50 1     
   55   10   51 1     
   56   12   52 1     
   57   14   53 1     
   58   17   54 1     
   59   23   55 1     
   60   23   56 1     
   61   25   57 1     
   62   25   58 1     
@<TRIPOS>SUBSTRUCTURE
      1 S1             1
@<TRIPOS>SET
LONE_PAIRS      STATIC     ATOMS    <user>   **** ""
10 49 50 51 52 53 54 55 56 57 58
DONOR_HYDROGENS      STATIC     ATOMS    <user>   **** ""
2 29 44
ATOM$BLUE        STATIC     ATOMS    COLORGROUP SYSTEM
10 49 50 51 52 53 54 55 56 57 58
ATOM$RED        STATIC     ATOMS    COLORGROUP SYSTEM
2 29 44
