AV-unprocessed.smi:625|AV-procd|sdf|3101|dock6
  -GOLD-   22720 0 23D 1   1.00000     0.00000
 Structure written by MMmdl.
 49 51  0  0  0  0  0  0  0  0  1 V2000
  145.6062  129.7755  161.5578 C   0  0  0  0  0  0  0  0  0  0  0  0
  146.0052  131.1660  161.7162 N   0  0  0  0  0  0  0  0  0  0  0  0
  146.8745  131.8041  160.9153 C   0  0  0  0  0  0  0  0  0  0  0  0
  147.4112  131.2379  159.9615 O   0  0  0  0  0  0  0  0  0  0  0  0
  147.1038  133.2026  161.2861 C   0  0  0  0  0  0  0  0  0  0  0  0
  146.6188  133.7884  162.5270 C   0  0  0  0  0  0  0  0  0  0  0  0
  146.8280  135.0920  162.7972 C   0  0  0  0  0  0  0  0  0  0  0  0
  147.5444  135.9688  161.8664 C   0  0  0  0  0  0  0  0  0  0  0  0
  147.7105  137.1668  162.0951 O   0  0  0  0  0  0  0  0  0  0  0  0
  148.0055  135.3726  160.7256 N   0  0  0  0  0  0  0  0  0  0  0  0
  148.7161  136.1507  159.6940 C   0  0  0  0  0  0  0  0  0  0  0  0
  147.9444  137.3788  159.1801 C   0  0  0  0  0  0  0  0  0  0  0  0
  146.8493  137.6489  159.6714 O   0  0  0  0  0  0  0  0  0  0  0  0
  148.5157  138.1214  158.2169 N   0  0  0  0  0  0  0  0  0  0  0  0
  147.9994  139.3678  157.6620 C   0  0  2  0  0  0  0  0  0  0  0  0
  147.1287  139.0706  156.4295 C   0  0  0  0  0  0  0  0  0  0  0  0
  149.1956  140.2913  157.3313 C   0  0  2  0  0  0  0  0  0  0  0  0
  148.8311  141.5706  156.5413 C   0  0  0  0  0  0  0  0  0  0  0  0
  149.8603  141.5744  155.3962 C   0  0  2  0  0  0  0  0  0  0  0  0
  149.4728  140.4937  154.3703 C   0  0  0  0  0  0  0  0  0  0  0  0
  149.8273  139.1881  155.1052 C   0  0  0  0  0  0  0  0  0  0  0  0
  150.3359  139.6905  156.4726 C   0  0  1  0  0  0  0  0  0  0  0  0
  151.0852  140.9539  156.0592 C   0  0  0  0  0  0  0  0  0  0  0  0
  147.7787  134.0105  160.4457 C   0  0  0  0  0  0  0  0  0  0  0  0
  144.8834  129.5064  162.3277 H   0  0  0  0  0  0  0  0  0  0  0  0
  146.4668  129.1117  161.6507 H   0  0  0  0  0  0  0  0  0  0  0  0
  145.1432  129.6122  160.5837 H   0  0  0  0  0  0  0  0  0  0  0  0
  145.5952  131.6791  162.4829 H   0  0  0  0  0  0  0  0  0  0  0  0
  146.0845  133.1976  163.2563 H   0  0  0  0  0  0  0  0  0  0  0  0
  146.4584  135.5041  163.7246 H   0  0  0  0  0  0  0  0  0  0  0  0
  149.6932  136.4800  160.0510 H   0  0  0  0  0  0  0  0  0  0  0  0
  148.9334  135.5070  158.8405 H   0  0  0  0  0  0  0  0  0  0  0  0
  149.4140  137.8182  157.8696 H   0  0  0  0  0  0  0  0  0  0  0  0
  147.3799  139.8424  158.4234 H   0  0  0  0  0  0  0  0  0  0  0  0
  146.6946  139.9838  156.0227 H   0  0  0  0  0  0  0  0  0  0  0  0
  146.3023  138.4049  156.6803 H   0  0  0  0  0  0  0  0  0  0  0  0
  147.7099  138.5958  155.6382 H   0  0  0  0  0  0  0  0  0  0  0  0
  149.6376  140.6038  158.2796 H   0  0  0  0  0  0  0  0  0  0  0  0
  147.8084  141.5633  156.1613 H   0  0  0  0  0  0  0  0  0  0  0  0
  148.9400  142.4537  157.1727 H   0  0  0  0  0  0  0  0  0  0  0  0
  150.0205  142.5587  154.9551 H   0  0  0  0  0  0  0  0  0  0  0  0
  148.4190  140.5434  154.0939 H   0  0  0  0  0  0  0  0  0  0  0  0
  150.0629  140.5925  153.4584 H   0  0  0  0  0  0  0  0  0  0  0  0
  148.9861  138.5004  155.1779 H   0  0  0  0  0  0  0  0  0  0  0  0
  150.6240  138.6644  154.5751 H   0  0  0  0  0  0  0  0  0  0  0  0
  150.9466  138.9612  157.0055 H   0  0  0  0  0  0  0  0  0  0  0  0
  151.9048  140.7650  155.3635 H   0  0  0  0  0  0  0  0  0  0  0  0
  151.4611  141.5348  156.9036 H   0  0  0  0  0  0  0  0  0  0  0  0
  148.1729  133.6837  159.4930 H   0  0  0  0  0  0  0  0  0  0  0  0
  1  2  1  0  0  0  0
  1 25  1  0  0  0  0
  1 26  1  0  0  0  0
  1 27  1  0  0  0  0
  2  3  1  0  0  0  0
  2 28  1  0  0  0  0
  3  4  2  0  0  0  0
  3  5  1  0  0  0  0
  5 24  2  0  0  0  0
  5  6  1  0  0  0  0
  6  7  2  0  0  0  0
  6 29  1  0  0  0  0
  7  8  1  0  0  0  0
  7 30  1  0  0  0  0
  8  9  2  0  0  0  0
  8 10  1  0  0  0  0
 10 11  1  0  0  0  0
 10 24  1  0  0  0  0
 11 12  1  0  0  0  0
 11 31  1  0  0  0  0
 11 32  1  0  0  0  0
 12 13  2  0  0  0  0
 12 14  1  0  0  0  0
 14 15  1  0  0  0  0
 14 33  1  0  0  0  0
 15 16  1  0  0  0  0
 15 17  1  0  0  0  0
 15 34  1  0  0  0  0
 16 35  1  0  0  0  0
 16 36  1  0  0  0  0
 16 37  1  0  0  0  0
 17 22  1  0  0  0  0
 17 18  1  0  0  0  0
 17 38  1  0  0  0  0
 18 19  1  0  0  0  0
 18 39  1  0  0  0  0
 18 40  1  0  0  0  0
 19 23  1  0  0  0  0
 19 20  1  0  0  0  0
 19 41  1  0  0  0  0
 20 21  1  0  0  0  0
 20 42  1  0  0  0  0
 20 43  1  0  0  0  0
 21 22  1  0  0  0  0
 21 44  1  0  0  0  0
 21 45  1  0  0  0  0
 22 23  1  0  0  0  0
 22 46  1  0  0  0  0
 23 47  1  0  0  0  0
 23 48  1  0  0  0  0
 24 49  1  0  0  0  0
M  END
> <s_m_source_file>
AV-unprocessed.smi

> <i_m_source_file_index>
625

> <i_lp_mmshare_version>
43012

> <i_f3d_flags>
0

> <s_epik_input>
W0NIM11bTkhdQyg9TyljMVtjSF1bY0hdYyg9TyluKFtjSF0xKVtDSDJdQyg9TylbTkhdW0NASF0oW0NIM10pW0NASF0oW0NIMl1bQ0BIXTIzKVtDQEhdKFtDSDJdMylbQ0gyXVtDSDJdMg==

> <s_epik_cmdline>
J2VwaWtfcHl0aG9uJywgJy1waCcsICc3LjAnLCAnLXRuJywgJzgnLCAnLW1hJywgJzIwMCcsICctbWV0YWxfYmluZGluZycsICctaW1hZScsICc8aW5maWxlLm1hZT4nLCAnLW9tYWUnLCAnPG91dGZpbGUubWFlPic=

> <r_lp_tautomer_probability>
1

> <r_epik_Ionization_Penalty>
3.7129e-07

> <r_epik_Ionization_Penalty_Charging>
5.04114e-08

> <r_epik_Ionization_Penalty_Neutral>
3.20879e-07

> <r_epik_State_Penalty>
-0

> <r_epik_Charging_Adjusted_Penalty>
5.04114e-08

> <i_epik_Tot_Q>
0

> <i_epik_Tot_abs_Q>
0

> <r_epik_Metal_State_Penalty>
-0

> <b_epik_Metal_Only>
0

> <s_lp_Force_Field>
OPLS_2005

> <r_lp_Energy>
63.5822

> <b_lp_Chiralities_Consistent>
1

> <s_lp_Variant>
AV-unprocessed.smi:625-1

> <Gold.Version>
5.8.1

> <Gold.Id.Protein>
6NUR|6NUR_protein|mol2

> <Gold.PLP.Fitness>
41.8872

> <Gold.PLP.PLP>
-37.0038

> <Gold.PLP.part.hbond>
-3.0000

> <Gold.PLP.part.metal>
0.0000

> <Gold.PLP.part.buried>
-2.6544

> <Gold.PLP.part.nonpolar>
-32.2479

> <Gold.PLP.part.repulsive>
0.1409

> <Gold.PLP.ligand.clash>
0.0000

> <Gold.PLP.ligand.torsion>
0.5207

> <Gold.PLP.Chemscore.Hbond>
1.9440

> <Gold.PLP.Chemscore.CHOScore>
0.0000

> <Gold.PLP.Chemscore.Metal>
0.0000

> <Gold.Chemscore.Hbonds>
donor molecule, donor type, donor heavy atom, donor atom, acceptor molecule, acceptor atom, score
      P1  H  6931  6943       L1     9  0.99
      P1  H  6934  6947       L1    13  0.94

> <Gold.PLP.Chemscore.Internal.Correction>
0.0928

> <Gold.Rescore>
     Score         DG    S(hbond)    S(metal)    S(lipo)     H(rot)  DE(clash)    DE(int)     intcor
     15.10     -16.34       1.81        0.00      77.63       1.67       0.23       1.01       ----

> <Gold.Chemscore.Fitness>
15.0992

> <Gold.Chemscore.DG>
-16.3374

> <Gold.Chemscore.ZeroCoef>
-5.4800

> <Gold.Chemscore.Hbond>
1.8119

> <Gold.Chemscore.Metal>
0.0000

> <Gold.Chemscore.Lipo>
77.6327

> <Gold.Chemscore.Internal_Hbond>
0.0000

> <Gold.Chemscore.DEClash>
0.2270

> <Gold.Chemscore.DEInternal>
1.0111

> <Gold.Chemscore.Rot>
1.6709

> <Gold.Chemscore.Internal.Correction>
   9.000000E+99

> <Gold.Chemscore.Hbonds>
donor molecule, donor type, donor heavy atom, donor atom, acceptor molecule, acceptor atom, score
      P1  H  6931  6943       L1     9  0.94
      P1  H  6934  6947       L1    13  0.50

> <Gold.Chemscore.Hbond.Weighted>
-6.0517

> <Gold.Chemscore.Metal.Weighted>
-0.0000

> <Gold.Chemscore.Lipo.Weighted>
-9.0830

> <Gold.Chemscore.Internal_Hbond.Weighted>
0.0000

> <Gold.Chemscore.DEClash.Weighted>
0.2270

> <Gold.Chemscore.DEInternal.Weighted>
1.0111

> <Gold.Chemscore.Rot.Weighted>
4.2774

> <Gold.Chemscore.Internal.Correction.Weighted>
   9.000000E+99

> <Gold.Protein.RotatedTorsions>
[ 6907 6896 6895 6894 ] final   76.06 input  -60.11 | X-H torsion
[ 7974 7965 7964 7962 ] final   13.68 input  175.53 | X-H torsion
[ 8008 7997 7996 7995 ] final -102.12 input   59.86 | X-H torsion
[ 10167 10162 10161 10158 ] final  168.83 input  -65.29 | X-H torsion
[ 10718 10713 10712 10709 ] final -112.24 input   66.30 | X-H torsion
[ 10763 10752 10751 10750 ] final  -62.66 input  -60.55 | X-H torsion
[ 11005 11000 10999 10996 ] final  154.17 input  -57.11 | X-H torsion

> <Gold.Protein.ActiveResidues>
 VAL166  LYS551  ARG553  GLY616  TRP617  ASP618  TYR619  PRO620  LYS621  CYS622 
 ASP623  PHE694  ASN695  SER759  ASP760  ASP761  ALA762  ILE779  LEU786  VAL792 
 PHE793  MET794  SER795  GLU796  ALA797  LYS798  CYS799  TRP800  GLU811  SER814 

> <Gold.Protein.RotatedAtoms>
  152.5055  134.4026  159.9421 H   0  0  0  0  0  0  0  0  0  0  0  0  # atno 6907 bound_to 6896
  151.3990  133.3757  159.2737 H   0  0  0  0  0  0  0  0  0  0  0  0  # atno 6908 bound_to 6896
  150.9376  134.8808  159.7650 H   0  0  0  0  0  0  0  0  0  0  0  0  # atno 6909 bound_to 6896
  146.2323  139.9153  142.8518 H   0  0  0  0  0  0  0  0  0  0  0  0  # atno 7974 bound_to 7965
  154.8521  140.0430  157.1611 H   0  0  0  0  0  0  0  0  0  0  0  0  # atno 8008 bound_to 7997
  154.8931  140.2989  155.5339 H   0  0  0  0  0  0  0  0  0  0  0  0  # atno 8009 bound_to 7997
  156.2996  140.2390  156.3949 H   0  0  0  0  0  0  0  0  0  0  0  0  # atno 8010 bound_to 7997
  139.4977  144.3772  151.9661 H   0  0  0  0  0  0  0  0  0  0  0  0  # atno 10167 bound_to 10162
  156.0694  130.5910  150.8482 H   0  0  0  0  0  0  0  0  0  0  0  0  # atno 10718 bound_to 10713
  154.3032  135.6230  153.5434 H   0  0  0  0  0  0  0  0  0  0  0  0  # atno 10763 bound_to 10752
  152.9838  135.5683  154.5260 H   0  0  0  0  0  0  0  0  0  0  0  0  # atno 10764 bound_to 10752
  154.4895  135.2866  155.1484 H   0  0  0  0  0  0  0  0  0  0  0  0  # atno 10765 bound_to 10752
  140.1465  134.8704  157.2399 H   0  0  0  0  0  0  0  0  0  0  0  0  # atno 11005 bound_to 11000
  145.2189  140.9927  143.4057 LP  0  0  0  0  0  0  0  0  0  0  0  0  # atno 17320 bound_to 7965
  144.9627  139.3963  143.6348 LP  0  0  0  0  0  0  0  0  0  0  0  0  # atno 17321 bound_to 7965
  140.3209  144.3429  150.6010 LP  0  0  0  0  0  0  0  0  0  0  0  0  # atno 17342 bound_to 10162
  140.5724  143.2179  151.7576 LP  0  0  0  0  0  0  0  0  0  0  0  0  # atno 17343 bound_to 10162
  157.5756  131.0946  150.9351 LP  0  0  0  0  0  0  0  0  0  0  0  0  # atno 17370 bound_to 10713
  156.9558  130.5436  149.5284 LP  0  0  0  0  0  0  0  0  0  0  0  0  # atno 17371 bound_to 10713
  140.2657  134.3518  155.7391 LP  0  0  0  0  0  0  0  0  0  0  0  0  # atno 17394 bound_to 11000
  141.2193  133.7395  156.9148 LP  0  0  0  0  0  0  0  0  0  0  0  0  # atno 17395 bound_to 11000

$$$$
