AV-unprocessed.smi:3113|AV-procd|sdf|11854|dock7
  -GOLD-   2272017233D 1   1.00000     0.00000
 Structure written by MMmdl.
 34 35  0  0  0  0  0  0  0  0  1 V2000
  153.3854  142.3427  161.9507 C   0  0  0  0  0  0  0  0  0  0  0  0
  153.9537  141.7882  160.7699 C   0  0  0  0  0  0  0  0  0  0  0  0
  153.5674  142.4193  159.6728 N   0  0  0  0  0  0  0  0  0  0  0  0
  152.7420  143.3927  160.1151 N   0  0  0  0  0  0  0  0  0  0  0  0
  152.1173  144.2936  159.1663 C   0  0  0  0  0  0  0  0  0  0  0  0
  150.8912  143.6507  158.5033 C   0  0  0  0  0  0  0  0  0  0  0  0
  151.2730  142.8910  157.3182 N   0  0  0  0  0  0  0  0  0  0  0  0
  150.4952  141.6690  157.1430 C   0  0  0  0  0  0  0  0  0  0  0  0
  150.8129  140.9974  155.7992 C   0  0  2  0  0  0  0  0  0  0  0  0
  149.6322  140.1427  155.2991 C   0  0  0  0  0  0  0  0  0  0  0  0
  150.0055  139.4113  154.0046 C   0  0  0  0  0  0  0  0  0  0  0  0
  151.3033  138.6236  154.2123 C   0  0  0  0  0  0  0  0  0  0  0  0
  152.3995  139.5402  154.7783 C   0  0  0  0  0  0  0  0  0  0  0  0
  151.9467  140.1511  155.9829 O   0  0  0  0  0  0  0  0  0  0  0  0
  152.6150  143.3710  161.4879 C   0  0  0  0  0  0  0  0  0  0  0  0
  153.5224  142.0335  162.9764 H   0  0  0  0  0  0  0  0  0  0  0  0
  154.6304  140.9515  160.6781 H   0  0  0  0  0  0  0  0  0  0  0  0
  151.8313  145.2058  159.6916 H   0  0  0  0  0  0  0  0  0  0  0  0
  152.8568  144.5777  158.4158 H   0  0  0  0  0  0  0  0  0  0  0  0
  150.3921  142.9957  159.2187 H   0  0  0  0  0  0  0  0  0  0  0  0
  150.1727  144.4254  158.2327 H   0  0  0  0  0  0  0  0  0  0  0  0
  152.2604  142.6592  157.3634 H   0  0  0  0  0  0  0  0  0  0  0  0
  150.6859  140.9713  157.9594 H   0  0  0  0  0  0  0  0  0  0  0  0
  149.4329  141.9129  157.1832 H   0  0  0  0  0  0  0  0  0  0  0  0
  151.0409  141.7642  155.0560 H   0  0  0  0  0  0  0  0  0  0  0  0
  149.3548  139.4147  156.0628 H   0  0  0  0  0  0  0  0  0  0  0  0
  148.7555  140.7692  155.1313 H   0  0  0  0  0  0  0  0  0  0  0  0
  149.1993  138.7449  153.6973 H   0  0  0  0  0  0  0  0  0  0  0  0
  150.1392  140.1352  153.1998 H   0  0  0  0  0  0  0  0  0  0  0  0
  151.1251  137.7998  154.9044 H   0  0  0  0  0  0  0  0  0  0  0  0
  151.6296  138.1787  153.2720 H   0  0  0  0  0  0  0  0  0  0  0  0
  153.2976  138.9612  154.9934 H   0  0  0  0  0  0  0  0  0  0  0  0
  152.6804  140.3056  154.0535 H   0  0  0  0  0  0  0  0  0  0  0  0
  151.9930  144.0796  162.0148 H   0  0  0  0  0  0  0  0  0  0  0  0
  1 15  2  0  0  0  0
  1  2  1  0  0  0  0
  1 16  1  0  0  0  0
  2  3  2  0  0  0  0
  2 17  1  0  0  0  0
  3  4  1  0  0  0  0
  4  5  1  0  0  0  0
  4 15  1  0  0  0  0
  5  6  1  0  0  0  0
  5 18  1  0  0  0  0
  5 19  1  0  0  0  0
  6  7  1  0  0  0  0
  6 20  1  0  0  0  0
  6 21  1  0  0  0  0
  7  8  1  0  0  0  0
  7 22  1  0  0  0  0
  8  9  1  0  0  0  0
  8 23  1  0  0  0  0
  8 24  1  0  0  0  0
  9 14  1  0  0  0  0
  9 10  1  0  0  0  0
  9 25  1  0  0  0  0
 10 11  1  0  0  0  0
 10 26  1  0  0  0  0
 10 27  1  0  0  0  0
 11 12  1  0  0  0  0
 11 28  1  0  0  0  0
 11 29  1  0  0  0  0
 12 13  1  0  0  0  0
 12 30  1  0  0  0  0
 12 31  1  0  0  0  0
 13 14  1  0  0  0  0
 13 32  1  0  0  0  0
 13 33  1  0  0  0  0
 15 34  1  0  0  0  0
M  END
> <s_m_source_file>
AV-unprocessed.smi

> <i_m_source_file_index>
3113

> <i_lp_mmshare_version>
43012

> <i_f3d_flags>
0

> <s_epik_input>
W2NIXTFbY0hdW2NIXW5uMVtDSDJdW0NIMl1bTkhdW0NIMl1bQ0BASF0yW0NIMl1bQ0gyXVtDSDJdW0NIMl1PMg==

> <s_epik_cmdline>
J2VwaWtfcHl0aG9uJywgJy1waCcsICc3LjAnLCAnLXRuJywgJzgnLCAnLW1hJywgJzIwMCcsICctbWV0YWxfYmluZGluZycsICctaW1hZScsICc8aW5maWxlLm1hZT4nLCAnLW9tYWUnLCAnPG91dGZpbGUubWFlPic=

> <r_lp_tautomer_probability>
1

> <r_epik_Ionization_Penalty>
2.521

> <r_epik_Ionization_Penalty_Charging>
0

> <r_epik_Ionization_Penalty_Neutral>
2.521

> <r_epik_State_Penalty>
2.68614

> <r_epik_Charging_Adjusted_Penalty>
2.68614

> <i_epik_Tot_Q>
0

> <i_epik_Tot_abs_Q>
0

> <r_epik_Metal_State_Penalty>
2.68493

> <b_epik_Metal_Only>
0

> <s_lp_Force_Field>
OPLS_2005

> <r_lp_Energy>
11.6104

> <b_lp_Chiralities_Consistent>
1

> <s_lp_Variant>
AV-unprocessed.smi:3113-3

> <Gold.Version>
5.8.1

> <Gold.Id.Protein>
6NUR|6NUR_protein|mol2

> <Gold.PLP.Fitness>
39.0890

> <Gold.PLP.PLP>
-41.0929

> <Gold.PLP.part.hbond>
0.0000

> <Gold.PLP.part.metal>
0.0000

> <Gold.PLP.part.buried>
-4.2877

> <Gold.PLP.part.nonpolar>
-36.5162

> <Gold.PLP.part.repulsive>
0.0000

> <Gold.PLP.ligand.clash>
0.0000

> <Gold.PLP.ligand.torsion>
1.0142

> <Gold.PLP.Chemscore.Hbond>
0.0000

> <Gold.PLP.Chemscore.CHOScore>
0.0000

> <Gold.PLP.Chemscore.Metal>
0.0000

> <Gold.PLP.Chemscore.Internal.Correction>
0.0246

> <Gold.Rescore>
     Score         DG    S(hbond)    S(metal)    S(lipo)     H(rot)  DE(clash)    DE(int)     intcor
     12.65     -13.35       0.00        0.00     102.72       1.62       0.10       0.60       ----

> <Gold.Chemscore.Fitness>
12.6498

> <Gold.Chemscore.DG>
-13.3476

> <Gold.Chemscore.ZeroCoef>
-5.4800

> <Gold.Chemscore.Hbond>
0.0000

> <Gold.Chemscore.Metal>
0.0000

> <Gold.Chemscore.Lipo>
102.7189

> <Gold.Chemscore.Internal_Hbond>
0.0000

> <Gold.Chemscore.DEClash>
0.0980

> <Gold.Chemscore.DEInternal>
0.5998

> <Gold.Chemscore.Rot>
1.6213

> <Gold.Chemscore.Internal.Correction>
   9.000000E+99

> <Gold.Chemscore.Hbond.Weighted>
-0.0000

> <Gold.Chemscore.Metal.Weighted>
-0.0000

> <Gold.Chemscore.Lipo.Weighted>
-12.0181

> <Gold.Chemscore.Internal_Hbond.Weighted>
0.0000

> <Gold.Chemscore.DEClash.Weighted>
0.0980

> <Gold.Chemscore.DEInternal.Weighted>
0.5998

> <Gold.Chemscore.Rot.Weighted>
4.1505

> <Gold.Chemscore.Internal.Correction.Weighted>
   9.000000E+99

> <Gold.Protein.RotatedTorsions>
[ 6907 6896 6895 6894 ] final -171.22 input  -60.11 | X-H torsion
[ 7974 7965 7964 7962 ] final  132.07 input  175.53 | X-H torsion
[ 8008 7997 7996 7995 ] final -118.51 input   59.86 | X-H torsion
[ 10167 10162 10161 10158 ] final   50.38 input  -65.29 | X-H torsion
[ 10718 10713 10712 10709 ] final  -67.00 input   66.30 | X-H torsion
[ 10763 10752 10751 10750 ] final   -4.51 input  -60.55 | X-H torsion
[ 11005 11000 10999 10996 ] final -161.79 input  -57.11 | X-H torsion

> <Gold.Protein.ActiveResidues>
 VAL166  LYS551  ARG553  GLY616  TRP617  ASP618  TYR619  PRO620  LYS621  CYS622 
 ASP623  PHE694  ASN695  SER759  ASP760  ASP761  ALA762  ILE779  LEU786  VAL792 
 PHE793  MET794  SER795  GLU796  ALA797  LYS798  CYS799  TRP800  GLU811  SER814 

> <Gold.Protein.RotatedAtoms>
  151.5204  133.3467  159.2900 H   0  0  0  0  0  0  0  0  0  0  0  0  # atno 6907 bound_to 6896
  150.8656  134.8021  159.7127 H   0  0  0  0  0  0  0  0  0  0  0  0  # atno 6908 bound_to 6896
  152.4661  134.5080  159.9797 H   0  0  0  0  0  0  0  0  0  0  0  0  # atno 6909 bound_to 6896
  145.0007  139.4315  143.5294 H   0  0  0  0  0  0  0  0  0  0  0  0  # atno 7974 bound_to 7965
  155.1009  140.0396  157.2696 H   0  0  0  0  0  0  0  0  0  0  0  0  # atno 8008 bound_to 7997
  154.6759  140.2622  155.6933 H   0  0  0  0  0  0  0  0  0  0  0  0  # atno 8009 bound_to 7997
  156.2676  140.2788  156.1285 H   0  0  0  0  0  0  0  0  0  0  0  0  # atno 8010 bound_to 7997
  140.2730  144.3243  150.6285 H   0  0  0  0  0  0  0  0  0  0  0  0  # atno 10167 bound_to 10162
  156.0581  130.4271  150.1791 H   0  0  0  0  0  0  0  0  0  0  0  0  # atno 10718 bound_to 10713
  153.3859  135.7000  153.6531 H   0  0  0  0  0  0  0  0  0  0  0  0  # atno 10763 bound_to 10752
  153.5123  135.3629  155.2593 H   0  0  0  0  0  0  0  0  0  0  0  0  # atno 10764 bound_to 10752
  154.8697  135.4138  154.3166 H   0  0  0  0  0  0  0  0  0  0  0  0  # atno 10765 bound_to 10752
  140.6165  134.4795  157.5220 H   0  0  0  0  0  0  0  0  0  0  0  0  # atno 11005 bound_to 11000
  146.3451  139.9393  142.8743 LP  0  0  0  0  0  0  0  0  0  0  0  0  # atno 17320 bound_to 7965
  145.2157  140.9914  143.4074 LP  0  0  0  0  0  0  0  0  0  0  0  0  # atno 17321 bound_to 7965
  140.5874  143.2169  151.7317 LP  0  0  0  0  0  0  0  0  0  0  0  0  # atno 17342 bound_to 10162
  139.4983  144.3990  152.0201 LP  0  0  0  0  0  0  0  0  0  0  0  0  # atno 17343 bound_to 10162
  156.9864  130.9880  151.3425 LP  0  0  0  0  0  0  0  0  0  0  0  0  # atno 17370 bound_to 10713
  157.5568  130.8219  149.8214 LP  0  0  0  0  0  0  0  0  0  0  0  0  # atno 17371 bound_to 10713
  139.9171  134.8225  156.1332 LP  0  0  0  0  0  0  0  0  0  0  0  0  # atno 17394 bound_to 11000
  141.0772  133.6770  156.2261 LP  0  0  0  0  0  0  0  0  0  0  0  0  # atno 17395 bound_to 11000

$$$$
