AV-unprocessed.smi:1260|AV-procd|sdf|5294|dock1
  -GOLD-   22720 4413D 1   1.00000     0.00000
 Structure written by MMmdl.
 37 39  0  0  0  0  0  0  0  0  2 V2000
  152.4528  140.2251  155.6282 O   0  0  0  0  0  0  0  0  0  0  0  0
  151.9124  139.6440  156.5687 C   0  0  0  0  0  0  0  0  0  0  0  0
  152.3780  138.2478  156.9781 C   0  0  0  0  0  0  0  0  0  0  0  0
  151.4781  137.2447  156.4412 N   0  0  0  0  0  0  0  0  0  0  0  0
  150.1580  137.0941  156.5669 C   0  0  0  0  0  0  0  0  0  0  0  0
  149.7168  136.0561  155.8730 N   0  0  0  0  0  0  0  0  0  0  0  0
  150.8689  135.5519  155.2931 N   0  0  0  0  0  0  0  0  0  0  0  0
  151.9175  136.2530  155.6262 N   0  0  0  0  0  0  0  0  0  0  0  0
  150.9367  140.1882  157.3117 N   0  0  0  0  0  0  0  0  0  0  0  0
  150.4674  141.5648  157.1880 C   0  0  1  0  0  0  0  0  0  0  0  0
  149.2326  141.8661  158.0477 C   0  0  0  0  0  0  0  0  0  0  0  0
  149.3732  143.3463  158.4472 C   0  0  0  0  0  0  0  0  0  0  0  0
  150.6553  143.8102  157.8713 N   0  3  1  0  0  0  0  0  0  0  0  0
  151.3145  144.9514  158.5570 C   0  0  0  0  0  0  0  0  0  0  0  0
  152.0650  144.5275  159.8307 C   0  0  0  0  0  0  0  0  0  0  0  0
  153.0449  143.3894  159.5287 C   0  0  0  0  0  0  0  0  0  0  0  0
  152.2841  142.2051  158.9251 C   0  0  0  0  0  0  0  0  0  0  0  0
  151.4956  142.6118  157.6520 C   0  0  1  0  0  0  0  0  0  0  0  0
  153.3911  138.0606  156.6186 H   0  0  0  0  0  0  0  0  0  0  0  0
  152.3963  138.1608  158.0652 H   0  0  0  0  0  0  0  0  0  0  0  0
  149.5254  137.7461  157.1511 H   0  0  0  0  0  0  0  0  0  0  0  0
  150.5470  139.6354  158.0621 H   0  0  0  0  0  0  0  0  0  0  0  0
  150.2079  141.7652  156.1462 H   0  0  0  0  0  0  0  0  0  0  0  0
  148.3069  141.6722  157.5045 H   0  0  0  0  0  0  0  0  0  0  0  0
  149.2214  141.2456  158.9452 H   0  0  0  0  0  0  0  0  0  0  0  0
  148.5526  143.9521  158.0620 H   0  0  0  0  0  0  0  0  0  0  0  0
  149.3748  143.4403  159.5337 H   0  0  0  0  0  0  0  0  0  0  0  0
  152.0228  145.3966  157.8573 H   0  0  0  0  0  0  0  0  0  0  0  0
  150.5767  145.7223  158.7824 H   0  0  0  0  0  0  0  0  0  0  0  0
  152.6040  145.3810  160.2430 H   0  0  0  0  0  0  0  0  0  0  0  0
  151.3576  144.2124  160.5985 H   0  0  0  0  0  0  0  0  0  0  0  0
  153.8155  143.7307  158.8362 H   0  0  0  0  0  0  0  0  0  0  0  0
  153.5564  143.0808  160.4410 H   0  0  0  0  0  0  0  0  0  0  0  0
  152.9891  141.4060  158.6935 H   0  0  0  0  0  0  0  0  0  0  0  0
  151.6051  141.8025  159.6778 H   0  0  0  0  0  0  0  0  0  0  0  0
  152.2076  142.8245  156.8531 H   0  0  0  0  0  0  0  0  0  0  0  0
  150.4157  144.1397  156.9469 H   0  0  0  0  0  0  0  0  0  0  0  0
  1  2  2  0  0  0  0
  2  3  1  0  0  0  0
  2  9  1  0  0  0  0
  3  4  1  0  0  0  0
  3 19  1  0  0  0  0
  3 20  1  0  0  0  0
  4  8  1  0  0  0  0
  4  5  1  0  0  0  0
  5  6  2  0  0  0  0
  5 21  1  0  0  0  0
  6  7  1  0  0  0  0
  7  8  2  0  0  0  0
  9 10  1  0  0  0  0
  9 22  1  0  0  0  0
 10 18  1  0  0  0  0
 10 11  1  0  0  0  0
 10 23  1  0  0  0  0
 11 12  1  0  0  0  0
 11 24  1  0  0  0  0
 11 25  1  0  0  0  0
 12 13  1  0  0  0  0
 12 26  1  0  0  0  0
 12 27  1  0  0  0  0
 13 18  1  0  0  0  0
 13 14  1  0  0  0  0
 13 37  1  0  0  0  0
 14 15  1  0  0  0  0
 14 28  1  0  0  0  0
 14 29  1  0  0  0  0
 15 16  1  0  0  0  0
 15 30  1  0  0  0  0
 15 31  1  0  0  0  0
 16 17  1  0  0  0  0
 16 32  1  0  0  0  0
 16 33  1  0  0  0  0
 17 18  1  0  0  0  0
 17 34  1  0  0  0  0
 17 35  1  0  0  0  0
 18 36  1  0  0  0  0
M  CHG  1  13   1
M  END
> <s_m_source_file>
AV-unprocessed.smi

> <i_m_source_file_index>
1260

> <i_lp_mmshare_version>
43012

> <i_f3d_flags>
0

> <s_epik_input>
bjFubltjSF1uMVtDSDJdQyg9TylbTkhdW0NASF0oW0NIMl1bQ0gyXTIpW0NAQEhdKE4yMylbQ0gyXVtDSDJdW0NIMl1bQ0gyXTM=

> <s_epik_cmdline>
J2VwaWtfcHl0aG9uJywgJy1waCcsICc3LjAnLCAnLXRuJywgJzgnLCAnLW1hJywgJzIwMCcsICctbWV0YWxfYmluZGluZycsICctaW1hZScsICc8aW5maWxlLm1hZT4nLCAnLW9tYWUnLCAnPG91dGZpbGUubWFlPic=

> <r_lp_tautomer_probability>
1

> <r_epik_Ionization_Penalty>
0.00234324

> <r_epik_Ionization_Penalty_Charging>
0.00233897

> <r_epik_Ionization_Penalty_Neutral>
4.26861e-06

> <r_epik_State_Penalty>
0.00161477

> <r_epik_Charging_Adjusted_Penalty>
0.00395374

> <i_epik_Tot_Q>
1

> <i_epik_Tot_abs_Q>
1

> <r_epik_Metal_State_Penalty>
-0

> <b_epik_Metal_Only>
0

> <s_lp_Force_Field>
OPLS_2005

> <r_lp_Energy>
37.4375

> <b_lp_Chiralities_Consistent>
1

> <s_lp_Variant>
AV-unprocessed.smi:1260-2

> <Gold.Version>
5.8.1

> <Gold.Id.Protein>
6NUR|6NUR_protein|mol2

> <Gold.PLP.Fitness>
39.6952

> <Gold.PLP.PLP>
-27.9911

> <Gold.PLP.part.hbond>
-4.5611

> <Gold.PLP.part.metal>
0.0000

> <Gold.PLP.part.buried>
-3.0899

> <Gold.PLP.part.nonpolar>
-21.4350

> <Gold.PLP.part.repulsive>
0.2937

> <Gold.PLP.ligand.clash>
0.0000

> <Gold.PLP.ligand.torsion>
0.3653

> <Gold.PLP.Chemscore.Hbond>
4.1375

> <Gold.PLP.Chemscore.CHOScore>
0.0000

> <Gold.PLP.Chemscore.Metal>
0.0000

> <Gold.Chemscore.Hbonds>
donor molecule, donor type, donor heavy atom, donor atom, acceptor molecule, acceptor atom, score
      L1  H    13    37       P1  8028  1.72
      P1  H  7989  7998       L1     1  0.12
      P1  H  7997  8008       L1     1  1.00
      P1  H 10752 10764       L1     8  1.00

> <Gold.PLP.Chemscore.Internal.Correction>
0.0223

> <Gold.Rescore>
     Score         DG    S(hbond)    S(metal)    S(lipo)     H(rot)  DE(clash)    DE(int)     intcor
     18.19     -18.89       2.81        0.00      77.72       1.98       0.07       0.63       ----

> <Gold.Chemscore.Fitness>
18.1897

> <Gold.Chemscore.DG>
-18.8892

> <Gold.Chemscore.ZeroCoef>
-5.4800

> <Gold.Chemscore.Hbond>
2.8067

> <Gold.Chemscore.Metal>
0.0000

> <Gold.Chemscore.Lipo>
77.7150

> <Gold.Chemscore.Internal_Hbond>
0.0000

> <Gold.Chemscore.DEClash>
0.0678

> <Gold.Chemscore.DEInternal>
0.6317

> <Gold.Chemscore.Rot>
1.9757

> <Gold.Chemscore.Internal.Correction>
   9.000000E+99

> <Gold.Chemscore.Hbonds>
donor molecule, donor type, donor heavy atom, donor atom, acceptor molecule, acceptor atom, score
      L1  H    13    37       P1  8028  0.77
      P1  H  7989  7998       L1     1  0.12
      P1  H  7997  8008       L1     1  0.53
      P1  H 10752 10764       L1     8  0.24

> <Gold.Chemscore.Hbond.Weighted>
-9.3743

> <Gold.Chemscore.Metal.Weighted>
-0.0000

> <Gold.Chemscore.Lipo.Weighted>
-9.0927

> <Gold.Chemscore.Internal_Hbond.Weighted>
0.0000

> <Gold.Chemscore.DEClash.Weighted>
0.0678

> <Gold.Chemscore.DEInternal.Weighted>
0.6317

> <Gold.Chemscore.Rot.Weighted>
5.0578

> <Gold.Chemscore.Internal.Correction.Weighted>
   9.000000E+99

> <Gold.Protein.RotatedTorsions>
[ 6907 6896 6895 6894 ] final -114.88 input  -60.11 | X-H torsion
[ 7974 7965 7964 7962 ] final   38.95 input  175.53 | X-H torsion
[ 8008 7997 7996 7995 ] final  -22.34 input   59.86 | X-H torsion
[ 10167 10162 10161 10158 ] final   18.41 input  -65.29 | X-H torsion
[ 10718 10713 10712 10709 ] final  -46.94 input   66.30 | X-H torsion
[ 10763 10752 10751 10750 ] final  -49.43 input  -60.55 | X-H torsion
[ 11005 11000 10999 10996 ] final -122.61 input  -57.11 | X-H torsion

> <Gold.Protein.ActiveResidues>
 VAL166  LYS551  ARG553  GLY616  TRP617  ASP618  TYR619  PRO620  LYS621  CYS622 
 ASP623  PHE694  ASN695  SER759  ASP760  ASP761  ALA762  ILE779  LEU786  VAL792 
 PHE793  MET794  SER795  GLU796  ALA797  LYS798  CYS799  TRP800  GLU811  SER814 

> <Gold.Protein.RotatedAtoms>
  150.7935  133.8738  159.3266 H   0  0  0  0  0  0  0  0  0  0  0  0  # atno 6907 bound_to 6896
  151.6570  135.0992  160.0181 H   0  0  0  0  0  0  0  0  0  0  0  0  # atno 6908 bound_to 6896
  152.4013  133.6783  159.6354 H   0  0  0  0  0  0  0  0  0  0  0  0  # atno 6909 bound_to 6896
  146.1022  139.5710  142.9406 H   0  0  0  0  0  0  0  0  0  0  0  0  # atno 7974 bound_to 7965
  154.4650  140.2010  156.0142 H   0  0  0  0  0  0  0  0  0  0  0  0  # atno 8008 bound_to 7997
  156.0910  140.3258  155.7787 H   0  0  0  0  0  0  0  0  0  0  0  0  # atno 8009 bound_to 7997
  155.4956  140.0549  157.2938 H   0  0  0  0  0  0  0  0  0  0  0  0  # atno 8010 bound_to 7997
  140.5655  143.9258  150.6673 H   0  0  0  0  0  0  0  0  0  0  0  0  # atno 10167 bound_to 10162
  156.2133  130.4162  149.9086 H   0  0  0  0  0  0  0  0  0  0  0  0  # atno 10718 bound_to 10713
  154.0940  135.6573  153.4857 H   0  0  0  0  0  0  0  0  0  0  0  0  # atno 10763 bound_to 10752
  153.0312  135.5209  154.7352 H   0  0  0  0  0  0  0  0  0  0  0  0  # atno 10764 bound_to 10752
  154.6485  135.2998  154.9985 H   0  0  0  0  0  0  0  0  0  0  0  0  # atno 10765 bound_to 10752
  140.9982  134.0441  157.3571 H   0  0  0  0  0  0  0  0  0  0  0  0  # atno 11005 bound_to 11000
  145.5831  141.0380  143.2111 LP  0  0  0  0  0  0  0  0  0  0  0  0  # atno 17320 bound_to 7965
  144.7442  139.7365  143.7299 LP  0  0  0  0  0  0  0  0  0  0  0  0  # atno 17321 bound_to 7965
  140.2720  143.3449  152.1229 LP  0  0  0  0  0  0  0  0  0  0  0  0  # atno 17342 bound_to 10162
  139.5091  144.6861  151.5883 LP  0  0  0  0  0  0  0  0  0  0  0  0  # atno 17343 bound_to 10162
  156.6757  130.8838  151.3568 LP  0  0  0  0  0  0  0  0  0  0  0  0  # atno 17370 bound_to 10713
  157.7050  130.9375  150.0902 LP  0  0  0  0  0  0  0  0  0  0  0  0  # atno 17371 bound_to 10713
  139.9025  135.0169  156.7336 LP  0  0  0  0  0  0  0  0  0  0  0  0  # atno 17394 bound_to 11000
  140.6931  133.9372  155.7978 LP  0  0  0  0  0  0  0  0  0  0  0  0  # atno 17395 bound_to 11000

$$$$
