AV-unprocessed.smi:1856|AV-procd|sdf|7536|dock2
  -GOLD-   22720 9253D 1   1.00000     0.00000
 Structure written by MMmdl.
 44 45  0  0  0  0  0  0  0  0  1 V2000
  155.1526  137.0009  163.5683 C   0  0  0  0  0  0  0  0  0  0  0  0
  154.4155  137.6906  162.4103 C   0  0  0  0  0  0  0  0  0  0  0  0
  155.1160  137.5798  161.0410 C   0  0  0  0  0  0  0  0  0  0  0  0
  154.3368  138.2228  159.8881 C   0  0  0  0  0  0  0  0  0  0  0  0
  154.8935  139.0017  159.1145 O   0  0  0  0  0  0  0  0  0  0  0  0
  153.0448  137.8762  159.7746 N   0  0  0  0  0  0  0  0  0  0  0  0
  152.1235  138.3834  158.7603 C   0  0  1  0  0  0  0  0  0  0  0  0
  150.7257  137.7813  158.9587 C   0  0  0  0  0  0  0  0  0  0  0  0
  152.1093  139.8903  158.8371 C   0  0  0  0  0  0  0  0  0  0  0  0
  152.7563  140.5509  159.8013 N   0  0  0  0  0  0  0  0  0  0  0  0
  152.4887  141.8714  159.5041 C   0  0  0  0  0  0  0  0  0  0  0  0
  152.8874  143.0583  160.1593 C   0  0  0  0  0  0  0  0  0  0  0  0
  152.4818  144.3159  159.6672 C   0  0  0  0  0  0  0  0  0  0  0  0
  151.6732  144.4043  158.5158 C   0  0  0  0  0  0  0  0  0  0  0  0
  151.2668  143.2337  157.8471 C   0  0  0  0  0  0  0  0  0  0  0  0
  151.6749  141.9801  158.3420 C   0  0  0  0  0  0  0  0  0  0  0  0
  151.4539  140.6673  157.9348 N   0  0  0  0  0  0  0  0  0  0  0  0
  150.6769  140.2542  156.7735 C   0  0  0  0  0  0  0  0  0  0  0  0
  151.5580  139.8376  155.5791 C   0  0  1  0  0  0  0  0  0  0  0  0
  152.2233  138.4622  155.7452 C   0  0  0  0  0  0  0  0  0  0  0  0
  150.7552  139.8138  154.4181 O   0  0  0  0  0  0  0  0  0  0  0  0
  154.5497  137.0261  164.4763 H   0  0  0  0  0  0  0  0  0  0  0  0
  156.1000  137.4875  163.7967 H   0  0  0  0  0  0  0  0  0  0  0  0
  155.3579  135.9553  163.3374 H   0  0  0  0  0  0  0  0  0  0  0  0
  153.4240  137.2452  162.3233 H   0  0  0  0  0  0  0  0  0  0  0  0
  154.2473  138.7394  162.6589 H   0  0  0  0  0  0  0  0  0  0  0  0
  156.1082  138.0297  161.0894 H   0  0  0  0  0  0  0  0  0  0  0  0
  155.2751  136.5245  160.8139 H   0  0  0  0  0  0  0  0  0  0  0  0
  152.6648  137.2316  160.4523 H   0  0  0  0  0  0  0  0  0  0  0  0
  152.4779  138.0540  157.7848 H   0  0  0  0  0  0  0  0  0  0  0  0
  150.0333  138.1456  158.1992 H   0  0  0  0  0  0  0  0  0  0  0  0
  150.3131  138.0393  159.9347 H   0  0  0  0  0  0  0  0  0  0  0  0
  150.7535  136.6937  158.8856 H   0  0  0  0  0  0  0  0  0  0  0  0
  153.5057  143.0010  161.0429 H   0  0  0  0  0  0  0  0  0  0  0  0
  152.7913  145.2168  160.1764 H   0  0  0  0  0  0  0  0  0  0  0  0
  151.3653  145.3712  158.1458 H   0  0  0  0  0  0  0  0  0  0  0  0
  150.6458  143.3008  156.9664 H   0  0  0  0  0  0  0  0  0  0  0  0
  150.0362  139.4224  157.0678 H   0  0  0  0  0  0  0  0  0  0  0  0
  149.9968  141.0596  156.4956 H   0  0  0  0  0  0  0  0  0  0  0  0
  152.3356  140.5853  155.4221 H   0  0  0  0  0  0  0  0  0  0  0  0
  152.9138  138.4529  156.5887 H   0  0  0  0  0  0  0  0  0  0  0  0
  152.7955  138.1937  154.8564 H   0  0  0  0  0  0  0  0  0  0  0  0
  151.4818  137.6805  155.9139 H   0  0  0  0  0  0  0  0  0  0  0  0
  150.6374  138.9147  154.1517 H   0  0  0  0  0  0  0  0  0  0  0  0
  1  2  1  0  0  0  0
  1 22  1  0  0  0  0
  1 23  1  0  0  0  0
  1 24  1  0  0  0  0
  2  3  1  0  0  0  0
  2 25  1  0  0  0  0
  2 26  1  0  0  0  0
  3  4  1  0  0  0  0
  3 27  1  0  0  0  0
  3 28  1  0  0  0  0
  4  5  2  0  0  0  0
  4  6  1  0  0  0  0
  6  7  1  0  0  0  0
  6 29  1  0  0  0  0
  7  8  1  0  0  0  0
  7  9  1  0  0  0  0
  7 30  1  0  0  0  0
  8 31  1  0  0  0  0
  8 32  1  0  0  0  0
  8 33  1  0  0  0  0
  9 17  1  0  0  0  0
  9 10  2  0  0  0  0
 10 11  1  0  0  0  0
 11 16  2  0  0  0  0
 11 12  1  0  0  0  0
 12 13  2  0  0  0  0
 12 34  1  0  0  0  0
 13 14  1  0  0  0  0
 13 35  1  0  0  0  0
 14 15  2  0  0  0  0
 14 36  1  0  0  0  0
 15 16  1  0  0  0  0
 15 37  1  0  0  0  0
 16 17  1  0  0  0  0
 17 18  1  0  0  0  0
 18 19  1  0  0  0  0
 18 38  1  0  0  0  0
 18 39  1  0  0  0  0
 19 20  1  0  0  0  0
 19 21  1  0  0  0  0
 19 40  1  0  0  0  0
 20 41  1  0  0  0  0
 20 42  1  0  0  0  0
 20 43  1  0  0  0  0
 21 44  1  0  0  0  0
M  END
> <s_m_source_file>
AV-unprocessed.smi

> <i_m_source_file_index>
1856

> <i_lp_mmshare_version>
43012

> <i_f3d_flags>
0

> <s_epik_input>
W0NIM11bQ0gyXVtDSDJdQyg9TylbTkhdW0NASF0oW0NIM10pYyhuMSluKFtDSDJdW0NASF0oW0NIM10pW09IXSljKGMxMilbY0hdW2NIXVtjSF1bY0hdMg==

> <s_epik_cmdline>
J2VwaWtfcHl0aG9uJywgJy1waCcsICc3LjAnLCAnLXRuJywgJzgnLCAnLW1hJywgJzIwMCcsICctbWV0YWxfYmluZGluZycsICctaW1hZScsICc8aW5maWxlLm1hZT4nLCAnLW9tYWUnLCAnPG91dGZpbGUubWFlPic=

> <r_epik_Ionization_Penalty>
0.134222

> <r_epik_Ionization_Penalty_Charging>
0

> <r_epik_Ionization_Penalty_Neutral>
0.134222

> <r_epik_State_Penalty>
0.123585

> <r_epik_Charging_Adjusted_Penalty>
0.123585

> <i_epik_Tot_Q>
0

> <i_epik_Tot_abs_Q>
0

> <r_epik_Metal_State_Penalty>
0.100548

> <b_epik_Metal_Only>
0

> <s_lp_Force_Field>
OPLS_2005

> <r_lp_Energy>
2.58859

> <b_lp_Chiralities_Consistent>
1

> <s_lp_Variant>
AV-unprocessed.smi:1856-4

> <Gold.Version>
5.8.1

> <Gold.Id.Protein>
6NUR|6NUR_protein|mol2

> <Gold.PLP.Fitness>
47.1493

> <Gold.PLP.PLP>
-43.2984

> <Gold.PLP.part.hbond>
-2.2589

> <Gold.PLP.part.metal>
0.0000

> <Gold.PLP.part.buried>
-4.7572

> <Gold.PLP.part.nonpolar>
-37.0568

> <Gold.PLP.part.repulsive>
0.1039

> <Gold.PLP.ligand.clash>
0.0000

> <Gold.PLP.ligand.torsion>
0.5176

> <Gold.PLP.Chemscore.Hbond>
1.6088

> <Gold.PLP.Chemscore.CHOScore>
0.0000

> <Gold.PLP.Chemscore.Metal>
0.0000

> <Gold.Chemscore.Hbonds>
donor molecule, donor type, donor heavy atom, donor atom, acceptor molecule, acceptor atom, score
      P1  H  7989  7998       L1    21  0.95
      P1  H  7997  8008       L1     5  0.93

> <Gold.PLP.Chemscore.Internal.Correction>
0.0598

> <Gold.Rescore>
     Score         DG    S(hbond)    S(metal)    S(lipo)     H(rot)  DE(clash)    DE(int)     intcor
     14.24     -15.03       0.91        0.00     109.24       2.45       0.05       0.74       ----

> <Gold.Chemscore.Fitness>
14.2439

> <Gold.Chemscore.DG>
-15.0297

> <Gold.Chemscore.ZeroCoef>
-5.4800

> <Gold.Chemscore.Hbond>
0.9072

> <Gold.Chemscore.Metal>
0.0000

> <Gold.Chemscore.Lipo>
109.2394

> <Gold.Chemscore.Internal_Hbond>
0.0000

> <Gold.Chemscore.DEClash>
0.0456

> <Gold.Chemscore.DEInternal>
0.7403

> <Gold.Chemscore.Rot>
2.4459

> <Gold.Chemscore.Internal.Correction>
   9.000000E+99

> <Gold.Chemscore.Hbonds>
donor molecule, donor type, donor heavy atom, donor atom, acceptor molecule, acceptor atom, score
      P1  H  7989  7998       L1    21  0.21
      P1  H  7997  8008       L1     5  0.89

> <Gold.Chemscore.Hbond.Weighted>
-3.0302

> <Gold.Chemscore.Metal.Weighted>
-0.0000

> <Gold.Chemscore.Lipo.Weighted>
-12.7810

> <Gold.Chemscore.Internal_Hbond.Weighted>
0.0000

> <Gold.Chemscore.DEClash.Weighted>
0.0456

> <Gold.Chemscore.DEInternal.Weighted>
0.7403

> <Gold.Chemscore.Rot.Weighted>
6.2614

> <Gold.Chemscore.Internal.Correction.Weighted>
   9.000000E+99

> <Gold.Protein.RotatedTorsions>
[ 6907 6896 6895 6894 ] final   87.39 input  -60.11 | X-H torsion
[ 7974 7965 7964 7962 ] final  -91.11 input  175.53 | X-H torsion
[ 8008 7997 7996 7995 ] final -116.78 input   59.86 | X-H torsion
[ 10167 10162 10161 10158 ] final   10.93 input  -65.29 | X-H torsion
[ 10718 10713 10712 10709 ] final -129.12 input   66.30 | X-H torsion
[ 10763 10752 10751 10750 ] final  144.67 input  -60.55 | X-H torsion
[ 11005 11000 10999 10996 ] final  -12.42 input  -57.11 | X-H torsion

> <Gold.Protein.ActiveResidues>
 VAL166  LYS551  ARG553  GLY616  TRP617  ASP618  TYR619  PRO620  LYS621  CYS622 
 ASP623  PHE694  ASN695  SER759  ASP760  ASP761  ALA762  ILE779  LEU786  VAL792 
 PHE793  MET794  SER795  GLU796  ALA797  LYS798  CYS799  TRP800  GLU811  SER814 

> <Gold.Protein.RotatedAtoms>
  152.5410  134.2284  159.8814 H   0  0  0  0  0  0  0  0  0  0  0  0  # atno 6907 bound_to 6896
  151.2257  133.4471  159.2609 H   0  0  0  0  0  0  0  0  0  0  0  0  # atno 6908 bound_to 6896
  151.0763  134.9843  159.8389 H   0  0  0  0  0  0  0  0  0  0  0  0  # atno 6909 bound_to 6896
  145.4176  140.9549  143.2199 H   0  0  0  0  0  0  0  0  0  0  0  0  # atno 7974 bound_to 7965
  155.0733  140.0393  157.2616 H   0  0  0  0  0  0  0  0  0  0  0  0  # atno 8008 bound_to 7997
  154.6965  140.2664  155.6737 H   0  0  0  0  0  0  0  0  0  0  0  0  # atno 8009 bound_to 7997
  156.2746  140.2749  156.1561 H   0  0  0  0  0  0  0  0  0  0  0  0  # atno 8010 bound_to 7997
  140.6164  143.8299  150.7123 H   0  0  0  0  0  0  0  0  0  0  0  0  # atno 10167 bound_to 10162
  156.2016  130.6861  151.0546 H   0  0  0  0  0  0  0  0  0  0  0  0  # atno 10718 bound_to 10713
  153.9927  135.2930  155.3410 H   0  0  0  0  0  0  0  0  0  0  0  0  # atno 10763 bound_to 10752
  154.7205  135.5111  153.8808 H   0  0  0  0  0  0  0  0  0  0  0  0  # atno 10764 bound_to 10752
  153.0802  135.6676  154.0178 H   0  0  0  0  0  0  0  0  0  0  0  0  # atno 10765 bound_to 10752
  140.7655  133.8480  155.9161 H   0  0  0  0  0  0  0  0  0  0  0  0  # atno 11005 bound_to 11000
  144.8267  139.5698  143.6962 LP  0  0  0  0  0  0  0  0  0  0  0  0  # atno 17320 bound_to 7965
  146.2673  139.6551  142.9320 LP  0  0  0  0  0  0  0  0  0  0  0  0  # atno 17321 bound_to 7965
  140.1879  143.4060  152.1884 LP  0  0  0  0  0  0  0  0  0  0  0  0  # atno 17342 bound_to 10162
  139.5402  144.7249  151.4760 LP  0  0  0  0  0  0  0  0  0  0  0  0  # atno 17343 bound_to 10162
  157.6989  131.0783  150.6883 LP  0  0  0  0  0  0  0  0  0  0  0  0  # atno 17370 bound_to 10713
  156.6941  130.4603  149.5591 LP  0  0  0  0  0  0  0  0  0  0  0  0  # atno 17371 bound_to 10713
  140.9623  134.1639  157.4644 LP  0  0  0  0  0  0  0  0  0  0  0  0  # atno 17394 bound_to 11000
  139.8764  134.9949  156.5717 LP  0  0  0  0  0  0  0  0  0  0  0  0  # atno 17395 bound_to 11000

$$$$
