AV-unprocessed.smi:1558|AV-procd|sdf|6272|dock8
  -GOLD-   22720 6463D 1   1.00000     0.00000
 Structure written by MMmdl.
 36 37  0  0  0  0  0  0  0  0  1 V2000
  146.8235  132.0996  149.7815 N   0  0  0  0  0  0  0  0  0  0  0  0
  145.7035  131.7690  150.4299 C   0  0  0  0  0  0  0  0  0  0  0  0
  145.6522  130.8230  151.2130 O   0  0  0  0  0  0  0  0  0  0  0  0
  144.4624  132.6220  150.1611 C   0  0  0  0  0  0  0  0  0  0  0  0
  144.6184  133.9600  150.7036 N   0  0  0  0  0  0  0  0  0  0  0  0
  143.6628  134.7506  151.3121 C   0  0  0  0  0  0  0  0  0  0  0  0
  144.3004  135.9115  151.6464 C   0  0  0  0  0  0  0  0  0  0  0  0
  143.7881  137.0649  152.2922 N   0  0  0  0  0  0  0  0  0  0  0  0
  143.0086  137.1082  153.3849 C   0  0  0  0  0  0  0  0  0  0  0  0
  142.6176  136.1247  154.0138 O   0  0  0  0  0  0  0  0  0  0  0  0
  142.7067  138.3712  153.7172 N   0  0  0  0  0  0  0  0  0  0  0  0
  141.8889  138.7736  154.8570 C   0  0  0  0  0  0  0  0  0  0  0  0
  140.3934  138.5165  154.6063 C   0  0  2  0  0  0  0  0  0  0  0  0
  140.0165  137.0563  154.3560 C   0  0  0  0  0  0  0  0  0  0  0  0
  138.7130  137.2067  153.6063 C   0  0  0  0  0  0  0  0  0  0  0  0
  138.9861  138.4335  152.7395 C   0  0  0  0  0  0  0  0  0  0  0  0
  139.9657  139.2030  153.4340 O   0  0  0  0  0  0  0  0  0  0  0  0
  145.6411  135.7569  151.2085 C   0  0  0  0  0  0  0  0  0  0  0  0
  145.8257  134.5753  150.6396 N   0  0  0  0  0  0  0  0  0  0  0  0
  147.6648  131.5614  149.9307 H   0  0  0  0  0  0  0  0  0  0  0  0
  146.8273  132.8835  149.1454 H   0  0  0  0  0  0  0  0  0  0  0  0
  144.2816  132.6827  149.0866 H   0  0  0  0  0  0  0  0  0  0  0  0
  143.5799  132.1621  150.6080 H   0  0  0  0  0  0  0  0  0  0  0  0
  142.6448  134.4167  151.4463 H   0  0  0  0  0  0  0  0  0  0  0  0
  144.0415  137.9500  151.8780 H   0  0  0  0  0  0  0  0  0  0  0  0
  143.0736  139.1137  153.1400 H   0  0  0  0  0  0  0  0  0  0  0  0
  142.2156  138.1914  155.7190 H   0  0  0  0  0  0  0  0  0  0  0  0
  142.0601  139.8200  155.1150 H   0  0  0  0  0  0  0  0  0  0  0  0
  139.8045  138.9009  155.4410 H   0  0  0  0  0  0  0  0  0  0  0  0
  140.7583  136.5698  153.7211 H   0  0  0  0  0  0  0  0  0  0  0  0
  139.9176  136.4770  155.2745 H   0  0  0  0  0  0  0  0  0  0  0  0
  138.4462  136.3235  153.0251 H   0  0  0  0  0  0  0  0  0  0  0  0
  137.9026  137.4139  154.3064 H   0  0  0  0  0  0  0  0  0  0  0  0
  139.4005  138.1369  151.7755 H   0  0  0  0  0  0  0  0  0  0  0  0
  138.0831  139.0157  152.5547 H   0  0  0  0  0  0  0  0  0  0  0  0
  146.4686  136.4466  151.2822 H   0  0  0  0  0  0  0  0  0  0  0  0
  1  2  1  0  0  0  0
  1 20  1  0  0  0  0
  1 21  1  0  0  0  0
  2  3  2  0  0  0  0
  2  4  1  0  0  0  0
  4  5  1  0  0  0  0
  4 22  1  0  0  0  0
  4 23  1  0  0  0  0
  5 19  1  0  0  0  0
  5  6  1  0  0  0  0
  6  7  2  0  0  0  0
  6 24  1  0  0  0  0
  7  8  1  0  0  0  0
  7 18  1  0  0  0  0
  8  9  1  0  0  0  0
  8 25  1  0  0  0  0
  9 10  2  0  0  0  0
  9 11  1  0  0  0  0
 11 12  1  0  0  0  0
 11 26  1  0  0  0  0
 12 13  1  0  0  0  0
 12 27  1  0  0  0  0
 12 28  1  0  0  0  0
 13 17  1  0  0  0  0
 13 14  1  0  0  0  0
 13 29  1  0  0  0  0
 14 15  1  0  0  0  0
 14 30  1  0  0  0  0
 14 31  1  0  0  0  0
 15 16  1  0  0  0  0
 15 32  1  0  0  0  0
 15 33  1  0  0  0  0
 16 17  1  0  0  0  0
 16 34  1  0  0  0  0
 16 35  1  0  0  0  0
 18 19  2  0  0  0  0
 18 36  1  0  0  0  0
M  END
> <s_m_source_file>
AV-unprocessed.smi

> <i_m_source_file_index>
1558

> <i_lp_mmshare_version>
43012

> <i_f3d_flags>
0

> <s_epik_input>
W05IMl1DKD1PKVtDSDJdbjFbY0hdYyhbY0hdbjEpW05IXUMoPU8pW05IXVtDSDJdW0NAQEhdMltDSDJdW0NIMl1bQ0gyXU8y

> <s_epik_cmdline>
J2VwaWtfcHl0aG9uJywgJy1waCcsICc3LjAnLCAnLXRuJywgJzgnLCAnLW1hJywgJzIwMCcsICctbWV0YWxfYmluZGluZycsICctaW1hZScsICc8aW5maWxlLm1hZT4nLCAnLW9tYWUnLCAnPG91dGZpbGUubWFlPic=

> <r_lp_tautomer_probability>
1

> <r_epik_Ionization_Penalty>
4.01684e-05

> <r_epik_Ionization_Penalty_Charging>
0

> <r_epik_Ionization_Penalty_Neutral>
4.01684e-05

> <r_epik_State_Penalty>
-0

> <r_epik_Charging_Adjusted_Penalty>
0

> <i_epik_Tot_Q>
0

> <i_epik_Tot_abs_Q>
0

> <r_epik_Metal_State_Penalty>
-0

> <b_epik_Metal_Only>
0

> <s_lp_Force_Field>
OPLS_2005

> <r_lp_Energy>
20.4808

> <b_lp_Chiralities_Consistent>
1

> <s_lp_Variant>
AV-unprocessed.smi:1558-1

> <Gold.Version>
5.8.1

> <Gold.Id.Protein>
6NUR|6NUR_protein|mol2

> <Gold.PLP.Fitness>
41.5009

> <Gold.PLP.PLP>
-31.5335

> <Gold.PLP.part.hbond>
-3.0000

> <Gold.PLP.part.metal>
0.0000

> <Gold.PLP.part.buried>
-6.6807

> <Gold.PLP.part.nonpolar>
-23.5309

> <Gold.PLP.part.repulsive>
2.5560

> <Gold.PLP.ligand.clash>
0.0000

> <Gold.PLP.ligand.torsion>
0.8682

> <Gold.PLP.Chemscore.Hbond>
2.4040

> <Gold.PLP.Chemscore.CHOScore>
1.4910

> <Gold.PLP.Chemscore.Metal>
0.0000

> <Gold.Chemscore.Hbonds>
donor molecule, donor type, donor heavy atom, donor atom, acceptor molecule, acceptor atom, score
      L1  H     1    20       P1 10747  0.96
      L1  H     8    25       P1 10171  0.38
      L1  H    11    26       P1 10175  1.00
      L1  C     6    24       P1 10186  0.51
      L1  C    18    36       P1  7948  1.00

> <Gold.PLP.Chemscore.Internal.Correction>
0.0186

> <Gold.Rescore>
     Score         DG    S(hbond)    S(metal)    S(lipo)     H(rot)  DE(clash)    DE(int)     intcor
     11.23     -15.37       2.79        0.00      56.03       2.33       0.47       3.68       ----

> <Gold.Chemscore.Fitness>
11.2304

> <Gold.Chemscore.DG>
-15.3742

> <Gold.Chemscore.ZeroCoef>
-5.4800

> <Gold.Chemscore.Hbond>
2.7856

> <Gold.Chemscore.Metal>
0.0000

> <Gold.Chemscore.Lipo>
56.0325

> <Gold.Chemscore.Internal_Hbond>
0.0000

> <Gold.Chemscore.DEClash>
0.4657

> <Gold.Chemscore.DEInternal>
3.6781

> <Gold.Chemscore.Rot>
2.3303

> <Gold.Chemscore.Internal.Correction>
   9.000000E+99

> <Gold.Chemscore.Hbonds>
donor molecule, donor type, donor heavy atom, donor atom, acceptor molecule, acceptor atom, score
      L1  H     1    20       P1 10747  0.90
      L1  H     8    25       P1 10171  0.39
      L1  H    11    26       P1 10175  0.97

> <Gold.Chemscore.Hbond.Weighted>
-9.3039

> <Gold.Chemscore.Metal.Weighted>
-0.0000

> <Gold.Chemscore.Lipo.Weighted>
-6.5558

> <Gold.Chemscore.Internal_Hbond.Weighted>
0.0000

> <Gold.Chemscore.DEClash.Weighted>
0.4657

> <Gold.Chemscore.DEInternal.Weighted>
3.6781

> <Gold.Chemscore.Rot.Weighted>
5.9656

> <Gold.Chemscore.Internal.Correction.Weighted>
   9.000000E+99

> <Gold.Protein.RotatedTorsions>
[ 6907 6896 6895 6894 ] final -140.12 input  -60.11 | X-H torsion
[ 7974 7965 7964 7962 ] final    2.93 input  175.53 | X-H torsion
[ 8008 7997 7996 7995 ] final  136.01 input   59.86 | X-H torsion
[ 10167 10162 10161 10158 ] final  -91.29 input  -65.29 | X-H torsion
[ 10718 10713 10712 10709 ] final  -36.02 input   66.30 | X-H torsion
[ 10763 10752 10751 10750 ] final  103.82 input  -60.55 | X-H torsion
[ 11005 11000 10999 10996 ] final -133.59 input  -57.11 | X-H torsion

> <Gold.Protein.ActiveResidues>
 VAL166  LYS551  ARG553  GLY616  TRP617  ASP618  TYR619  PRO620  LYS621  CYS622 
 ASP623  PHE694  ASN695  SER759  ASP760  ASP761  ALA762  ILE779  LEU786  VAL792 
 PHE793  MET794  SER795  GLU796  ALA797  LYS798  CYS799  TRP800  GLU811  SER814 

> <Gold.Protein.RotatedAtoms>
  151.0566  133.5579  159.2637 H   0  0  0  0  0  0  0  0  0  0  0  0  # atno 6907 bound_to 6896
  151.2570  135.0641  159.9094 H   0  0  0  0  0  0  0  0  0  0  0  0  # atno 6908 bound_to 6896
  152.5391  134.0317  159.8081 H   0  0  0  0  0  0  0  0  0  0  0  0  # atno 6909 bound_to 6896
  146.2444  140.0762  142.8359 H   0  0  0  0  0  0  0  0  0  0  0  0  # atno 7974 bound_to 7965
  156.3004  140.2456  156.3675 H   0  0  0  0  0  0  0  0  0  0  0  0  # atno 8008 bound_to 7997
  154.8820  140.0412  157.1807 H   0  0  0  0  0  0  0  0  0  0  0  0  # atno 8009 bound_to 7997
  154.8686  140.2931  155.5499 H   0  0  0  0  0  0  0  0  0  0  0  0  # atno 8010 bound_to 7997
  140.3464  143.2914  151.9776 H   0  0  0  0  0  0  0  0  0  0  0  0  # atno 10167 bound_to 10162
  156.3318  130.4280  149.7866 H   0  0  0  0  0  0  0  0  0  0  0  0  # atno 10718 bound_to 10713
  153.3578  135.3964  155.1695 H   0  0  0  0  0  0  0  0  0  0  0  0  # atno 10763 bound_to 10752
  154.8674  135.3672  154.5139 H   0  0  0  0  0  0  0  0  0  0  0  0  # atno 10764 bound_to 10752
  153.5596  135.7081  153.5614 H   0  0  0  0  0  0  0  0  0  0  0  0  # atno 10765 bound_to 10752
  140.9067  134.1621  157.4420 H   0  0  0  0  0  0  0  0  0  0  0  0  # atno 11005 bound_to 11000
  145.0772  140.9196  143.4846 LP  0  0  0  0  0  0  0  0  0  0  0  0  # atno 17320 bound_to 7965
  145.0908  139.2891  143.5736 LP  0  0  0  0  0  0  0  0  0  0  0  0  # atno 17321 bound_to 7965
  139.4833  144.6113  151.7428 LP  0  0  0  0  0  0  0  0  0  0  0  0  # atno 17342 bound_to 10162
  140.5261  144.0804  150.6038 LP  0  0  0  0  0  0  0  0  0  0  0  0  # atno 17343 bound_to 10162
  156.5135  130.8183  151.3177 LP  0  0  0  0  0  0  0  0  0  0  0  0  # atno 17370 bound_to 10713
  157.7431  130.9906  150.2571 LP  0  0  0  0  0  0  0  0  0  0  0  0  # atno 17371 bound_to 10713
  139.8750  134.9919  156.5573 LP  0  0  0  0  0  0  0  0  0  0  0  0  # atno 17394 bound_to 11000
  140.8162  133.8390  155.8854 LP  0  0  0  0  0  0  0  0  0  0  0  0  # atno 17395 bound_to 11000

$$$$
