#       Name:                AV-unprocessed.smi:1113
#       Creating user name   scv26
#       Creation time:       Fri Mar 27 03:34:35 2020


#       File generated by GOLD software.
#

@<TRIPOS>MOLECULE
AV-unprocessed.smi:1113
    48    49     1
SMALL
NO_CHARGES


@<TRIPOS>ATOM
      1 ****        -3.1957   5.8222   2.1419 C.3            1 S1                 0.0000
      2 ****        -2.6610   4.4049   2.3842 C.3            1 S1                 0.0000
      3 ****        -3.2131   3.9449   3.6010 O.3            1 S1                 0.0000
      4 ****        -1.1239   4.3809   2.4919 C.3            1 S1                 0.0000
      5 ****        -0.5949   3.0265   2.3700 N.am           1 S1                 0.0000
      6 ****        -0.4058   2.3738   1.2148 C.2            1 S1                 0.0000
      7 ****        -0.6504   2.8618   0.1116 O.2            1 S1                 0.0000
      8 ****         0.0559   1.1305   1.4309 N.am           1 S1                 0.0000
      9 ****         0.3845   0.1297   0.4773 C.ar           1 S1                 0.0000
     10 ****         0.7083   0.3917  -0.8752 C.ar           1 S1                 0.0000
     11 ****         1.0375  -0.6878  -1.7171 C.ar           1 S1                 0.0000
     12 ****         1.0401  -1.9924  -1.1825 C.ar           1 S1                 0.0000
     13 ****         1.3694  -3.0692  -2.0177 N.3            1 S1                 0.0000
     14 ****         2.6151  -3.7301  -1.6480 C.3            1 S1                 0.0000
     15 ****         2.9635  -4.8138  -2.6831 C.3            1 S1                 0.0000
     16 ****         1.8775  -5.7287  -2.8016 O.3            1 S1                 0.0000
     17 ****         0.6821  -5.0859  -3.2359 C.3            1 S1                 0.0000
     18 ****         0.2743  -4.0111  -2.2136 C.3            1 S1                 0.0000
     19 ****         0.7429  -2.2492   0.1132 N.ar           1 S1                 0.0000
     20 ****         0.4289  -1.2099   0.9151 C.ar           1 S1                 0.0000
     21 ****        -2.8182   6.2255   1.2018 H              1 S1                 0.0000
     22 ****        -2.8974   6.5036   2.9395 H              1 S1                 0.0000
     23 ****        -4.2849   5.8280   2.0871 H              1 S1                 0.0000
     24 ****        -3.0013   3.7584   1.5741 H              1 S1                 0.0000
     25 ****        -2.9247   4.5157   4.2964 H              1 S1                 0.0000
     26 ****        -0.6843   5.0005   1.7081 H              1 S1                 0.0000
     27 ****        -0.7937   4.8131   3.4374 H              1 S1                 0.0000
     28 ****        -0.3764   2.5458   3.2305 H              1 S1                 0.0000
     29 ****         0.1257   0.8460   2.3970 H              1 S1                 0.0000
     30 ****         0.7264   1.3921  -1.2789 H              1 S1                 0.0000
     31 ****         1.2881  -0.5141  -2.7534 H              1 S1                 0.0000
     32 ****         3.4197  -2.9961  -1.5884 H              1 S1                 0.0000
     33 ****         2.5152  -4.1815  -0.6599 H              1 S1                 0.0000
     34 ****         3.1840  -4.3675  -3.6543 H              1 S1                 0.0000
     35 ****         3.8552  -5.3583  -2.3727 H              1 S1                 0.0000
     36 ****         0.8312  -4.6469  -4.2238 H              1 S1                 0.0000
     37 ****        -0.1073  -5.8309  -3.3341 H              1 S1                 0.0000
     38 ****         0.0171  -4.4831  -1.2642 H              1 S1                 0.0000
     39 ****        -0.6123  -3.4796  -2.5615 H              1 S1                 0.0000
     40 ****         0.2016  -1.4592   1.9413 H              1 S1                 0.0000
     41 ****        -2.9028   3.0114   3.7805 LP             1 S1                 0.0000
     42 ****        -4.2114   3.9593   3.5451 LP             1 S1                 0.0000
     43 ****        -1.0100   3.7925   0.0452 LP             1 S1                 0.0000
     44 ****        -0.4895   2.3275  -0.7182 LP             1 S1                 0.0000
     45 ****         1.5342  -2.6544  -2.9125 LP             1 S1                 0.0000
     46 ****         1.7118  -6.1501  -1.9100 LP             1 S1                 0.0000
     47 ****         2.1225  -6.4364  -3.4643 LP             1 S1                 0.0000
     48 ****         0.7557  -3.1845   0.4669 LP             1 S1                 0.0000
@<TRIPOS>BOND
    1    1    2 1     
    2    1   21 1     
    3    1   22 1     
    4    1   23 1     
    5    2    3 1     
    6    2    4 1     
    7    2   24 1     
    8    3   25 1     
    9    4    5 1     
   10    4   26 1     
   11    4   27 1     
   12    5    6 am    
   13    5   28 1     
   14    6    7 2     
   15    6    8 am    
   16    8    9 1     
   17    8   29 1     
   18    9   20 ar    
   19    9   10 ar    
   20   10   11 ar    
   21   10   30 1     
   22   11   12 ar    
   23   11   31 1     
   24   12   13 1     
   25   12   19 ar    
   26   13   18 1     
   27   13   14 1     
   28   14   15 1     
   29   14   32 1     
   30   14   33 1     
   31   15   16 1     
   32   15   34 1     
   33   15   35 1     
   34   16   17 1     
   35   17   18 1     
   36   17   36 1     
   37   17   37 1     
   38   18   38 1     
   39   18   39 1     
   40   19   20 ar    
   41   20   40 1     
   42    3   41 1     
   43    3   42 1     
   44    7   43 1     
   45    7   44 1     
   46   13   45 1     
   47   16   46 1     
   48   16   47 1     
   49   19   48 1     
@<TRIPOS>SUBSTRUCTURE
      1 S1             1
@<TRIPOS>SET
LONE_PAIRS      STATIC     ATOMS    <user>   **** ""
8 41 42 43 44 45 46 47 48
DONOR_HYDROGENS      STATIC     ATOMS    <user>   **** ""
3 25 28 29
ATOM$BLUE        STATIC     ATOMS    COLORGROUP SYSTEM
8 41 42 43 44 45 46 47 48
ATOM$RED        STATIC     ATOMS    COLORGROUP SYSTEM
3 25 28 29
