AV-unprocessed.smi:1929|AV-procd|sdf|7799|dock6
  -GOLD-   22720 9543D 1   1.00000     0.00000
 Structure written by MMmdl.
 42 43  0  0  0  0  0  0  0  0  1 V2000
  146.5488  134.4949  152.9727 C   0  0  0  0  0  0  0  0  0  0  0  0
  146.7465  135.8553  152.4970 N   0  0  0  0  0  0  0  0  0  0  0  0
  145.9827  136.8977  152.8549 C   0  0  0  0  0  0  0  0  0  0  0  0
  145.0285  136.8031  153.6269 O   0  0  0  0  0  0  0  0  0  0  0  0
  146.3548  138.2607  152.2589 C   0  0  0  0  0  0  0  0  0  0  0  0
  146.9637  139.2061  153.2226 N   0  0  0  0  0  0  0  0  0  0  0  0
  147.1559  140.5047  152.5690 C   0  0  0  0  0  0  0  0  0  0  0  0
  147.6627  141.5503  153.5776 C   0  0  0  0  0  0  0  0  0  0  0  0
  148.9826  141.1027  154.2203 C   0  0  0  0  0  0  0  0  0  0  0  0
  149.3830  142.0560  155.2511 N   0  0  0  0  0  0  0  0  0  0  0  0
  150.3535  141.8553  156.1542 C   0  0  0  0  0  0  0  0  0  0  0  0
  151.0192  140.8219  156.2146 O   0  0  0  0  0  0  0  0  0  0  0  0
  150.4764  142.9122  156.9764 N   0  0  0  0  0  0  0  0  0  0  0  0
  151.3880  143.1052  158.0502 C   0  0  0  0  0  0  0  0  0  0  0  0
  152.1503  141.9953  158.4700 C   0  0  0  0  0  0  0  0  0  0  0  0
  153.0493  142.1547  159.5432 C   0  0  0  0  0  0  0  0  0  0  0  0
  153.2162  143.3196  160.2041 N   0  0  0  0  0  0  0  0  0  0  0  0
  152.4761  144.3776  159.8105 C   0  0  0  0  0  0  0  0  0  0  0  0
  151.5496  144.3259  158.7495 C   0  0  0  0  0  0  0  0  0  0  0  0
  148.7955  139.6969  154.8138 C   0  0  0  0  0  0  0  0  0  0  0  0
  148.2394  138.7164  153.7659 C   0  0  0  0  0  0  0  0  0  0  0  0
  147.3059  133.8381  152.5448 H   0  0  0  0  0  0  0  0  0  0  0  0
  145.5670  134.1201  152.6809 H   0  0  0  0  0  0  0  0  0  0  0  0
  146.6314  134.4480  154.0593 H   0  0  0  0  0  0  0  0  0  0  0  0
  147.5132  136.0164  151.8600 H   0  0  0  0  0  0  0  0  0  0  0  0
  147.0242  138.1218  151.4075 H   0  0  0  0  0  0  0  0  0  0  0  0
  145.4360  138.6932  151.8605 H   0  0  0  0  0  0  0  0  0  0  0  0
  147.8559  140.4123  151.7365 H   0  0  0  0  0  0  0  0  0  0  0  0
  146.2100  140.8515  152.1507 H   0  0  0  0  0  0  0  0  0  0  0  0
  147.7981  142.5095  153.0766 H   0  0  0  0  0  0  0  0  0  0  0  0
  146.9052  141.7071  154.3473 H   0  0  0  0  0  0  0  0  0  0  0  0
  149.7488  141.0657  153.4432 H   0  0  0  0  0  0  0  0  0  0  0  0
  148.8807  142.9311  155.2785 H   0  0  0  0  0  0  0  0  0  0  0  0
  149.8014  143.6516  156.8478 H   0  0  0  0  0  0  0  0  0  0  0  0
  152.0556  141.0381  157.9782 H   0  0  0  0  0  0  0  0  0  0  0  0
  153.6491  141.3224  159.8810 H   0  0  0  0  0  0  0  0  0  0  0  0
  152.6213  145.2944  160.3626 H   0  0  0  0  0  0  0  0  0  0  0  0
  150.9814  145.2104  158.5072 H   0  0  0  0  0  0  0  0  0  0  0  0
  149.7450  139.3216  155.1974 H   0  0  0  0  0  0  0  0  0  0  0  0
  148.1143  139.7398  155.6653 H   0  0  0  0  0  0  0  0  0  0  0  0
  148.1120  137.7476  154.2487 H   0  0  0  0  0  0  0  0  0  0  0  0
  148.9614  138.5742  152.9600 H   0  0  0  0  0  0  0  0  0  0  0  0
  1  2  1  0  0  0  0
  1 22  1  0  0  0  0
  1 23  1  0  0  0  0
  1 24  1  0  0  0  0
  2  3  1  0  0  0  0
  2 25  1  0  0  0  0
  3  4  2  0  0  0  0
  3  5  1  0  0  0  0
  5  6  1  0  0  0  0
  5 26  1  0  0  0  0
  5 27  1  0  0  0  0
  6 21  1  0  0  0  0
  6  7  1  0  0  0  0
  7  8  1  0  0  0  0
  7 28  1  0  0  0  0
  7 29  1  0  0  0  0
  8  9  1  0  0  0  0
  8 30  1  0  0  0  0
  8 31  1  0  0  0  0
  9 10  1  0  0  0  0
  9 20  1  0  0  0  0
  9 32  1  0  0  0  0
 10 11  1  0  0  0  0
 10 33  1  0  0  0  0
 11 12  2  0  0  0  0
 11 13  1  0  0  0  0
 13 14  1  0  0  0  0
 13 34  1  0  0  0  0
 14 19  1  0  0  0  0
 14 15  2  0  0  0  0
 15 16  1  0  0  0  0
 15 35  1  0  0  0  0
 16 17  2  0  0  0  0
 16 36  1  0  0  0  0
 17 18  1  0  0  0  0
 18 19  2  0  0  0  0
 18 37  1  0  0  0  0
 19 38  1  0  0  0  0
 20 21  1  0  0  0  0
 20 39  1  0  0  0  0
 20 40  1  0  0  0  0
 21 41  1  0  0  0  0
 21 42  1  0  0  0  0
M  END
> <s_m_source_file>
AV-unprocessed.smi

> <i_m_source_file_index>
1929

> <i_lp_mmshare_version>
43012

> <i_f3d_flags>
0

> <s_epik_input>
W0NIM11bTkhdQyg9TylbQ0gyXU4xW0NIMl1bQ0gyXVtDSF0oW0NIMl1bQ0gyXTEpW05IXUMoPU8pW05IXWMyW2NIXVtjSF1uW2NIXVtjSF0y

> <s_epik_cmdline>
J2VwaWtfcHl0aG9uJywgJy1waCcsICc3LjAnLCAnLXRuJywgJzgnLCAnLW1hJywgJzIwMCcsICctbWV0YWxfYmluZGluZycsICctaW1hZScsICc8aW5maWxlLm1hZT4nLCAnLW9tYWUnLCAnPG91dGZpbGUubWFlPic=

> <r_epik_Ionization_Penalty>
0.286942

> <r_epik_Ionization_Penalty_Charging>
0

> <r_epik_Ionization_Penalty_Neutral>
0.286942

> <r_epik_State_Penalty>
0.264061

> <r_epik_Charging_Adjusted_Penalty>
0.264061

> <i_epik_Tot_Q>
0

> <i_epik_Tot_abs_Q>
0

> <r_epik_Metal_State_Penalty>
0.245324

> <b_epik_Metal_Only>
0

> <s_lp_Force_Field>
OPLS_2005

> <r_lp_Energy>
20.0656

> <b_lp_Chiralities_Consistent>
1

> <s_lp_Variant>
AV-unprocessed.smi:1929-1

> <Gold.Version>
5.8.1

> <Gold.Id.Protein>
6NUR|6NUR_protein|mol2

> <Gold.PLP.Fitness>
45.4087

> <Gold.PLP.PLP>
-37.0120

> <Gold.PLP.part.hbond>
-3.0000

> <Gold.PLP.part.metal>
0.0000

> <Gold.PLP.part.buried>
-4.9579

> <Gold.PLP.part.nonpolar>
-30.6020

> <Gold.PLP.part.repulsive>
0.5795

> <Gold.PLP.ligand.clash>
0.0000

> <Gold.PLP.ligand.torsion>
0.2924

> <Gold.PLP.Chemscore.Hbond>
2.9920

> <Gold.PLP.Chemscore.CHOScore>
0.0000

> <Gold.PLP.Chemscore.Metal>
0.0000

> <Gold.Chemscore.Hbonds>
donor molecule, donor type, donor heavy atom, donor atom, acceptor molecule, acceptor atom, score
      L1  H     2    25       P1  7948  0.63
      L1  H    10    33       P1  8028  0.99
      L1  H    13    34       P1  8028  0.96

> <Gold.PLP.Chemscore.Internal.Correction>
0.0055

> <Gold.Rescore>
     Score         DG    S(hbond)    S(metal)    S(lipo)     H(rot)  DE(clash)    DE(int)     intcor
     19.33     -22.44       2.83        0.00     100.64       1.66       0.29       2.82       ----

> <Gold.Chemscore.Fitness>
19.3286

> <Gold.Chemscore.DG>
-22.4388

> <Gold.Chemscore.ZeroCoef>
-5.4800

> <Gold.Chemscore.Hbond>
2.8263

> <Gold.Chemscore.Metal>
0.0000

> <Gold.Chemscore.Lipo>
100.6357

> <Gold.Chemscore.Internal_Hbond>
0.0000

> <Gold.Chemscore.DEClash>
0.2934

> <Gold.Chemscore.DEInternal>
2.8168

> <Gold.Chemscore.Rot>
1.6623

> <Gold.Chemscore.Internal.Correction>
   9.000000E+99

> <Gold.Chemscore.Hbonds>
donor molecule, donor type, donor heavy atom, donor atom, acceptor molecule, acceptor atom, score
      L1  H     2    25       P1  7948  0.62
      L1  H    10    33       P1  8028  0.93
      L1  H    13    34       P1  8028  0.92

> <Gold.Chemscore.Hbond.Weighted>
-9.4398

> <Gold.Chemscore.Metal.Weighted>
-0.0000

> <Gold.Chemscore.Lipo.Weighted>
-11.7744

> <Gold.Chemscore.Internal_Hbond.Weighted>
0.0000

> <Gold.Chemscore.DEClash.Weighted>
0.2934

> <Gold.Chemscore.DEInternal.Weighted>
2.8168

> <Gold.Chemscore.Rot.Weighted>
4.2554

> <Gold.Chemscore.Internal.Correction.Weighted>
   9.000000E+99

> <Gold.Protein.RotatedTorsions>
[ 6907 6896 6895 6894 ] final  167.42 input  -60.11 | X-H torsion
[ 7974 7965 7964 7962 ] final  103.64 input  175.53 | X-H torsion
[ 8008 7997 7996 7995 ] final   21.59 input   59.86 | X-H torsion
[ 10167 10162 10161 10158 ] final  134.93 input  -65.29 | X-H torsion
[ 10718 10713 10712 10709 ] final   71.85 input   66.30 | X-H torsion
[ 10763 10752 10751 10750 ] final  -74.01 input  -60.55 | X-H torsion
[ 11005 11000 10999 10996 ] final  -85.56 input  -57.11 | X-H torsion

> <Gold.Protein.ActiveResidues>
 VAL166  LYS551  ARG553  GLY616  TRP617  ASP618  TYR619  PRO620  LYS621  CYS622 
 ASP623  PHE694  ASN695  SER759  ASP760  ASP761  ALA762  ILE779  LEU786  VAL792 
 PHE793  MET794  SER795  GLU796  ALA797  LYS798  CYS799  TRP800  GLU811  SER814 

> <Gold.Protein.RotatedAtoms>
  151.8636  133.3462  159.3711 H   0  0  0  0  0  0  0  0  0  0  0  0  # atno 6907 bound_to 6896
  150.7172  134.5182  159.5650 H   0  0  0  0  0  0  0  0  0  0  0  0  # atno 6908 bound_to 6896
  152.2700  134.7943  160.0467 H   0  0  0  0  0  0  0  0  0  0  0  0  # atno 6909 bound_to 6896
  145.3432  139.2457  143.3598 H   0  0  0  0  0  0  0  0  0  0  0  0  # atno 7974 bound_to 7965
  154.9528  140.3068  155.5067 H   0  0  0  0  0  0  0  0  0  0  0  0  # atno 8008 bound_to 7997
  156.2985  140.2315  156.4545 H   0  0  0  0  0  0  0  0  0  0  0  0  # atno 8009 bound_to 7997
  154.8038  140.0432  157.1281 H   0  0  0  0  0  0  0  0  0  0  0  0  # atno 8010 bound_to 7997
  139.5237  144.6543  151.5210 H   0  0  0  0  0  0  0  0  0  0  0  0  # atno 10167 bound_to 10162
  157.6472  130.9549  150.0846 H   0  0  0  0  0  0  0  0  0  0  0  0  # atno 10718 bound_to 10713
  154.4673  135.5878  153.6297 H   0  0  0  0  0  0  0  0  0  0  0  0  # atno 10763 bound_to 10752
  152.9830  135.6058  154.3410 H   0  0  0  0  0  0  0  0  0  0  0  0  # atno 10764 bound_to 10752
  154.3289  135.2843  155.2461 H   0  0  0  0  0  0  0  0  0  0  0  0  # atno 10765 bound_to 10752
  141.1640  133.7406  156.9033 H   0  0  0  0  0  0  0  0  0  0  0  0  # atno 11005 bound_to 11000
  146.2999  140.4033  142.8708 LP  0  0  0  0  0  0  0  0  0  0  0  0  # atno 17320 bound_to 7965
  144.8774  140.7355  143.6008 LP  0  0  0  0  0  0  0  0  0  0  0  0  # atno 17321 bound_to 7965
  140.6361  143.8981  150.6649 LP  0  0  0  0  0  0  0  0  0  0  0  0  # atno 17342 bound_to 10162
  140.2301  143.3742  152.1573 LP  0  0  0  0  0  0  0  0  0  0  0  0  # atno 17343 bound_to 10162
  156.1812  130.3650  149.9032 LP  0  0  0  0  0  0  0  0  0  0  0  0  # atno 17370 bound_to 10713
  156.6984  130.8923  151.3596 LP  0  0  0  0  0  0  0  0  0  0  0  0  # atno 17371 bound_to 10713
  140.1567  134.9193  157.2663 LP  0  0  0  0  0  0  0  0  0  0  0  0  # atno 17394 bound_to 11000
  140.2658  134.3517  155.7390 LP  0  0  0  0  0  0  0  0  0  0  0  0  # atno 17395 bound_to 11000

$$$$
