#       Name:                AV-unprocessed.smi:3187
#       Creating user name   scv26
#       Creation time:       Fri Mar 27 18:01:31 2020


#       File generated by GOLD software.
#

@<TRIPOS>MOLECULE
AV-unprocessed.smi:3187
    42    43     1
SMALL
NO_CHARGES


@<TRIPOS>ATOM
      1 ****        -0.3622   0.8345  -2.4811 C.3            1 S1                 0.0000
      2 ****        -1.4775   1.1002  -1.4830 C.2            1 S1                 0.0000
      3 ****        -2.6261   1.6659  -1.9007 C.2            1 S1                 0.0000
      4 ****        -3.7691   2.0468  -0.9887 C.3            1 S1                 0.0000
      5 ****        -3.2906   2.1937   0.4574 C.3            1 S1                 0.0000
      6 ****        -2.4692   0.9729   0.9038 C.3            1 S1                 0.0000
      7 ****        -2.0895   1.1276   2.3894 C.3            1 S1                 0.0000
      8 ****        -1.2266   0.7264  -0.0073 C.3            1 S1                 0.0000
      9 ****        -0.7218  -0.7308   0.1669 C.3            1 S1                 0.0000
     10 ****         0.6836  -0.9067  -0.2514 N.4            1 S1                 1.0000
     11 ****         1.1829  -2.2914  -0.1330 C.3            1 S1                 0.0000
     12 ****         2.6432  -2.4060  -0.5974 C.3            1 S1                 0.0000
     13 ****         3.5461  -1.6463   0.2464 N.pl3          1 S1                 0.0000
     14 ****         4.0145  -2.0018   1.5046 C.2            1 S1                 0.0000
     15 ****         4.8348  -0.9781   1.9222 C.2            1 S1                 0.0000
     16 ****         4.8861   0.0105   0.9421 N.2            1 S1                 0.0000
     17 ****         4.1039  -0.4572  -0.0216 C.2            1 S1                 0.0000
     18 ****         0.5819   1.2398  -2.1166 H              1 S1                 0.0000
     19 ****        -0.5723   1.3035  -3.4431 H              1 S1                 0.0000
     20 ****        -0.2458  -0.2340  -2.6604 H              1 S1                 0.0000
     21 ****        -2.7676   1.8906  -2.9481 H              1 S1                 0.0000
     22 ****        -4.2015   2.9877  -1.3308 H              1 S1                 0.0000
     23 ****        -4.5483   1.2879  -1.0666 H              1 S1                 0.0000
     24 ****        -2.6834   3.0956   0.5495 H              1 S1                 0.0000
     25 ****        -4.1527   2.3352   1.1104 H              1 S1                 0.0000
     26 ****        -3.1263   0.1055   0.8198 H              1 S1                 0.0000
     27 ****        -1.4224   1.9770   2.5403 H              1 S1                 0.0000
     28 ****        -1.5942   0.2438   2.7879 H              1 S1                 0.0000
     29 ****        -2.9757   1.2950   3.0024 H              1 S1                 0.0000
     30 ****        -0.4405   1.4031   0.3319 H              1 S1                 0.0000
     31 ****        -0.7830  -1.0448   1.2076 H              1 S1                 0.0000
     32 ****        -1.3607  -1.4126  -0.3964 H              1 S1                 0.0000
     33 ****         0.7668  -0.6172  -1.2156 H              1 S1                 0.0000
     34 ****         1.0876  -2.6278   0.9004 H              1 S1                 0.0000
     35 ****         0.5566  -2.9455  -0.7406 H              1 S1                 0.0000
     36 ****         2.9592  -3.4497  -0.5784 H              1 S1                 0.0000
     37 ****         2.7469  -2.0652  -1.6288 H              1 S1                 0.0000
     38 ****         3.7333  -2.9267   1.9867 H              1 S1                 0.0000
     39 ****         5.3876  -0.8782   2.8449 H              1 S1                 0.0000
     40 ****         3.9272   0.0820  -0.9410 H              1 S1                 0.0000
     41 ****         1.2640  -0.3062   0.3171 H              1 S1                 0.0000
     42 ****         5.3941   0.8717   0.9607 LP             1 S1                 0.0000
@<TRIPOS>BOND
    1    1    2 1     
    2    1   18 1     
    3    1   19 1     
    4    1   20 1     
    5    2    8 1     
    6    2    3 2     
    7    3    4 1     
    8    3   21 1     
    9    4    5 1     
   10    4   22 1     
   11    4   23 1     
   12    5    6 1     
   13    5   24 1     
   14    5   25 1     
   15    6    7 1     
   16    6    8 1     
   17    6   26 1     
   18    7   27 1     
   19    7   28 1     
   20    7   29 1     
   21    8    9 1     
   22    8   30 1     
   23    9   10 1     
   24    9   31 1     
   25    9   32 1     
   26   10   11 1     
   27   10   33 1     
   28   10   41 1     
   29   11   12 1     
   30   11   34 1     
   31   11   35 1     
   32   12   13 1     
   33   12   36 1     
   34   12   37 1     
   35   13   17 1     
   36   13   14 1     
   37   14   15 2     
   38   14   38 1     
   39   15   16 1     
   40   15   39 1     
   41   16   17 2     
   42   17   40 1     
   43   16   42 1     
@<TRIPOS>SUBSTRUCTURE
      1 S1             1
@<TRIPOS>SET
LONE_PAIRS      STATIC     ATOMS    <user>   **** ""
1 42
DONOR_HYDROGENS      STATIC     ATOMS    <user>   **** ""
2 33 41
ATOM$BLUE        STATIC     ATOMS    COLORGROUP SYSTEM
1 42
ATOM$RED        STATIC     ATOMS    COLORGROUP SYSTEM
2 33 41
