AV-unprocessed.smi:2698|AV-procd|sdf|10418|dock3
  -GOLD-   2272014453D 1   1.00000     0.00000
 Structure written by MMmdl.
 34 34  0  0  0  0  0  0  0  0  3 V2000
  151.7166  145.5839  159.4373 C   0  0  0  0  0  0  0  0  0  0  0  0
  151.6001  144.0641  159.2453 C   0  0  0  0  0  0  0  0  0  0  0  0
  152.7919  143.3487  159.9082 C   0  0  0  0  0  0  0  0  0  0  0  0
  151.4334  143.7181  157.7472 C   0  0  0  0  0  0  0  0  0  0  0  0
  150.9718  142.2789  157.5031 C   0  0  0  0  0  0  0  0  0  0  0  0
  150.8166  141.5098  158.4517 O   0  0  0  0  0  0  0  0  0  0  0  0
  150.7545  141.9316  156.2246 N   0  0  0  0  0  0  0  0  0  0  0  0
  150.2853  140.6292  155.7511 C   0  0  1  0  0  0  0  0  0  0  0  0
  149.7614  140.7060  154.3007 C   0  0  0  0  0  0  0  0  0  0  0  0
  148.3215  141.1358  154.1617 C   0  0  0  0  0  0  0  0  0  0  0  0
  147.2280  140.4765  153.6317 C   0  0  0  0  0  0  0  0  0  0  0  0
  146.1300  141.3074  153.7837 N   0  0  0  0  0  0  0  0  0  0  0  0
  146.5643  142.4141  154.3836 C   0  0  0  0  0  0  0  0  0  0  0  0
  147.8723  142.3630  154.6264 N   0  3  0  0  0  0  0  0  0  0  0  0
  151.3900  139.5852  155.9318 C   0  0  0  0  0  0  0  0  0  0  0  0
  152.4822  139.9842  156.3934 O   0  0  0  0  0  0  0  0  0  0  0  0
  151.1278  138.4088  155.5997 O   0  5  0  0  0  0  0  0  0  0  0  0
  145.1798  141.1052  153.5069 H   0  0  0  0  0  0  0  0  0  0  0  0
  152.5973  145.9805  158.9312 H   0  0  0  0  0  0  0  0  0  0  0  0
  151.7943  145.8436  160.4934 H   0  0  0  0  0  0  0  0  0  0  0  0
  150.8433  146.1006  159.0380 H   0  0  0  0  0  0  0  0  0  0  0  0
  150.6963  143.7454  159.7673 H   0  0  0  0  0  0  0  0  0  0  0  0
  153.7284  143.5934  159.4062 H   0  0  0  0  0  0  0  0  0  0  0  0
  152.6783  142.2654  159.8918 H   0  0  0  0  0  0  0  0  0  0  0  0
  152.8904  143.6410  160.9539 H   0  0  0  0  0  0  0  0  0  0  0  0
  150.7117  144.3965  157.2892 H   0  0  0  0  0  0  0  0  0  0  0  0
  152.3740  143.8796  157.2186 H   0  0  0  0  0  0  0  0  0  0  0  0
  150.9325  142.6230  155.5099 H   0  0  0  0  0  0  0  0  0  0  0  0
  149.4548  140.3088  156.3842 H   0  0  0  0  0  0  0  0  0  0  0  0
  150.3865  141.3724  153.7043 H   0  0  0  0  0  0  0  0  0  0  0  0
  149.8482  139.7213  153.8397 H   0  0  0  0  0  0  0  0  0  0  0  0
  147.1307  139.5013  153.1779 H   0  0  0  0  0  0  0  0  0  0  0  0
  145.9319  143.2492  154.6474 H   0  0  0  0  0  0  0  0  0  0  0  0
  148.4298  143.0723  155.0807 H   0  0  0  0  0  0  0  0  0  0  0  0
  1  2  1  0  0  0  0
  1 19  1  0  0  0  0
  1 20  1  0  0  0  0
  1 21  1  0  0  0  0
  2  3  1  0  0  0  0
  2  4  1  0  0  0  0
  2 22  1  0  0  0  0
  3 23  1  0  0  0  0
  3 24  1  0  0  0  0
  3 25  1  0  0  0  0
  4  5  1  0  0  0  0
  4 26  1  0  0  0  0
  4 27  1  0  0  0  0
  5  6  2  0  0  0  0
  5  7  1  0  0  0  0
  7  8  1  0  0  0  0
  7 28  1  0  0  0  0
  8  9  1  0  0  0  0
  8 15  1  0  0  0  0
  8 29  1  0  0  0  0
  9 10  1  0  0  0  0
  9 30  1  0  0  0  0
  9 31  1  0  0  0  0
 10 14  1  0  0  0  0
 10 11  2  0  0  0  0
 11 12  1  0  0  0  0
 11 32  1  0  0  0  0
 12 18  1  0  0  0  0
 12 13  1  0  0  0  0
 13 14  2  0  0  0  0
 13 33  1  0  0  0  0
 14 34  1  0  0  0  0
 15 16  2  0  0  0  0
 15 17  1  0  0  0  0
M  CHG  1  14   1
M  CHG  1  17  -1
M  END
> <s_m_source_file>
AV-unprocessed.smi

> <i_m_source_file_index>
2698

> <i_lp_mmshare_version>
43012

> <i_f3d_flags>
0

> <s_epik_input>
W0NIM11bQ0hdKFtDSDNdKVtDSDJdQyg9TylbTkhdW0NAQEhdKEMoPU8pW09IXSlbQ0gyXWMxW2NIXVtuSF1bY0hdbjE=

> <s_epik_cmdline>
J2VwaWtfcHl0aG9uJywgJy1waCcsICc3LjAnLCAnLXRuJywgJzgnLCAnLW1hJywgJzIwMCcsICctbWV0YWxfYmluZGluZycsICctaW1hZScsICc8aW5maWxlLm1hZT4nLCAnLW9tYWUnLCAnPG91dGZpbGUubWFlPic=

> <r_lp_tautomer_probability>
1

> <r_epik_Ionization_Penalty>
0.478676

> <r_epik_Ionization_Penalty_Charging>
5.56794e-05

> <r_epik_Ionization_Penalty_Neutral>
0.478621

> <r_epik_State_Penalty>
0.385221

> <r_epik_Charging_Adjusted_Penalty>
0.385276

> <i_epik_Tot_Q>
0

> <i_epik_Tot_abs_Q>
2

> <r_epik_Metal_State_Penalty>
0.800557

> <b_epik_Metal_Only>
0

> <s_lp_Force_Field>
OPLS_2005

> <r_lp_Energy>
0.213312

> <b_lp_Chiralities_Consistent>
1

> <s_lp_Variant>
AV-unprocessed.smi:2698-2

> <Gold.Version>
5.8.1

> <Gold.Id.Protein>
6NUR|6NUR_protein|mol2

> <Gold.PLP.Fitness>
54.7259

> <Gold.PLP.PLP>
-37.7678

> <Gold.PLP.part.hbond>
-3.0000

> <Gold.PLP.part.metal>
0.0000

> <Gold.PLP.part.buried>
-1.5886

> <Gold.PLP.part.nonpolar>
-33.4636

> <Gold.PLP.part.repulsive>
0.3811

> <Gold.PLP.ligand.clash>
0.0000

> <Gold.PLP.ligand.torsion>
0.5766

> <Gold.PLP.Chemscore.Hbond>
6.0000

> <Gold.PLP.Chemscore.CHOScore>
0.0000

> <Gold.PLP.Chemscore.Metal>
0.0000

> <Gold.Chemscore.Hbonds>
donor molecule, donor type, donor heavy atom, donor atom, acceptor molecule, acceptor atom, score
      L1  H    12    18       P1 10175  2.00
      L1  H    14    34       P1  8028  2.00
      P1  H  7997  8008       L1    16  2.00

> <Gold.PLP.Chemscore.Internal.Correction>
0.1113

> <Gold.Rescore>
     Score         DG    S(hbond)    S(metal)    S(lipo)     H(rot)  DE(clash)    DE(int)     intcor
     14.46     -16.63       2.90        0.00      79.99       3.09       1.21       0.96       ----

> <Gold.Chemscore.Fitness>
14.4563

> <Gold.Chemscore.DG>
-16.6283

> <Gold.Chemscore.ZeroCoef>
-5.4800

> <Gold.Chemscore.Hbond>
2.9030

> <Gold.Chemscore.Metal>
0.0000

> <Gold.Chemscore.Lipo>
79.9941

> <Gold.Chemscore.Internal_Hbond>
0.0000

> <Gold.Chemscore.DEClash>
1.2131

> <Gold.Chemscore.DEInternal>
0.9589

> <Gold.Chemscore.Rot>
3.0887

> <Gold.Chemscore.Internal.Correction>
   9.000000E+99

> <Gold.Chemscore.Hbonds>
donor molecule, donor type, donor heavy atom, donor atom, acceptor molecule, acceptor atom, score
      L1  H    12    18       P1 10175  0.50
      L1  H    14    34       P1  8028  0.98
      P1  H  7997  8008       L1    16  1.00

> <Gold.Chemscore.Hbond.Weighted>
-9.6960

> <Gold.Chemscore.Metal.Weighted>
-0.0000

> <Gold.Chemscore.Lipo.Weighted>
-9.3593

> <Gold.Chemscore.Internal_Hbond.Weighted>
0.0000

> <Gold.Chemscore.DEClash.Weighted>
1.2131

> <Gold.Chemscore.DEInternal.Weighted>
0.9589

> <Gold.Chemscore.Rot.Weighted>
7.9070

> <Gold.Chemscore.Internal.Correction.Weighted>
   9.000000E+99

> <Gold.Protein.RotatedTorsions>
[ 6907 6896 6895 6894 ] final   83.15 input  -60.11 | X-H torsion
[ 7974 7965 7964 7962 ] final  -84.09 input  175.53 | X-H torsion
[ 8008 7997 7996 7995 ] final  -49.59 input   59.86 | X-H torsion
[ 10167 10162 10161 10158 ] final  174.62 input  -65.29 | X-H torsion
[ 10718 10713 10712 10709 ] final  161.43 input   66.30 | X-H torsion
[ 10763 10752 10751 10750 ] final  -58.34 input  -60.55 | X-H torsion
[ 11005 11000 10999 10996 ] final   65.47 input  -57.11 | X-H torsion

> <Gold.Protein.ActiveResidues>
 VAL166  LYS551  ARG553  GLY616  TRP617  ASP618  TYR619  PRO620  LYS621  CYS622 
 ASP623  PHE694  ASN695  SER759  ASP760  ASP761  ALA762  ILE779  LEU786  VAL792 
 PHE793  MET794  SER795  GLU796  ALA797  LYS798  CYS799  TRP800  GLU811  SER814 

> <Gold.Protein.RotatedAtoms>
  152.5319  134.2939  159.9053 H   0  0  0  0  0  0  0  0  0  0  0  0  # atno 6907 bound_to 6896
  151.2891  133.4167  159.2639 H   0  0  0  0  0  0  0  0  0  0  0  0  # atno 6908 bound_to 6896
  151.0216  134.9489  159.8120 H   0  0  0  0  0  0  0  0  0  0  0  0  # atno 6909 bound_to 6896
  145.5113  140.9539  143.1706 H   0  0  0  0  0  0  0  0  0  0  0  0  # atno 7974 bound_to 7965
  154.4046  140.1293  156.4527 H   0  0  0  0  0  0  0  0  0  0  0  0  # atno 8008 bound_to 7997
  155.7350  140.3491  155.5057 H   0  0  0  0  0  0  0  0  0  0  0  0  # atno 8009 bound_to 7997
  155.9092  140.1033  157.1282 H   0  0  0  0  0  0  0  0  0  0  0  0  # atno 8010 bound_to 7997
  139.5148  144.3125  152.0278 H   0  0  0  0  0  0  0  0  0  0  0  0  # atno 10167 bound_to 10162
  157.1366  131.0530  151.2346 H   0  0  0  0  0  0  0  0  0  0  0  0  # atno 10718 bound_to 10713
  154.2366  135.6351  153.5193 H   0  0  0  0  0  0  0  0  0  0  0  0  # atno 10763 bound_to 10752
  152.9938  135.5532  154.5956 H   0  0  0  0  0  0  0  0  0  0  0  0  # atno 10764 bound_to 10752
  154.5451  135.2897  155.1034 H   0  0  0  0  0  0  0  0  0  0  0  0  # atno 10765 bound_to 10752
  139.9892  134.6618  156.0121 H   0  0  0  0  0  0  0  0  0  0  0  0  # atno 11005 bound_to 11000
  144.7726  139.6701  143.7188 LP  0  0  0  0  0  0  0  0  0  0  0  0  # atno 17320 bound_to 7965
  146.2165  139.5558  142.9647 LP  0  0  0  0  0  0  0  0  0  0  0  0  # atno 17321 bound_to 7965
  140.2569  144.4109  150.6200 LP  0  0  0  0  0  0  0  0  0  0  0  0  # atno 17342 bound_to 10162
  140.6185  143.2174  151.6743 LP  0  0  0  0  0  0  0  0  0  0  0  0  # atno 17343 bound_to 10162
  157.4344  130.7509  149.7017 LP  0  0  0  0  0  0  0  0  0  0  0  0  # atno 17370 bound_to 10713
  155.9797  130.4037  150.3573 LP  0  0  0  0  0  0  0  0  0  0  0  0  # atno 17371 bound_to 10713
  141.1551  133.6544  156.4137 LP  0  0  0  0  0  0  0  0  0  0  0  0  # atno 17394 bound_to 11000
  140.4941  134.6547  157.5223 LP  0  0  0  0  0  0  0  0  0  0  0  0  # atno 17395 bound_to 11000

$$$$
