AV-unprocessed.smi:40|AV-procd|sdf|376|dock1
  -GOLD-   2262016223D 1   1.00000     0.00000
 Structure written by MMmdl.
 47 48  0  0  0  0  0  0  0  0  1 V2000
  154.3790  141.0139  160.9488 C   0  0  0  0  0  0  0  0  0  0  0  0
  153.7729  142.1244  160.0832 C   0  0  0  0  0  0  0  0  0  0  0  0
  152.2742  142.3231  160.3473 C   0  0  0  0  0  0  0  0  0  0  0  0
  151.6788  143.4947  159.5481 C   0  0  0  0  0  0  0  0  0  0  0  0
  150.1450  143.4631  159.4848 C   0  0  0  0  0  0  0  0  0  0  0  0
  149.7474  143.2352  158.1439 O   0  0  0  0  0  0  0  0  0  0  0  0
  149.5663  141.9868  157.6770 C   0  0  0  0  0  0  0  0  0  0  0  0
  149.9139  140.9690  158.2749 O   0  0  0  0  0  0  0  0  0  0  0  0
  148.8756  142.0000  156.3978 N   0  0  0  0  0  0  0  0  0  0  0  0
  148.5207  140.9421  155.6287 C   0  0  0  0  0  0  0  0  0  0  0  0
  149.1602  139.7859  155.6897 N   0  0  0  0  0  0  0  0  0  0  0  0
  148.8425  138.6884  154.9383 C   0  0  0  0  0  0  0  0  0  0  0  0
  149.5137  137.6658  155.0446 O   0  0  0  0  0  0  0  0  0  0  0  0
  147.7269  138.7925  154.0663 N   0  0  0  0  0  0  0  0  0  0  0  0
  147.3217  137.6750  153.1157 C   0  0  1  0  0  0  0  0  0  0  0  0
  146.9179  136.5674  153.8604 O   0  0  0  0  0  0  0  0  0  0  0  0
  145.5061  136.4153  153.8306 C   0  0  2  0  0  0  0  0  0  0  0  0
  145.1492  134.9273  153.9228 C   0  0  0  0  0  0  0  0  0  0  0  0
  145.0493  137.0816  152.5237 C   0  0  1  0  0  0  0  0  0  0  0  0
  143.8503  137.7962  152.7458 O   0  0  0  0  0  0  0  0  0  0  0  0
  146.1837  138.0373  152.1382 C   0  0  2  0  0  0  0  0  0  0  0  0
  146.5722  137.7995  150.7997 O   0  0  0  0  0  0  0  0  0  0  0  0
  147.0402  139.9977  153.9984 C   0  0  0  0  0  0  0  0  0  0  0  0
  147.3830  141.0688  154.7464 C   0  0  0  0  0  0  0  0  0  0  0  0
  146.6918  142.2186  154.6601 F   0  0  0  0  0  0  0  0  0  0  0  0
  148.2387  137.4130  152.5867 H   0  0  0  0  0  0  0  0  0  0  0  0
  145.0929  136.9265  154.6996 H   0  0  0  0  0  0  0  0  0  0  0  0
  144.8866  136.3311  151.7481 H   0  0  0  0  0  0  0  0  0  0  0  0
  145.9121  139.0893  152.2256 H   0  0  0  0  0  0  0  0  0  0  0  0
  155.4422  140.8953  160.7388 H   0  0  0  0  0  0  0  0  0  0  0  0
  153.8936  140.0562  160.7568 H   0  0  0  0  0  0  0  0  0  0  0  0
  154.2717  141.2379  162.0105 H   0  0  0  0  0  0  0  0  0  0  0  0
  154.3051  143.0585  160.2657 H   0  0  0  0  0  0  0  0  0  0  0  0
  153.9290  141.8795  159.0319 H   0  0  0  0  0  0  0  0  0  0  0  0
  151.7500  141.4024  160.0923 H   0  0  0  0  0  0  0  0  0  0  0  0
  152.1075  142.4854  161.4128 H   0  0  0  0  0  0  0  0  0  0  0  0
  151.9965  144.4355  159.9985 H   0  0  0  0  0  0  0  0  0  0  0  0
  152.0799  143.4899  158.5339 H   0  0  0  0  0  0  0  0  0  0  0  0
  149.7505  142.6769  160.1296 H   0  0  0  0  0  0  0  0  0  0  0  0
  149.7384  144.4130  159.8348 H   0  0  0  0  0  0  0  0  0  0  0  0
  148.6579  142.9221  156.0495 H   0  0  0  0  0  0  0  0  0  0  0  0
  144.0691  134.7827  153.8904 H   0  0  0  0  0  0  0  0  0  0  0  0
  145.5149  134.4966  154.8552 H   0  0  0  0  0  0  0  0  0  0  0  0
  145.5886  134.3629  153.0999 H   0  0  0  0  0  0  0  0  0  0  0  0
  144.0357  138.7204  152.6682 H   0  0  0  0  0  0  0  0  0  0  0  0
  145.8120  137.8929  150.2462 H   0  0  0  0  0  0  0  0  0  0  0  0
  146.1986  140.1031  153.3290 H   0  0  0  0  0  0  0  0  0  0  0  0
  1  2  1  0  0  0  0
  1 30  1  0  0  0  0
  1 31  1  0  0  0  0
  1 32  1  0  0  0  0
  2  3  1  0  0  0  0
  2 33  1  0  0  0  0
  2 34  1  0  0  0  0
  3  4  1  0  0  0  0
  3 35  1  0  0  0  0
  3 36  1  0  0  0  0
  4  5  1  0  0  0  0
  4 37  1  0  0  0  0
  4 38  1  0  0  0  0
  5  6  1  0  0  0  0
  5 39  1  0  0  0  0
  5 40  1  0  0  0  0
  6  7  1  0  0  0  0
  7  8  2  0  0  0  0
  7  9  1  0  0  0  0
  9 10  1  0  0  0  0
  9 41  1  0  0  0  0
 10 24  1  0  0  0  0
 10 11  2  0  0  0  0
 11 12  1  0  0  0  0
 12 13  2  0  0  0  0
 12 14  1  0  0  0  0
 14 15  1  0  0  0  0
 14 23  1  0  0  0  0
 15 26  1  0  0  0  0
 15 21  1  0  0  0  0
 15 16  1  0  0  0  0
 16 17  1  0  0  0  0
 17 27  1  0  0  0  0
 17 18  1  0  0  0  0
 17 19  1  0  0  0  0
 18 42  1  0  0  0  0
 18 43  1  0  0  0  0
 18 44  1  0  0  0  0
 19 28  1  0  0  0  0
 19 20  1  0  0  0  0
 19 21  1  0  0  0  0
 20 45  1  0  0  0  0
 21 29  1  0  0  0  0
 21 22  1  0  0  0  0
 22 46  1  0  0  0  0
 23 24  2  0  0  0  0
 23 47  1  0  0  0  0
 24 25  1  0  0  0  0
M  END
> <s_m_source_file>
AV-unprocessed.smi

> <i_m_source_file_index>
40

> <i_lp_mmshare_version>
43012

> <i_f3d_flags>
0

> <s_epik_input>
W0NIM11bQ0gyXVtDSDJdW0NIMl1bQ0gyXU9DKD1PKVtOSF1jMW5jKD1PKW4oW2NIXWMxRilbQ0BASF0yT1tDQEhdKFtDSDNdKVtDQEBIXShbT0hdKVtDQEhdMltPSF0=

> <s_epik_cmdline>
J2VwaWtfcHl0aG9uJywgJy1waCcsICc3LjAnLCAnLXRuJywgJzgnLCAnLW1hJywgJzIwMCcsICctbWV0YWxfYmluZGluZycsICctaW1hZScsICc8aW5maWxlLm1hZT4nLCAnLW9tYWUnLCAnPG91dGZpbGUubWFlPic=

> <r_lp_tautomer_probability>
1

> <r_epik_Ionization_Penalty>
2.29506e-06

> <r_epik_Ionization_Penalty_Charging>
8.26867e-09

> <r_epik_Ionization_Penalty_Neutral>
2.2868e-06

> <r_epik_State_Penalty>
-0

> <r_epik_Charging_Adjusted_Penalty>
8.26867e-09

> <i_epik_Tot_Q>
0

> <i_epik_Tot_abs_Q>
0

> <r_epik_Metal_State_Penalty>
-0

> <b_epik_Metal_Only>
0

> <s_epik_Chemistry_Notes>
This compound has an ester and may undergo hydrolysis at high or low pH. This compound contains an acetal/aminal-like group ( X-CH(R)-Y where X, Y are N, S, or O) that may be acid/base labile, releasing an aldehyde.

> <s_lp_Force_Field>
OPLS_2005

> <r_lp_Energy>
21.8092

> <b_lp_Chiralities_Consistent>
1

> <s_lp_Variant>
AV-unprocessed.smi:40-10

> <Gold.Version>
5.8.1

> <Gold.Id.Protein>
6NUR|6NUR_protein|mol2

> <Gold.PLP.Fitness>
47.2023

> <Gold.PLP.PLP>
-35.1412

> <Gold.PLP.part.hbond>
-5.4406

> <Gold.PLP.part.metal>
0.0000

> <Gold.PLP.part.buried>
-2.4217

> <Gold.PLP.part.nonpolar>
-31.7151

> <Gold.PLP.part.repulsive>
3.5480

> <Gold.PLP.ligand.clash>
0.0000

> <Gold.PLP.ligand.torsion>
0.9351

> <Gold.PLP.Chemscore.Hbond>
4.0000

> <Gold.PLP.Chemscore.CHOScore>
0.5877

> <Gold.PLP.Chemscore.Metal>
0.0000

> <Gold.Chemscore.Hbonds>
donor molecule, donor type, donor heavy atom, donor atom, acceptor molecule, acceptor atom, score
      L1  H     9    41       P1  8028  1.00
      L1  H    20    45       P1 10175  1.00
      L1  H    22    46       P1 10171  0.84
      P1  H  7954  7966       L1    22  1.00
      L1  C    23    47       P1 10175  0.62

> <Gold.PLP.Chemscore.Internal.Correction>
0.1682

> <Gold.Rescore>
     Score         DG    S(hbond)    S(metal)    S(lipo)     H(rot)  DE(clash)    DE(int)     intcor
     13.14     -17.47       3.76        0.00      75.99       3.70       2.19       2.14       ----

> <Gold.Chemscore.Fitness>
13.1417

> <Gold.Chemscore.DG>
-17.4700

> <Gold.Chemscore.ZeroCoef>
-5.4800

> <Gold.Chemscore.Hbond>
3.7605

> <Gold.Chemscore.Metal>
0.0000

> <Gold.Chemscore.Lipo>
75.9913

> <Gold.Chemscore.Internal_Hbond>
0.0000

> <Gold.Chemscore.DEClash>
2.1924

> <Gold.Chemscore.DEInternal>
2.1358

> <Gold.Chemscore.Rot>
3.6957

> <Gold.Chemscore.Internal.Correction>
   9.000000E+99

> <Gold.Chemscore.Hbonds>
donor molecule, donor type, donor heavy atom, donor atom, acceptor molecule, acceptor atom, score
      L1  H     9    41       P1  8028  0.99
      L1  H    20    45       P1 10175  0.99
      L1  H    22    46       P1 10171  0.82
      P1  H  7954  7966       L1    22  0.84

> <Gold.Chemscore.Hbond.Weighted>
-12.5599

> <Gold.Chemscore.Metal.Weighted>
-0.0000

> <Gold.Chemscore.Lipo.Weighted>
-8.8910

> <Gold.Chemscore.Internal_Hbond.Weighted>
0.0000

> <Gold.Chemscore.DEClash.Weighted>
2.1924

> <Gold.Chemscore.DEInternal.Weighted>
2.1358

> <Gold.Chemscore.Rot.Weighted>
9.4610

> <Gold.Chemscore.Internal.Correction.Weighted>
   9.000000E+99

> <Gold.Protein.RotatedTorsions>
[ 6907 6896 6895 6894 ] final -125.56 input  -60.11 | X-H torsion
[ 7974 7965 7964 7962 ] final -106.80 input  175.53 | X-H torsion
[ 8008 7997 7996 7995 ] final   39.55 input   59.86 | X-H torsion
[ 10167 10162 10161 10158 ] final   67.86 input  -65.29 | X-H torsion
[ 10718 10713 10712 10709 ] final   29.40 input   66.30 | X-H torsion
[ 10763 10752 10751 10750 ] final   35.43 input  -60.55 | X-H torsion
[ 11005 11000 10999 10996 ] final -145.55 input  -57.11 | X-H torsion

> <Gold.Protein.ActiveResidues>
 VAL166  LYS551  ARG553  GLY616  TRP617  ASP618  TYR619  PRO620  LYS621  CYS622 
 ASP623  PHE694  ASN695  SER759  ASP760  ASP761  ALA762  ILE779  LEU786  VAL792 
 PHE793  MET794  SER795  GLU796  ALA797  LYS798  CYS799  TRP800  GLU811  SER814 

> <Gold.Protein.RotatedAtoms>
  150.8879  133.7282  159.2912 H   0  0  0  0  0  0  0  0  0  0  0  0  # atno 6907 bound_to 6896
  151.4842  135.1052  159.9795 H   0  0  0  0  0  0  0  0  0  0  0  0  # atno 6908 bound_to 6896
  152.4802  133.8189  159.7098 H   0  0  0  0  0  0  0  0  0  0  0  0  # atno 6909 bound_to 6896
  145.2134  140.9105  143.3301 H   0  0  0  0  0  0  0  0  0  0  0  0  # atno 7974 bound_to 7965
  155.2385  140.3343  155.4295 H   0  0  0  0  0  0  0  0  0  0  0  0  # atno 8008 bound_to 7997
  156.2265  140.1832  156.7394 H   0  0  0  0  0  0  0  0  0  0  0  0  # atno 8009 bound_to 7997
  154.5908  140.0638  156.9221 H   0  0  0  0  0  0  0  0  0  0  0  0  # atno 8010 bound_to 7997
  140.0849  144.5038  150.7137 H   0  0  0  0  0  0  0  0  0  0  0  0  # atno 10167 bound_to 10162
  157.2461  130.7092  149.6382 H   0  0  0  0  0  0  0  0  0  0  0  0  # atno 10718 bound_to 10713
  153.0119  135.6333  154.1826 H   0  0  0  0  0  0  0  0  0  0  0  0  # atno 10763 bound_to 10752
  154.1567  135.2826  155.3122 H   0  0  0  0  0  0  0  0  0  0  0  0  # atno 10764 bound_to 10752
  154.6012  135.5586  153.7437 H   0  0  0  0  0  0  0  0  0  0  0  0  # atno 10765 bound_to 10752
  140.7911  134.2968  157.5013 H   0  0  0  0  0  0  0  0  0  0  0  0  # atno 11005 bound_to 11000
  144.9834  139.3760  143.6250 LP  0  0  0  0  0  0  0  0  0  0  0  0  # atno 17320 bound_to 7965
  146.3392  139.8985  142.8798 LP  0  0  0  0  0  0  0  0  0  0  0  0  # atno 17321 bound_to 7965
  140.7058  143.2467  151.4729 LP  0  0  0  0  0  0  0  0  0  0  0  0  # atno 17342 bound_to 10162
  139.5758  144.1823  152.1900 LP  0  0  0  0  0  0  0  0  0  0  0  0  # atno 17343 bound_to 10162
  155.9668  130.4443  150.5454 LP  0  0  0  0  0  0  0  0  0  0  0  0  # atno 17370 bound_to 10713
  157.3328  131.0702  151.1848 LP  0  0  0  0  0  0  0  0  0  0  0  0  # atno 17371 bound_to 10713
  139.8731  134.9375  156.3688 LP  0  0  0  0  0  0  0  0  0  0  0  0  # atno 17394 bound_to 11000
  140.9389  133.7528  156.0120 LP  0  0  0  0  0  0  0  0  0  0  0  0  # atno 17395 bound_to 11000

$$$$
