AV-unprocessed.smi:1643|AV-procd|sdf|6576|dock8
  -GOLD-   22720 7263D 1   1.00000     0.00000
 Structure written by MMmdl.
 53 55  0  0  0  0  0  0  0  0  1 V2000
  149.2948  136.7763  159.8771 C   0  0  0  0  0  0  0  0  0  0  0  0
  147.9712  137.0980  159.1789 C   0  0  0  0  0  0  0  0  0  0  0  0
  147.1541  137.8003  159.7749 O   0  0  0  0  0  0  0  0  0  0  0  0
  147.7425  136.6006  157.9398 N   0  0  0  0  0  0  0  0  0  0  0  0
  148.7442  135.8098  157.2159 C   0  0  0  0  0  0  0  0  0  0  0  0
  149.6185  136.7223  156.3402 C   0  0  0  0  0  0  0  0  0  0  0  0
  148.8346  137.6045  155.3455 C   0  0  0  0  0  0  0  0  0  0  0  0
  148.0283  138.6515  155.9889 N   0  0  0  0  0  0  0  0  0  0  0  0
  147.9438  139.8703  155.1806 C   0  0  0  0  0  0  0  0  0  0  0  0
  148.6555  141.1036  155.7747 C   0  0  2  0  0  0  0  0  0  0  0  0
  147.9387  142.2631  155.3968 O   0  0  0  0  0  0  0  0  0  0  0  0
  150.1024  141.2214  155.2608 C   0  0  0  0  0  0  0  0  0  0  0  0
  151.0806  141.0121  156.3128 N   0  0  0  0  0  0  0  0  0  0  0  0
  151.9695  140.0052  156.4136 C   0  0  0  0  0  0  0  0  0  0  0  0
  152.7804  140.0134  157.4680 N   0  0  0  0  0  0  0  0  0  0  0  0
  152.3661  141.1568  158.1303 C   0  0  0  0  0  0  0  0  0  0  0  0
  152.8238  141.7380  159.3331 C   0  0  0  0  0  0  0  0  0  0  0  0
  152.2422  142.9257  159.8315 C   0  0  0  0  0  0  0  0  0  0  0  0
  152.7617  143.5135  161.1318 C   0  0  0  0  0  0  0  0  0  0  0  0
  151.1872  143.5530  159.1211 C   0  0  0  0  0  0  0  0  0  0  0  0
  150.5444  144.8276  159.6388 C   0  0  0  0  0  0  0  0  0  0  0  0
  150.7202  142.9874  157.9163 C   0  0  0  0  0  0  0  0  0  0  0  0
  151.3045  141.8036  157.4331 C   0  0  0  0  0  0  0  0  0  0  0  0
  146.6723  138.1843  156.3151 C   0  0  0  0  0  0  0  0  0  0  0  0
  146.5448  136.8842  157.1410 C   0  0  0  0  0  0  0  0  0  0  0  0
  149.4424  135.6996  159.9581 H   0  0  0  0  0  0  0  0  0  0  0  0
  149.3056  137.1884  160.8866 H   0  0  0  0  0  0  0  0  0  0  0  0
  150.1339  137.2091  159.3323 H   0  0  0  0  0  0  0  0  0  0  0  0
  149.3743  135.2463  157.9058 H   0  0  0  0  0  0  0  0  0  0  0  0
  148.2649  135.0521  156.5952 H   0  0  0  0  0  0  0  0  0  0  0  0
  150.2319  137.3613  156.9773 H   0  0  0  0  0  0  0  0  0  0  0  0
  150.3187  136.0998  155.7829 H   0  0  0  0  0  0  0  0  0  0  0  0
  149.5718  138.0506  154.6806 H   0  0  0  0  0  0  0  0  0  0  0  0
  148.2095  136.9889  154.6969 H   0  0  0  0  0  0  0  0  0  0  0  0
  148.3447  139.6620  154.1874 H   0  0  0  0  0  0  0  0  0  0  0  0
  146.8973  140.1372  155.0241 H   0  0  0  0  0  0  0  0  0  0  0  0
  148.6755  141.0609  156.8629 H   0  0  0  0  0  0  0  0  0  0  0  0
  148.4662  143.0204  155.5995 H   0  0  0  0  0  0  0  0  0  0  0  0
  150.2854  140.4837  154.4783 H   0  0  0  0  0  0  0  0  0  0  0  0
  150.2727  142.2010  154.8111 H   0  0  0  0  0  0  0  0  0  0  0  0
  152.0277  139.2251  155.6684 H   0  0  0  0  0  0  0  0  0  0  0  0
  153.6280  141.2602  159.8733 H   0  0  0  0  0  0  0  0  0  0  0  0
  151.9605  143.5817  161.8678 H   0  0  0  0  0  0  0  0  0  0  0  0
  153.1657  144.5123  160.9646 H   0  0  0  0  0  0  0  0  0  0  0  0
  153.5549  142.8988  161.5580 H   0  0  0  0  0  0  0  0  0  0  0  0
  149.7813  145.1955  158.9518 H   0  0  0  0  0  0  0  0  0  0  0  0
  151.2912  145.6128  159.7597 H   0  0  0  0  0  0  0  0  0  0  0  0
  150.0686  144.6489  160.6034 H   0  0  0  0  0  0  0  0  0  0  0  0
  149.9177  143.4542  157.3644 H   0  0  0  0  0  0  0  0  0  0  0  0
  146.1683  138.9748  156.8722 H   0  0  0  0  0  0  0  0  0  0  0  0
  146.0942  138.0658  155.3975 H   0  0  0  0  0  0  0  0  0  0  0  0
  146.3595  136.0588  156.4531 H   0  0  0  0  0  0  0  0  0  0  0  0
  145.6468  136.9163  157.7584 H   0  0  0  0  0  0  0  0  0  0  0  0
  1  2  1  0  0  0  0
  1 26  1  0  0  0  0
  1 27  1  0  0  0  0
  1 28  1  0  0  0  0
  2  3  2  0  0  0  0
  2  4  1  0  0  0  0
  4 25  1  0  0  0  0
  4  5  1  0  0  0  0
  5  6  1  0  0  0  0
  5 29  1  0  0  0  0
  5 30  1  0  0  0  0
  6  7  1  0  0  0  0
  6 31  1  0  0  0  0
  6 32  1  0  0  0  0
  7  8  1  0  0  0  0
  7 33  1  0  0  0  0
  7 34  1  0  0  0  0
  8  9  1  0  0  0  0
  8 24  1  0  0  0  0
  9 10  1  0  0  0  0
  9 35  1  0  0  0  0
  9 36  1  0  0  0  0
 10 11  1  0  0  0  0
 10 12  1  0  0  0  0
 10 37  1  0  0  0  0
 11 38  1  0  0  0  0
 12 13  1  0  0  0  0
 12 39  1  0  0  0  0
 12 40  1  0  0  0  0
 13 23  1  0  0  0  0
 13 14  1  0  0  0  0
 14 15  2  0  0  0  0
 14 41  1  0  0  0  0
 15 16  1  0  0  0  0
 16 23  2  0  0  0  0
 16 17  1  0  0  0  0
 17 18  2  0  0  0  0
 17 42  1  0  0  0  0
 18 19  1  0  0  0  0
 18 20  1  0  0  0  0
 19 43  1  0  0  0  0
 19 44  1  0  0  0  0
 19 45  1  0  0  0  0
 20 21  1  0  0  0  0
 20 22  2  0  0  0  0
 21 46  1  0  0  0  0
 21 47  1  0  0  0  0
 21 48  1  0  0  0  0
 22 23  1  0  0  0  0
 22 49  1  0  0  0  0
 24 25  1  0  0  0  0
 24 50  1  0  0  0  0
 24 51  1  0  0  0  0
 25 52  1  0  0  0  0
 25 53  1  0  0  0  0
M  END
> <s_m_source_file>
AV-unprocessed.smi

> <i_m_source_file_index>
1643

> <i_lp_mmshare_version>
43012

> <i_f3d_flags>
0

> <s_epik_input>
W0NIM11DKD1PKU4xW0NIMl1bQ0gyXVtDSDJdTihbQ0gyXVtDSDJdMSlbQ0gyXVtDQEhdKFtPSF0pW0NIMl1uKFtjSF1uMiljKGMyMylbY0hdYyhbQ0gzXSljKFtjSF0zKVtDSDNd

> <s_epik_cmdline>
J2VwaWtfcHl0aG9uJywgJy1waCcsICc3LjAnLCAnLXRuJywgJzgnLCAnLW1hJywgJzIwMCcsICctbWV0YWxfYmluZGluZycsICctaW1hZScsICc8aW5maWxlLm1hZT4nLCAnLW9tYWUnLCAnPG91dGZpbGUubWFlPic=

> <r_epik_Ionization_Penalty>
1.17666

> <r_epik_Ionization_Penalty_Charging>
0

> <r_epik_Ionization_Penalty_Neutral>
1.17666

> <r_epik_State_Penalty>
1.20405

> <r_epik_Charging_Adjusted_Penalty>
1.20405

> <i_epik_Tot_Q>
0

> <i_epik_Tot_abs_Q>
0

> <r_epik_Metal_State_Penalty>
1.13307

> <b_epik_Metal_Only>
0

> <s_lp_Force_Field>
OPLS_2005

> <r_lp_Energy>
48.9616

> <b_lp_Chiralities_Consistent>
1

> <s_lp_Variant>
AV-unprocessed.smi:1643-5

> <Gold.Version>
5.8.1

> <Gold.Id.Protein>
6NUR|6NUR_protein|mol2

> <Gold.PLP.Fitness>
42.1304

> <Gold.PLP.PLP>
-37.2993

> <Gold.PLP.part.hbond>
-3.0000

> <Gold.PLP.part.metal>
0.0000

> <Gold.PLP.part.buried>
-5.3898

> <Gold.PLP.part.nonpolar>
-28.7235

> <Gold.PLP.part.repulsive>
0.0059

> <Gold.PLP.ligand.clash>
0.0000

> <Gold.PLP.ligand.torsion>
1.9169

> <Gold.PLP.Chemscore.Hbond>
2.8800

> <Gold.PLP.Chemscore.CHOScore>
0.0000

> <Gold.PLP.Chemscore.Metal>
0.0000

> <Gold.Chemscore.Hbonds>
donor molecule, donor type, donor heavy atom, donor atom, acceptor molecule, acceptor atom, score
      L1  H    11    38       P1  8028  1.00
      P1  H  6934  6947       L1     3  0.85
      P1  H  7997  8010       L1    15  0.89

> <Gold.PLP.Chemscore.Internal.Correction>
0.0250

> <Gold.Rescore>
     Score         DG    S(hbond)    S(metal)    S(lipo)     H(rot)  DE(clash)    DE(int)     intcor
     18.39     -20.39       2.59        0.00      98.77       2.07       0.08       1.93       ----

> <Gold.Chemscore.Fitness>
18.3850

> <Gold.Chemscore.DG>
-20.3941

> <Gold.Chemscore.ZeroCoef>
-5.4800

> <Gold.Chemscore.Hbond>
2.5881

> <Gold.Chemscore.Metal>
0.0000

> <Gold.Chemscore.Lipo>
98.7712

> <Gold.Chemscore.Internal_Hbond>
0.0000

> <Gold.Chemscore.DEClash>
0.0829

> <Gold.Chemscore.DEInternal>
1.9262

> <Gold.Chemscore.Rot>
2.0650

> <Gold.Chemscore.Internal.Correction>
   9.000000E+99

> <Gold.Chemscore.Hbonds>
donor molecule, donor type, donor heavy atom, donor atom, acceptor molecule, acceptor atom, score
      L1  H    11    38       P1  8028  0.97
      P1  H  6934  6947       L1     3  0.83
      P1  H  7997  8010       L1    15  0.16

> <Gold.Chemscore.Hbond.Weighted>
-8.6444

> <Gold.Chemscore.Metal.Weighted>
-0.0000

> <Gold.Chemscore.Lipo.Weighted>
-11.5562

> <Gold.Chemscore.Internal_Hbond.Weighted>
0.0000

> <Gold.Chemscore.DEClash.Weighted>
0.0829

> <Gold.Chemscore.DEInternal.Weighted>
1.9262

> <Gold.Chemscore.Rot.Weighted>
5.2865

> <Gold.Chemscore.Internal.Correction.Weighted>
   9.000000E+99

> <Gold.Protein.RotatedTorsions>
[ 6907 6896 6895 6894 ] final  159.85 input  -60.11 | X-H torsion
[ 7974 7965 7964 7962 ] final -175.86 input  175.53 | X-H torsion
[ 8008 7997 7996 7995 ] final   66.33 input   59.86 | X-H torsion
[ 10167 10162 10161 10158 ] final    4.27 input  -65.29 | X-H torsion
[ 10718 10713 10712 10709 ] final -141.00 input   66.30 | X-H torsion
[ 10763 10752 10751 10750 ] final  -99.19 input  -60.55 | X-H torsion
[ 11005 11000 10999 10996 ] final  164.33 input  -57.11 | X-H torsion

> <Gold.Protein.ActiveResidues>
 VAL166  LYS551  ARG553  GLY616  TRP617  ASP618  TYR619  PRO620  LYS621  CYS622 
 ASP623  PHE694  ASN695  SER759  ASP760  ASP761  ALA762  ILE779  LEU786  VAL792 
 PHE793  MET794  SER795  GLU796  ALA797  LYS798  CYS799  TRP800  GLU811  SER814 

> <Gold.Protein.RotatedAtoms>
  151.9794  133.3752  159.4101 H   0  0  0  0  0  0  0  0  0  0  0  0  # atno 6907 bound_to 6896
  150.6937  134.4055  159.5147 H   0  0  0  0  0  0  0  0  0  0  0  0  # atno 6908 bound_to 6896
  152.1771  134.8785  160.0580 H   0  0  0  0  0  0  0  0  0  0  0  0  # atno 6909 bound_to 6896
  144.7127  140.1257  143.6402 H   0  0  0  0  0  0  0  0  0  0  0  0  # atno 7974 bound_to 7965
  155.6757  140.3497  155.4835 H   0  0  0  0  0  0  0  0  0  0  0  0  # atno 8008 bound_to 7997
  155.9650  140.1144  157.0885 H   0  0  0  0  0  0  0  0  0  0  0  0  # atno 8009 bound_to 7997
  154.4152  140.1168  156.5216 H   0  0  0  0  0  0  0  0  0  0  0  0  # atno 8010 bound_to 7997
  140.6543  143.7466  150.7627 H   0  0  0  0  0  0  0  0  0  0  0  0  # atno 10167 bound_to 10162
  156.3288  130.7575  151.1688 H   0  0  0  0  0  0  0  0  0  0  0  0  # atno 10718 bound_to 10713
  154.7477  135.4981  153.9234 H   0  0  0  0  0  0  0  0  0  0  0  0  # atno 10763 bound_to 10752
  153.1110  135.6709  153.9509 H   0  0  0  0  0  0  0  0  0  0  0  0  # atno 10764 bound_to 10752
  153.9268  135.3082  155.3425 H   0  0  0  0  0  0  0  0  0  0  0  0  # atno 10765 bound_to 10752
  140.2448  134.8023  157.3445 H   0  0  0  0  0  0  0  0  0  0  0  0  # atno 11005 bound_to 11000
  145.9331  139.2619  143.1313 LP  0  0  0  0  0  0  0  0  0  0  0  0  # atno 17320 bound_to 7965
  145.9502  140.8914  143.0263 LP  0  0  0  0  0  0  0  0  0  0  0  0  # atno 17321 bound_to 7965
  140.1123  143.4688  152.2363 LP  0  0  0  0  0  0  0  0  0  0  0  0  # atno 17342 bound_to 10162
  139.5763  144.7489  151.3756 LP  0  0  0  0  0  0  0  0  0  0  0  0  # atno 17343 bound_to 10162
  157.7426  131.0487  150.5008 LP  0  0  0  0  0  0  0  0  0  0  0  0  # atno 17370 bound_to 10713
  156.5171  130.4153  149.6270 LP  0  0  0  0  0  0  0  0  0  0  0  0  # atno 17371 bound_to 10713
  140.1617  134.4720  155.7890 LP  0  0  0  0  0  0  0  0  0  0  0  0  # atno 17394 bound_to 11000
  141.2207  133.6904  156.7556 LP  0  0  0  0  0  0  0  0  0  0  0  0  # atno 17395 bound_to 11000

$$$$
