#       Name:                AV-unprocessed.smi:2391
#       Creating user name   scv26
#       Creation time:       Fri Mar 27 13:11:39 2020


#       File generated by GOLD software.
#

@<TRIPOS>MOLECULE
AV-unprocessed.smi:2391
    39    40     1
SMALL
NO_CHARGES


@<TRIPOS>ATOM
      1 ****        -0.3729   1.8355   0.1154 O.2            1 S1                 0.0000
      2 ****        -0.7721   1.0463  -0.7435 C.2            1 S1                 0.0000
      3 ****        -2.0292   0.9725  -1.2396 N.pl3          1 S1                -1.0000
      4 ****        -2.9796   1.8149  -0.8072 C.ar           1 S1                 0.0000
      5 ****        -3.7541   1.4957   0.3306 C.ar           1 S1                 0.0000
      6 ****        -4.7465   2.4017   0.7407 C.ar           1 S1                 0.0000
      7 ****        -4.9027   3.5710  -0.0221 C.ar           1 S1                 0.0000
      8 ****        -4.1449   3.8348  -1.1081 N.ar           1 S1                 0.0000
      9 ****        -3.2026   2.9659  -1.4913 N.ar           1 S1                 0.0000
     10 ****         0.0661   0.1420  -1.2712 N.am           1 S1                 0.0000
     11 ****         1.4844  -0.0387  -0.9503 C.3            1 S1                 0.0000
     12 ****         1.6656  -1.3219  -0.0973 C.3            1 S1                 0.0000
     13 ****         0.8376  -1.3481   1.1941 C.3            1 S1                 0.0000
     14 ****         1.4774  -2.4411   2.0525 C.3            1 S1                 0.0000
     15 ****         2.9461  -2.5161   1.6144 C.3            1 S1                 0.0000
     16 ****         3.0900  -1.5662   0.4185 C.3            1 S1                 0.0000
     17 ****         2.2913  -0.0463  -2.2688 C.3            1 S1                 0.0000
     18 ****         2.0342   1.0624  -2.9642 F              1 S1                 0.0000
     19 ****         3.6014  -0.0762  -2.0276 F              1 S1                 0.0000
     20 ****         1.9661  -1.1030  -3.0148 F              1 S1                 0.0000
     21 ****        -3.5887   0.5789   0.8776 H              1 S1                 0.0000
     22 ****        -5.3634   2.2074   1.6053 H              1 S1                 0.0000
     23 ****        -5.6482   4.3069   0.2404 H              1 S1                 0.0000
     24 ****        -0.3149  -0.4768  -1.9718 H              1 S1                 0.0000
     25 ****         1.8378   0.8110  -0.3639 H              1 S1                 0.0000
     26 ****         1.3711  -2.1860  -0.6953 H              1 S1                 0.0000
     27 ****         0.9190  -0.3881   1.7061 H              1 S1                 0.0000
     28 ****        -0.2213  -1.5359   1.0131 H              1 S1                 0.0000
     29 ****         1.3732  -2.2330   3.1176 H              1 S1                 0.0000
     30 ****         0.9890  -3.3962   1.8564 H              1 S1                 0.0000
     31 ****         3.6219  -2.2317   2.4216 H              1 S1                 0.0000
     32 ****         3.1960  -3.5374   1.3248 H              1 S1                 0.0000
     33 ****         3.7466  -1.9796  -0.3474 H              1 S1                 0.0000
     34 ****         3.5279  -0.6258   0.7562 H              1 S1                 0.0000
     35 ****        -1.0027   2.5032   0.5123 LP             1 S1                 0.0000
     36 ****         0.5807   1.8080   0.4152 LP             1 S1                 0.0000
     37 ****        -2.2509   0.2862  -1.9324 LP             1 S1                 0.0000
     38 ****        -4.2879   4.6787  -1.6253 LP             1 S1                 0.0000
     39 ****        -2.6502   3.1689  -2.2998 LP             1 S1                 0.0000
@<TRIPOS>BOND
    1    1    2 2     
    2    2    3 1     
    3    2   10 am    
    4    3    4 1     
    5    4    9 ar    
    6    4    5 ar    
    7    5    6 ar    
    8    5   21 1     
    9    6    7 ar    
   10    6   22 1     
   11    7    8 ar    
   12    7   23 1     
   13    8    9 ar    
   14   10   11 1     
   15   10   24 1     
   16   11   12 1     
   17   11   17 1     
   18   11   25 1     
   19   12   16 1     
   20   12   13 1     
   21   12   26 1     
   22   13   14 1     
   23   13   27 1     
   24   13   28 1     
   25   14   15 1     
   26   14   29 1     
   27   14   30 1     
   28   15   16 1     
   29   15   31 1     
   30   15   32 1     
   31   16   33 1     
   32   16   34 1     
   33   17   18 1     
   34   17   19 1     
   35   17   20 1     
   36    1   35 1     
   37    1   36 1     
   38    3   37 1     
   39    8   38 1     
   40    9   39 1     
@<TRIPOS>SUBSTRUCTURE
      1 S1             1
@<TRIPOS>SET
LONE_PAIRS      STATIC     ATOMS    <user>   **** ""
5 35 36 37 38 39
DONOR_HYDROGENS      STATIC     ATOMS    <user>   **** ""
1 24
ATOM$BLUE        STATIC     ATOMS    COLORGROUP SYSTEM
5 35 36 37 38 39
ATOM$RED        STATIC     ATOMS    COLORGROUP SYSTEM
1 24
