AV-unprocessed.smi:2215|AV-procd|sdf|8961|dock2
  -GOLD-   2272012183D 1   1.00000     0.00000
 Structure written by MMmdl.
 40 41  0  0  0  0  0  0  0  0  1 V2000
  151.8945  141.7219  157.0014 C   0  0  0  0  0  0  0  0  0  0  0  0
  151.0276  140.9171  156.0556 C   0  0  0  0  0  0  0  0  0  0  0  0
  151.4578  139.6730  155.5572 C   0  0  0  0  0  0  0  0  0  0  0  0
  150.6106  138.9611  154.6862 C   0  0  0  0  0  0  0  0  0  0  0  0
  149.3554  139.5071  154.3350 C   0  0  0  0  0  0  0  0  0  0  0  0
  148.5748  138.7044  153.4607 N   0  0  0  0  0  0  0  0  0  0  0  0
  147.2429  138.7277  153.2757 C   0  0  0  0  0  0  0  0  0  0  0  0
  146.4612  139.5120  153.8145 O   0  0  0  0  0  0  0  0  0  0  0  0
  146.8574  137.7761  152.4132 N   0  0  0  0  0  0  0  0  0  0  0  0
  145.4795  137.5197  152.0054 C   0  0  0  0  0  0  0  0  0  0  0  0
  145.1179  136.0170  152.0335 C   0  0  1  0  0  0  0  0  0  0  0  0
  143.6160  135.7613  152.2970 C   0  0  0  0  0  0  0  0  0  0  0  0
  143.2979  134.2583  152.3548 C   0  0  0  0  0  0  0  0  0  0  0  0
  143.7532  133.5387  151.0767 C   0  0  0  0  0  0  0  0  0  0  0  0
  145.2473  133.7807  150.8025 C   0  0  0  0  0  0  0  0  0  0  0  0
  145.5922  135.2818  150.7554 C   0  0  1  0  0  0  0  0  0  0  0  0
  145.0197  135.8522  149.5929 O   0  0  0  0  0  0  0  0  0  0  0  0
  148.9501  140.7075  154.8199 N   0  0  0  0  0  0  0  0  0  0  0  0
  149.7628  141.3893  155.6544 C   0  0  0  0  0  0  0  0  0  0  0  0
  152.9461  141.4563  156.8892 H   0  0  0  0  0  0  0  0  0  0  0  0
  151.6004  141.5324  158.0338 H   0  0  0  0  0  0  0  0  0  0  0  0
  151.7920  142.7895  156.8043 H   0  0  0  0  0  0  0  0  0  0  0  0
  152.4191  139.2676  155.8366 H   0  0  0  0  0  0  0  0  0  0  0  0
  150.9250  138.0041  154.2957 H   0  0  0  0  0  0  0  0  0  0  0  0
  149.0886  138.0158  152.9309 H   0  0  0  0  0  0  0  0  0  0  0  0
  147.5665  137.1781  152.0149 H   0  0  0  0  0  0  0  0  0  0  0  0
  144.8288  138.0763  152.6801 H   0  0  0  0  0  0  0  0  0  0  0  0
  145.3093  137.9314  151.0092 H   0  0  0  0  0  0  0  0  0  0  0  0
  145.6663  135.5727  152.8660 H   0  0  0  0  0  0  0  0  0  0  0  0
  143.3118  136.2215  153.2373 H   0  0  0  0  0  0  0  0  0  0  0  0
  143.0167  136.2329  151.5172 H   0  0  0  0  0  0  0  0  0  0  0  0
  143.7924  133.8141  153.2195 H   0  0  0  0  0  0  0  0  0  0  0  0
  142.2276  134.1107  152.5022 H   0  0  0  0  0  0  0  0  0  0  0  0
  143.5613  132.4691  151.1646 H   0  0  0  0  0  0  0  0  0  0  0  0
  143.1605  133.8883  150.2303 H   0  0  0  0  0  0  0  0  0  0  0  0
  145.8339  133.3052  151.5894 H   0  0  0  0  0  0  0  0  0  0  0  0
  145.5405  133.2951  149.8709 H   0  0  0  0  0  0  0  0  0  0  0  0
  146.6738  135.3876  150.6625 H   0  0  0  0  0  0  0  0  0  0  0  0
  144.6219  136.6764  149.8276 H   0  0  0  0  0  0  0  0  0  0  0  0
  149.3901  142.3374  156.0138 H   0  0  0  0  0  0  0  0  0  0  0  0
  1  2  1  0  0  0  0
  1 20  1  0  0  0  0
  1 21  1  0  0  0  0
  1 22  1  0  0  0  0
  2 19  1  0  0  0  0
  2  3  2  0  0  0  0
  3  4  1  0  0  0  0
  3 23  1  0  0  0  0
  4  5  2  0  0  0  0
  4 24  1  0  0  0  0
  5  6  1  0  0  0  0
  5 18  1  0  0  0  0
  6  7  1  0  0  0  0
  6 25  1  0  0  0  0
  7  8  2  0  0  0  0
  7  9  1  0  0  0  0
  9 10  1  0  0  0  0
  9 26  1  0  0  0  0
 10 11  1  0  0  0  0
 10 27  1  0  0  0  0
 10 28  1  0  0  0  0
 11 16  1  0  0  0  0
 11 12  1  0  0  0  0
 11 29  1  0  0  0  0
 12 13  1  0  0  0  0
 12 30  1  0  0  0  0
 12 31  1  0  0  0  0
 13 14  1  0  0  0  0
 13 32  1  0  0  0  0
 13 33  1  0  0  0  0
 14 15  1  0  0  0  0
 14 34  1  0  0  0  0
 14 35  1  0  0  0  0
 15 16  1  0  0  0  0
 15 36  1  0  0  0  0
 15 37  1  0  0  0  0
 16 17  1  0  0  0  0
 16 38  1  0  0  0  0
 17 39  1  0  0  0  0
 18 19  2  0  0  0  0
 19 40  1  0  0  0  0
M  END
> <s_m_source_file>
AV-unprocessed.smi

> <i_m_source_file_index>
2215

> <i_lp_mmshare_version>
43012

> <i_f3d_flags>
0

> <s_epik_input>
W0NIM11jMVtjSF1bY0hdYyhuW2NIXTEpW05IXUMoPU8pW05IXVtDSDJdW0NAQEhdMltDSDJdW0NIMl1bQ0gyXVtDSDJdW0NASF0yW09IXQ==

> <s_epik_cmdline>
J2VwaWtfcHl0aG9uJywgJy1waCcsICc3LjAnLCAnLXRuJywgJzgnLCAnLW1hJywgJzIwMCcsICctbWV0YWxfYmluZGluZycsICctaW1hZScsICc8aW5maWxlLm1hZT4nLCAnLW9tYWUnLCAnPG91dGZpbGUubWFlPic=

> <r_lp_tautomer_probability>
1

> <r_epik_Ionization_Penalty>
6.08491e-05

> <r_epik_Ionization_Penalty_Charging>
0

> <r_epik_Ionization_Penalty_Neutral>
6.08491e-05

> <r_epik_State_Penalty>
-0

> <r_epik_Charging_Adjusted_Penalty>
0

> <i_epik_Tot_Q>
0

> <i_epik_Tot_abs_Q>
0

> <r_epik_Metal_State_Penalty>
-0

> <b_epik_Metal_Only>
0

> <s_lp_Force_Field>
OPLS_2005

> <r_lp_Energy>
16.7167

> <b_lp_Chiralities_Consistent>
1

> <s_lp_Variant>
AV-unprocessed.smi:2215-2

> <Gold.Version>
5.8.1

> <Gold.Id.Protein>
6NUR|6NUR_protein|mol2

> <Gold.PLP.Fitness>
45.1753

> <Gold.PLP.PLP>
-34.5219

> <Gold.PLP.part.hbond>
-4.8183

> <Gold.PLP.part.metal>
0.0000

> <Gold.PLP.part.buried>
-4.6331

> <Gold.PLP.part.nonpolar>
-26.3054

> <Gold.PLP.part.repulsive>
0.3808

> <Gold.PLP.ligand.clash>
0.0000

> <Gold.PLP.ligand.torsion>
0.4701

> <Gold.PLP.Chemscore.Hbond>
2.8596

> <Gold.PLP.Chemscore.CHOScore>
1.0000

> <Gold.PLP.Chemscore.Metal>
0.0000

> <Gold.Chemscore.Hbonds>
donor molecule, donor type, donor heavy atom, donor atom, acceptor molecule, acceptor atom, score
      L1  H     6    25       P1  7948  0.87
      L1  H     9    26       P1  7948  1.00
      L1  H    17    39       P1 10171  1.00
      L1  C    19    40       P1  8028  1.00

> <Gold.PLP.Chemscore.Internal.Correction>
0.0150

> <Gold.Rescore>
     Score         DG    S(hbond)    S(metal)    S(lipo)     H(rot)  DE(clash)    DE(int)     intcor
     15.85     -17.73       2.44        0.00      73.00       1.73       0.20       1.68       ----

> <Gold.Chemscore.Fitness>
15.8510

> <Gold.Chemscore.DG>
-17.7346

> <Gold.Chemscore.ZeroCoef>
-5.4800

> <Gold.Chemscore.Hbond>
2.4408

> <Gold.Chemscore.Metal>
0.0000

> <Gold.Chemscore.Lipo>
72.9996

> <Gold.Chemscore.Internal_Hbond>
0.0000

> <Gold.Chemscore.DEClash>
0.2019

> <Gold.Chemscore.DEInternal>
1.6817

> <Gold.Chemscore.Rot>
1.7339

> <Gold.Chemscore.Internal.Correction>
   9.000000E+99

> <Gold.Chemscore.Hbonds>
donor molecule, donor type, donor heavy atom, donor atom, acceptor molecule, acceptor atom, score
      L1  H     6    25       P1  7948  0.80
      L1  H     9    26       P1  7948  1.00
      L1  H    17    39       P1 10171  0.93

> <Gold.Chemscore.Hbond.Weighted>
-8.1523

> <Gold.Chemscore.Metal.Weighted>
-0.0000

> <Gold.Chemscore.Lipo.Weighted>
-8.5410

> <Gold.Chemscore.Internal_Hbond.Weighted>
0.0000

> <Gold.Chemscore.DEClash.Weighted>
0.2019

> <Gold.Chemscore.DEInternal.Weighted>
1.6817

> <Gold.Chemscore.Rot.Weighted>
4.4387

> <Gold.Chemscore.Internal.Correction.Weighted>
   9.000000E+99

> <Gold.Protein.RotatedTorsions>
[ 6907 6896 6895 6894 ] final -140.63 input  -60.11 | X-H torsion
[ 7974 7965 7964 7962 ] final   43.80 input  175.53 | X-H torsion
[ 8008 7997 7996 7995 ] final   66.87 input   59.86 | X-H torsion
[ 10167 10162 10161 10158 ] final  -30.40 input  -65.29 | X-H torsion
[ 10718 10713 10712 10709 ] final  178.13 input   66.30 | X-H torsion
[ 10763 10752 10751 10750 ] final  -74.19 input  -60.55 | X-H torsion
[ 11005 11000 10999 10996 ] final  -19.83 input  -57.11 | X-H torsion

> <Gold.Protein.ActiveResidues>
 VAL166  LYS551  ARG553  GLY616  TRP617  ASP618  TYR619  PRO620  LYS621  CYS622 
 ASP623  PHE694  ASN695  SER759  ASP760  ASP761  ALA762  ILE779  LEU786  VAL792 
 PHE793  MET794  SER795  GLU796  ALA797  LYS798  CYS799  TRP800  GLU811  SER814 

> <Gold.Protein.RotatedAtoms>
  151.0632  133.5527  159.2632 H   0  0  0  0  0  0  0  0  0  0  0  0  # atno 6907 bound_to 6896
  151.2494  135.0616  159.9066 H   0  0  0  0  0  0  0  0  0  0  0  0  # atno 6908 bound_to 6896
  152.5401  134.0395  159.8115 H   0  0  0  0  0  0  0  0  0  0  0  0  # atno 6909 bound_to 6896
  146.0624  139.5146  142.9650 H   0  0  0  0  0  0  0  0  0  0  0  0  # atno 7974 bound_to 7965
  155.6841  140.3496  155.4867 H   0  0  0  0  0  0  0  0  0  0  0  0  # atno 8008 bound_to 7997
  155.9581  140.1132  157.0942 H   0  0  0  0  0  0  0  0  0  0  0  0  # atno 8009 bound_to 7997
  154.4137  140.1181  156.5129 H   0  0  0  0  0  0  0  0  0  0  0  0  # atno 8010 bound_to 7997
  140.7250  143.3852  151.1528 H   0  0  0  0  0  0  0  0  0  0  0  0  # atno 10167 bound_to 10162
  156.8951  130.9860  151.3044 H   0  0  0  0  0  0  0  0  0  0  0  0  # atno 10718 bound_to 10713
  154.4697  135.5872  153.6313 H   0  0  0  0  0  0  0  0  0  0  0  0  # atno 10763 bound_to 10752
  152.9833  135.6064  154.3382 H   0  0  0  0  0  0  0  0  0  0  0  0  # atno 10764 bound_to 10752
  154.3263  135.2843  155.2473 H   0  0  0  0  0  0  0  0  0  0  0  0  # atno 10765 bound_to 10752
  140.8405  133.7929  155.9856 H   0  0  0  0  0  0  0  0  0  0  0  0  # atno 11005 bound_to 11000
  145.6537  141.0257  143.1746 LP  0  0  0  0  0  0  0  0  0  0  0  0  # atno 17320 bound_to 7965
  144.7182  139.8120  143.7391 LP  0  0  0  0  0  0  0  0  0  0  0  0  # atno 17321 bound_to 7965
  139.7448  143.8869  152.3060 LP  0  0  0  0  0  0  0  0  0  0  0  0  # atno 17342 bound_to 10162
  139.8703  144.7072  150.8996 LP  0  0  0  0  0  0  0  0  0  0  0  0  # atno 17343 bound_to 10162
  157.6060  130.8547  149.8876 LP  0  0  0  0  0  0  0  0  0  0  0  0  # atno 17370 bound_to 10713
  156.0609  130.3700  150.0983 LP  0  0  0  0  0  0  0  0  0  0  0  0  # atno 17371 bound_to 10713
  140.8900  134.2507  157.5099 LP  0  0  0  0  0  0  0  0  0  0  0  0  # atno 17394 bound_to 11000
  139.8703  134.9657  156.4536 LP  0  0  0  0  0  0  0  0  0  0  0  0  # atno 17395 bound_to 11000

$$$$
