#       Name:                AV-unprocessed.smi:35
#       Creating user name   scv26
#       Creation time:       Thu Mar 26 16:01:41 2020


#       File generated by GOLD software.
#

@<TRIPOS>MOLECULE
AV-unprocessed.smi:35
    41    42     1
SMALL
NO_CHARGES


@<TRIPOS>ATOM
      1 ****        -4.0733   2.8258   1.7225 O.2            1 S1                 0.0000
      2 ****        -3.1144   2.2783   1.1824 C.2            1 S1                 0.0000
      3 ****        -3.0569   2.1677  -0.2096 N.am           1 S1                 0.0000
      4 ****        -2.0235   1.5690  -0.9327 C.2            1 S1                 0.0000
      5 ****        -2.0802   1.5163  -2.1606 O.2            1 S1                 0.0000
      6 ****        -0.9436   1.0318  -0.1969 N.am           1 S1                 0.0000
      7 ****         0.1928   0.3777  -0.9620 C.3            1 S1                 0.0000
      8 ****         1.3326   0.3169  -0.1545 O.3            1 S1                 0.0000
      9 ****         1.5752  -1.0264   0.2525 C.3            1 S1                 0.0000
     10 ****         3.0462  -1.2284   0.6537 C.3            1 S1                 0.0000
     11 ****         3.2477  -0.7901   1.9800 O.3            1 S1                 0.0000
     12 ****         1.0987  -1.8411  -0.9558 C.3            1 S1                 0.0000
     13 ****         2.0807  -1.8663  -1.9763 O.3            1 S1                 0.0000
     14 ****        -0.1290  -1.0675  -1.4180 C.3            1 S1                 0.0000
     15 ****        -1.2890  -1.6156  -0.8146 O.3            1 S1                 0.0000
     16 ****        -0.9580   1.1176   1.1904 C.2            1 S1                 0.0000
     17 ****        -1.9692   1.7002   1.8768 C.2            1 S1                 0.0000
     18 ****        -1.8028   1.7204   3.8508 Br             1 S1                 0.0000
     19 ****        -3.8289   2.5509  -0.7355 H              1 S1                 0.0000
     20 ****         0.4199   1.0511  -1.7908 H              1 S1                 0.0000
     21 ****         0.9243  -1.2688   1.0944 H              1 S1                 0.0000
     22 ****         3.3028  -2.2876   0.6178 H              1 S1                 0.0000
     23 ****         3.7218  -0.7046  -0.0233 H              1 S1                 0.0000
     24 ****         3.0491   0.1330   2.0236 H              1 S1                 0.0000
     25 ****         0.8689  -2.8730  -0.6857 H              1 S1                 0.0000
     26 ****         2.8357  -2.3366  -1.6567 H              1 S1                 0.0000
     27 ****        -0.2585  -1.0943  -2.5009 H              1 S1                 0.0000
     28 ****        -2.0263  -1.0674  -1.0369 H              1 S1                 0.0000
     29 ****        -0.1414   0.7108   1.7662 H              1 S1                 0.0000
     30 ****        -4.1097   2.9018   2.7189 LP             1 S1                 0.0000
     31 ****        -4.8171   3.1953   1.1654 LP             1 S1                 0.0000
     32 ****        -2.8672   1.9026  -2.6418 LP             1 S1                 0.0000
     33 ****        -1.3394   1.0872  -2.6774 LP             1 S1                 0.0000
     34 ****         1.1949   0.8877   0.6550 LP             1 S1                 0.0000
     35 ****         2.1208   0.6536  -0.6696 LP             1 S1                 0.0000
     36 ****         4.1996  -0.9434   2.2451 LP             1 S1                 0.0000
     37 ****         2.6443  -1.2947   2.5975 LP             1 S1                 0.0000
     38 ****         2.3425  -0.9312  -2.2151 LP             1 S1                 0.0000
     39 ****         1.7144  -2.3267  -2.7850 LP             1 S1                 0.0000
     40 ****        -1.1738  -1.6410   0.1784 LP             1 S1                 0.0000
     41 ****        -1.4419  -2.5429  -1.1563 LP             1 S1                 0.0000
@<TRIPOS>BOND
    1    1    2 2     
    2    2   17 1     
    3    2    3 1     
    4    3   19 1     
    5    3    4 1     
    6    4    5 2     
    7    4    6 1     
    8    6    7 1     
    9    6   16 1     
   10    7   14 1     
   11    7    8 1     
   12    7   20 1     
   13    8    9 1     
   14    9   10 1     
   15    9   12 1     
   16    9   21 1     
   17   10   11 1     
   18   10   22 1     
   19   10   23 1     
   20   11   24 1     
   21   12   13 1     
   22   12   14 1     
   23   12   25 1     
   24   13   26 1     
   25   14   15 1     
   26   14   27 1     
   27   15   28 1     
   28   16   17 2     
   29   16   29 1     
   30   17   18 1     
   31    1   30 1     
   32    1   31 1     
   33    5   32 1     
   34    5   33 1     
   35    8   34 1     
   36    8   35 1     
   37   11   36 1     
   38   11   37 1     
   39   13   38 1     
   40   13   39 1     
   41   15   40 1     
   42   15   41 1     
@<TRIPOS>SUBSTRUCTURE
      1 S1             1
@<TRIPOS>SET
LONE_PAIRS      STATIC     ATOMS    <user>   **** ""
12 30 31 32 33 34 35 36 37 38 39 40 41
DONOR_HYDROGENS      STATIC     ATOMS    <user>   **** ""
4 19 24 26 28
ATOM$BLUE        STATIC     ATOMS    COLORGROUP SYSTEM
12 30 31 32 33 34 35 36 37 38 39 40 41
ATOM$RED        STATIC     ATOMS    COLORGROUP SYSTEM
4 19 24 26 28
