AV-unprocessed.smi:1818|AV-procd|sdf|7381|dock5
  -GOLD-   22720 9 53D 1   1.00000     0.00000
 Structure written by MMmdl.
 37 38  0  0  0  0  0  0  0  0  2 V2000
  150.9741  139.6583  154.6321 N   0  0  0  0  0  0  0  0  0  0  0  0
  150.2470  140.3552  155.2017 C   0  0  0  0  0  0  0  0  0  0  0  0
  149.3195  141.2452  155.9279 C   0  0  0  0  0  0  0  0  0  0  0  0
  150.0064  142.4747  156.3365 N   0  0  0  0  0  0  0  0  0  0  0  0
  151.1005  142.5757  157.1101 C   0  0  0  0  0  0  0  0  0  0  0  0
  151.7005  141.6093  157.5777 O   0  0  0  0  0  0  0  0  0  0  0  0
  151.5812  143.9920  157.4236 C   0  0  0  0  0  0  0  0  0  0  0  0
  151.5776  144.2390  158.8685 N   0  0  0  0  0  0  0  0  0  0  0  0
  152.4594  143.7510  159.7993 C   0  0  0  0  0  0  0  0  0  0  0  0
  152.0671  144.2568  161.0120 C   0  0  0  0  0  0  0  0  0  0  0  0
  150.9647  145.0323  160.7707 N   0  3  0  0  0  0  0  0  0  0  0  0
  150.6684  145.0203  159.4671 C   0  0  0  0  0  0  0  0  0  0  0  0
  148.2019  141.6488  154.9349 C   0  0  0  0  0  0  0  0  0  0  0  0
  146.8947  142.1656  155.5620 C   0  0  0  0  0  0  0  0  0  0  0  0
  145.8938  141.0328  155.8533 C   0  0  0  0  0  0  0  0  0  0  0  0
  146.2672  140.1246  157.0355 C   0  0  0  0  0  0  0  0  0  0  0  0
  147.6686  139.4934  156.9532 C   0  0  0  0  0  0  0  0  0  0  0  0
  148.7874  140.5210  157.1930 C   0  0  0  0  0  0  0  0  0  0  0  0
  149.5986  143.3356  156.0022 H   0  0  0  0  0  0  0  0  0  0  0  0
  152.5944  144.1424  157.0471 H   0  0  0  0  0  0  0  0  0  0  0  0
  150.9399  144.7327  156.9433 H   0  0  0  0  0  0  0  0  0  0  0  0
  153.2794  143.0982  159.5371 H   0  0  0  0  0  0  0  0  0  0  0  0
  152.4795  144.1273  162.0023 H   0  0  0  0  0  0  0  0  0  0  0  0
  149.8576  145.5424  158.9904 H   0  0  0  0  0  0  0  0  0  0  0  0
  148.5923  142.4102  154.2576 H   0  0  0  0  0  0  0  0  0  0  0  0
  147.9666  140.8053  154.2838 H   0  0  0  0  0  0  0  0  0  0  0  0
  147.0900  142.7622  156.4535 H   0  0  0  0  0  0  0  0  0  0  0  0
  146.4245  142.8430  154.8483 H   0  0  0  0  0  0  0  0  0  0  0  0
  144.9177  141.4736  156.0586 H   0  0  0  0  0  0  0  0  0  0  0  0
  145.7566  140.4263  154.9573 H   0  0  0  0  0  0  0  0  0  0  0  0
  146.1725  140.6830  157.9676 H   0  0  0  0  0  0  0  0  0  0  0  0
  145.5279  139.3254  157.0975 H   0  0  0  0  0  0  0  0  0  0  0  0
  147.7338  138.7344  157.7337 H   0  0  0  0  0  0  0  0  0  0  0  0
  147.8116  138.9640  156.0107 H   0  0  0  0  0  0  0  0  0  0  0  0
  149.6224  140.0042  157.6680 H   0  0  0  0  0  0  0  0  0  0  0  0
  148.4509  141.2467  157.9351 H   0  0  0  0  0  0  0  0  0  0  0  0
  150.4469  145.5428  161.4752 H   0  0  0  0  0  0  0  0  0  0  0  0
  1  2  3  0  0  0  0
  2  3  1  0  0  0  0
  3 18  1  0  0  0  0
  3  4  1  0  0  0  0
  3 13  1  0  0  0  0
  4  5  1  0  0  0  0
  4 19  1  0  0  0  0
  5  6  2  0  0  0  0
  5  7  1  0  0  0  0
  7  8  1  0  0  0  0
  7 20  1  0  0  0  0
  7 21  1  0  0  0  0
  8 12  1  0  0  0  0
  8  9  1  0  0  0  0
  9 10  2  0  0  0  0
  9 22  1  0  0  0  0
 10 11  1  0  0  0  0
 10 23  1  0  0  0  0
 11 12  2  0  0  0  0
 11 37  1  0  0  0  0
 12 24  1  0  0  0  0
 13 14  1  0  0  0  0
 13 25  1  0  0  0  0
 13 26  1  0  0  0  0
 14 15  1  0  0  0  0
 14 27  1  0  0  0  0
 14 28  1  0  0  0  0
 15 16  1  0  0  0  0
 15 29  1  0  0  0  0
 15 30  1  0  0  0  0
 16 17  1  0  0  0  0
 16 31  1  0  0  0  0
 16 32  1  0  0  0  0
 17 18  1  0  0  0  0
 17 33  1  0  0  0  0
 17 34  1  0  0  0  0
 18 35  1  0  0  0  0
 18 36  1  0  0  0  0
M  CHG  1  11   1
M  END
> <s_m_source_file>
AV-unprocessed.smi

> <i_m_source_file_index>
1818

> <i_lp_mmshare_version>
43012

> <i_f3d_flags>
0

> <s_epik_input>
W0NIMl0xW0NIMl1bQ0gyXVtDSDJdW0NIMl1bQ0gyXUMxKEMjTilbTkhdQyg9TylbQ0gyXW4yW2NIXVtjSF1uW2NIXTI=

> <s_epik_cmdline>
J2VwaWtfcHl0aG9uJywgJy1waCcsICc3LjAnLCAnLXRuJywgJzgnLCAnLW1hJywgJzIwMCcsICctbWV0YWxfYmluZGluZycsICctaW1hZScsICc8aW5maWxlLm1hZT4nLCAnLW9tYWUnLCAnPG91dGZpbGUubWFlPic=

> <r_lp_tautomer_probability>
1

> <r_epik_Ionization_Penalty>
0.70502

> <r_epik_Ionization_Penalty_Charging>
0

> <r_epik_Ionization_Penalty_Neutral>
0.70502

> <r_epik_State_Penalty>
0.72808

> <r_epik_Charging_Adjusted_Penalty>
0.72808

> <i_epik_Tot_Q>
1

> <i_epik_Tot_abs_Q>
1

> <r_epik_Metal_State_Penalty>
0.891186

> <b_epik_Metal_Only>
0

> <s_lp_Force_Field>
OPLS_2005

> <r_lp_Energy>
19.4839

> <b_lp_Chiralities_Consistent>
1

> <s_lp_Variant>
AV-unprocessed.smi:1818-2

> <Gold.Version>
5.8.1

> <Gold.Id.Protein>
6NUR|6NUR_protein|mol2

> <Gold.PLP.Fitness>
43.8822

> <Gold.PLP.PLP>
-35.6861

> <Gold.PLP.part.hbond>
-3.0000

> <Gold.PLP.part.metal>
0.0000

> <Gold.PLP.part.buried>
-3.4409

> <Gold.PLP.part.nonpolar>
-29.6077

> <Gold.PLP.part.repulsive>
0.3582

> <Gold.PLP.ligand.clash>
0.0000

> <Gold.PLP.ligand.torsion>
0.1776

> <Gold.PLP.Chemscore.Hbond>
1.8500

> <Gold.PLP.Chemscore.CHOScore>
0.9975

> <Gold.PLP.Chemscore.Metal>
0.0000

> <Gold.Chemscore.Hbonds>
donor molecule, donor type, donor heavy atom, donor atom, acceptor molecule, acceptor atom, score
      L1  H     4    19       P1  8028  1.00
      P1  H  7989  7998       L1     1  0.90
      L1  C    12    24       P1  8029  0.77

> <Gold.PLP.Chemscore.Internal.Correction>
0.0087

> <Gold.Rescore>
     Score         DG    S(hbond)    S(metal)    S(lipo)     H(rot)  DE(clash)    DE(int)     intcor
     11.11     -12.54       1.41        0.00      57.27       1.69       0.38       1.05       ----

> <Gold.Chemscore.Fitness>
11.1132

> <Gold.Chemscore.DG>
-12.5417

> <Gold.Chemscore.ZeroCoef>
-5.4800

> <Gold.Chemscore.Hbond>
1.4070

> <Gold.Chemscore.Metal>
0.0000

> <Gold.Chemscore.Lipo>
57.2721

> <Gold.Chemscore.Internal_Hbond>
0.0000

> <Gold.Chemscore.DEClash>
0.3768

> <Gold.Chemscore.DEInternal>
1.0517

> <Gold.Chemscore.Rot>
1.6947

> <Gold.Chemscore.Internal.Correction>
   9.000000E+99

> <Gold.Chemscore.Hbonds>
donor molecule, donor type, donor heavy atom, donor atom, acceptor molecule, acceptor atom, score
      L1  H     4    19       P1  8028  0.98
      P1  H  7989  7998       L1     1  0.18

> <Gold.Chemscore.Hbond.Weighted>
-4.6995

> <Gold.Chemscore.Metal.Weighted>
-0.0000

> <Gold.Chemscore.Lipo.Weighted>
-6.7008

> <Gold.Chemscore.Internal_Hbond.Weighted>
0.0000

> <Gold.Chemscore.DEClash.Weighted>
0.3768

> <Gold.Chemscore.DEInternal.Weighted>
1.0517

> <Gold.Chemscore.Rot.Weighted>
4.3386

> <Gold.Chemscore.Internal.Correction.Weighted>
   9.000000E+99

> <Gold.Protein.RotatedTorsions>
[ 6907 6896 6895 6894 ] final  -66.25 input  -60.11 | X-H torsion
[ 7974 7965 7964 7962 ] final   54.73 input  175.53 | X-H torsion
[ 8008 7997 7996 7995 ] final -171.59 input   59.86 | X-H torsion
[ 10167 10162 10161 10158 ] final  -72.86 input  -65.29 | X-H torsion
[ 10718 10713 10712 10709 ] final  167.56 input   66.30 | X-H torsion
[ 10763 10752 10751 10750 ] final   29.00 input  -60.55 | X-H torsion
[ 11005 11000 10999 10996 ] final  -13.54 input  -57.11 | X-H torsion

> <Gold.Protein.ActiveResidues>
 VAL166  LYS551  ARG553  GLY616  TRP617  ASP618  TYR619  PRO620  LYS621  CYS622 
 ASP623  PHE694  ASN695  SER759  ASP760  ASP761  ALA762  ILE779  LEU786  VAL792 
 PHE793  MET794  SER795  GLU796  ALA797  LYS798  CYS799  TRP800  GLU811  SER814 

> <Gold.Protein.RotatedAtoms>
  150.7476  134.6047  159.6054 H   0  0  0  0  0  0  0  0  0  0  0  0  # atno 6907 bound_to 6896
  152.3398  134.7146  160.0276 H   0  0  0  0  0  0  0  0  0  0  0  0  # atno 6908 bound_to 6896
  151.7602  133.3297  159.3452 H   0  0  0  0  0  0  0  0  0  0  0  0  # atno 6909 bound_to 6896
  145.9578  139.4031  143.0267 H   0  0  0  0  0  0  0  0  0  0  0  0  # atno 7974 bound_to 7965
  155.9336  140.1095  157.1113 H   0  0  0  0  0  0  0  0  0  0  0  0  # atno 8008 bound_to 7997
  154.4075  140.1233  156.4900 H   0  0  0  0  0  0  0  0  0  0  0  0  # atno 8009 bound_to 7997
  155.7049  140.3471  155.4951 H   0  0  0  0  0  0  0  0  0  0  0  0  # atno 8010 bound_to 7997
  140.5158  143.2338  151.7515 H   0  0  0  0  0  0  0  0  0  0  0  0  # atno 10167 bound_to 10162
  157.0497  131.0310  151.2685 H   0  0  0  0  0  0  0  0  0  0  0  0  # atno 10718 bound_to 10713
  153.0457  135.6499  154.0823 H   0  0  0  0  0  0  0  0  0  0  0  0  # atno 10763 bound_to 10752
  154.0522  135.2894  155.3340 H   0  0  0  0  0  0  0  0  0  0  0  0  # atno 10764 bound_to 10752
  154.6713  135.5355  153.8207 H   0  0  0  0  0  0  0  0  0  0  0  0  # atno 10765 bound_to 10752
  140.7772  133.8392  155.9259 H   0  0  0  0  0  0  0  0  0  0  0  0  # atno 11005 bound_to 11000
  145.8082  140.9738  143.0962 LP  0  0  0  0  0  0  0  0  0  0  0  0  # atno 17320 bound_to 7965
  144.6808  139.9888  143.7484 LP  0  0  0  0  0  0  0  0  0  0  0  0  # atno 17321 bound_to 7965
  139.4909  144.4326  151.9855 LP  0  0  0  0  0  0  0  0  0  0  0  0  # atno 17342 bound_to 10162
  140.3420  144.3192  150.5965 LP  0  0  0  0  0  0  0  0  0  0  0  0  # atno 17343 bound_to 10162
  157.5040  130.7897  149.7634 LP  0  0  0  0  0  0  0  0  0  0  0  0  # atno 17370 bound_to 10713
  156.0011  130.3879  150.2601 LP  0  0  0  0  0  0  0  0  0  0  0  0  # atno 17371 bound_to 10713
  140.9518  134.1769  157.4722 LP  0  0  0  0  0  0  0  0  0  0  0  0  # atno 17394 bound_to 11000
  139.8747  134.9912  156.5537 LP  0  0  0  0  0  0  0  0  0  0  0  0  # atno 17395 bound_to 11000

$$$$
