AV-unprocessed.smi:2270|AV-procd|sdf|9159|dock4
  -GOLD-   2272012363D 1   1.00000     0.00000
 Structure written by MMmdl.
 52 53  0  0  0  0  0  0  0  0  1 V2000
  145.8975  129.4021  151.6199 C   0  0  0  0  0  0  0  0  0  0  0  0
  145.7653  130.9102  151.6391 C   0  0  0  0  0  0  0  0  0  0  0  0
  144.6083  131.5425  151.1432 C   0  0  0  0  0  0  0  0  0  0  0  0
  144.5457  132.9464  151.1967 C   0  0  0  0  0  0  0  0  0  0  0  0
  145.6337  133.6552  151.7417 C   0  0  0  0  0  0  0  0  0  0  0  0
  146.7588  132.9438  152.2165 C   0  0  0  0  0  0  0  0  0  0  0  0
  147.7982  133.7480  152.7542 N   0  0  0  0  0  0  0  0  0  0  0  0
  148.7563  133.3910  153.6278 C   0  0  0  0  0  0  0  0  0  0  0  0
  148.9330  132.2531  154.0635 O   0  0  0  0  0  0  0  0  0  0  0  0
  149.5116  134.4442  153.9727 N   0  0  0  0  0  0  0  0  0  0  0  0
  150.6292  134.4255  154.9130 C   0  0  0  0  0  0  0  0  0  0  0  0
  150.4355  135.4323  156.0812 C   0  0  1  0  0  0  0  0  0  0  0  0
  150.2528  136.9126  155.6229 C   0  0  0  0  0  0  0  0  0  0  0  0
  148.7812  137.2363  155.3135 C   0  0  0  0  0  0  0  0  0  0  0  0
  151.1679  137.3958  154.4827 C   0  0  0  0  0  0  0  0  0  0  0  0
  149.4811  134.9960  157.1186 N   0  0  0  0  0  0  0  0  0  0  0  0
  149.5273  133.5677  157.4566 C   0  0  0  0  0  0  0  0  0  0  0  0
  148.4124  133.1937  158.4507 C   0  0  0  0  0  0  0  0  0  0  0  0
  148.5138  133.9709  159.6846 N   0  0  0  0  0  0  0  0  0  0  0  0
  147.4642  133.6162  160.6275 C   0  0  0  0  0  0  0  0  0  0  0  0
  148.4801  135.3941  159.3542 C   0  0  0  0  0  0  0  0  0  0  0  0
  149.5949  135.7674  158.3596 C   0  0  0  0  0  0  0  0  0  0  0  0
  146.8094  131.5895  152.1603 N   0  0  0  0  0  0  0  0  0  0  0  0
  145.1349  128.9472  150.9872 H   0  0  0  0  0  0  0  0  0  0  0  0
  145.7882  129.0029  152.6284 H   0  0  0  0  0  0  0  0  0  0  0  0
  146.8754  129.1078  151.2374 H   0  0  0  0  0  0  0  0  0  0  0  0
  143.7895  130.9693  150.7335 H   0  0  0  0  0  0  0  0  0  0  0  0
  143.6774  133.4719  150.8274 H   0  0  0  0  0  0  0  0  0  0  0  0
  145.6008  134.7339  151.7922 H   0  0  0  0  0  0  0  0  0  0  0  0
  147.7986  134.7122  152.4563 H   0  0  0  0  0  0  0  0  0  0  0  0
  149.2897  135.3379  153.5592 H   0  0  0  0  0  0  0  0  0  0  0  0
  150.8078  133.4170  155.2869 H   0  0  0  0  0  0  0  0  0  0  0  0
  151.5157  134.6842  154.3352 H   0  0  0  0  0  0  0  0  0  0  0  0
  151.4086  135.4541  156.5744 H   0  0  0  0  0  0  0  0  0  0  0  0
  150.5042  137.5335  156.4825 H   0  0  0  0  0  0  0  0  0  0  0  0
  148.4300  136.6977  154.4329 H   0  0  0  0  0  0  0  0  0  0  0  0
  148.6459  138.3014  155.1237 H   0  0  0  0  0  0  0  0  0  0  0  0
  148.1335  136.9675  156.1484 H   0  0  0  0  0  0  0  0  0  0  0  0
  150.8257  137.0442  153.5104 H   0  0  0  0  0  0  0  0  0  0  0  0
  152.2013  137.0804  154.6169 H   0  0  0  0  0  0  0  0  0  0  0  0
  151.1699  138.4850  154.4350 H   0  0  0  0  0  0  0  0  0  0  0  0
  149.4223  132.9500  156.5704 H   0  0  0  0  0  0  0  0  0  0  0  0
  150.4930  133.3145  157.8957 H   0  0  0  0  0  0  0  0  0  0  0  0
  147.4387  133.3547  157.9850 H   0  0  0  0  0  0  0  0  0  0  0  0
  148.4761  132.1294  158.6802 H   0  0  0  0  0  0  0  0  0  0  0  0
  147.5633  134.1902  161.5493 H   0  0  0  0  0  0  0  0  0  0  0  0
  147.5202  132.5587  160.8874 H   0  0  0  0  0  0  0  0  0  0  0  0
  146.4757  133.8120  160.2097 H   0  0  0  0  0  0  0  0  0  0  0  0
  147.5100  135.6570  158.9294 H   0  0  0  0  0  0  0  0  0  0  0  0
  148.5934  135.9860  160.2628 H   0  0  0  0  0  0  0  0  0  0  0  0
  150.5665  135.6020  158.8258 H   0  0  0  0  0  0  0  0  0  0  0  0
  149.5299  136.8337  158.1417 H   0  0  0  0  0  0  0  0  0  0  0  0
  1  2  1  0  0  0  0
  1 24  1  0  0  0  0
  1 25  1  0  0  0  0
  1 26  1  0  0  0  0
  2 23  1  0  0  0  0
  2  3  2  0  0  0  0
  3  4  1  0  0  0  0
  3 27  1  0  0  0  0
  4  5  2  0  0  0  0
  4 28  1  0  0  0  0
  5  6  1  0  0  0  0
  5 29  1  0  0  0  0
  6  7  1  0  0  0  0
  6 23  2  0  0  0  0
  7  8  1  0  0  0  0
  7 30  1  0  0  0  0
  8  9  2  0  0  0  0
  8 10  1  0  0  0  0
 10 11  1  0  0  0  0
 10 31  1  0  0  0  0
 11 12  1  0  0  0  0
 11 32  1  0  0  0  0
 11 33  1  0  0  0  0
 12 13  1  0  0  0  0
 12 16  1  0  0  0  0
 12 34  1  0  0  0  0
 13 14  1  0  0  0  0
 13 15  1  0  0  0  0
 13 35  1  0  0  0  0
 14 36  1  0  0  0  0
 14 37  1  0  0  0  0
 14 38  1  0  0  0  0
 15 39  1  0  0  0  0
 15 40  1  0  0  0  0
 15 41  1  0  0  0  0
 16 22  1  0  0  0  0
 16 17  1  0  0  0  0
 17 18  1  0  0  0  0
 17 42  1  0  0  0  0
 17 43  1  0  0  0  0
 18 19  1  0  0  0  0
 18 44  1  0  0  0  0
 18 45  1  0  0  0  0
 19 20  1  0  0  0  0
 19 21  1  0  0  0  0
 20 46  1  0  0  0  0
 20 47  1  0  0  0  0
 20 48  1  0  0  0  0
 21 22  1  0  0  0  0
 21 49  1  0  0  0  0
 21 50  1  0  0  0  0
 22 51  1  0  0  0  0
 22 52  1  0  0  0  0
M  END
> <s_m_source_file>
AV-unprocessed.smi

> <i_m_source_file_index>
2270

> <i_lp_mmshare_version>
43012

> <i_f3d_flags>
0

> <s_epik_input>
W0NIM11jMVtjSF1bY0hdW2NIXWMobjEpW05IXUMoPU8pW05IXVtDSDJdW0NASF0oW0NIXShbQ0gzXSlbQ0gzXSlOMltDSDJdW0NIMl1OKFtDSDNdKVtDSDJdW0NIMl0y

> <s_epik_cmdline>
J2VwaWtfcHl0aG9uJywgJy1waCcsICc3LjAnLCAnLXRuJywgJzgnLCAnLW1hJywgJzIwMCcsICctbWV0YWxfYmluZGluZycsICctaW1hZScsICc8aW5maWxlLm1hZT4nLCAnLW9tYWUnLCAnPG91dGZpbGUubWFlPic=

> <r_epik_Ionization_Penalty>
2.57754

> <r_epik_Ionization_Penalty_Charging>
0

> <r_epik_Ionization_Penalty_Neutral>
2.57754

> <r_epik_State_Penalty>
2.00874

> <r_epik_Charging_Adjusted_Penalty>
2.00874

> <i_epik_Tot_Q>
0

> <i_epik_Tot_abs_Q>
0

> <r_epik_Metal_State_Penalty>
2.00874

> <b_epik_Metal_Only>
0

> <s_lp_Force_Field>
OPLS_2005

> <r_lp_Energy>
49.2336

> <b_lp_Chiralities_Consistent>
1

> <s_lp_Variant>
AV-unprocessed.smi:2270-6

> <Gold.Version>
5.8.1

> <Gold.Id.Protein>
6NUR|6NUR_protein|mol2

> <Gold.PLP.Fitness>
38.7014

> <Gold.PLP.PLP>
-33.5484

> <Gold.PLP.part.hbond>
-2.0000

> <Gold.PLP.part.metal>
0.0000

> <Gold.PLP.part.buried>
-6.4522

> <Gold.PLP.part.nonpolar>
-25.5928

> <Gold.PLP.part.repulsive>
0.5217

> <Gold.PLP.ligand.clash>
0.0000

> <Gold.PLP.ligand.torsion>
0.6336

> <Gold.PLP.Chemscore.Hbond>
2.0000

> <Gold.PLP.Chemscore.CHOScore>
0.0000

> <Gold.PLP.Chemscore.Metal>
0.0000

> <Gold.Chemscore.Hbonds>
donor molecule, donor type, donor heavy atom, donor atom, acceptor molecule, acceptor atom, score
      L1  H     7    30       P1  7948  0.86
      L1  H    10    31       P1  7948  0.83

> <Gold.PLP.Chemscore.Internal.Correction>
0.4202

> <Gold.Rescore>
     Score         DG    S(hbond)    S(metal)    S(lipo)     H(rot)  DE(clash)    DE(int)     intcor
     12.75     -14.51       1.22        0.00      76.59       1.56       0.13       1.64       ----

> <Gold.Chemscore.Fitness>
12.7451

> <Gold.Chemscore.DG>
-14.5122

> <Gold.Chemscore.ZeroCoef>
-5.4800

> <Gold.Chemscore.Hbond>
1.2180

> <Gold.Chemscore.Metal>
0.0000

> <Gold.Chemscore.Lipo>
76.5877

> <Gold.Chemscore.Internal_Hbond>
0.0000

> <Gold.Chemscore.DEClash>
0.1261

> <Gold.Chemscore.DEInternal>
1.6409

> <Gold.Chemscore.Rot>
1.5612

> <Gold.Chemscore.Internal.Correction>
   9.000000E+99

> <Gold.Chemscore.Hbonds>
donor molecule, donor type, donor heavy atom, donor atom, acceptor molecule, acceptor atom, score
      L1  H     7    30       P1  7948  0.66
      L1  H    10    31       P1  7948  0.21

> <Gold.Chemscore.Hbond.Weighted>
-4.0680

> <Gold.Chemscore.Metal.Weighted>
-0.0000

> <Gold.Chemscore.Lipo.Weighted>
-8.9608

> <Gold.Chemscore.Internal_Hbond.Weighted>
0.0000

> <Gold.Chemscore.DEClash.Weighted>
0.1261

> <Gold.Chemscore.DEInternal.Weighted>
1.6409

> <Gold.Chemscore.Rot.Weighted>
3.9966

> <Gold.Chemscore.Internal.Correction.Weighted>
   9.000000E+99

> <Gold.Protein.RotatedTorsions>
[ 6907 6896 6895 6894 ] final  -37.44 input  -60.11 | X-H torsion
[ 7974 7965 7964 7962 ] final  -59.70 input  175.53 | X-H torsion
[ 8008 7997 7996 7995 ] final -158.58 input   59.86 | X-H torsion
[ 10167 10162 10161 10158 ] final  130.38 input  -65.29 | X-H torsion
[ 10718 10713 10712 10709 ] final   49.40 input   66.30 | X-H torsion
[ 10763 10752 10751 10750 ] final   20.71 input  -60.55 | X-H torsion
[ 11005 11000 10999 10996 ] final  173.96 input  -57.11 | X-H torsion

> <Gold.Protein.ActiveResidues>
 VAL166  LYS551  ARG553  GLY616  TRP617  ASP618  TYR619  PRO620  LYS621  CYS622 
 ASP623  PHE694  ASN695  SER759  ASP760  ASP761  ALA762  ILE779  LEU786  VAL792 
 PHE793  MET794  SER795  GLU796  ALA797  LYS798  CYS799  TRP800  GLU811  SER814 

> <Gold.Protein.RotatedAtoms>
  151.0147  134.9424  159.8026 H   0  0  0  0  0  0  0  0  0  0  0  0  # atno 6907 bound_to 6896
  152.5311  134.2982  159.9078 H   0  0  0  0  0  0  0  0  0  0  0  0  # atno 6908 bound_to 6896
  151.2988  133.4090  159.2672 H   0  0  0  0  0  0  0  0  0  0  0  0  # atno 6909 bound_to 6896
  145.8244  140.8520  143.0116 H   0  0  0  0  0  0  0  0  0  0  0  0  # atno 7974 bound_to 7965
  155.7496  140.0825  157.2207 H   0  0  0  0  0  0  0  0  0  0  0  0  # atno 8008 bound_to 7997
  154.4013  140.1563  156.2765 H   0  0  0  0  0  0  0  0  0  0  0  0  # atno 8009 bound_to 7997
  155.8943  140.3413  155.5982 H   0  0  0  0  0  0  0  0  0  0  0  0  # atno 8010 bound_to 7997
  139.5432  144.6750  151.4555 H   0  0  0  0  0  0  0  0  0  0  0  0  # atno 10167 bound_to 10162
  157.4783  130.8299  149.8064 H   0  0  0  0  0  0  0  0  0  0  0  0  # atno 10718 bound_to 10713
  153.1054  135.6683  153.9595 H   0  0  0  0  0  0  0  0  0  0  0  0  # atno 10763 bound_to 10752
  153.9154  135.3020  155.3449 H   0  0  0  0  0  0  0  0  0  0  0  0  # atno 10764 bound_to 10752
  154.7476  135.5050  153.9307 H   0  0  0  0  0  0  0  0  0  0  0  0  # atno 10765 bound_to 10752
  140.3461  134.7235  157.4236 H   0  0  0  0  0  0  0  0  0  0  0  0  # atno 11005 bound_to 11000
  144.6745  140.0580  143.7477 LP  0  0  0  0  0  0  0  0  0  0  0  0  # atno 17320 bound_to 7965
  145.9640  139.2821  143.1138 LP  0  0  0  0  0  0  0  0  0  0  0  0  # atno 17321 bound_to 7965
  140.6671  143.8374  150.6955 LP  0  0  0  0  0  0  0  0  0  0  0  0  # atno 17342 bound_to 10162
  140.1787  143.4133  152.1949 LP  0  0  0  0  0  0  0  0  0  0  0  0  # atno 17343 bound_to 10162
  156.0108  130.3834  150.2271 LP  0  0  0  0  0  0  0  0  0  0  0  0  # atno 17370 bound_to 10713
  157.0457  131.0048  151.3270 LP  0  0  0  0  0  0  0  0  0  0  0  0  # atno 17371 bound_to 10713
  140.0741  134.5821  155.8610 LP  0  0  0  0  0  0  0  0  0  0  0  0  # atno 17394 bound_to 11000
  141.2025  133.6625  156.6010 LP  0  0  0  0  0  0  0  0  0  0  0  0  # atno 17395 bound_to 11000

$$$$
