#       Name:                AV-unprocessed.smi:135
#       Creating user name   scv26
#       Creation time:       Thu Mar 26 18:31:31 2020


#       File generated by GOLD software.
#

@<TRIPOS>MOLECULE
AV-unprocessed.smi:135
    61    64     1
SMALL
NO_CHARGES


@<TRIPOS>ATOM
      1 ****        -1.0660   0.4681  -0.8838 O.2            1 S1                 0.0000
      2 ****        -0.5597  -0.4688  -0.2664 C.2            1 S1                 0.0000
      3 ****         0.9410  -0.4587   0.0648 C.3            1 S1                 0.0000
      4 ****         1.5601   0.8805  -0.0412 N.am           1 S1                 0.0000
      5 ****         1.5093   1.7391   1.0847 C.2            1 S1                 0.0000
      6 ****         0.9707   1.3839   2.1343 O.2            1 S1                 0.0000
      7 ****         2.1265   3.0486   0.9068 C.2            1 S1                 0.0000
      8 ****         2.1364   3.9234   1.9268 F              1 S1                 0.0000
      9 ****         2.6922   3.3971  -0.2672 C.2            1 S1                 0.0000
     10 ****         2.7212   2.5537  -1.3639 N.am           1 S1                 0.0000
     11 ****         3.3612   2.9593  -2.6751 C.3            1 S1                 0.0000
     12 ****         2.2853   3.2493  -3.7391 C.3            1 S1                 0.0000
     13 ****         2.6868   4.6162  -4.2569 C.3            1 S1                 0.0000
     14 ****         3.3558   5.2302  -3.0366 C.3            1 S1                 0.0000
     15 ****         4.0940   4.1392  -2.5025 O.3            1 S1                 0.0000
     16 ****         2.1524   1.2650  -1.2675 C.2            1 S1                 0.0000
     17 ****         2.1683   0.4992  -2.2337 O.2            1 S1                 0.0000
     18 ****        -1.2164  -1.5670   0.1483 N.am           1 S1                 0.0000
     19 ****        -2.5934  -1.9200   0.0490 C.ar           1 S1                 0.0000
     20 ****        -3.5969  -1.0590  -0.4629 C.ar           1 S1                 0.0000
     21 ****        -4.9364  -1.4870  -0.5335 C.ar           1 S1                 0.0000
     22 ****        -5.2915  -2.7755  -0.0965 C.ar           1 S1                 0.0000
     23 ****        -4.3054  -3.6345   0.4198 C.ar           1 S1                 0.0000
     24 ****        -2.9638  -3.2100   0.5050 C.ar           1 S1                 0.0000
     25 ****        -2.0315  -4.0799   1.0154 O.3            1 S1                 0.0000
     26 ****        -1.5673  -3.8501   2.2875 C.ar           1 S1                 0.0000
     27 ****        -2.4492  -3.6504   3.3737 C.ar           1 S1                 0.0000
     28 ****        -1.9398  -3.4171   4.6659 C.ar           1 S1                 0.0000
     29 ****        -0.5485  -3.3873   4.8805 C.ar           1 S1                 0.0000
     30 ****         0.3339  -3.5940   3.8026 C.ar           1 S1                 0.0000
     31 ****        -0.1753  -3.8279   2.5106 C.ar           1 S1                 0.0000
     32 ****         1.0859  -0.8675   1.0668 H              1 S1                 0.0000
     33 ****         1.4375  -1.1796  -0.5862 H              1 S1                 0.0000
     34 ****         3.1349   4.3791  -0.3311 H              1 S1                 0.0000
     35 ****         4.0407   2.1459  -2.9357 H              1 S1                 0.0000
     36 ****         2.2817   2.4802  -4.5119 H              1 S1                 0.0000
     37 ****         1.2978   3.2928  -3.2771 H              1 S1                 0.0000
     38 ****         3.4098   4.5137  -5.0672 H              1 S1                 0.0000
     39 ****         1.8423   5.2013  -4.6216 H              1 S1                 0.0000
     40 ****         4.0044   6.0699  -3.2870 H              1 S1                 0.0000
     41 ****         2.6109   5.5712  -2.3161 H              1 S1                 0.0000
     42 ****        -0.6422  -2.2578   0.6095 H              1 S1                 0.0000
     43 ****        -3.3772  -0.0619  -0.8069 H              1 S1                 0.0000
     44 ****        -5.6929  -0.8239  -0.9262 H              1 S1                 0.0000
     45 ****        -6.3188  -3.1034  -0.1548 H              1 S1                 0.0000
     46 ****        -4.5789  -4.6229   0.7587 H              1 S1                 0.0000
     47 ****        -3.5183  -3.6740   3.2212 H              1 S1                 0.0000
     48 ****        -2.6170  -3.2616   5.4927 H              1 S1                 0.0000
     49 ****        -0.1587  -3.2089   5.8719 H              1 S1                 0.0000
     50 ****         1.4012  -3.5743   3.9670 H              1 S1                 0.0000
     51 ****         0.5051  -3.9859   1.6866 H              1 S1                 0.0000
     52 ****        -0.5004   1.2406  -1.1724 LP             1 S1                 0.0000
     53 ****        -2.0430   0.4567  -1.0969 LP             1 S1                 0.0000
     54 ****         0.5591   0.4751   2.2024 LP             1 S1                 0.0000
     55 ****         0.9450   2.0045   2.9180 LP             1 S1                 0.0000
     56 ****         4.9693   4.0621  -2.9798 LP             1 S1                 0.0000
     57 ****         4.2580   4.2916  -1.5279 LP             1 S1                 0.0000
     58 ****         1.7583  -0.4097  -2.1581 LP             1 S1                 0.0000
     59 ****         2.5911   0.7871  -3.0930 LP             1 S1                 0.0000
     60 ****        -1.2416  -4.0632   0.4025 LP             1 S1                 0.0000
     61 ****        -2.4401  -4.9926   1.0077 LP             1 S1                 0.0000
@<TRIPOS>BOND
    1    1    2 2     
    2    2    3 1     
    3    2   18 am    
    4    3    4 1     
    5    3   32 1     
    6    3   33 1     
    7    4   16 am    
    8    4    5 am    
    9    5    6 2     
   10    5    7 1     
   11    7    8 1     
   12    7    9 2     
   13    9   10 1     
   14    9   34 1     
   15   10   11 1     
   16   10   16 am    
   17   11   15 1     
   18   11   12 1     
   19   11   35 1     
   20   12   13 1     
   21   12   36 1     
   22   12   37 1     
   23   13   14 1     
   24   13   38 1     
   25   13   39 1     
   26   14   15 1     
   27   14   40 1     
   28   14   41 1     
   29   16   17 2     
   30   18   19 1     
   31   18   42 1     
   32   19   24 ar    
   33   19   20 ar    
   34   20   21 ar    
   35   20   43 1     
   36   21   22 ar    
   37   21   44 1     
   38   22   23 ar    
   39   22   45 1     
   40   23   24 ar    
   41   23   46 1     
   42   24   25 1     
   43   25   26 1     
   44   26   31 ar    
   45   26   27 ar    
   46   27   28 ar    
   47   27   47 1     
   48   28   29 ar    
   49   28   48 1     
   50   29   30 ar    
   51   29   49 1     
   52   30   31 ar    
   53   30   50 1     
   54   31   51 1     
   55    1   52 1     
   56    1   53 1     
   57    6   54 1     
   58    6   55 1     
   59   15   56 1     
   60   15   57 1     
   61   17   58 1     
   62   17   59 1     
   63   25   60 1     
   64   25   61 1     
@<TRIPOS>SUBSTRUCTURE
      1 S1             1
@<TRIPOS>SET
LONE_PAIRS      STATIC     ATOMS    <user>   **** ""
10 52 53 54 55 56 57 58 59 60 61
DONOR_HYDROGENS      STATIC     ATOMS    <user>   **** ""
1 42
ATOM$BLUE        STATIC     ATOMS    COLORGROUP SYSTEM
10 52 53 54 55 56 57 58 59 60 61
ATOM$RED        STATIC     ATOMS    COLORGROUP SYSTEM
1 42
