AV-unprocessed.smi:2822|AV-procd|sdf|10878|dock4
  -GOLD-   2272015323D 1   1.00000     0.00000
 Structure written by MMmdl.
 40 42  0  0  0  0  0  0  0  0  2 V2000
  146.5445  140.7872  155.3300 Cl  0  0  0  0  0  0  0  0  0  0  0  0
  147.9800  139.8943  154.9665 C   0  0  0  0  0  0  0  0  0  0  0  0
  148.0251  139.1104  153.7951 C   0  0  0  0  0  0  0  0  0  0  0  0
  149.1372  138.4065  153.4953 N   0  3  0  0  0  0  0  0  0  0  0  0
  150.2374  138.4144  154.2770 C   0  0  0  0  0  0  0  0  0  0  0  0
  150.2534  139.1793  155.4607 C   0  0  0  0  0  0  0  0  0  0  0  0
  149.1091  139.9340  155.8214 C   0  0  0  0  0  0  0  0  0  0  0  0
  149.0623  140.7139  156.9868 N   0  0  0  0  0  0  0  0  0  0  0  0
  149.8676  140.3750  158.1501 C   0  0  0  0  0  0  0  0  0  0  0  0
  151.3562  140.6929  157.9157 C   0  0  2  0  0  0  0  0  0  0  0  0
  152.0804  141.1445  159.1980 C   0  0  0  0  0  0  0  0  0  0  0  0
  151.6871  142.4813  159.6271 N   0  0  0  0  0  0  0  0  0  0  0  0
  152.4123  142.8789  160.8337 C   0  0  0  0  0  0  0  0  0  0  0  0
  152.0066  144.2743  161.3330 C   0  0  0  0  0  0  0  0  0  0  0  0
  152.2081  145.3159  160.2236 C   0  0  0  0  0  0  0  0  0  0  0  0
  151.4828  144.8690  158.9455 C   0  0  0  0  0  0  0  0  0  0  0  0
  151.9047  143.4410  158.5407 C   0  0  2  0  0  0  0  0  0  0  0  0
  151.1652  143.0042  157.2606 C   0  0  0  0  0  0  0  0  0  0  0  0
  151.5380  141.6774  156.8961 O   0  0  0  0  0  0  0  0  0  0  0  0
  147.2088  139.0261  153.0927 H   0  0  0  0  0  0  0  0  0  0  0  0
  151.0673  137.8133  153.9346 H   0  0  0  0  0  0  0  0  0  0  0  0
  151.1439  139.1759  156.0716 H   0  0  0  0  0  0  0  0  0  0  0  0
  148.3112  141.3799  157.1043 H   0  0  0  0  0  0  0  0  0  0  0  0
  149.4930  140.8980  159.0301 H   0  0  0  0  0  0  0  0  0  0  0  0
  149.7548  139.3079  158.3452 H   0  0  0  0  0  0  0  0  0  0  0  0
  151.8403  139.7800  157.5667 H   0  0  0  0  0  0  0  0  0  0  0  0
  151.8917  140.4269  159.9972 H   0  0  0  0  0  0  0  0  0  0  0  0
  153.1564  141.1249  159.0169 H   0  0  0  0  0  0  0  0  0  0  0  0
  152.2296  142.1521  161.6262 H   0  0  0  0  0  0  0  0  0  0  0  0
  153.4865  142.8621  160.6425 H   0  0  0  0  0  0  0  0  0  0  0  0
  150.9612  144.2634  161.6440 H   0  0  0  0  0  0  0  0  0  0  0  0
  152.5918  144.5440  162.2125 H   0  0  0  0  0  0  0  0  0  0  0  0
  151.8430  146.2909  160.5470 H   0  0  0  0  0  0  0  0  0  0  0  0
  153.2729  145.4316  160.0183 H   0  0  0  0  0  0  0  0  0  0  0  0
  150.4049  144.9029  159.1103 H   0  0  0  0  0  0  0  0  0  0  0  0
  151.6952  145.5696  158.1372 H   0  0  0  0  0  0  0  0  0  0  0  0
  152.9713  143.4634  158.3100 H   0  0  0  0  0  0  0  0  0  0  0  0
  150.0848  143.0692  157.3909 H   0  0  0  0  0  0  0  0  0  0  0  0
  151.4172  143.6696  156.4347 H   0  0  0  0  0  0  0  0  0  0  0  0
  149.1462  137.8461  152.6424 H   0  0  0  0  0  0  0  0  0  0  0  0
  1  2  1  0  0  0  0
  2  7  1  0  0  0  0
  2  3  2  0  0  0  0
  3  4  1  0  0  0  0
  3 20  1  0  0  0  0
  4  5  2  0  0  0  0
  4 40  1  0  0  0  0
  5  6  1  0  0  0  0
  5 21  1  0  0  0  0
  6  7  2  0  0  0  0
  6 22  1  0  0  0  0
  7  8  1  0  0  0  0
  8  9  1  0  0  0  0
  8 23  1  0  0  0  0
  9 10  1  0  0  0  0
  9 24  1  0  0  0  0
  9 25  1  0  0  0  0
 10 19  1  0  0  0  0
 10 11  1  0  0  0  0
 10 26  1  0  0  0  0
 11 12  1  0  0  0  0
 11 27  1  0  0  0  0
 11 28  1  0  0  0  0
 12 17  1  0  0  0  0
 12 13  1  0  0  0  0
 13 14  1  0  0  0  0
 13 29  1  0  0  0  0
 13 30  1  0  0  0  0
 14 15  1  0  0  0  0
 14 31  1  0  0  0  0
 14 32  1  0  0  0  0
 15 16  1  0  0  0  0
 15 33  1  0  0  0  0
 15 34  1  0  0  0  0
 16 17  1  0  0  0  0
 16 35  1  0  0  0  0
 16 36  1  0  0  0  0
 17 18  1  0  0  0  0
 17 37  1  0  0  0  0
 18 19  1  0  0  0  0
 18 38  1  0  0  0  0
 18 39  1  0  0  0  0
M  CHG  1   4   1
M  END
> <s_m_source_file>
AV-unprocessed.smi

> <i_m_source_file_index>
2822

> <i_lp_mmshare_version>
43012

> <i_f3d_flags>
0

> <s_epik_input>
Q2xjMVtjSF1uW2NIXVtjSF1jMVtOSF1bQ0gyXVtDQEhdKFtDSDJdMilPW0NIMl1bQ0BASF0oTjIzKVtDSDJdW0NIMl1bQ0gyXVtDSDJdMw==

> <s_epik_cmdline>
J2VwaWtfcHl0aG9uJywgJy1waCcsICc3LjAnLCAnLXRuJywgJzgnLCAnLW1hJywgJzIwMCcsICctbWV0YWxfYmluZGluZycsICctaW1hZScsICc8aW5maWxlLm1hZT4nLCAnLW9tYWUnLCAnPG91dGZpbGUubWFlPic=

> <r_epik_Ionization_Penalty>
1.37653

> <r_epik_Ionization_Penalty_Charging>
0.152973

> <r_epik_Ionization_Penalty_Neutral>
1.22356

> <r_epik_State_Penalty>
1.42693

> <r_epik_Charging_Adjusted_Penalty>
1.5799

> <i_epik_Tot_Q>
1

> <i_epik_Tot_abs_Q>
1

> <r_epik_Metal_State_Penalty>
4.59822

> <b_epik_Metal_Only>
0

> <s_lp_Force_Field>
OPLS_2005

> <r_lp_Energy>
45.685

> <b_lp_Chiralities_Consistent>
1

> <s_lp_Variant>
AV-unprocessed.smi:2822-19

> <Gold.Version>
5.8.1

> <Gold.Id.Protein>
6NUR|6NUR_protein|mol2

> <Gold.PLP.Fitness>
39.0064

> <Gold.PLP.PLP>
-34.4674

> <Gold.PLP.part.hbond>
-2.0000

> <Gold.PLP.part.metal>
0.0000

> <Gold.PLP.part.buried>
-3.8692

> <Gold.PLP.part.nonpolar>
-29.2569

> <Gold.PLP.part.repulsive>
0.1427

> <Gold.PLP.ligand.clash>
0.0000

> <Gold.PLP.ligand.torsion>
0.7088

> <Gold.PLP.Chemscore.Hbond>
1.9840

> <Gold.PLP.Chemscore.CHOScore>
0.0000

> <Gold.PLP.Chemscore.Metal>
0.0000

> <Gold.Chemscore.Hbonds>
donor molecule, donor type, donor heavy atom, donor atom, acceptor molecule, acceptor atom, score
      L1  H     4    40       P1  7948  1.98

> <Gold.PLP.Chemscore.Internal.Correction>
0.0045

> <Gold.Rescore>
     Score         DG    S(hbond)    S(metal)    S(lipo)     H(rot)  DE(clash)    DE(int)     intcor
     18.06     -18.98       0.97        0.00     113.43       1.18       0.30       0.62       ----

> <Gold.Chemscore.Fitness>
18.0621

> <Gold.Chemscore.DG>
-18.9805

> <Gold.Chemscore.ZeroCoef>
-5.4800

> <Gold.Chemscore.Hbond>
0.9719

> <Gold.Chemscore.Metal>
0.0000

> <Gold.Chemscore.Lipo>
113.4350

> <Gold.Chemscore.Internal_Hbond>
0.0000

> <Gold.Chemscore.DEClash>
0.2985

> <Gold.Chemscore.DEInternal>
0.6199

> <Gold.Chemscore.Rot>
1.1788

> <Gold.Chemscore.Internal.Correction>
   9.000000E+99

> <Gold.Chemscore.Hbonds>
donor molecule, donor type, donor heavy atom, donor atom, acceptor molecule, acceptor atom, score
      L1  H     4    40       P1  7948  0.92

> <Gold.Chemscore.Hbond.Weighted>
-3.2463

> <Gold.Chemscore.Metal.Weighted>
-0.0000

> <Gold.Chemscore.Lipo.Weighted>
-13.2719

> <Gold.Chemscore.Internal_Hbond.Weighted>
0.0000

> <Gold.Chemscore.DEClash.Weighted>
0.2985

> <Gold.Chemscore.DEInternal.Weighted>
0.6199

> <Gold.Chemscore.Rot.Weighted>
3.0177

> <Gold.Chemscore.Internal.Correction.Weighted>
   9.000000E+99

> <Gold.Protein.RotatedTorsions>
[ 6907 6896 6895 6894 ] final -149.03 input  -60.11 | X-H torsion
[ 7974 7965 7964 7962 ] final   69.54 input  175.53 | X-H torsion
[ 8008 7997 7996 7995 ] final  173.34 input   59.86 | X-H torsion
[ 10167 10162 10161 10158 ] final   26.15 input  -65.29 | X-H torsion
[ 10718 10713 10712 10709 ] final  179.03 input   66.30 | X-H torsion
[ 10763 10752 10751 10750 ] final  120.15 input  -60.55 | X-H torsion
[ 11005 11000 10999 10996 ] final  152.38 input  -57.11 | X-H torsion

> <Gold.Protein.ActiveResidues>
 VAL166  LYS551  ARG553  GLY616  TRP617  ASP618  TYR619  PRO620  LYS621  CYS622 
 ASP623  PHE694  ASN695  SER759  ASP760  ASP761  ALA762  ILE779  LEU786  VAL792 
 PHE793  MET794  SER795  GLU796  ALA797  LYS798  CYS799  TRP800  GLU811  SER814 

> <Gold.Protein.RotatedAtoms>
  151.1782  133.4741  159.2593 H   0  0  0  0  0  0  0  0  0  0  0  0  # atno 6907 bound_to 6896
  151.1286  135.0118  159.8582 H   0  0  0  0  0  0  0  0  0  0  0  0  # atno 6908 bound_to 6896
  152.5459  134.1687  159.8641 H   0  0  0  0  0  0  0  0  0  0  0  0  # atno 6909 bound_to 6896
  145.7891  139.2925  143.1220 H   0  0  0  0  0  0  0  0  0  0  0  0  # atno 7974 bound_to 7965
  156.1085  140.1463  156.9370 H   0  0  0  0  0  0  0  0  0  0  0  0  # atno 8008 bound_to 7997
  154.4751  140.0897  156.7285 H   0  0  0  0  0  0  0  0  0  0  0  0  # atno 8009 bound_to 7997
  155.4637  140.3439  155.4318 H   0  0  0  0  0  0  0  0  0  0  0  0  # atno 8010 bound_to 7997
  140.5047  144.0258  150.6347 H   0  0  0  0  0  0  0  0  0  0  0  0  # atno 10167 bound_to 10162
  156.8818  130.9818  151.3061 H   0  0  0  0  0  0  0  0  0  0  0  0  # atno 10718 bound_to 10713
  153.5941  135.3460  155.2921 H   0  0  0  0  0  0  0  0  0  0  0  0  # atno 10763 bound_to 10752
  154.8647  135.4212  154.2484 H   0  0  0  0  0  0  0  0  0  0  0  0  # atno 10764 bound_to 10752
  153.3298  135.7043  153.7029 H   0  0  0  0  0  0  0  0  0  0  0  0  # atno 10765 bound_to 10752
  140.1302  134.8807  157.2193 H   0  0  0  0  0  0  0  0  0  0  0  0  # atno 11005 bound_to 11000
  145.9995  140.8533  143.0026 LP  0  0  0  0  0  0  0  0  0  0  0  0  # atno 17320 bound_to 7965
  144.6784  140.2331  143.7353 LP  0  0  0  0  0  0  0  0  0  0  0  0  # atno 17321 bound_to 7965
  140.3564  143.2933  152.0432 LP  0  0  0  0  0  0  0  0  0  0  0  0  # atno 17342 bound_to 10162
  139.4881  144.6336  151.7021 LP  0  0  0  0  0  0  0  0  0  0  0  0  # atno 17343 bound_to 10162
  157.6135  130.8601  149.8991 LP  0  0  0  0  0  0  0  0  0  0  0  0  # atno 17370 bound_to 10713
  156.0673  130.3690  150.0851 LP  0  0  0  0  0  0  0  0  0  0  0  0  # atno 17371 bound_to 10713
  140.2852  134.3304  155.7331 LP  0  0  0  0  0  0  0  0  0  0  0  0  # atno 17394 bound_to 11000
  141.2169  133.7502  156.9422 LP  0  0  0  0  0  0  0  0  0  0  0  0  # atno 17395 bound_to 11000

$$$$
