AV-unprocessed.smi:36|AV-procd|sdf|288|dock2
  -GOLD-   2262016 73D 1   1.00000     0.00000
 Structure written by MMmdl.
 64 67  0  0  0  0  0  0  0  0  1 V2000
  145.5681  132.8208  162.3021 C   0  0  0  0  0  0  0  0  0  0  0  0
  144.2395  133.5931  162.2499 C   0  0  0  0  0  0  0  0  0  0  0  0
  143.3823  133.2439  163.4778 C   0  0  0  0  0  0  0  0  0  0  0  0
  144.5141  135.1062  162.2240 C   0  0  0  0  0  0  0  0  0  0  0  0
  143.2872  133.1100  160.6659 Si  0  0  0  0  0  0  0  0  0  0  0  0
  143.0453  131.2271  160.5637 C   0  0  0  0  0  0  0  0  0  0  0  0
  141.5990  133.9775  160.5847 C   0  0  0  0  0  0  0  0  0  0  0  0
  144.2038  133.6143  159.3365 O   0  0  0  0  0  0  0  0  0  0  0  0
  144.4593  134.9702  159.0389 C   0  0  0  0  0  0  0  0  0  0  0  0
  143.6529  135.3705  157.7873 C   0  0  1  0  0  0  0  0  0  0  0  0
  143.9443  136.7262  157.4522 O   0  0  0  0  0  0  0  0  0  0  0  0
  144.9821  136.7997  156.5147 C   0  0  1  0  0  0  0  0  0  0  0  0
  146.1779  137.4231  157.1666 N   0  0  0  0  0  0  0  0  0  0  0  0
  146.3383  137.7436  158.4660 C   0  0  0  0  0  0  0  0  0  0  0  0
  147.5013  138.3100  158.7763 N   0  0  0  0  0  0  0  0  0  0  0  0
  148.1445  138.3749  157.5453 C   0  0  0  0  0  0  0  0  0  0  0  0
  149.4769  138.9087  157.1894 C   0  0  0  0  0  0  0  0  0  0  0  0
  150.2056  139.3989  158.1462 N   0  0  0  0  0  0  0  0  0  0  0  0
  151.4626  139.9201  157.8684 C   0  0  0  0  0  0  0  0  0  0  0  0
  152.3560  139.4501  157.1586 O   0  0  0  0  0  0  0  0  0  0  0  0
  151.7297  141.2155  158.5627 C   0  0  0  0  0  0  0  0  0  0  0  0
  152.5772  141.2531  159.6901 C   0  0  0  0  0  0  0  0  0  0  0  0
  152.8353  142.4764  160.3393 C   0  0  0  0  0  0  0  0  0  0  0  0
  152.2489  143.6649  159.8625 C   0  0  0  0  0  0  0  0  0  0  0  0
  151.4043  143.6306  158.7359 C   0  0  0  0  0  0  0  0  0  0  0  0
  151.1454  142.4081  158.0855 C   0  0  0  0  0  0  0  0  0  0  0  0
  149.6919  138.7695  155.8122 N   0  0  0  0  0  0  0  0  0  0  0  0
  148.7914  138.2143  154.8900 C   0  0  0  0  0  0  0  0  0  0  0  0
  147.6116  137.7409  155.1901 N   0  0  0  0  0  0  0  0  0  0  0  0
  147.3500  137.8499  156.5488 C   0  0  0  0  0  0  0  0  0  0  0  0
  145.2942  135.3641  156.0714 C   0  0  0  0  0  0  0  0  0  0  0  0
  144.0403  134.6310  156.5017 C   0  0  1  0  0  0  0  0  0  0  0  0
  144.2646  133.2465  156.6750 O   0  0  0  0  0  0  0  0  0  0  0  0
  146.1376  133.0730  163.1973 H   0  0  0  0  0  0  0  0  0  0  0  0
  146.1947  133.0496  161.4398 H   0  0  0  0  0  0  0  0  0  0  0  0
  145.4012  131.7433  162.3117 H   0  0  0  0  0  0  0  0  0  0  0  0
  143.1769  132.1744  163.5290 H   0  0  0  0  0  0  0  0  0  0  0  0
  142.4231  133.7622  163.4511 H   0  0  0  0  0  0  0  0  0  0  0  0
  143.8834  133.5262  164.4042 H   0  0  0  0  0  0  0  0  0  0  0  0
  145.0518  135.4276  163.1165 H   0  0  0  0  0  0  0  0  0  0  0  0
  143.5855  135.6759  162.1771 H   0  0  0  0  0  0  0  0  0  0  0  0
  145.1159  135.3878  161.3595 H   0  0  0  0  0  0  0  0  0  0  0  0
  142.4618  130.8527  161.4042 H   0  0  0  0  0  0  0  0  0  0  0  0
  143.9972  130.6978  160.5701 H   0  0  0  0  0  0  0  0  0  0  0  0
  142.5207  130.9388  159.6533 H   0  0  0  0  0  0  0  0  0  0  0  0
  140.9679  133.7064  161.4306 H   0  0  0  0  0  0  0  0  0  0  0  0
  141.0575  133.7106  159.6775 H   0  0  0  0  0  0  0  0  0  0  0  0
  141.7046  135.0622  160.5915 H   0  0  0  0  0  0  0  0  0  0  0  0
  144.2053  135.5904  159.8977 H   0  0  0  0  0  0  0  0  0  0  0  0
  145.5282  135.0882  158.8605 H   0  0  0  0  0  0  0  0  0  0  0  0
  142.5879  135.2575  157.9921 H   0  0  0  0  0  0  0  0  0  0  0  0
  144.7223  137.4735  155.6975 H   0  0  0  0  0  0  0  0  0  0  0  0
  145.5825  137.5543  159.2136 H   0  0  0  0  0  0  0  0  0  0  0  0
  153.0319  140.3456  160.0605 H   0  0  0  0  0  0  0  0  0  0  0  0
  153.4833  142.5030  161.2028 H   0  0  0  0  0  0  0  0  0  0  0  0
  152.4473  144.6025  160.3603 H   0  0  0  0  0  0  0  0  0  0  0  0
  150.9552  144.5421  158.3698 H   0  0  0  0  0  0  0  0  0  0  0  0
  150.4975  142.3899  157.2209 H   0  0  0  0  0  0  0  0  0  0  0  0
  149.1587  138.2044  153.8629 H   0  0  0  0  0  0  0  0  0  0  0  0
  145.4827  135.3144  154.9986 H   0  0  0  0  0  0  0  0  0  0  0  0
  146.1711  134.9887  156.6021 H   0  0  0  0  0  0  0  0  0  0  0  0
  143.2613  134.7744  155.7516 H   0  0  0  0  0  0  0  0  0  0  0  0
  143.7157  132.7755  156.0668 H   0  0  0  0  0  0  0  0  0  0  0  0
  150.5754  139.0998  155.4515 H   0  0  0  0  0  0  0  0  0  0  0  0
  1  2  1  0  0  0  0
  1 34  1  0  0  0  0
  1 35  1  0  0  0  0
  1 36  1  0  0  0  0
  2  3  1  0  0  0  0
  2  4  1  0  0  0  0
  2  5  1  0  0  0  0
  3 37  1  0  0  0  0
  3 38  1  0  0  0  0
  3 39  1  0  0  0  0
  4 40  1  0  0  0  0
  4 41  1  0  0  0  0
  4 42  1  0  0  0  0
  5  6  1  0  0  0  0
  5  7  1  0  0  0  0
  5  8  1  0  0  0  0
  6 43  1  0  0  0  0
  6 44  1  0  0  0  0
  6 45  1  0  0  0  0
  7 46  1  0  0  0  0
  7 47  1  0  0  0  0
  7 48  1  0  0  0  0
  8  9  1  0  0  0  0
  9 10  1  0  0  0  0
  9 49  1  0  0  0  0
  9 50  1  0  0  0  0
 10 32  1  0  0  0  0
 10 11  1  0  0  0  0
 10 51  1  0  0  0  0
 11 12  1  0  0  0  0
 12 13  1  0  0  0  0
 12 31  1  0  0  0  0
 12 52  1  0  0  0  0
 13 30  1  0  0  0  0
 13 14  1  0  0  0  0
 14 15  2  0  0  0  0
 14 53  1  0  0  0  0
 15 16  1  0  0  0  0
 16 30  2  0  0  0  0
 16 17  1  0  0  0  0
 17 18  2  0  0  0  0
 17 27  1  0  0  0  0
 18 19  1  0  0  0  0
 19 20  2  0  0  0  0
 19 21  1  0  0  0  0
 21 26  1  0  0  0  0
 21 22  2  0  0  0  0
 22 23  1  0  0  0  0
 22 54  1  0  0  0  0
 23 24  2  0  0  0  0
 23 55  1  0  0  0  0
 24 25  1  0  0  0  0
 24 56  1  0  0  0  0
 25 26  2  0  0  0  0
 25 57  1  0  0  0  0
 26 58  1  0  0  0  0
 27 28  1  0  0  0  0
 27 64  1  0  0  0  0
 28 29  2  0  0  0  0
 28 59  1  0  0  0  0
 29 30  1  0  0  0  0
 31 32  1  0  0  0  0
 31 60  1  0  0  0  0
 31 61  1  0  0  0  0
 32 33  1  0  0  0  0
 32 62  1  0  0  0  0
 33 63  1  0  0  0  0
M  END
> <s_m_source_file>
AV-unprocessed.smi

> <i_m_source_file_index>
36

> <i_lp_mmshare_version>
43012

> <i_f3d_flags>
0

> <s_epik_input>
W0NIM11DKFtDSDNdKShbQ0gzXSlbU2ldKFtDSDNdKShbQ0gzXSlPW0NIMl1bQ0BASF0xT1tDQEhdKFtDSDJdW0NASF0xW09IXSluKFtjSF1uMiljKGMyMyluW2NIXW5jM1tOSF1DKD1PKWM0W2NIXVtjSF1bY0hdW2NIXVtjSF00

> <s_epik_cmdline>
J2VwaWtfcHl0aG9uJywgJy1waCcsICc3LjAnLCAnLXRuJywgJzgnLCAnLW1hJywgJzIwMCcsICctbWV0YWxfYmluZGluZycsICctaW1hZScsICc8aW5maWxlLm1hZT4nLCAnLW9tYWUnLCAnPG91dGZpbGUubWFlPic=

> <r_epik_Ionization_Penalty>
0.0850405

> <r_epik_Ionization_Penalty_Charging>
0.0850403

> <r_epik_Ionization_Penalty_Neutral>
1.47497e-07

> <r_epik_State_Penalty>
2.6133

> <r_epik_Charging_Adjusted_Penalty>
2.69834

> <i_epik_Tot_Q>
0

> <i_epik_Tot_abs_Q>
0

> <r_epik_Metal_State_Penalty>
2.92945

> <b_epik_Metal_Only>
0

> <s_epik_Chemistry_Notes>
This compound contains an acetal/aminal-like group ( X-CH(R)-Y where X, Y are N, S, or O) that may be acid/base labile, releasing an aldehyde.

> <s_lp_Force_Field>
OPLS_2005

> <r_lp_Energy>
49.0467

> <b_lp_Chiralities_Consistent>
1

> <s_lp_Variant>
AV-unprocessed.smi:36-10

> <Gold.Version>
5.8.1

> <Gold.Id.Protein>
6NUR|6NUR_protein|mol2

> <Gold.PLP.Fitness>
45.1969

> <Gold.PLP.PLP>
-40.6349

> <Gold.PLP.part.hbond>
-3.0000

> <Gold.PLP.part.metal>
0.0000

> <Gold.PLP.part.buried>
-6.2411

> <Gold.PLP.part.nonpolar>
-32.0039

> <Gold.PLP.part.repulsive>
0.1133

> <Gold.PLP.ligand.clash>
0.0000

> <Gold.PLP.ligand.torsion>
2.3583

> <Gold.PLP.Chemscore.Hbond>
1.9263

> <Gold.PLP.Chemscore.CHOScore>
1.0000

> <Gold.PLP.Chemscore.Metal>
0.0000

> <Gold.Chemscore.Hbonds>
donor molecule, donor type, donor heavy atom, donor atom, acceptor molecule, acceptor atom, score
      L1  H    33    63       P1 10957  1.00
      P1  H  6934  6947       L1    15  0.12
      P1  H  7997  8009       L1    20  0.62
      L1  C    28    59       P1  7948  0.34

> <Gold.PLP.Chemscore.Internal.Correction>
0.4999

> <Gold.Rescore>
     Score         DG    S(hbond)    S(metal)    S(lipo)     H(rot)  DE(clash)    DE(int)     intcor
     12.85     -16.60       1.97        0.00      97.97       2.70       0.00       3.75       ----

> <Gold.Chemscore.Fitness>
12.8481

> <Gold.Chemscore.DG>
-16.5955

> <Gold.Chemscore.ZeroCoef>
-5.4800

> <Gold.Chemscore.Hbond>
1.9686

> <Gold.Chemscore.Metal>
0.0000

> <Gold.Chemscore.Lipo>
97.9718

> <Gold.Chemscore.Internal_Hbond>
0.0000

> <Gold.Chemscore.DEClash>
0.0000

> <Gold.Chemscore.DEInternal>
3.7474

> <Gold.Chemscore.Rot>
2.7041

> <Gold.Chemscore.Internal.Correction>
   9.000000E+99

> <Gold.Chemscore.Hbonds>
donor molecule, donor type, donor heavy atom, donor atom, acceptor molecule, acceptor atom, score
      L1  H    33    63       P1 10957  1.00
      P1  H  6934  6947       L1    15  0.05
      P1  H  7997  8009       L1    20  0.60

> <Gold.Chemscore.Hbond.Weighted>
-6.5753

> <Gold.Chemscore.Metal.Weighted>
-0.0000

> <Gold.Chemscore.Lipo.Weighted>
-11.4627

> <Gold.Chemscore.Internal_Hbond.Weighted>
0.0000

> <Gold.Chemscore.DEClash.Weighted>
0.0000

> <Gold.Chemscore.DEInternal.Weighted>
3.7474

> <Gold.Chemscore.Rot.Weighted>
6.9225

> <Gold.Chemscore.Internal.Correction.Weighted>
   9.000000E+99

> <Gold.Protein.RotatedTorsions>
[ 6907 6896 6895 6894 ] final   44.26 input  -60.11 | X-H torsion
[ 7974 7965 7964 7962 ] final   17.76 input  175.53 | X-H torsion
[ 8008 7997 7996 7995 ] final -173.63 input   59.86 | X-H torsion
[ 10167 10162 10161 10158 ] final   80.58 input  -65.29 | X-H torsion
[ 10718 10713 10712 10709 ] final  -69.41 input   66.30 | X-H torsion
[ 10763 10752 10751 10750 ] final  -19.65 input  -60.55 | X-H torsion
[ 11005 11000 10999 10996 ] final  -66.97 input  -57.11 | X-H torsion

> <Gold.Protein.ActiveResidues>
 VAL166  LYS551  ARG553  GLY616  TRP617  ASP618  TYR619  PRO620  LYS621  CYS622 
 ASP623  PHE694  ASN695  SER759  ASP760  ASP761  ALA762  ILE779  LEU786  VAL792 
 PHE793  MET794  SER795  GLU796  ALA797  LYS798  CYS799  TRP800  GLU811  SER814 

> <Gold.Protein.RotatedAtoms>
  152.2304  134.8327  160.0474 H   0  0  0  0  0  0  0  0  0  0  0  0  # atno 6907 bound_to 6896
  151.9079  133.3549  159.3861 H   0  0  0  0  0  0  0  0  0  0  0  0  # atno 6908 bound_to 6896
  150.7024  134.4688  159.5459 H   0  0  0  0  0  0  0  0  0  0  0  0  # atno 6909 bound_to 6896
  146.2208  139.8555  142.8614 H   0  0  0  0  0  0  0  0  0  0  0  0  # atno 7974 bound_to 7965
  155.9599  140.1142  157.0904 H   0  0  0  0  0  0  0  0  0  0  0  0  # atno 8008 bound_to 7997
  154.4129  140.1184  156.5232 H   0  0  0  0  0  0  0  0  0  0  0  0  # atno 8009 bound_to 7997
  155.6734  140.3473  155.4829 H   0  0  0  0  0  0  0  0  0  0  0  0  # atno 8010 bound_to 7997
  139.9483  144.6043  150.8185 H   0  0  0  0  0  0  0  0  0  0  0  0  # atno 10167 bound_to 10162
  156.0456  130.4312  150.2144 H   0  0  0  0  0  0  0  0  0  0  0  0  # atno 10718 bound_to 10713
  153.6082  135.6997  153.5357 H   0  0  0  0  0  0  0  0  0  0  0  0  # atno 10763 bound_to 10752
  153.3039  135.4121  155.1277 H   0  0  0  0  0  0  0  0  0  0  0  0  # atno 10764 bound_to 10752
  154.8569  135.3655  154.5619 H   0  0  0  0  0  0  0  0  0  0  0  0  # atno 10765 bound_to 10752
  141.1496  133.6710  156.6222 H   0  0  0  0  0  0  0  0  0  0  0  0  # atno 11005 bound_to 11000
  145.2758  141.0123  143.3746 LP  0  0  0  0  0  0  0  0  0  0  0  0  # atno 17320 bound_to 7965
  144.9188  139.4437  143.6551 LP  0  0  0  0  0  0  0  0  0  0  0  0  # atno 17321 bound_to 7965
  140.7590  143.3120  151.2822 LP  0  0  0  0  0  0  0  0  0  0  0  0  # atno 17342 bound_to 10162
  139.6649  144.0123  152.2716 LP  0  0  0  0  0  0  0  0  0  0  0  0  # atno 17343 bound_to 10162
  157.0234  130.9986  151.3333 LP  0  0  0  0  0  0  0  0  0  0  0  0  # atno 17370 bound_to 10713
  157.5328  130.8069  149.7937 LP  0  0  0  0  0  0  0  0  0  0  0  0  # atno 17371 bound_to 10713
  140.3532  134.7751  157.4481 LP  0  0  0  0  0  0  0  0  0  0  0  0  # atno 17394 bound_to 11000
  140.0844  134.5687  155.8507 LP  0  0  0  0  0  0  0  0  0  0  0  0  # atno 17395 bound_to 11000

$$$$
