#       Name:                AV-unprocessed.smi:53
#       Creating user name   scv26
#       Creation time:       Thu Mar 26 16:40:21 2020


#       File generated by GOLD software.
#

@<TRIPOS>MOLECULE
AV-unprocessed.smi:53
    41    42     1
SMALL
NO_CHARGES


@<TRIPOS>ATOM
      1 ****        -5.0236  -0.4649  -0.4298 N.pl3          1 S1                 0.0000
      2 ****        -3.6835  -0.5003  -0.4335 C.2            1 S1                 0.0000
      3 ****        -2.9212   0.6392   0.0252 C.2            1 S1                 0.0000
      4 ****        -1.5752   0.5271  -0.0121 C.2            1 S1                 0.0000
      5 ****        -0.9418  -0.6180  -0.4741 N.am           1 S1                 0.0000
      6 ****         0.5690  -0.7086  -0.4997 C.3            1 S1                 0.0000
      7 ****         1.0787   0.5456  -0.8243 O.3            1 S1                 0.0000
      8 ****         2.3494   0.6890  -0.2100 C.3            1 S1                 0.0000
      9 ****         2.7210   2.1768  -0.1207 C.3            1 S1                 0.0000
     10 ****         3.2590   2.6141  -1.3501 O.3            1 S1                 0.0000
     11 ****         2.1398   0.0268   1.1566 C.3            1 S1                 0.0000
     12 ****         3.3700  -0.4566   1.6596 O.3            1 S1                 0.0000
     13 ****         1.1853  -1.1266   0.8553 C.3            1 S1                 0.0000
     14 ****         0.2452  -1.2829   1.9036 O.3            1 S1                 0.0000
     15 ****        -1.7143  -1.7254  -0.8983 C.2            1 S1                 0.0000
     16 ****        -1.1948  -2.7741  -1.2779 O.2            1 S1                 0.0000
     17 ****        -3.0764  -1.5921  -0.8575 N.2            1 S1                 0.0000
     18 ****         0.8418  -1.3854  -1.3116 H              1 S1                 0.0000
     19 ****         3.0884   0.1285  -0.7873 H              1 S1                 0.0000
     20 ****         1.6894   0.7351   1.8543 H              1 S1                 0.0000
     21 ****         1.7181  -2.0665   0.7026 H              1 S1                 0.0000
     22 ****        -5.5543  -1.2632  -0.7471 H              1 S1                 0.0000
     23 ****        -5.5018   0.3643  -0.1078 H              1 S1                 0.0000
     24 ****        -3.3735   1.5511   0.3880 H              1 S1                 0.0000
     25 ****        -0.9854   1.3618   0.3378 H              1 S1                 0.0000
     26 ****         1.8602   2.7858   0.1574 H              1 S1                 0.0000
     27 ****         3.4854   2.3277   0.6421 H              1 S1                 0.0000
     28 ****         2.5994   2.5093  -2.0190 H              1 S1                 0.0000
     29 ****         3.7300  -1.0696   1.0372 H              1 S1                 0.0000
     30 ****        -0.3831  -1.9396   1.6441 H              1 S1                 0.0000
     31 ****         0.4606   1.2574  -0.4906 LP             1 S1                 0.0000
     32 ****         1.1731   0.6247  -1.8167 LP             1 S1                 0.0000
     33 ****         4.0634   2.0665  -1.5804 LP             1 S1                 0.0000
     34 ****         3.5198   3.5770  -1.2810 LP             1 S1                 0.0000
     35 ****         3.2191  -0.9150   2.5354 LP             1 S1                 0.0000
     36 ****         4.0046   0.3057   1.7874 LP             1 S1                 0.0000
     37 ****        -0.2225  -0.4148   2.0704 LP             1 S1                 0.0000
     38 ****         0.7140  -1.5744   2.7374 LP             1 S1                 0.0000
     39 ****        -0.1988  -2.8620  -1.2928 LP             1 S1                 0.0000
     40 ****        -1.7686  -3.5387  -1.5715 LP             1 S1                 0.0000
     41 ****        -3.6387  -2.3601  -1.1642 LP             1 S1                 0.0000
@<TRIPOS>BOND
    1    1    2 1     
    2    1   22 1     
    3    1   23 1     
    4    2   17 2     
    5    2    3 1     
    6    3    4 2     
    7    3   24 1     
    8    4    5 1     
    9    4   25 1     
   10    5    6 1     
   11    5   15 am    
   12    6   18 1     
   13    6   13 1     
   14    6    7 1     
   15    7    8 1     
   16    8   19 1     
   17    8    9 1     
   18    8   11 1     
   19    9   10 1     
   20    9   26 1     
   21    9   27 1     
   22   10   28 1     
   23   11   20 1     
   24   11   12 1     
   25   11   13 1     
   26   12   29 1     
   27   13   21 1     
   28   13   14 1     
   29   14   30 1     
   30   15   16 2     
   31   15   17 1     
   32    7   31 1     
   33    7   32 1     
   34   10   33 1     
   35   10   34 1     
   36   12   35 1     
   37   12   36 1     
   38   14   37 1     
   39   14   38 1     
   40   16   39 1     
   41   16   40 1     
   42   17   41 1     
@<TRIPOS>SUBSTRUCTURE
      1 S1             1
@<TRIPOS>SET
LONE_PAIRS      STATIC     ATOMS    <user>   **** ""
11 31 32 33 34 35 36 37 38 39 40 41
DONOR_HYDROGENS      STATIC     ATOMS    <user>   **** ""
5 22 23 28 29 30
ATOM$BLUE        STATIC     ATOMS    COLORGROUP SYSTEM
11 31 32 33 34 35 36 37 38 39 40 41
ATOM$RED        STATIC     ATOMS    COLORGROUP SYSTEM
5 22 23 28 29 30
