AV-unprocessed.smi:713|AV-procd|sdf|3475|dock7
  -GOLD-   22720 0463D 1   1.00000     0.00000
 Structure written by MMmdl.
 41 42  0  0  0  0  0  0  0  0  1 V2000
  153.5972  141.6049  161.2213 C   0  0  0  0  0  0  0  0  0  0  0  0
  153.4962  142.0963  159.7628 C   0  0  1  0  0  0  0  0  0  0  0  0
  152.8271  141.0745  158.8263 C   0  0  0  0  0  0  0  0  0  0  0  0
  153.3842  140.0114  158.5491 O   0  0  0  0  0  0  0  0  0  0  0  0
  151.6234  141.4162  158.3376 N   0  0  0  0  0  0  0  0  0  0  0  0
  150.8096  140.5968  157.4458 C   0  0  2  0  0  0  0  0  0  0  0  0
  150.7747  139.1513  157.9764 C   0  0  0  0  0  0  0  0  0  0  0  0
  150.0173  138.2094  157.0274 C   0  0  0  0  0  0  0  0  0  0  0  0
  150.6131  138.2496  155.6106 C   0  0  0  0  0  0  0  0  0  0  0  0
  150.6659  139.6761  155.0286 C   0  0  1  0  0  0  0  0  0  0  0  0
  148.9767  140.2558  154.5019 S   0  0  0  0  0  0  0  0  0  0  0  0
  148.1227  140.5297  156.1093 C   0  0  0  0  0  0  0  0  0  0  0  0
  149.1339  141.5599  153.8404 O   0  0  0  0  0  0  0  0  0  0  0  0
  148.2680  139.1767  153.7987 O   0  0  0  0  0  0  0  0  0  0  0  0
  151.3727  140.6412  156.0066 C   0  0  0  0  0  0  0  0  0  0  0  0
  152.8320  143.3927  159.6732 N   0  0  0  0  0  0  0  0  0  0  0  0
  152.7060  144.2072  158.5659 C   0  0  0  0  0  0  0  0  0  0  0  0
  151.9808  145.3015  158.9413 C   0  0  0  0  0  0  0  0  0  0  0  0
  151.6942  145.0626  160.3137 C   0  0  0  0  0  0  0  0  0  0  0  0
  152.1972  143.9184  160.7470 N   0  0  0  0  0  0  0  0  0  0  0  0
  154.1629  140.6748  161.2860 H   0  0  0  0  0  0  0  0  0  0  0  0
  152.6150  141.4264  161.6610 H   0  0  0  0  0  0  0  0  0  0  0  0
  154.1083  142.3398  161.8437 H   0  0  0  0  0  0  0  0  0  0  0  0
  154.5154  142.2324  159.3980 H   0  0  0  0  0  0  0  0  0  0  0  0
  151.2374  142.3073  158.6136 H   0  0  0  0  0  0  0  0  0  0  0  0
  149.7953  140.9932  157.4629 H   0  0  0  0  0  0  0  0  0  0  0  0
  151.7932  138.7818  158.1054 H   0  0  0  0  0  0  0  0  0  0  0  0
  150.3112  139.1272  158.9634 H   0  0  0  0  0  0  0  0  0  0  0  0
  150.0591  137.1904  157.4130 H   0  0  0  0  0  0  0  0  0  0  0  0
  148.9619  138.4780  157.0022 H   0  0  0  0  0  0  0  0  0  0  0  0
  151.6247  137.8433  155.6437 H   0  0  0  0  0  0  0  0  0  0  0  0
  150.0479  137.5928  154.9490 H   0  0  0  0  0  0  0  0  0  0  0  0
  151.2520  139.6393  154.1099 H   0  0  0  0  0  0  0  0  0  0  0  0
  147.1603  141.0069  155.9262 H   0  0  0  0  0  0  0  0  0  0  0  0
  148.7302  141.1754  156.7427 H   0  0  0  0  0  0  0  0  0  0  0  0
  147.9530  139.5769  156.6096 H   0  0  0  0  0  0  0  0  0  0  0  0
  151.3492  141.6581  155.6186 H   0  0  0  0  0  0  0  0  0  0  0  0
  152.4292  140.3708  156.0422 H   0  0  0  0  0  0  0  0  0  0  0  0
  153.1381  143.9427  157.6120 H   0  0  0  0  0  0  0  0  0  0  0  0
  151.6956  146.1433  158.3278 H   0  0  0  0  0  0  0  0  0  0  0  0
  151.1363  145.6801  161.0021 H   0  0  0  0  0  0  0  0  0  0  0  0
  1  2  1  0  0  0  0
  1 21  1  0  0  0  0
  1 22  1  0  0  0  0
  1 23  1  0  0  0  0
  2  3  1  0  0  0  0
  2 16  1  0  0  0  0
  2 24  1  0  0  0  0
  3  4  2  0  0  0  0
  3  5  1  0  0  0  0
  5  6  1  0  0  0  0
  5 25  1  0  0  0  0
  6 15  1  0  0  0  0
  6  7  1  0  0  0  0
  6 26  1  0  0  0  0
  7  8  1  0  0  0  0
  7 27  1  0  0  0  0
  7 28  1  0  0  0  0
  8  9  1  0  0  0  0
  8 29  1  0  0  0  0
  8 30  1  0  0  0  0
  9 10  1  0  0  0  0
  9 31  1  0  0  0  0
  9 32  1  0  0  0  0
 10 11  1  0  0  0  0
 10 15  1  0  0  0  0
 10 33  1  0  0  0  0
 11 12  1  0  0  0  0
 11 13  2  0  0  0  0
 11 14  2  0  0  0  0
 12 34  1  0  0  0  0
 12 35  1  0  0  0  0
 12 36  1  0  0  0  0
 15 37  1  0  0  0  0
 15 38  1  0  0  0  0
 16 20  1  0  0  0  0
 16 17  1  0  0  0  0
 17 18  2  0  0  0  0
 17 39  1  0  0  0  0
 18 19  1  0  0  0  0
 18 40  1  0  0  0  0
 19 20  2  0  0  0  0
 19 41  1  0  0  0  0
M  END
> <s_m_source_file>
AV-unprocessed.smi

> <i_m_source_file_index>
713

> <i_lp_mmshare_version>
43012

> <i_f3d_flags>
0

> <s_epik_input>
bjFbY0hdW2NIXVtjSF1uMVtDQEhdKFtDSDNdKUMoPU8pW05IXVtDQEBIXTJbQ0gyXVtDSDJdW0NIMl1bQ0BIXShbQ0gyXTIpUyg9TykoPU8pW0NIM10=

> <s_epik_cmdline>
J2VwaWtfcHl0aG9uJywgJy1waCcsICc3LjAnLCAnLXRuJywgJzgnLCAnLW1hJywgJzIwMCcsICctbWV0YWxfYmluZGluZycsICctaW1hZScsICc8aW5maWxlLm1hZT4nLCAnLW9tYWUnLCAnPG91dGZpbGUubWFlPic=

> <r_lp_tautomer_probability>
1

> <r_epik_Ionization_Penalty>
4.07816e-05

> <r_epik_Ionization_Penalty_Charging>
0

> <r_epik_Ionization_Penalty_Neutral>
4.07816e-05

> <r_epik_State_Penalty>
-0

> <r_epik_Charging_Adjusted_Penalty>
0

> <i_epik_Tot_Q>
0

> <i_epik_Tot_abs_Q>
0

> <r_epik_Metal_State_Penalty>
-0

> <b_epik_Metal_Only>
0

> <s_lp_Force_Field>
OPLS_2005

> <r_lp_Energy>
4.9413

> <b_lp_Chiralities_Consistent>
1

> <s_lp_Variant>
AV-unprocessed.smi:713-2

> <Gold.Version>
5.8.1

> <Gold.Id.Protein>
6NUR|6NUR_protein|mol2

> <Gold.PLP.Fitness>
47.5886

> <Gold.PLP.PLP>
-43.6647

> <Gold.PLP.part.hbond>
-3.0000

> <Gold.PLP.part.metal>
0.0000

> <Gold.PLP.part.buried>
-5.9023

> <Gold.PLP.part.nonpolar>
-35.8255

> <Gold.PLP.part.repulsive>
1.4436

> <Gold.PLP.ligand.clash>
0.0000

> <Gold.PLP.ligand.torsion>
0.7825

> <Gold.PLP.Chemscore.Hbond>
1.7360

> <Gold.PLP.Chemscore.CHOScore>
0.0000

> <Gold.PLP.Chemscore.Metal>
0.0000

> <Gold.Chemscore.Hbonds>
donor molecule, donor type, donor heavy atom, donor atom, acceptor molecule, acceptor atom, score
      P1  H  7997  8008       L1     4  1.00
      P1  H  8011  8017       L1    13  0.70

> <Gold.PLP.Chemscore.Internal.Correction>
0.2808

> <Gold.Rescore>
     Score         DG    S(hbond)    S(metal)    S(lipo)     H(rot)  DE(clash)    DE(int)     intcor
     14.10     -17.69       1.66        0.00      94.79       1.72       0.10       3.49       ----

> <Gold.Chemscore.Fitness>
14.0973

> <Gold.Chemscore.DG>
-17.6869

> <Gold.Chemscore.ZeroCoef>
-5.4800

> <Gold.Chemscore.Hbond>
1.6564

> <Gold.Chemscore.Metal>
0.0000

> <Gold.Chemscore.Lipo>
94.7874

> <Gold.Chemscore.Internal_Hbond>
0.0000

> <Gold.Chemscore.DEClash>
0.0956

> <Gold.Chemscore.DEInternal>
3.4941

> <Gold.Chemscore.Rot>
1.7249

> <Gold.Chemscore.Internal.Correction>
   9.000000E+99

> <Gold.Chemscore.Hbonds>
donor molecule, donor type, donor heavy atom, donor atom, acceptor molecule, acceptor atom, score
      P1  H  7997  8008       L1     4  0.91
      P1  H  8011  8017       L1    13  0.70

> <Gold.Chemscore.Hbond.Weighted>
-5.5325

> <Gold.Chemscore.Metal.Weighted>
-0.0000

> <Gold.Chemscore.Lipo.Weighted>
-11.0901

> <Gold.Chemscore.Internal_Hbond.Weighted>
0.0000

> <Gold.Chemscore.DEClash.Weighted>
0.0956

> <Gold.Chemscore.DEInternal.Weighted>
3.4941

> <Gold.Chemscore.Rot.Weighted>
4.4157

> <Gold.Chemscore.Internal.Correction.Weighted>
   9.000000E+99

> <Gold.Protein.RotatedTorsions>
[ 6907 6896 6895 6894 ] final  -46.39 input  -60.11 | X-H torsion
[ 7974 7965 7964 7962 ] final   28.23 input  175.53 | X-H torsion
[ 8008 7997 7996 7995 ] final  -99.10 input   59.86 | X-H torsion
[ 10167 10162 10161 10158 ] final -177.10 input  -65.29 | X-H torsion
[ 10718 10713 10712 10709 ] final  119.38 input   66.30 | X-H torsion
[ 10763 10752 10751 10750 ] final   92.16 input  -60.55 | X-H torsion
[ 11005 11000 10999 10996 ] final  -70.62 input  -57.11 | X-H torsion

> <Gold.Protein.ActiveResidues>
 VAL166  LYS551  ARG553  GLY616  TRP617  ASP618  TYR619  PRO620  LYS621  CYS622 
 ASP623  PHE694  ASN695  SER759  ASP760  ASP761  ALA762  ILE779  LEU786  VAL792 
 PHE793  MET794  SER795  GLU796  ALA797  LYS798  CYS799  TRP800  GLU811  SER814 

> <Gold.Protein.RotatedAtoms>
  150.9118  134.8535  159.7430 H   0  0  0  0  0  0  0  0  0  0  0  0  # atno 6907 bound_to 6896
  152.4948  134.4348  159.9534 H   0  0  0  0  0  0  0  0  0  0  0  0  # atno 6908 bound_to 6896
  151.4389  133.3609  159.2814 H   0  0  0  0  0  0  0  0  0  0  0  0  # atno 6909 bound_to 6896
  146.1740  139.7084  142.8947 H   0  0  0  0  0  0  0  0  0  0  0  0  # atno 7974 bound_to 7965
  154.8102  140.0450  157.1337 H   0  0  0  0  0  0  0  0  0  0  0  0  # atno 8008 bound_to 7997
  154.9377  140.3048  155.5116 H   0  0  0  0  0  0  0  0  0  0  0  0  # atno 8009 bound_to 7997
  156.2971  140.2311  156.4443 H   0  0  0  0  0  0  0  0  0  0  0  0  # atno 8010 bound_to 7997
  139.5497  144.2142  152.1054 H   0  0  0  0  0  0  0  0  0  0  0  0  # atno 10167 bound_to 10162
  157.5965  131.1057  150.7888 H   0  0  0  0  0  0  0  0  0  0  0  0  # atno 10718 bound_to 10713
  153.2161  135.4371  155.0436 H   0  0  0  0  0  0  0  0  0  0  0  0  # atno 10763 bound_to 10752
  154.8226  135.3345  154.6996 H   0  0  0  0  0  0  0  0  0  0  0  0  # atno 10764 bound_to 10752
  153.7431  135.7003  153.5018 H   0  0  0  0  0  0  0  0  0  0  0  0  # atno 10765 bound_to 10752
  141.1577  133.6795  156.6781 H   0  0  0  0  0  0  0  0  0  0  0  0  # atno 11005 bound_to 11000
  145.4262  141.0411  143.2936 LP  0  0  0  0  0  0  0  0  0  0  0  0  # atno 17320 bound_to 7965
  144.8207  139.5796  143.6988 LP  0  0  0  0  0  0  0  0  0  0  0  0  # atno 17321 bound_to 7965
  140.1635  144.5003  150.6619 LP  0  0  0  0  0  0  0  0  0  0  0  0  # atno 17342 bound_to 10162
  140.6756  143.2303  151.5516 LP  0  0  0  0  0  0  0  0  0  0  0  0  # atno 17343 bound_to 10162
  156.8298  130.5012  149.5333 LP  0  0  0  0  0  0  0  0  0  0  0  0  # atno 17370 bound_to 10713
  156.1029  130.5983  150.9924 LP  0  0  0  0  0  0  0  0  0  0  0  0  # atno 17371 bound_to 10713
  140.3123  134.8076  157.4186 LP  0  0  0  0  0  0  0  0  0  0  0  0  # atno 17394 bound_to 11000
  140.1168  134.5273  155.8218 LP  0  0  0  0  0  0  0  0  0  0  0  0  # atno 17395 bound_to 11000

$$$$
