AV-unprocessed.smi:2502|AV-procd|sdf|9845|dock9
  -GOLD-   2272013473D 1   1.00000     0.00000
 Structure written by MMmdl.
 39 41  0  0  0  0  0  0  0  0  1 V2000
  153.3802  139.2317  154.8816 O   0  0  0  0  0  0  0  0  0  0  0  0
  152.1832  139.1216  155.6269 C   0  0  2  0  0  0  0  0  0  0  0  0
  151.0442  138.6787  154.6945 C   0  0  0  0  0  0  0  0  0  0  0  0
  150.4783  139.8084  154.0435 O   0  0  0  0  0  0  0  0  0  0  0  0
  149.1700  140.1516  154.4820 C   0  0  0  0  0  0  0  0  0  0  0  0
  148.0926  139.3255  153.7574 C   0  0  0  0  0  0  0  0  0  0  0  0
  146.6895  139.8539  154.0982 C   0  0  0  0  0  0  0  0  0  0  0  0
  146.5923  141.2352  153.7663 O   0  0  0  0  0  0  0  0  0  0  0  0
  147.5019  142.0488  154.4996 C   0  0  0  0  0  0  0  0  0  0  0  0
  148.9482  141.6388  154.1772 C   0  0  0  0  0  0  0  0  0  0  0  0
  151.8808  140.4188  156.4037 C   0  0  0  0  0  0  0  0  0  0  0  0
  152.5629  140.4667  157.6848 N   0  0  0  0  0  0  0  0  0  0  0  0
  153.4071  139.4537  158.0301 N   0  0  0  0  0  0  0  0  0  0  0  0
  153.9088  139.7110  159.2010 N   0  0  0  0  0  0  0  0  0  0  0  0
  153.3831  140.9157  159.6370 C   0  0  0  0  0  0  0  0  0  0  0  0
  153.5848  141.6576  160.8221 C   0  0  0  0  0  0  0  0  0  0  0  0
  152.9108  142.8825  161.0213 C   0  0  0  0  0  0  0  0  0  0  0  0
  153.1847  143.7610  162.4837 Cl  0  0  0  0  0  0  0  0  0  0  0  0
  152.0258  143.3798  160.0342 C   0  0  0  0  0  0  0  0  0  0  0  0
  151.1921  144.8757  160.2630 Cl  0  0  0  0  0  0  0  0  0  0  0  0
  151.8170  142.6515  158.8459 C   0  0  0  0  0  0  0  0  0  0  0  0
  152.4970  141.4345  158.6680 C   0  0  0  0  0  0  0  0  0  0  0  0
  153.2788  138.7472  154.0766 H   0  0  0  0  0  0  0  0  0  0  0  0
  152.3488  138.3171  156.3446 H   0  0  0  0  0  0  0  0  0  0  0  0
  151.4087  137.9427  153.9776 H   0  0  0  0  0  0  0  0  0  0  0  0
  150.2698  138.1905  155.2883 H   0  0  0  0  0  0  0  0  0  0  0  0
  149.0882  140.0047  155.5606 H   0  0  0  0  0  0  0  0  0  0  0  0
  148.2487  139.3808  152.6794 H   0  0  0  0  0  0  0  0  0  0  0  0
  148.1587  138.2727  154.0298 H   0  0  0  0  0  0  0  0  0  0  0  0
  145.9357  139.3034  153.5352 H   0  0  0  0  0  0  0  0  0  0  0  0
  146.4656  139.7073  155.1559 H   0  0  0  0  0  0  0  0  0  0  0  0
  147.3386  143.0917  154.2273 H   0  0  0  0  0  0  0  0  0  0  0  0
  147.3015  141.9639  155.5688 H   0  0  0  0  0  0  0  0  0  0  0  0
  149.6487  142.2486  154.7485 H   0  0  0  0  0  0  0  0  0  0  0  0
  149.1513  141.8335  153.1234 H   0  0  0  0  0  0  0  0  0  0  0  0
  152.1765  141.2938  155.8234 H   0  0  0  0  0  0  0  0  0  0  0  0
  150.8081  140.5114  156.5794 H   0  0  0  0  0  0  0  0  0  0  0  0
  154.2592  141.2843  161.5786 H   0  0  0  0  0  0  0  0  0  0  0  0
  151.1463  143.0210  158.0842 H   0  0  0  0  0  0  0  0  0  0  0  0
  1  2  1  0  0  0  0
  1 23  1  0  0  0  0
  2  3  1  0  0  0  0
  2 11  1  0  0  0  0
  2 24  1  0  0  0  0
  3  4  1  0  0  0  0
  3 25  1  0  0  0  0
  3 26  1  0  0  0  0
  4  5  1  0  0  0  0
  5 10  1  0  0  0  0
  5  6  1  0  0  0  0
  5 27  1  0  0  0  0
  6  7  1  0  0  0  0
  6 28  1  0  0  0  0
  6 29  1  0  0  0  0
  7  8  1  0  0  0  0
  7 30  1  0  0  0  0
  7 31  1  0  0  0  0
  8  9  1  0  0  0  0
  9 10  1  0  0  0  0
  9 32  1  0  0  0  0
  9 33  1  0  0  0  0
 10 34  1  0  0  0  0
 10 35  1  0  0  0  0
 11 12  1  0  0  0  0
 11 36  1  0  0  0  0
 11 37  1  0  0  0  0
 12 22  1  0  0  0  0
 12 13  1  0  0  0  0
 13 14  2  0  0  0  0
 14 15  1  0  0  0  0
 15 22  2  0  0  0  0
 15 16  1  0  0  0  0
 16 17  2  0  0  0  0
 16 38  1  0  0  0  0
 17 18  1  0  0  0  0
 17 19  1  0  0  0  0
 19 20  1  0  0  0  0
 19 21  2  0  0  0  0
 21 22  1  0  0  0  0
 21 39  1  0  0  0  0
M  END
> <s_m_source_file>
AV-unprocessed.smi

> <i_m_source_file_index>
2502

> <i_lp_mmshare_version>
43012

> <i_f3d_flags>
0

> <s_epik_input>
W2NIXTFjKENsKWMoQ2wpW2NIXWMoYzEyKW4obm4yKVtDSDJdW0NASF0oW09IXSlbQ0gyXU9bQ0hdM1tDSDJdW0NIMl1PW0NIMl1bQ0gyXTM=

> <s_epik_cmdline>
J2VwaWtfcHl0aG9uJywgJy1waCcsICc3LjAnLCAnLXRuJywgJzgnLCAnLW1hJywgJzIwMCcsICctbWV0YWxfYmluZGluZycsICctaW1hZScsICc8aW5maWxlLm1hZT4nLCAnLW9tYWUnLCAnPG91dGZpbGUubWFlPic=

> <r_lp_tautomer_probability>
1

> <r_epik_Ionization_Penalty>
2.65748e-06

> <r_epik_Ionization_Penalty_Charging>
0

> <r_epik_Ionization_Penalty_Neutral>
2.65748e-06

> <r_epik_State_Penalty>
-0

> <r_epik_Charging_Adjusted_Penalty>
0

> <i_epik_Tot_Q>
0

> <i_epik_Tot_abs_Q>
0

> <r_epik_Metal_State_Penalty>
-0

> <b_epik_Metal_Only>
0

> <s_lp_Force_Field>
OPLS_2005

> <r_lp_Energy>
14.9544

> <b_lp_Chiralities_Consistent>
1

> <s_lp_Variant>
AV-unprocessed.smi:2502-1

> <Gold.Version>
5.8.1

> <Gold.Id.Protein>
6NUR|6NUR_protein|mol2

> <Gold.PLP.Fitness>
52.6432

> <Gold.PLP.PLP>
-47.4668

> <Gold.PLP.part.hbond>
-3.4369

> <Gold.PLP.part.metal>
0.0000

> <Gold.PLP.part.buried>
-3.5238

> <Gold.PLP.part.nonpolar>
-39.5118

> <Gold.PLP.part.repulsive>
0.8285

> <Gold.PLP.ligand.clash>
0.0000

> <Gold.PLP.ligand.torsion>
1.1624

> <Gold.PLP.Chemscore.Hbond>
2.4824

> <Gold.PLP.Chemscore.CHOScore>
0.0000

> <Gold.PLP.Chemscore.Metal>
0.0000

> <Gold.Chemscore.Hbonds>
donor molecule, donor type, donor heavy atom, donor atom, acceptor molecule, acceptor atom, score
      P1  H  7989  7998       L1     4  1.00
      P1  H  7997  8009       L1    13  0.55
      P1  H  7997  8010       L1     1  0.86

> <Gold.PLP.Chemscore.Internal.Correction>
0.0540

> <Gold.Rescore>
     Score         DG    S(hbond)    S(metal)    S(lipo)     H(rot)  DE(clash)    DE(int)     intcor
     20.20     -21.72       1.91        0.00     132.55       2.21       0.39       1.14       ----

> <Gold.Chemscore.Fitness>
20.1953

> <Gold.Chemscore.DG>
-21.7195

> <Gold.Chemscore.ZeroCoef>
-5.4800

> <Gold.Chemscore.Hbond>
1.9102

> <Gold.Chemscore.Metal>
0.0000

> <Gold.Chemscore.Lipo>
132.5465

> <Gold.Chemscore.Internal_Hbond>
0.0000

> <Gold.Chemscore.DEClash>
0.3875

> <Gold.Chemscore.DEInternal>
1.1367

> <Gold.Chemscore.Rot>
2.2065

> <Gold.Chemscore.Internal.Correction>
   9.000000E+99

> <Gold.Chemscore.Hbonds>
donor molecule, donor type, donor heavy atom, donor atom, acceptor molecule, acceptor atom, score
      P1  H  7989  7998       L1     4  0.84
      P1  H  7997  8009       L1    13  0.01
      P1  H  7997  8010       L1     1  0.83

> <Gold.Chemscore.Hbond.Weighted>
-6.3801

> <Gold.Chemscore.Metal.Weighted>
-0.0000

> <Gold.Chemscore.Lipo.Weighted>
-15.5079

> <Gold.Chemscore.Internal_Hbond.Weighted>
0.0000

> <Gold.Chemscore.DEClash.Weighted>
0.3875

> <Gold.Chemscore.DEInternal.Weighted>
1.1367

> <Gold.Chemscore.Rot.Weighted>
5.6485

> <Gold.Chemscore.Internal.Correction.Weighted>
   9.000000E+99

> <Gold.Protein.RotatedTorsions>
[ 6907 6896 6895 6894 ] final   62.33 input  -60.11 | X-H torsion
[ 7974 7965 7964 7962 ] final  178.73 input  175.53 | X-H torsion
[ 8008 7997 7996 7995 ] final  133.77 input   59.86 | X-H torsion
[ 10167 10162 10161 10158 ] final -157.99 input  -65.29 | X-H torsion
[ 10718 10713 10712 10709 ] final  163.36 input   66.30 | X-H torsion
[ 10763 10752 10751 10750 ] final -111.86 input  -60.55 | X-H torsion
[ 11005 11000 10999 10996 ] final  160.05 input  -57.11 | X-H torsion

> <Gold.Protein.ActiveResidues>
 VAL166  LYS551  ARG553  GLY616  TRP617  ASP618  TYR619  PRO620  LYS621  CYS622 
 ASP623  PHE694  ASN695  SER759  ASP760  ASP761  ALA762  ILE779  LEU786  VAL792 
 PHE793  MET794  SER795  GLU796  ALA797  LYS798  CYS799  TRP800  GLU811  SER814 

> <Gold.Protein.RotatedAtoms>
  152.4163  134.6035  160.0006 H   0  0  0  0  0  0  0  0  0  0  0  0  # atno 6907 bound_to 6896
  151.6198  133.3334  159.3093 H   0  0  0  0  0  0  0  0  0  0  0  0  # atno 6908 bound_to 6896
  150.8052  134.7211  159.6703 H   0  0  0  0  0  0  0  0  0  0  0  0  # atno 6909 bound_to 6896
  144.7153  140.0441  143.6437 H   0  0  0  0  0  0  0  0  0  0  0  0  # atno 7974 bound_to 7965
  156.2995  140.2513  156.3307 H   0  0  0  0  0  0  0  0  0  0  0  0  # atno 8008 bound_to 7997
  154.9148  140.0402  157.1985 H   0  0  0  0  0  0  0  0  0  0  0  0  # atno 8009 bound_to 7997
  154.8370  140.2885  155.5689 H   0  0  0  0  0  0  0  0  0  0  0  0  # atno 8010 bound_to 7997
  139.6727  143.9717  152.2293 H   0  0  0  0  0  0  0  0  0  0  0  0  # atno 10167 bound_to 10162
  157.1095  131.0464  151.2463 H   0  0  0  0  0  0  0  0  0  0  0  0  # atno 10718 bound_to 10713
  154.8321  135.4512  154.1104 H   0  0  0  0  0  0  0  0  0  0  0  0  # atno 10763 bound_to 10752
  153.2368  135.6912  153.7834 H   0  0  0  0  0  0  0  0  0  0  0  0  # atno 10764 bound_to 10752
  153.7197  135.3343  155.3240 H   0  0  0  0  0  0  0  0  0  0  0  0  # atno 10765 bound_to 10752
  140.2022  134.8329  157.3030 H   0  0  0  0  0  0  0  0  0  0  0  0  # atno 11005 bound_to 11000
  145.9999  139.3082  143.0934 LP  0  0  0  0  0  0  0  0  0  0  0  0  # atno 17320 bound_to 7965
  145.8805  140.9365  143.0603 LP  0  0  0  0  0  0  0  0  0  0  0  0  # atno 17321 bound_to 7965
  139.9486  144.6635  150.8194 LP  0  0  0  0  0  0  0  0  0  0  0  0  # atno 17342 bound_to 10162
  140.7624  143.3197  151.2650 LP  0  0  0  0  0  0  0  0  0  0  0  0  # atno 17343 bound_to 10162
  157.4571  130.7632  149.7203 LP  0  0  0  0  0  0  0  0  0  0  0  0  # atno 17370 bound_to 10713
  155.9854  130.3983  150.3265 LP  0  0  0  0  0  0  0  0  0  0  0  0  # atno 17371 bound_to 10713
  140.2042  134.4217  155.7646 LP  0  0  0  0  0  0  0  0  0  0  0  0  # atno 17394 bound_to 11000
  141.2227  133.7087  156.8233 LP  0  0  0  0  0  0  0  0  0  0  0  0  # atno 17395 bound_to 11000

$$$$
