#       Name:                AV-unprocessed.smi:395
#       Creating user name   scv26
#       Creation time:       Thu Mar 26 22:42:53 2020


#       File generated by GOLD software.
#

@<TRIPOS>MOLECULE
AV-unprocessed.smi:395
    41    42     1
SMALL
NO_CHARGES


@<TRIPOS>ATOM
      1 ****        -3.4525  -1.9909   0.8254 C.2            1 S1                 0.0000
      2 ****        -4.2494  -1.1203   1.4691 C.2            1 S1                 0.0000
      3 ****        -3.8089   0.0485   2.3401 C.3            1 S1                 0.0000
      4 ****        -2.3605   0.2151   2.4266 N.am           1 S1                 0.0000
      5 ****        -1.6057   0.8837   1.5414 C.2            1 S1                 0.0000
      6 ****        -2.0722   1.4670   0.5619 O.2            1 S1                 0.0000
      7 ****        -0.0940   0.8884   1.8130 C.3            1 S1                 0.0000
      8 ****         0.7119   1.0195   0.5796 N.am           1 S1                 0.0000
      9 ****         1.1427   2.3086   0.1742 C.2            1 S1                 0.0000
     10 ****         0.8833   3.3071   0.8479 O.2            1 S1                 0.0000
     11 ****         1.8853   2.3564  -1.0832 C.2            1 S1                 0.0000
     12 ****         2.3067   3.6386  -1.5420 C.1            1 S1                 0.0000
     13 ****         2.6614   4.6686  -1.9331 N.1            1 S1                 0.0000
     14 ****         2.1490   1.2308  -1.7783 C.2            1 S1                 0.0000
     15 ****         1.7546  -0.0168  -1.3468 N.am           1 S1                 0.0000
     16 ****         1.9027  -1.1774  -2.1790 C.3            1 S1                 0.0000
     17 ****         2.6053  -2.4137  -1.6528 C.3            1 S1                 0.0000
     18 ****         3.2798  -1.5451  -2.6866 C.3            1 S1                 0.0000
     19 ****         0.9775  -0.1490  -0.1755 C.2            1 S1                 0.0000
     20 ****         0.5321  -1.2449   0.1755 O.2            1 S1                 0.0000
     21 ****        -2.3753  -1.9300   0.8738 H              1 S1                 0.0000
     22 ****        -3.8774  -2.7872   0.2326 H              1 S1                 0.0000
     23 ****        -5.3185  -1.2439   1.3758 H              1 S1                 0.0000
     24 ****        -4.2757   0.9628   1.9704 H              1 S1                 0.0000
     25 ****        -4.1947  -0.1104   3.3470 H              1 S1                 0.0000
     26 ****        -1.8963  -0.2310   3.2045 H              1 S1                 0.0000
     27 ****         0.1205   1.6865   2.5247 H              1 S1                 0.0000
     28 ****         0.1813  -0.0235   2.3465 H              1 S1                 0.0000
     29 ****         2.6941   1.3067  -2.7083 H              1 S1                 0.0000
     30 ****         1.0809  -1.3594  -2.8695 H              1 S1                 0.0000
     31 ****         3.0086  -2.3867  -0.6422 H              1 S1                 0.0000
     32 ****         2.2260  -3.3805  -1.9767 H              1 S1                 0.0000
     33 ****         3.3528  -1.9344  -3.7000 H              1 S1                 0.0000
     34 ****         4.1253  -0.9444  -2.3568 H              1 S1                 0.0000
     35 ****        -3.0584   1.4564   0.3965 LP             1 S1                 0.0000
     36 ****        -1.4648   1.9512  -0.0678 LP             1 S1                 0.0000
     37 ****         0.3610   3.2163   1.6958 LP             1 S1                 0.0000
     38 ****         1.1951   4.2083   0.5468 LP             1 S1                 0.0000
     39 ****         2.9678   5.5585  -2.2710 LP             1 S1                 0.0000
     40 ****        -0.0246  -1.3165   1.0031 LP             1 S1                 0.0000
     41 ****         0.7278  -2.0614  -0.3676 LP             1 S1                 0.0000
@<TRIPOS>BOND
    1    1    2 2     
    2    1   21 1     
    3    1   22 1     
    4    2    3 1     
    5    2   23 1     
    6    3    4 1     
    7    3   24 1     
    8    3   25 1     
    9    4    5 am    
   10    4   26 1     
   11    5    6 2     
   12    5    7 1     
   13    7    8 1     
   14    7   27 1     
   15    7   28 1     
   16    8   19 am    
   17    8    9 am    
   18    9   10 2     
   19    9   11 1     
   20   11   12 1     
   21   11   14 2     
   22   12   13 3     
   23   14   15 1     
   24   14   29 1     
   25   15   16 1     
   26   15   19 am    
   27   16   18 1     
   28   16   17 1     
   29   16   30 1     
   30   17   18 1     
   31   17   31 1     
   32   17   32 1     
   33   18   33 1     
   34   18   34 1     
   35   19   20 2     
   36    6   35 1     
   37    6   36 1     
   38   10   37 1     
   39   10   38 1     
   40   13   39 1     
   41   20   40 1     
   42   20   41 1     
@<TRIPOS>SUBSTRUCTURE
      1 S1             1
@<TRIPOS>SET
LONE_PAIRS      STATIC     ATOMS    <user>   **** ""
7 35 36 37 38 39 40 41
DONOR_HYDROGENS      STATIC     ATOMS    <user>   **** ""
1 26
ATOM$BLUE        STATIC     ATOMS    COLORGROUP SYSTEM
7 35 36 37 38 39 40 41
ATOM$RED        STATIC     ATOMS    COLORGROUP SYSTEM
1 26
