AV-unprocessed.smi:2390|AV-procd|sdf|9473|dock3
  -GOLD-   2272013103D 1   1.00000     0.00000
 Structure written by MMmdl.
 45 46  0  0  0  0  0  0  0  0  1 V2000
  145.9068  131.8448  149.3037 C   0  0  0  0  0  0  0  0  0  0  0  0
  145.2664  132.8248  150.2643 C   0  0  0  0  0  0  0  0  0  0  0  0
  143.9397  132.6486  150.7034 C   0  0  0  0  0  0  0  0  0  0  0  0
  143.4065  133.5952  151.5966 C   0  0  0  0  0  0  0  0  0  0  0  0
  144.2152  134.6719  152.0094 C   0  0  0  0  0  0  0  0  0  0  0  0
  145.5356  134.7781  151.5172 C   0  0  0  0  0  0  0  0  0  0  0  0
  146.2668  135.9021  151.9862 N   0  0  0  0  0  0  0  0  0  0  0  0
  145.7877  137.0368  152.5265 C   0  0  0  0  0  0  0  0  0  0  0  0
  144.5950  137.3010  152.6809 O   0  0  0  0  0  0  0  0  0  0  0  0
  146.7840  137.8581  152.8897 N   0  0  0  0  0  0  0  0  0  0  0  0
  146.6319  139.1468  153.5668 C   0  0  2  0  0  0  0  0  0  0  0  0
  147.4563  140.2129  152.8229 C   0  0  0  0  0  0  0  0  0  0  0  0
  146.9795  139.0269  155.0862 C   0  0  2  0  0  0  0  0  0  0  0  0
  146.1004  140.0121  155.9011 C   0  0  0  0  0  0  0  0  0  0  0  0
  148.4269  139.1671  155.3868 N   0  0  0  0  0  0  0  0  0  0  0  0
  148.8761  140.5645  155.4289 C   0  0  0  0  0  0  0  0  0  0  0  0
  150.3774  140.6972  155.7366 C   0  0  0  0  0  0  0  0  0  0  0  0
  151.1304  139.9767  154.7708 O   0  0  0  0  0  0  0  0  0  0  0  0
  150.7788  138.6006  154.7392 C   0  0  0  0  0  0  0  0  0  0  0  0
  149.2793  138.4549  154.4274 C   0  0  0  0  0  0  0  0  0  0  0  0
  146.0408  133.8584  150.6577 N   0  0  0  0  0  0  0  0  0  0  0  0
  145.2927  130.9520  149.1831 H   0  0  0  0  0  0  0  0  0  0  0  0
  146.8862  131.5356  149.6703 H   0  0  0  0  0  0  0  0  0  0  0  0
  146.0361  132.3064  148.3245 H   0  0  0  0  0  0  0  0  0  0  0  0
  143.3452  131.8118  150.3672 H   0  0  0  0  0  0  0  0  0  0  0  0
  142.3939  133.4982  151.9591 H   0  0  0  0  0  0  0  0  0  0  0  0
  143.8198  135.4079  152.6943 H   0  0  0  0  0  0  0  0  0  0  0  0
  147.2709  135.8236  151.9230 H   0  0  0  0  0  0  0  0  0  0  0  0
  147.7308  137.5524  152.7193 H   0  0  0  0  0  0  0  0  0  0  0  0
  145.6108  139.5033  153.4516 H   0  0  0  0  0  0  0  0  0  0  0  0
  147.4206  141.1704  153.3432 H   0  0  0  0  0  0  0  0  0  0  0  0
  147.0584  140.3735  151.8202 H   0  0  0  0  0  0  0  0  0  0  0  0
  148.5021  139.9313  152.7066 H   0  0  0  0  0  0  0  0  0  0  0  0
  146.6820  138.0225  155.3920 H   0  0  0  0  0  0  0  0  0  0  0  0
  145.0515  139.9693  155.6156 H   0  0  0  0  0  0  0  0  0  0  0  0
  146.4331  141.0432  155.7769 H   0  0  0  0  0  0  0  0  0  0  0  0
  146.1132  139.7837  156.9661 H   0  0  0  0  0  0  0  0  0  0  0  0
  148.6559  141.0530  154.4786 H   0  0  0  0  0  0  0  0  0  0  0  0
  148.3531  141.1245  156.1993 H   0  0  0  0  0  0  0  0  0  0  0  0
  150.6780  141.7447  155.7123 H   0  0  0  0  0  0  0  0  0  0  0  0
  150.6000  140.3241  156.7377 H   0  0  0  0  0  0  0  0  0  0  0  0
  151.3751  138.0989  153.9770 H   0  0  0  0  0  0  0  0  0  0  0  0
  151.0210  138.1319  155.6944 H   0  0  0  0  0  0  0  0  0  0  0  0
  149.0574  137.3891  154.4320 H   0  0  0  0  0  0  0  0  0  0  0  0
  149.0817  138.8164  153.4172 H   0  0  0  0  0  0  0  0  0  0  0  0
  1  2  1  0  0  0  0
  1 22  1  0  0  0  0
  1 23  1  0  0  0  0
  1 24  1  0  0  0  0
  2 21  1  0  0  0  0
  2  3  2  0  0  0  0
  3  4  1  0  0  0  0
  3 25  1  0  0  0  0
  4  5  2  0  0  0  0
  4 26  1  0  0  0  0
  5  6  1  0  0  0  0
  5 27  1  0  0  0  0
  6  7  1  0  0  0  0
  6 21  2  0  0  0  0
  7  8  1  0  0  0  0
  7 28  1  0  0  0  0
  8  9  2  0  0  0  0
  8 10  1  0  0  0  0
 10 11  1  0  0  0  0
 10 29  1  0  0  0  0
 11 12  1  0  0  0  0
 11 13  1  0  0  0  0
 11 30  1  0  0  0  0
 12 31  1  0  0  0  0
 12 32  1  0  0  0  0
 12 33  1  0  0  0  0
 13 14  1  0  0  0  0
 13 15  1  0  0  0  0
 13 34  1  0  0  0  0
 14 35  1  0  0  0  0
 14 36  1  0  0  0  0
 14 37  1  0  0  0  0
 15 20  1  0  0  0  0
 15 16  1  0  0  0  0
 16 17  1  0  0  0  0
 16 38  1  0  0  0  0
 16 39  1  0  0  0  0
 17 18  1  0  0  0  0
 17 40  1  0  0  0  0
 17 41  1  0  0  0  0
 18 19  1  0  0  0  0
 19 20  1  0  0  0  0
 19 42  1  0  0  0  0
 19 43  1  0  0  0  0
 20 44  1  0  0  0  0
 20 45  1  0  0  0  0
M  END
> <s_m_source_file>
AV-unprocessed.smi

> <i_m_source_file_index>
2390

> <i_lp_mmshare_version>
43012

> <i_f3d_flags>
0

> <s_epik_input>
W0NIM11jMVtjSF1bY0hdW2NIXWMobjEpW05IXUMoPU8pW05IXVtDQEhdKFtDSDNdKVtDQEhdKFtDSDNdKU4yW0NIMl1bQ0gyXU9bQ0gyXVtDSDJdMg==

> <s_epik_cmdline>
J2VwaWtfcHl0aG9uJywgJy1waCcsICc3LjAnLCAnLXRuJywgJzgnLCAnLW1hJywgJzIwMCcsICctbWV0YWxfYmluZGluZycsICctaW1hZScsICc8aW5maWxlLm1hZT4nLCAnLW9tYWUnLCAnPG91dGZpbGUubWFlPic=

> <r_epik_Ionization_Penalty>
0.266074

> <r_epik_Ionization_Penalty_Charging>
0

> <r_epik_Ionization_Penalty_Neutral>
0.266074

> <r_epik_State_Penalty>
0.257924

> <r_epik_Charging_Adjusted_Penalty>
0.257924

> <i_epik_Tot_Q>
0

> <i_epik_Tot_abs_Q>
0

> <r_epik_Metal_State_Penalty>
0.257919

> <b_epik_Metal_Only>
0

> <s_lp_Force_Field>
OPLS_2005

> <r_lp_Energy>
37.1524

> <b_lp_Chiralities_Consistent>
1

> <s_lp_Variant>
AV-unprocessed.smi:2390-1

> <Gold.Version>
5.8.1

> <Gold.Id.Protein>
6NUR|6NUR_protein|mol2

> <Gold.PLP.Fitness>
38.5471

> <Gold.PLP.PLP>
-32.9231

> <Gold.PLP.part.hbond>
-3.0000

> <Gold.PLP.part.metal>
0.0000

> <Gold.PLP.part.buried>
-5.0467

> <Gold.PLP.part.nonpolar>
-27.5995

> <Gold.PLP.part.repulsive>
0.6013

> <Gold.PLP.ligand.clash>
1.1171

> <Gold.PLP.ligand.torsion>
1.1503

> <Gold.PLP.Chemscore.Hbond>
2.9760

> <Gold.PLP.Chemscore.CHOScore>
0.0000

> <Gold.PLP.Chemscore.Metal>
0.0000

> <Gold.Chemscore.Hbonds>
donor molecule, donor type, donor heavy atom, donor atom, acceptor molecule, acceptor atom, score
      L1  H     7    28       P1  7948  1.00
      L1  H    10    29       P1  7948  0.96
      P1  H  7989  7998       L1    18  1.00

> <Gold.PLP.Chemscore.Internal.Correction>
0.1138

> <Gold.Rescore>
     Score         DG    S(hbond)    S(metal)    S(lipo)     H(rot)  DE(clash)    DE(int)     intcor
     15.55     -20.80       2.93        0.00      78.87       1.44       0.06       5.18       ----

> <Gold.Chemscore.Fitness>
15.5538

> <Gold.Chemscore.DG>
-20.7988

> <Gold.Chemscore.ZeroCoef>
-5.4800

> <Gold.Chemscore.Hbond>
2.9269

> <Gold.Chemscore.Metal>
0.0000

> <Gold.Chemscore.Lipo>
78.8743

> <Gold.Chemscore.Internal_Hbond>
0.0000

> <Gold.Chemscore.DEClash>
0.0648

> <Gold.Chemscore.DEInternal>
5.1801

> <Gold.Chemscore.Rot>
1.4396

> <Gold.Chemscore.Internal.Correction>
   9.000000E+99

> <Gold.Chemscore.Hbonds>
donor molecule, donor type, donor heavy atom, donor atom, acceptor molecule, acceptor atom, score
      L1  H     7    28       P1  7948  1.00
      L1  H    10    29       P1  7948  0.90
      P1  H  7989  7998       L1    18  0.90

> <Gold.Chemscore.Hbond.Weighted>
-9.7759

> <Gold.Chemscore.Metal.Weighted>
-0.0000

> <Gold.Chemscore.Lipo.Weighted>
-9.2283

> <Gold.Chemscore.Internal_Hbond.Weighted>
0.0000

> <Gold.Chemscore.DEClash.Weighted>
0.0648

> <Gold.Chemscore.DEInternal.Weighted>
5.1801

> <Gold.Chemscore.Rot.Weighted>
3.6855

> <Gold.Chemscore.Internal.Correction.Weighted>
   9.000000E+99

> <Gold.Protein.RotatedTorsions>
[ 6907 6896 6895 6894 ] final   52.78 input  -60.11 | X-H torsion
[ 7974 7965 7964 7962 ] final   32.12 input  175.53 | X-H torsion
[ 8008 7997 7996 7995 ] final -150.73 input   59.86 | X-H torsion
[ 10167 10162 10161 10158 ] final  -69.41 input  -65.29 | X-H torsion
[ 10718 10713 10712 10709 ] final   54.00 input   66.30 | X-H torsion
[ 10763 10752 10751 10750 ] final  -23.95 input  -60.55 | X-H torsion
[ 11005 11000 10999 10996 ] final  -33.19 input  -57.11 | X-H torsion

> <Gold.Protein.ActiveResidues>
 VAL166  LYS551  ARG553  GLY616  TRP617  ASP618  TYR619  PRO620  LYS621  CYS622 
 ASP623  PHE694  ASN695  SER759  ASP760  ASP761  ALA762  ILE779  LEU786  VAL792 
 PHE793  MET794  SER795  GLU796  ALA797  LYS798  CYS799  TRP800  GLU811  SER814 

> <Gold.Protein.RotatedAtoms>
  152.3269  134.7309  160.0299 H   0  0  0  0  0  0  0  0  0  0  0  0  # atno 6907 bound_to 6896
  151.7739  133.3338  159.3460 H   0  0  0  0  0  0  0  0  0  0  0  0  # atno 6908 bound_to 6896
  150.7401  134.5925  159.6039 H   0  0  0  0  0  0  0  0  0  0  0  0  # atno 6909 bound_to 6896
  146.1507  139.6568  142.9101 H   0  0  0  0  0  0  0  0  0  0  0  0  # atno 7974 bound_to 7965
  155.6282  140.0688  157.2657 H   0  0  0  0  0  0  0  0  0  0  0  0  # atno 8008 bound_to 7997
  154.4212  140.1772  156.1493 H   0  0  0  0  0  0  0  0  0  0  0  0  # atno 8009 bound_to 7997
  155.9954  140.3341  155.6797 H   0  0  0  0  0  0  0  0  0  0  0  0  # atno 8010 bound_to 7997
  140.5433  143.2314  151.7049 H   0  0  0  0  0  0  0  0  0  0  0  0  # atno 10167 bound_to 10162
  157.5217  130.8570  149.8568 H   0  0  0  0  0  0  0  0  0  0  0  0  # atno 10718 bound_to 10713
  153.6759  135.6969  153.5132 H   0  0  0  0  0  0  0  0  0  0  0  0  # atno 10763 bound_to 10752
  153.2522  135.4271  155.0808 H   0  0  0  0  0  0  0  0  0  0  0  0  # atno 10764 bound_to 10752
  154.8413  135.3534  154.6303 H   0  0  0  0  0  0  0  0  0  0  0  0  # atno 10765 bound_to 10752
  140.9614  133.7162  156.1376 H   0  0  0  0  0  0  0  0  0  0  0  0  # atno 11005 bound_to 11000
  145.4830  141.0438  143.2635 LP  0  0  0  0  0  0  0  0  0  0  0  0  # atno 17320 bound_to 7965
  144.7900  139.6347  143.7117 LP  0  0  0  0  0  0  0  0  0  0  0  0  # atno 17321 bound_to 7965
  139.4997  144.3935  152.0255 LP  0  0  0  0  0  0  0  0  0  0  0  0  # atno 17342 bound_to 10162
  140.3045  144.3608  150.6051 LP  0  0  0  0  0  0  0  0  0  0  0  0  # atno 17343 bound_to 10162
  156.0358  130.3752  150.1564 LP  0  0  0  0  0  0  0  0  0  0  0  0  # atno 17370 bound_to 10713
  156.9751  130.9847  151.3450 LP  0  0  0  0  0  0  0  0  0  0  0  0  # atno 17371 bound_to 10713
  140.7462  134.4096  157.5548 LP  0  0  0  0  0  0  0  0  0  0  0  0  # atno 17394 bound_to 11000
  139.8879  134.8869  156.2501 LP  0  0  0  0  0  0  0  0  0  0  0  0  # atno 17395 bound_to 11000

$$$$
