AV-unprocessed.smi:160|AV-procd|sdf|1349|dock9
  -GOLD-   2262019 53D 1   1.00000     0.00000
 Structure written by MMmdl.
 29 30  0  0  0  0  0  0  0  0  1 V2000
  145.4488  127.8995  154.0053 N   0  0  0  0  0  0  0  0  0  0  0  0
  146.3262  128.2582  153.0620 C   0  0  0  0  0  0  0  0  0  0  0  0
  147.0902  127.4526  152.5327 O   0  0  0  0  0  0  0  0  0  0  0  0
  146.3340  129.7128  152.6813 C   0  0  0  0  0  0  0  0  0  0  0  0
  146.4947  130.6889  153.6227 N   0  0  0  0  0  0  0  0  0  0  0  0
  146.4241  131.7527  152.8329 C   0  0  0  0  0  0  0  0  0  0  0  0
  146.2580  131.4671  151.5373 N   0  0  0  0  0  0  0  0  0  0  0  0
  146.0905  132.4027  150.3740 C   0  0  2  0  0  0  0  0  0  0  0  0
  146.2990  133.7025  150.8250 O   0  0  0  0  0  0  0  0  0  0  0  0
  145.0747  134.2438  151.3045 C   0  0  1  0  0  0  0  0  0  0  0  0
  145.1302  135.7782  151.2488 C   0  0  0  0  0  0  0  0  0  0  0  0
  145.1643  136.2158  149.9071 O   0  0  0  0  0  0  0  0  0  0  0  0
  144.0198  133.6373  150.3615 C   0  0  2  0  0  0  0  0  0  0  0  0
  142.8539  133.3129  151.0925 O   0  0  0  0  0  0  0  0  0  0  0  0
  144.6651  132.3655  149.7996 C   0  0  1  0  0  0  0  0  0  0  0  0
  144.6867  132.3987  148.3867 O   0  0  0  0  0  0  0  0  0  0  0  0
  146.1824  130.1164  151.4192 N   0  0  0  0  0  0  0  0  0  0  0  0
  146.8645  132.0918  149.6709 H   0  0  0  0  0  0  0  0  0  0  0  0
  144.9086  133.9056  152.3288 H   0  0  0  0  0  0  0  0  0  0  0  0
  143.7677  134.3346  149.5608 H   0  0  0  0  0  0  0  0  0  0  0  0
  144.1525  131.4505  150.1008 H   0  0  0  0  0  0  0  0  0  0  0  0
  145.3968  126.9372  154.3055 H   0  0  0  0  0  0  0  0  0  0  0  0
  144.8435  128.5973  154.4136 H   0  0  0  0  0  0  0  0  0  0  0  0
  146.4927  132.7637  153.2070 H   0  0  0  0  0  0  0  0  0  0  0  0
  144.2857  136.2256  151.7741 H   0  0  0  0  0  0  0  0  0  0  0  0
  146.0397  136.1375  151.7316 H   0  0  0  0  0  0  0  0  0  0  0  0
  144.9888  137.1442  149.8892 H   0  0  0  0  0  0  0  0  0  0  0  0
  142.1196  133.7539  150.6930 H   0  0  0  0  0  0  0  0  0  0  0  0
  145.1453  133.1777  148.1117 H   0  0  0  0  0  0  0  0  0  0  0  0
  1  2  1  0  0  0  0
  1 22  1  0  0  0  0
  1 23  1  0  0  0  0
  2  3  2  0  0  0  0
  2  4  1  0  0  0  0
  4 17  2  0  0  0  0
  4  5  1  0  0  0  0
  5  6  2  0  0  0  0
  6  7  1  0  0  0  0
  6 24  1  0  0  0  0
  7  8  1  0  0  0  0
  7 17  1  0  0  0  0
  8 18  1  0  0  0  0
  8 15  1  0  0  0  0
  8  9  1  0  0  0  0
  9 10  1  0  0  0  0
 10 19  1  0  0  0  0
 10 11  1  0  0  0  0
 10 13  1  0  0  0  0
 11 12  1  0  0  0  0
 11 25  1  0  0  0  0
 11 26  1  0  0  0  0
 12 27  1  0  0  0  0
 13 20  1  0  0  0  0
 13 14  1  0  0  0  0
 13 15  1  0  0  0  0
 14 28  1  0  0  0  0
 15 21  1  0  0  0  0
 15 16  1  0  0  0  0
 16 29  1  0  0  0  0
M  END
> <s_m_source_file>
AV-unprocessed.smi

> <i_m_source_file_index>
160

> <i_lp_mmshare_version>
43012

> <i_f3d_flags>
0

> <s_epik_input>
W05IMl1DKD1PKWMxbltjSF1uKG4xKVtDQEBIXTJPW0NASF0oW0NIMl1bT0hdKVtDQEBIXShbT0hdKVtDQEhdMltPSF0=

> <s_epik_cmdline>
J2VwaWtfcHl0aG9uJywgJy1waCcsICc3LjAnLCAnLXRuJywgJzgnLCAnLW1hJywgJzIwMCcsICctbWV0YWxfYmluZGluZycsICctaW1hZScsICc8aW5maWxlLm1hZT4nLCAnLW9tYWUnLCAnPG91dGZpbGUubWFlPic=

> <r_lp_tautomer_probability>
1

> <r_epik_Ionization_Penalty>
1.06932e-05

> <r_epik_Ionization_Penalty_Charging>
0

> <r_epik_Ionization_Penalty_Neutral>
1.06932e-05

> <r_epik_State_Penalty>
-0

> <r_epik_Charging_Adjusted_Penalty>
0

> <i_epik_Tot_Q>
0

> <i_epik_Tot_abs_Q>
0

> <r_epik_Metal_State_Penalty>
0.0142097

> <b_epik_Metal_Only>
0

> <s_epik_Chemistry_Notes>
This compound contains an acetal/aminal-like group ( X-CH(R)-Y where X, Y are N, S, or O) that may be acid/base labile, releasing an aldehyde.

> <s_lp_Force_Field>
OPLS_2005

> <r_lp_Energy>
33.3091

> <b_lp_Chiralities_Consistent>
1

> <s_lp_Variant>
AV-unprocessed.smi:160-7

> <Gold.Version>
5.8.1

> <Gold.Id.Protein>
6NUR|6NUR_protein|mol2

> <Gold.PLP.Fitness>
40.3729

> <Gold.PLP.PLP>
-30.6372

> <Gold.PLP.part.hbond>
-6.1518

> <Gold.PLP.part.metal>
0.0000

> <Gold.PLP.part.buried>
-5.9451

> <Gold.PLP.part.nonpolar>
-19.3045

> <Gold.PLP.part.repulsive>
0.8190

> <Gold.PLP.ligand.clash>
0.0000

> <Gold.PLP.ligand.torsion>
1.1486

> <Gold.PLP.Chemscore.Hbond>
4.0000

> <Gold.PLP.Chemscore.CHOScore>
0.0000

> <Gold.PLP.Chemscore.Metal>
0.0000

> <Gold.Chemscore.Hbonds>
donor molecule, donor type, donor heavy atom, donor atom, acceptor molecule, acceptor atom, score
      L1  H     1    23       P1 10956  1.00
      L1  H    12    27       P1 10171  1.00
      L1  H    14    28       P1 10186  1.00
      L1  H    16    29       P1  7921  1.00

> <Gold.PLP.Chemscore.Internal.Correction>
0.0330

> <Gold.Rescore>
     Score         DG    S(hbond)    S(metal)    S(lipo)     H(rot)  DE(clash)    DE(int)     intcor
      7.59      -9.09       3.15        0.00      29.73       4.06       0.20       1.30       ----

> <Gold.Chemscore.Fitness>
7.5935

> <Gold.Chemscore.DG>
-9.0911

> <Gold.Chemscore.ZeroCoef>
-5.4800

> <Gold.Chemscore.Hbond>
3.1515

> <Gold.Chemscore.Metal>
0.0000

> <Gold.Chemscore.Lipo>
29.7319

> <Gold.Chemscore.Internal_Hbond>
0.0000

> <Gold.Chemscore.DEClash>
0.1978

> <Gold.Chemscore.DEInternal>
1.2997

> <Gold.Chemscore.Rot>
4.0600

> <Gold.Chemscore.Internal.Correction>
   9.000000E+99

> <Gold.Chemscore.Hbonds>
donor molecule, donor type, donor heavy atom, donor atom, acceptor molecule, acceptor atom, score
      L1  H     1    23       P1 10956  0.99
      L1  H    12    27       P1 10171  0.97
      L1  H    14    28       P1 10186  0.78
      L1  H    16    29       P1  7921  0.25

> <Gold.Chemscore.Hbond.Weighted>
-10.5261

> <Gold.Chemscore.Metal.Weighted>
-0.0000

> <Gold.Chemscore.Lipo.Weighted>
-3.4786

> <Gold.Chemscore.Internal_Hbond.Weighted>
0.0000

> <Gold.Chemscore.DEClash.Weighted>
0.1978

> <Gold.Chemscore.DEInternal.Weighted>
1.2997

> <Gold.Chemscore.Rot.Weighted>
10.3936

> <Gold.Chemscore.Internal.Correction.Weighted>
   9.000000E+99

> <Gold.Protein.RotatedTorsions>
[ 6907 6896 6895 6894 ] final -122.71 input  -60.11 | X-H torsion
[ 7974 7965 7964 7962 ] final   47.18 input  175.53 | X-H torsion
[ 8008 7997 7996 7995 ] final -130.35 input   59.86 | X-H torsion
[ 10167 10162 10161 10158 ] final -153.41 input  -65.29 | X-H torsion
[ 10718 10713 10712 10709 ] final  142.81 input   66.30 | X-H torsion
[ 10763 10752 10751 10750 ] final  151.48 input  -60.55 | X-H torsion
[ 11005 11000 10999 10996 ] final  -28.06 input  -57.11 | X-H torsion

> <Gold.Protein.ActiveResidues>
 VAL166  LYS551  ARG553  GLY616  TRP617  ASP618  TYR619  PRO620  LYS621  CYS622 
 ASP623  PHE694  ASN695  SER759  ASP760  ASP761  ALA762  ILE779  LEU786  VAL792 
 PHE793  MET794  SER795  GLU796  ALA797  LYS798  CYS799  TRP800  GLU811  SER814 

> <Gold.Protein.RotatedAtoms>
  150.8602  133.7655  159.2994 H   0  0  0  0  0  0  0  0  0  0  0  0  # atno 6907 bound_to 6896
  151.5300  135.1066  159.9910 H   0  0  0  0  0  0  0  0  0  0  0  0  # atno 6908 bound_to 6896
  152.4620  133.7798  159.6900 H   0  0  0  0  0  0  0  0  0  0  0  0  # atno 6909 bound_to 6896
  146.0321  139.4776  142.9831 H   0  0  0  0  0  0  0  0  0  0  0  0  # atno 7974 bound_to 7965
  155.2943  140.0450  157.3025 H   0  0  0  0  0  0  0  0  0  0  0  0  # atno 8008 bound_to 7997
  154.5523  140.2321  155.8433 H   0  0  0  0  0  0  0  0  0  0  0  0  # atno 8009 bound_to 7997
  156.1977  140.3034  155.9469 H   0  0  0  0  0  0  0  0  0  0  0  0  # atno 8010 bound_to 7997
  139.7099  143.9126  152.2464 H   0  0  0  0  0  0  0  0  0  0  0  0  # atno 10167 bound_to 10162
  157.3762  131.0986  151.0782 H   0  0  0  0  0  0  0  0  0  0  0  0  # atno 10718 bound_to 10713
  154.1045  135.2843  155.3244 H   0  0  0  0  0  0  0  0  0  0  0  0  # atno 10763 bound_to 10752
  154.6533  135.5361  153.7931 H   0  0  0  0  0  0  0  0  0  0  0  0  # atno 10764 bound_to 10752
  153.0367  135.6515  154.1206 H   0  0  0  0  0  0  0  0  0  0  0  0  # atno 10765 bound_to 10752
  140.9174  133.7421  156.0754 H   0  0  0  0  0  0  0  0  0  0  0  0  # atno 11005 bound_to 11000
  145.7023  141.0132  143.1497 LP  0  0  0  0  0  0  0  0  0  0  0  0  # atno 17320 bound_to 7965
  144.7035  139.8660  143.7437 LP  0  0  0  0  0  0  0  0  0  0  0  0  # atno 17321 bound_to 7965
  139.8992  144.6922  150.8684 LP  0  0  0  0  0  0  0  0  0  0  0  0  # atno 17342 bound_to 10162
  140.7730  143.3527  151.1982 LP  0  0  0  0  0  0  0  0  0  0  0  0  # atno 17343 bound_to 10162
  157.1868  130.6334  149.5690 LP  0  0  0  0  0  0  0  0  0  0  0  0  # atno 17370 bound_to 10713
  155.9766  130.4735  150.6537 LP  0  0  0  0  0  0  0  0  0  0  0  0  # atno 17371 bound_to 10713
  140.8032  134.3485  157.5433 LP  0  0  0  0  0  0  0  0  0  0  0  0  # atno 17394 bound_to 11000
  139.8769  134.9210  156.3264 LP  0  0  0  0  0  0  0  0  0  0  0  0  # atno 17395 bound_to 11000

$$$$
