AV-unprocessed.smi:214|AV-procd|sdf|1649|dock7
  -GOLD-   2262020 33D 1   1.00000     0.00000
 Structure written by MMmdl.
 47 50  0  0  0  0  0  0  0  0  1 V2000
  149.8088  130.8227  154.1997 C   0  0  0  0  0  0  0  0  0  0  0  0
  149.3206  132.1952  154.2843 N   0  0  0  0  0  0  0  0  0  0  0  0
  148.6174  132.7730  153.1336 C   0  0  0  0  0  0  0  0  0  0  0  0
  147.1106  132.4879  153.1546 C   0  0  0  0  0  0  0  0  0  0  0  0
  146.4087  132.8564  154.0979 O   0  0  0  0  0  0  0  0  0  0  0  0
  146.6258  131.8384  152.0863 N   0  0  0  0  0  0  0  0  0  0  0  0
  145.2603  131.4733  151.8872 C   0  0  0  0  0  0  0  0  0  0  0  0
  144.5757  131.9739  150.6336 C   0  0  0  0  0  0  0  0  0  0  0  0
  144.2193  132.5689  151.9678 C   0  0  0  0  0  0  0  0  0  0  0  0
  150.1164  133.0100  155.0151 C   0  0  0  0  0  0  0  0  0  0  0  0
  151.1871  132.4456  155.6283 N   0  0  0  0  0  0  0  0  0  0  0  0
  152.0097  133.1952  156.3673 C   0  0  0  0  0  0  0  0  0  0  0  0
  151.9516  134.5058  156.6106 N   0  0  0  0  0  0  0  0  0  0  0  0
  150.8904  135.0825  155.9778 C   0  0  0  0  0  0  0  0  0  0  0  0
  149.9287  134.4142  155.1676 C   0  0  0  0  0  0  0  0  0  0  0  0
  149.0005  135.3303  154.6857 N   0  0  0  0  0  0  0  0  0  0  0  0
  149.3846  136.4704  155.1912 C   0  0  0  0  0  0  0  0  0  0  0  0
  150.5166  136.4153  155.9730 N   0  0  0  0  0  0  0  0  0  0  0  0
  151.1558  137.5332  156.6513 C   0  0  0  0  0  0  0  0  0  0  0  0
  151.7175  138.6161  155.7057 C   0  0  0  0  0  0  0  0  0  0  0  0
  153.1572  138.2809  155.2770 C   0  0  0  0  0  0  0  0  0  0  0  0
  153.7016  139.2946  154.4561 O   0  0  0  0  0  0  0  0  0  0  0  0
  150.7901  139.0451  154.5602 C   0  0  0  0  0  0  0  0  0  0  0  0
  150.9599  140.4435  154.8732 O   0  0  0  0  0  0  0  0  0  0  0  0
  151.5146  140.0716  156.1521 C   0  0  0  0  0  0  0  0  0  0  0  0
  149.8033  130.3465  155.1808 H   0  0  0  0  0  0  0  0  0  0  0  0
  150.8275  130.7970  153.8095 H   0  0  0  0  0  0  0  0  0  0  0  0
  149.1824  130.2218  153.5398 H   0  0  0  0  0  0  0  0  0  0  0  0
  148.7338  133.8576  153.1081 H   0  0  0  0  0  0  0  0  0  0  0  0
  149.0517  132.3818  152.2122 H   0  0  0  0  0  0  0  0  0  0  0  0
  147.2747  131.5804  151.3571 H   0  0  0  0  0  0  0  0  0  0  0  0
  144.9487  130.4906  152.2383 H   0  0  0  0  0  0  0  0  0  0  0  0
  145.1531  132.5912  149.9479 H   0  0  0  0  0  0  0  0  0  0  0  0
  143.8460  131.3164  150.1653 H   0  0  0  0  0  0  0  0  0  0  0  0
  143.2511  132.3094  152.3911 H   0  0  0  0  0  0  0  0  0  0  0  0
  144.5602  133.5820  152.1729 H   0  0  0  0  0  0  0  0  0  0  0  0
  152.8322  132.6696  156.8298 H   0  0  0  0  0  0  0  0  0  0  0  0
  148.8540  137.3917  154.9992 H   0  0  0  0  0  0  0  0  0  0  0  0
  150.4316  137.9706  157.3394 H   0  0  0  0  0  0  0  0  0  0  0  0
  151.9474  137.1287  157.2834 H   0  0  0  0  0  0  0  0  0  0  0  0
  153.8018  138.1797  156.1508 H   0  0  0  0  0  0  0  0  0  0  0  0
  153.2112  137.3261  154.7534 H   0  0  0  0  0  0  0  0  0  0  0  0
  153.0547  139.5381  153.8114 H   0  0  0  0  0  0  0  0  0  0  0  0
  151.1583  138.7885  153.5663 H   0  0  0  0  0  0  0  0  0  0  0  0
  149.7543  138.7255  154.6858 H   0  0  0  0  0  0  0  0  0  0  0  0
  150.7844  140.1984  156.9527 H   0  0  0  0  0  0  0  0  0  0  0  0
  152.4402  140.6004  156.3821 H   0  0  0  0  0  0  0  0  0  0  0  0
  1  2  1  0  0  0  0
  1 26  1  0  0  0  0
  1 27  1  0  0  0  0
  1 28  1  0  0  0  0
  2  3  1  0  0  0  0
  2 10  1  0  0  0  0
  3  4  1  0  0  0  0
  3 29  1  0  0  0  0
  3 30  1  0  0  0  0
  4  5  2  0  0  0  0
  4  6  1  0  0  0  0
  6  7  1  0  0  0  0
  6 31  1  0  0  0  0
  7  9  1  0  0  0  0
  7  8  1  0  0  0  0
  7 32  1  0  0  0  0
  8  9  1  0  0  0  0
  8 33  1  0  0  0  0
  8 34  1  0  0  0  0
  9 35  1  0  0  0  0
  9 36  1  0  0  0  0
 10 15  1  0  0  0  0
 10 11  2  0  0  0  0
 11 12  1  0  0  0  0
 12 13  2  0  0  0  0
 12 37  1  0  0  0  0
 13 14  1  0  0  0  0
 14 18  1  0  0  0  0
 14 15  2  0  0  0  0
 15 16  1  0  0  0  0
 16 17  2  0  0  0  0
 17 18  1  0  0  0  0
 17 38  1  0  0  0  0
 18 19  1  0  0  0  0
 19 20  1  0  0  0  0
 19 39  1  0  0  0  0
 19 40  1  0  0  0  0
 20 25  1  0  0  0  0
 20 21  1  0  0  0  0
 20 23  1  0  0  0  0
 21 22  1  0  0  0  0
 21 41  1  0  0  0  0
 21 42  1  0  0  0  0
 22 43  1  0  0  0  0
 23 24  1  0  0  0  0
 23 44  1  0  0  0  0
 23 45  1  0  0  0  0
 24 25  1  0  0  0  0
 25 46  1  0  0  0  0
 25 47  1  0  0  0  0
M  END
> <s_m_source_file>
AV-unprocessed.smi

> <i_m_source_file_index>
214

> <i_lp_mmshare_version>
43012

> <i_f3d_flags>
0

> <s_epik_input>
W0NIMl0xW0NIMl1bQ0hdMVtOSF1DKD1PKVtDSDJdTihbQ0gzXSljKG5bY0hdbjIpYyhjMjMpbltjSF1uM1tDSDJdQzQoW0NIMl1bT0hdKVtDSDJdT1tDSDJdNA==

> <s_epik_cmdline>
J2VwaWtfcHl0aG9uJywgJy1waCcsICc3LjAnLCAnLXRuJywgJzgnLCAnLW1hJywgJzIwMCcsICctbWV0YWxfYmluZGluZycsICctaW1hZScsICc8aW5maWxlLm1hZT4nLCAnLW9tYWUnLCAnPG91dGZpbGUubWFlPic=

> <r_lp_tautomer_probability>
1

> <r_epik_Ionization_Penalty>
0.000508869

> <r_epik_Ionization_Penalty_Charging>
0

> <r_epik_Ionization_Penalty_Neutral>
0.000508869

> <r_epik_State_Penalty>
0.000243319

> <r_epik_Charging_Adjusted_Penalty>
0.000243319

> <i_epik_Tot_Q>
0

> <i_epik_Tot_abs_Q>
0

> <r_epik_Metal_State_Penalty>
-0

> <b_epik_Metal_Only>
0

> <s_lp_Force_Field>
OPLS_2005

> <r_lp_Energy>
39.3286

> <b_lp_Chiralities_Consistent>
1

> <s_lp_Variant>
AV-unprocessed.smi:214-1

> <Gold.Version>
5.8.1

> <Gold.Id.Protein>
6NUR|6NUR_protein|mol2

> <Gold.PLP.Fitness>
48.9781

> <Gold.PLP.PLP>
-40.9649

> <Gold.PLP.part.hbond>
-3.9205

> <Gold.PLP.part.metal>
0.0000

> <Gold.PLP.part.buried>
-7.6418

> <Gold.PLP.part.nonpolar>
-32.1534

> <Gold.PLP.part.repulsive>
1.9529

> <Gold.PLP.ligand.clash>
0.0000

> <Gold.PLP.ligand.torsion>
1.0298

> <Gold.PLP.Chemscore.Hbond>
3.0000

> <Gold.PLP.Chemscore.CHOScore>
0.0000

> <Gold.PLP.Chemscore.Metal>
0.0000

> <Gold.Chemscore.Hbonds>
donor molecule, donor type, donor heavy atom, donor atom, acceptor molecule, acceptor atom, score
      L1  H     6    31       P1 10747  0.71
      P1  H  7989  7998       L1    24  0.90
      P1  H  7997  8010       L1    22  0.95
      P1  H 10752 10764       L1    13  0.06

> <Gold.PLP.Chemscore.Internal.Correction>
1.0727

> <Gold.Rescore>
     Score         DG    S(hbond)    S(metal)    S(lipo)     H(rot)  DE(clash)    DE(int)     intcor
      9.04     -14.45       2.71        0.00      71.55       3.31       0.92       4.49       ----

> <Gold.Chemscore.Fitness>
9.0403

> <Gold.Chemscore.DG>
-14.4536

> <Gold.Chemscore.ZeroCoef>
-5.4800

> <Gold.Chemscore.Hbond>
2.7138

> <Gold.Chemscore.Metal>
0.0000

> <Gold.Chemscore.Lipo>
71.5459

> <Gold.Chemscore.Internal_Hbond>
0.0000

> <Gold.Chemscore.DEClash>
0.9188

> <Gold.Chemscore.DEInternal>
4.4945

> <Gold.Chemscore.Rot>
3.3052

> <Gold.Chemscore.Internal.Correction>
   9.000000E+99

> <Gold.Chemscore.Hbonds>
donor molecule, donor type, donor heavy atom, donor atom, acceptor molecule, acceptor atom, score
      L1  H     6    31       P1 10747  0.71
      P1  H  7989  7998       L1    24  0.17
      P1  H  7997  8010       L1    22  0.22
      P1  H 10752 10764       L1    13  0.01

> <Gold.Chemscore.Hbond.Weighted>
-9.0641

> <Gold.Chemscore.Metal.Weighted>
-0.0000

> <Gold.Chemscore.Lipo.Weighted>
-8.3709

> <Gold.Chemscore.Internal_Hbond.Weighted>
0.0000

> <Gold.Chemscore.DEClash.Weighted>
0.9188

> <Gold.Chemscore.DEInternal.Weighted>
4.4945

> <Gold.Chemscore.Rot.Weighted>
8.4614

> <Gold.Chemscore.Internal.Correction.Weighted>
   9.000000E+99

> <Gold.Protein.RotatedTorsions>
[ 6907 6896 6895 6894 ] final -117.85 input  -60.11 | X-H torsion
[ 7974 7965 7964 7962 ] final  -24.48 input  175.53 | X-H torsion
[ 8008 7997 7996 7995 ] final  116.35 input   59.86 | X-H torsion
[ 10167 10162 10161 10158 ] final   58.27 input  -65.29 | X-H torsion
[ 10718 10713 10712 10709 ] final   51.90 input   66.30 | X-H torsion
[ 10763 10752 10751 10750 ] final   17.91 input  -60.55 | X-H torsion
[ 11005 11000 10999 10996 ] final   60.76 input  -57.11 | X-H torsion

> <Gold.Protein.ActiveResidues>
 VAL166  LYS551  ARG553  GLY616  TRP617  ASP618  TYR619  PRO620  LYS621  CYS622 
 ASP623  PHE694  ASN695  SER759  ASP760  ASP761  ALA762  ILE779  LEU786  VAL792 
 PHE793  MET794  SER795  GLU796  ALA797  LYS798  CYS799  TRP800  GLU811  SER814 

> <Gold.Protein.RotatedAtoms>
  150.8171  133.8319  159.3155 H   0  0  0  0  0  0  0  0  0  0  0  0  # atno 6907 bound_to 6896
  151.6088  135.1040  160.0086 H   0  0  0  0  0  0  0  0  0  0  0  0  # atno 6908 bound_to 6896
  152.4261  133.7157  159.6561 H   0  0  0  0  0  0  0  0  0  0  0  0  # atno 6909 bound_to 6896
  146.1552  140.4757  142.8594 H   0  0  0  0  0  0  0  0  0  0  0  0  # atno 7974 bound_to 7965
  156.2434  140.2919  156.0510 H   0  0  0  0  0  0  0  0  0  0  0  0  # atno 8008 bound_to 7997
  155.1881  140.0406  157.2912 H   0  0  0  0  0  0  0  0  0  0  0  0  # atno 8009 bound_to 7997
  154.6213  140.2476  155.7553 H   0  0  0  0  0  0  0  0  0  0  0  0  # atno 8010 bound_to 7997
  140.1890  144.4105  150.6580 H   0  0  0  0  0  0  0  0  0  0  0  0  # atno 10167 bound_to 10162
  157.5024  130.8446  149.8333 H   0  0  0  0  0  0  0  0  0  0  0  0  # atno 10718 bound_to 10713
  153.1296  135.6737  153.9199 H   0  0  0  0  0  0  0  0  0  0  0  0  # atno 10763 bound_to 10752
  153.8690  135.3072  155.3442 H   0  0  0  0  0  0  0  0  0  0  0  0  # atno 10764 bound_to 10752
  154.7696  135.4946  153.9703 H   0  0  0  0  0  0  0  0  0  0  0  0  # atno 10765 bound_to 10752
  140.0209  134.6155  155.9641 H   0  0  0  0  0  0  0  0  0  0  0  0  # atno 11005 bound_to 11000
  144.7954  140.6112  143.6513 LP  0  0  0  0  0  0  0  0  0  0  0  0  # atno 17320 bound_to 7965
  145.4726  139.1502  143.3806 LP  0  0  0  0  0  0  0  0  0  0  0  0  # atno 17321 bound_to 7965
  140.6469  143.2215  151.6166 LP  0  0  0  0  0  0  0  0  0  0  0  0  # atno 17342 bound_to 10162
  139.5264  144.3047  152.1044 LP  0  0  0  0  0  0  0  0  0  0  0  0  # atno 17343 bound_to 10162
  156.0237  130.3786  150.1885 LP  0  0  0  0  0  0  0  0  0  0  0  0  # atno 17370 bound_to 10713
  157.0075  130.9941  151.3375 LP  0  0  0  0  0  0  0  0  0  0  0  0  # atno 17371 bound_to 10713
  141.1773  133.6542  156.4878 LP  0  0  0  0  0  0  0  0  0  0  0  0  # atno 17394 bound_to 11000
  140.4389  134.7033  157.4981 LP  0  0  0  0  0  0  0  0  0  0  0  0  # atno 17395 bound_to 11000

$$$$
