AV-unprocessed.smi:1857|AV-procd|sdf|7541|dock4
  -GOLD-   22720 9253D 1   1.00000     0.00000
 Structure written by MMmdl.
 45 46  0  0  0  0  0  0  0  0  1 V2000
  146.3697  138.8750  153.9521 C   0  0  0  0  0  0  0  0  0  0  0  0
  147.1718  140.0038  154.6431 C   0  0  0  0  0  0  0  0  0  0  0  0
  146.8648  141.3143  153.8918 C   0  0  0  0  0  0  0  0  0  0  0  0
  146.6424  140.0693  156.0922 C   0  0  0  0  0  0  0  0  0  0  0  0
  148.6620  139.7031  154.5887 C   0  0  0  0  0  0  0  0  0  0  0  0
  149.1761  138.6111  154.0252 N   0  0  0  0  0  0  0  0  0  0  0  0
  150.5393  138.7668  154.1333 N   0  0  0  0  0  0  0  0  0  0  0  0
  150.8360  139.8958  154.6979 N   0  0  0  0  0  0  0  0  0  0  0  0
  149.6641  140.5168  154.9892 N   0  0  0  0  0  0  0  0  0  0  0  0
  149.7143  141.8379  155.6024 C   0  0  0  0  0  0  0  0  0  0  0  0
  150.8953  141.9725  156.5702 C   0  0  0  0  0  0  0  0  0  0  0  0
  151.6176  141.0045  156.8103 O   0  0  0  0  0  0  0  0  0  0  0  0
  151.0809  143.1841  157.1175 N   0  0  0  0  0  0  0  0  0  0  0  0
  152.1480  143.5424  158.0501 C   0  0  0  0  0  0  0  0  0  0  0  0
  152.3109  142.4268  159.1067 C   0  0  0  0  0  0  0  0  0  0  0  0
  153.1252  142.8126  160.3525 C   0  0  0  0  0  0  0  0  0  0  0  0
  152.2572  143.4448  161.4550 C   0  0  0  0  0  0  0  0  0  0  0  0
  151.7816  144.8765  161.1632 C   0  0  0  0  0  0  0  0  0  0  0  0
  150.9971  145.0435  159.8496 C   0  0  0  0  0  0  0  0  0  0  0  0
  151.8984  144.9610  158.6056 C   0  0  0  0  0  0  0  0  0  0  0  0
  145.2966  139.0666  153.9886 H   0  0  0  0  0  0  0  0  0  0  0  0
  146.5429  137.9102  154.4309 H   0  0  0  0  0  0  0  0  0  0  0  0
  146.6374  138.7740  152.8994 H   0  0  0  0  0  0  0  0  0  0  0  0
  147.1839  141.2544  152.8506 H   0  0  0  0  0  0  0  0  0  0  0  0
  147.3667  142.1729  154.3347 H   0  0  0  0  0  0  0  0  0  0  0  0
  145.7960  141.5308  153.8941 H   0  0  0  0  0  0  0  0  0  0  0  0
  145.5567  140.1720  156.1097 H   0  0  0  0  0  0  0  0  0  0  0  0
  147.0313  140.9139  156.6539 H   0  0  0  0  0  0  0  0  0  0  0  0
  146.8911  139.1619  156.6437 H   0  0  0  0  0  0  0  0  0  0  0  0
  149.7973  142.5797  154.8060 H   0  0  0  0  0  0  0  0  0  0  0  0
  148.7835  142.0591  156.1171 H   0  0  0  0  0  0  0  0  0  0  0  0
  150.4389  143.9201  156.8616 H   0  0  0  0  0  0  0  0  0  0  0  0
  153.0796  143.6051  157.4843 H   0  0  0  0  0  0  0  0  0  0  0  0
  151.3334  142.0554  159.4183 H   0  0  0  0  0  0  0  0  0  0  0  0
  152.7972  141.5775  158.6249 H   0  0  0  0  0  0  0  0  0  0  0  0
  153.5655  141.9024  160.7613 H   0  0  0  0  0  0  0  0  0  0  0  0
  153.9646  143.4577  160.0905 H   0  0  0  0  0  0  0  0  0  0  0  0
  151.3949  142.8073  161.6538 H   0  0  0  0  0  0  0  0  0  0  0  0
  152.8294  143.4597  162.3832 H   0  0  0  0  0  0  0  0  0  0  0  0
  151.1472  145.1982  161.9899 H   0  0  0  0  0  0  0  0  0  0  0  0
  152.6359  145.5544  161.1699 H   0  0  0  0  0  0  0  0  0  0  0  0
  150.1720  144.3328  159.7881 H   0  0  0  0  0  0  0  0  0  0  0  0
  150.5373  146.0321  159.8650 H   0  0  0  0  0  0  0  0  0  0  0  0
  152.8564  145.4308  158.8315 H   0  0  0  0  0  0  0  0  0  0  0  0
  151.4699  145.5786  157.8148 H   0  0  0  0  0  0  0  0  0  0  0  0
  1  2  1  0  0  0  0
  1 21  1  0  0  0  0
  1 22  1  0  0  0  0
  1 23  1  0  0  0  0
  2  3  1  0  0  0  0
  2  4  1  0  0  0  0
  2  5  1  0  0  0  0
  3 24  1  0  0  0  0
  3 25  1  0  0  0  0
  3 26  1  0  0  0  0
  4 27  1  0  0  0  0
  4 28  1  0  0  0  0
  4 29  1  0  0  0  0
  5  9  1  0  0  0  0
  5  6  2  0  0  0  0
  6  7  1  0  0  0  0
  7  8  2  0  0  0  0
  8  9  1  0  0  0  0
  9 10  1  0  0  0  0
 10 11  1  0  0  0  0
 10 30  1  0  0  0  0
 10 31  1  0  0  0  0
 11 12  2  0  0  0  0
 11 13  1  0  0  0  0
 13 14  1  0  0  0  0
 13 32  1  0  0  0  0
 14 20  1  0  0  0  0
 14 15  1  0  0  0  0
 14 33  1  0  0  0  0
 15 16  1  0  0  0  0
 15 34  1  0  0  0  0
 15 35  1  0  0  0  0
 16 17  1  0  0  0  0
 16 36  1  0  0  0  0
 16 37  1  0  0  0  0
 17 18  1  0  0  0  0
 17 38  1  0  0  0  0
 17 39  1  0  0  0  0
 18 19  1  0  0  0  0
 18 40  1  0  0  0  0
 18 41  1  0  0  0  0
 19 20  1  0  0  0  0
 19 42  1  0  0  0  0
 19 43  1  0  0  0  0
 20 44  1  0  0  0  0
 20 45  1  0  0  0  0
M  END
> <s_m_source_file>
AV-unprocessed.smi

> <i_m_source_file_index>
1857

> <i_lp_mmshare_version>
43012

> <i_f3d_flags>
0

> <s_epik_input>
W0NIM11DKFtDSDNdKShbQ0gzXSljMW5ubm4xW0NIMl1DKD1PKVtOSF1bQ0hdMltDSDJdW0NIMl1bQ0gyXVtDSDJdW0NIMl1bQ0gyXTI=

> <s_epik_cmdline>
J2VwaWtfcHl0aG9uJywgJy1waCcsICc3LjAnLCAnLXRuJywgJzgnLCAnLW1hJywgJzIwMCcsICctbWV0YWxfYmluZGluZycsICctaW1hZScsICc8aW5maWxlLm1hZT4nLCAnLW9tYWUnLCAnPG91dGZpbGUubWFlPic=

> <r_lp_tautomer_probability>
1

> <r_epik_Ionization_Penalty>
4.53904e-07

> <r_epik_Ionization_Penalty_Charging>
0

> <r_epik_Ionization_Penalty_Neutral>
4.53904e-07

> <r_epik_State_Penalty>
-0

> <r_epik_Charging_Adjusted_Penalty>
0

> <i_epik_Tot_Q>
0

> <i_epik_Tot_abs_Q>
0

> <r_epik_Metal_State_Penalty>
-0

> <b_epik_Metal_Only>
0

> <s_lp_Force_Field>
OPLS_2005

> <r_lp_Energy>
25.0233

> <b_lp_Chiralities_Consistent>
1

> <s_lp_Variant>
AV-unprocessed.smi:1857-1

> <Gold.Version>
5.8.1

> <Gold.Id.Protein>
6NUR|6NUR_protein|mol2

> <Gold.PLP.Fitness>
45.3496

> <Gold.PLP.PLP>
-40.9000

> <Gold.PLP.part.hbond>
-2.2678

> <Gold.PLP.part.metal>
0.0000

> <Gold.PLP.part.buried>
-1.6078

> <Gold.PLP.part.nonpolar>
-37.2250

> <Gold.PLP.part.repulsive>
0.9533

> <Gold.PLP.ligand.clash>
0.0000

> <Gold.PLP.ligand.torsion>
0.5740

> <Gold.PLP.Chemscore.Hbond>
1.8288

> <Gold.PLP.Chemscore.CHOScore>
0.0000

> <Gold.PLP.Chemscore.Metal>
0.0000

> <Gold.Chemscore.Hbonds>
donor molecule, donor type, donor heavy atom, donor atom, acceptor molecule, acceptor atom, score
      L1  H    13    32       P1  8028  0.83
      P1  H  7989  7998       L1     8  1.00

> <Gold.PLP.Chemscore.Internal.Correction>
0.1113

> <Gold.Rescore>
     Score         DG    S(hbond)    S(metal)    S(lipo)     H(rot)  DE(clash)    DE(int)     intcor
     14.95     -19.77       1.84        0.00     103.59       1.55       0.97       3.85       ----

> <Gold.Chemscore.Fitness>
14.9486

> <Gold.Chemscore.DG>
-19.7671

> <Gold.Chemscore.ZeroCoef>
-5.4800

> <Gold.Chemscore.Hbond>
1.8385

> <Gold.Chemscore.Metal>
0.0000

> <Gold.Chemscore.Lipo>
103.5852

> <Gold.Chemscore.Internal_Hbond>
0.0000

> <Gold.Chemscore.DEClash>
0.9671

> <Gold.Chemscore.DEInternal>
3.8514

> <Gold.Chemscore.Rot>
1.5520

> <Gold.Chemscore.Internal.Correction>
   9.000000E+99

> <Gold.Chemscore.Hbonds>
donor molecule, donor type, donor heavy atom, donor atom, acceptor molecule, acceptor atom, score
      L1  H    13    32       P1  8028  0.78
      P1  H  7989  7998       L1     8  0.36

> <Gold.Chemscore.Hbond.Weighted>
-6.1407

> <Gold.Chemscore.Metal.Weighted>
-0.0000

> <Gold.Chemscore.Lipo.Weighted>
-12.1195

> <Gold.Chemscore.Internal_Hbond.Weighted>
0.0000

> <Gold.Chemscore.DEClash.Weighted>
0.9671

> <Gold.Chemscore.DEInternal.Weighted>
3.8514

> <Gold.Chemscore.Rot.Weighted>
3.9731

> <Gold.Chemscore.Internal.Correction.Weighted>
   9.000000E+99

> <Gold.Protein.RotatedTorsions>
[ 6907 6896 6895 6894 ] final  114.11 input  -60.11 | X-H torsion
[ 7974 7965 7964 7962 ] final  -50.10 input  175.53 | X-H torsion
[ 8008 7997 7996 7995 ] final  -65.74 input   59.86 | X-H torsion
[ 10167 10162 10161 10158 ] final  175.80 input  -65.29 | X-H torsion
[ 10718 10713 10712 10709 ] final   -3.06 input   66.30 | X-H torsion
[ 10763 10752 10751 10750 ] final -170.48 input  -60.55 | X-H torsion
[ 11005 11000 10999 10996 ] final   65.12 input  -57.11 | X-H torsion

> <Gold.Protein.ActiveResidues>
 VAL166  LYS551  ARG553  GLY616  TRP617  ASP618  TYR619  PRO620  LYS621  CYS622 
 ASP623  PHE694  ASN695  SER759  ASP760  ASP761  ALA762  ILE779  LEU786  VAL792 
 PHE793  MET794  SER795  GLU796  ALA797  LYS798  CYS799  TRP800  GLU811  SER814 

> <Gold.Protein.RotatedAtoms>
  152.4822  133.8282  159.7089 H   0  0  0  0  0  0  0  0  0  0  0  0  # atno 6907 bound_to 6896
  150.8880  133.7272  159.2919 H   0  0  0  0  0  0  0  0  0  0  0  0  # atno 6908 bound_to 6896
  151.4754  135.1052  159.9815 H   0  0  0  0  0  0  0  0  0  0  0  0  # atno 6909 bound_to 6896
  145.9334  140.7728  142.9588 H   0  0  0  0  0  0  0  0  0  0  0  0  # atno 7974 bound_to 7965
  154.4690  140.0927  156.7096 H   0  0  0  0  0  0  0  0  0  0  0  0  # atno 8008 bound_to 7997
  155.4776  140.3466  155.4316 H   0  0  0  0  0  0  0  0  0  0  0  0  # atno 8009 bound_to 7997
  156.1007  140.1421  156.9460 H   0  0  0  0  0  0  0  0  0  0  0  0  # atno 8010 bound_to 7997
  139.5190  144.2989  152.0396 H   0  0  0  0  0  0  0  0  0  0  0  0  # atno 10167 bound_to 10162
  156.7816  130.5332  149.5750 H   0  0  0  0  0  0  0  0  0  0  0  0  # atno 10718 bound_to 10713
  154.6410  135.2898  155.0104 H   0  0  0  0  0  0  0  0  0  0  0  0  # atno 10763 bound_to 10752
  154.1230  135.6545  153.4910 H   0  0  0  0  0  0  0  0  0  0  0  0  # atno 10764 bound_to 10752
  153.0326  135.5292  154.7277 H   0  0  0  0  0  0  0  0  0  0  0  0  # atno 10765 bound_to 10752
  139.9915  134.6584  156.0083 H   0  0  0  0  0  0  0  0  0  0  0  0  # atno 11005 bound_to 11000
  144.6768  140.2164  143.7371 LP  0  0  0  0  0  0  0  0  0  0  0  0  # atno 17320 bound_to 7965
  145.8396  139.2123  143.1835 LP  0  0  0  0  0  0  0  0  0  0  0  0  # atno 17321 bound_to 7965
  140.2438  144.4242  150.6249 LP  0  0  0  0  0  0  0  0  0  0  0  0  # atno 17342 bound_to 10162
  140.6272  143.2183  151.6571 LP  0  0  0  0  0  0  0  0  0  0  0  0  # atno 17343 bound_to 10162
  156.1214  130.6113  151.0199 LP  0  0  0  0  0  0  0  0  0  0  0  0  # atno 17370 bound_to 10713
  157.6643  131.0874  150.7764 LP  0  0  0  0  0  0  0  0  0  0  0  0  # atno 17371 bound_to 10713
  141.1569  133.6542  156.4192 LP  0  0  0  0  0  0  0  0  0  0  0  0  # atno 17394 bound_to 11000
  140.4900  134.6584  157.5207 LP  0  0  0  0  0  0  0  0  0  0  0  0  # atno 17395 bound_to 11000

$$$$
