AV-unprocessed.smi:109|AV-procd|sdf|1054|dock2
  -GOLD-   2262018113D 1   1.00000     0.00000
 Structure written by MMmdl.
 58 61  0  0  0  0  0  0  0  0  1 V2000
  156.2291  139.9124  159.0077 O   0  0  0  0  0  0  0  0  0  0  0  0
  155.8491  140.4813  160.2419 C   0  0  0  0  0  0  0  0  0  0  0  0
  154.3394  140.2951  160.4598 C   0  0  0  0  0  0  0  0  0  0  0  0
  153.4737  140.8319  159.2988 C   0  0  1  0  0  0  0  0  0  0  0  0
  152.6201  139.7783  158.7465 N   0  0  0  0  0  0  0  0  0  0  0  0
  152.1212  139.8323  157.4915 C   0  0  0  0  0  0  0  0  0  0  0  0
  152.7648  139.2554  156.4435 N   0  0  0  0  0  0  0  0  0  0  0  0
  152.2437  139.3286  155.2154 C   0  0  0  0  0  0  0  0  0  0  0  0
  151.1129  139.9191  154.8234 N   0  0  0  0  0  0  0  0  0  0  0  0
  150.4617  140.5011  155.8718 C   0  0  0  0  0  0  0  0  0  0  0  0
  150.8982  140.5005  157.2258 C   0  0  0  0  0  0  0  0  0  0  0  0
  149.9857  141.1885  158.0150 N   0  0  0  0  0  0  0  0  0  0  0  0
  149.0672  141.5754  157.1709 C   0  0  0  0  0  0  0  0  0  0  0  0
  149.2734  141.2027  155.8612 N   0  0  0  0  0  0  0  0  0  0  0  0
  148.4074  141.5016  154.6819 C   0  0  1  0  0  0  0  0  0  0  0  0
  148.3390  140.3558  153.8955 O   0  0  0  0  0  0  0  0  0  0  0  0
  147.0604  140.3010  153.2804 C   0  0  1  0  0  0  0  0  0  0  0  0
  146.7547  138.8848  152.7610 C   0  0  0  0  0  0  0  0  0  0  0  0
  145.6332  138.9137  151.9042 O   0  0  0  0  0  0  0  0  0  0  0  0
  146.1254  140.8223  154.3826 C   0  0  1  0  0  0  0  0  0  0  0  0
  145.7378  139.7849  155.2642 O   0  0  0  0  0  0  0  0  0  0  0  0
  146.9747  141.8590  155.1166 C   0  0  2  0  0  0  0  0  0  0  0  0
  146.6193  143.1543  154.6755 O   0  0  0  0  0  0  0  0  0  0  0  0
  152.6273  142.0629  159.7104 C   0  0  0  0  0  0  0  0  0  0  0  0
  152.4376  143.1043  158.5815 C   0  0  0  0  0  0  0  0  0  0  0  0
  151.5660  144.2855  159.0397 C   0  0  0  0  0  0  0  0  0  0  0  0
  152.1379  144.9463  160.3030 C   0  0  0  0  0  0  0  0  0  0  0  0
  152.3122  143.9195  161.4318 C   0  0  0  0  0  0  0  0  0  0  0  0
  153.1892  142.7410  160.9802 C   0  0  0  0  0  0  0  0  0  0  0  0
  148.9187  142.3028  154.1457 H   0  0  0  0  0  0  0  0  0  0  0  0
  147.0437  141.0159  152.4548 H   0  0  0  0  0  0  0  0  0  0  0  0
  145.2140  141.2483  153.9601 H   0  0  0  0  0  0  0  0  0  0  0  0
  146.8593  141.8029  156.2008 H   0  0  0  0  0  0  0  0  0  0  0  0
  156.3492  138.9831  159.1306 H   0  0  0  0  0  0  0  0  0  0  0  0
  156.4157  140.0045  161.0422 H   0  0  0  0  0  0  0  0  0  0  0  0
  156.1155  141.5383  160.2350 H   0  0  0  0  0  0  0  0  0  0  0  0
  154.1257  139.2395  160.6314 H   0  0  0  0  0  0  0  0  0  0  0  0
  154.0616  140.8148  161.3777 H   0  0  0  0  0  0  0  0  0  0  0  0
  154.1611  141.1964  158.5360 H   0  0  0  0  0  0  0  0  0  0  0  0
  152.4108  139.0195  159.3791 H   0  0  0  0  0  0  0  0  0  0  0  0
  152.8148  138.8462  154.4359 H   0  0  0  0  0  0  0  0  0  0  0  0
  148.2063  142.1478  157.4842 H   0  0  0  0  0  0  0  0  0  0  0  0
  147.6142  138.4563  152.2441 H   0  0  0  0  0  0  0  0  0  0  0  0
  146.5112  138.2241  153.5934 H   0  0  0  0  0  0  0  0  0  0  0  0
  145.0747  139.6302  152.1649 H   0  0  0  0  0  0  0  0  0  0  0  0
  144.8321  139.9188  155.5024 H   0  0  0  0  0  0  0  0  0  0  0  0
  147.3929  143.6974  154.6855 H   0  0  0  0  0  0  0  0  0  0  0  0
  151.6359  141.6906  159.9731 H   0  0  0  0  0  0  0  0  0  0  0  0
  153.4055  143.4839  158.2522 H   0  0  0  0  0  0  0  0  0  0  0  0
  151.9748  142.6416  157.7100 H   0  0  0  0  0  0  0  0  0  0  0  0
  151.4882  145.0217  158.2392 H   0  0  0  0  0  0  0  0  0  0  0  0
  150.5518  143.9362  159.2371 H   0  0  0  0  0  0  0  0  0  0  0  0
  153.1009  145.4043  160.0733 H   0  0  0  0  0  0  0  0  0  0  0  0
  151.4816  145.7527  160.6312 H   0  0  0  0  0  0  0  0  0  0  0  0
  152.7556  144.3990  162.3049 H   0  0  0  0  0  0  0  0  0  0  0  0
  151.3349  143.5498  161.7447 H   0  0  0  0  0  0  0  0  0  0  0  0
  153.2637  142.0138  161.7895 H   0  0  0  0  0  0  0  0  0  0  0  0
  154.2030  143.0997  160.7966 H   0  0  0  0  0  0  0  0  0  0  0  0
  1  2  1  0  0  0  0
  1 34  1  0  0  0  0
  2  3  1  0  0  0  0
  2 35  1  0  0  0  0
  2 36  1  0  0  0  0
  3  4  1  0  0  0  0
  3 37  1  0  0  0  0
  3 38  1  0  0  0  0
  4  5  1  0  0  0  0
  4 24  1  0  0  0  0
  4 39  1  0  0  0  0
  5  6  1  0  0  0  0
  5 40  1  0  0  0  0
  6 11  1  0  0  0  0
  6  7  2  0  0  0  0
  7  8  1  0  0  0  0
  8  9  2  0  0  0  0
  8 41  1  0  0  0  0
  9 10  1  0  0  0  0
 10 14  1  0  0  0  0
 10 11  2  0  0  0  0
 11 12  1  0  0  0  0
 12 13  2  0  0  0  0
 13 14  1  0  0  0  0
 13 42  1  0  0  0  0
 14 15  1  0  0  0  0
 15 30  1  0  0  0  0
 15 22  1  0  0  0  0
 15 16  1  0  0  0  0
 16 17  1  0  0  0  0
 17 31  1  0  0  0  0
 17 18  1  0  0  0  0
 17 20  1  0  0  0  0
 18 19  1  0  0  0  0
 18 43  1  0  0  0  0
 18 44  1  0  0  0  0
 19 45  1  0  0  0  0
 20 32  1  0  0  0  0
 20 21  1  0  0  0  0
 20 22  1  0  0  0  0
 21 46  1  0  0  0  0
 22 33  1  0  0  0  0
 22 23  1  0  0  0  0
 23 47  1  0  0  0  0
 24 29  1  0  0  0  0
 24 25  1  0  0  0  0
 24 48  1  0  0  0  0
 25 26  1  0  0  0  0
 25 49  1  0  0  0  0
 25 50  1  0  0  0  0
 26 27  1  0  0  0  0
 26 51  1  0  0  0  0
 26 52  1  0  0  0  0
 27 28  1  0  0  0  0
 27 53  1  0  0  0  0
 27 54  1  0  0  0  0
 28 29  1  0  0  0  0
 28 55  1  0  0  0  0
 28 56  1  0  0  0  0
 29 57  1  0  0  0  0
 29 58  1  0  0  0  0
M  END
> <s_m_source_file>
AV-unprocessed.smi

> <i_m_source_file_index>
109

> <i_lp_mmshare_version>
43012

> <i_f3d_flags>
0

> <s_epik_input>
W0NIMl0xW0NIMl1bQ0gyXVtDSDJdW0NIMl1bQ0hdMVtDQEhdKFtDSDJdW0NIMl1bT0hdKVtOSF1jKG5bY0hdbjIpYyhjMjMpbltjSF1uM1tDQEBIXTRPW0NASF0oW0NIMl1bT0hdKVtDQEBIXShbT0hdKVtDQEhdNFtPSF0=

> <s_epik_cmdline>
J2VwaWtfcHl0aG9uJywgJy1waCcsICc3LjAnLCAnLXRuJywgJzgnLCAnLW1hJywgJzIwMCcsICctbWV0YWxfYmluZGluZycsICctaW1hZScsICc8aW5maWxlLm1hZT4nLCAnLW9tYWUnLCAnPG91dGZpbGUubWFlPic=

> <r_lp_tautomer_probability>
1

> <r_epik_Ionization_Penalty>
0.000793976

> <r_epik_Ionization_Penalty_Charging>
0

> <r_epik_Ionization_Penalty_Neutral>
0.000793976

> <r_epik_State_Penalty>
-0

> <r_epik_Charging_Adjusted_Penalty>
0

> <i_epik_Tot_Q>
0

> <i_epik_Tot_abs_Q>
0

> <r_epik_Metal_State_Penalty>
-0

> <b_epik_Metal_Only>
0

> <s_epik_Chemistry_Notes>
This compound contains an acetal/aminal-like group ( X-CH(R)-Y where X, Y are N, S, or O) that may be acid/base labile, releasing an aldehyde.

> <s_lp_Force_Field>
OPLS_2005

> <r_lp_Energy>
50.1139

> <b_lp_Chiralities_Consistent>
1

> <s_lp_Variant>
AV-unprocessed.smi:109-24

> <Gold.Version>
5.8.1

> <Gold.Id.Protein>
6NUR|6NUR_protein|mol2

> <Gold.PLP.Fitness>
66.8468

> <Gold.PLP.PLP>
-58.7186

> <Gold.PLP.part.hbond>
-6.3584

> <Gold.PLP.part.metal>
0.0000

> <Gold.PLP.part.buried>
-5.8265

> <Gold.PLP.part.nonpolar>
-48.5214

> <Gold.PLP.part.repulsive>
1.8128

> <Gold.PLP.ligand.clash>
0.0000

> <Gold.PLP.ligand.torsion>
3.3435

> <Gold.PLP.Chemscore.Hbond>
4.8296

> <Gold.PLP.Chemscore.CHOScore>
0.0000

> <Gold.PLP.Chemscore.Metal>
0.0000

> <Gold.Chemscore.Hbonds>
donor molecule, donor type, donor heavy atom, donor atom, acceptor molecule, acceptor atom, score
      L1  H    19    45       P1 10175  1.00
      L1  H    23    47       P1  8028  0.65
      P1  H  7989  7998       L1     9  1.00
      P1  H  7997  8008       L1     1  1.00
      P1  H  7997  8009       L1     7  1.00

> <Gold.PLP.Chemscore.Internal.Correction>
0.3263

> <Gold.Rescore>
     Score         DG    S(hbond)    S(metal)    S(lipo)     H(rot)  DE(clash)    DE(int)     intcor
      9.40     -14.44       2.60        0.00     122.01       5.47       0.46       4.58       ----

> <Gold.Chemscore.Fitness>
9.4008

> <Gold.Chemscore.DG>
-14.4404

> <Gold.Chemscore.ZeroCoef>
-5.4800

> <Gold.Chemscore.Hbond>
2.5983

> <Gold.Chemscore.Metal>
0.0000

> <Gold.Chemscore.Lipo>
122.0140

> <Gold.Chemscore.Internal_Hbond>
0.0000

> <Gold.Chemscore.DEClash>
0.4600

> <Gold.Chemscore.DEInternal>
4.5796

> <Gold.Chemscore.Rot>
5.4662

> <Gold.Chemscore.Internal.Correction>
   9.000000E+99

> <Gold.Chemscore.Hbonds>
donor molecule, donor type, donor heavy atom, donor atom, acceptor molecule, acceptor atom, score
      L1  H    19    45       P1 10175  0.97
      L1  H    23    47       P1  8028  0.05
      P1  H  7989  7998       L1     9  0.34
      P1  H  7997  8008       L1     1  0.44
      P1  H  7997  8009       L1     7  0.25

> <Gold.Chemscore.Hbond.Weighted>
-8.6783

> <Gold.Chemscore.Metal.Weighted>
-0.0000

> <Gold.Chemscore.Lipo.Weighted>
-14.2756

> <Gold.Chemscore.Internal_Hbond.Weighted>
0.0000

> <Gold.Chemscore.DEClash.Weighted>
0.4600

> <Gold.Chemscore.DEInternal.Weighted>
4.5796

> <Gold.Chemscore.Rot.Weighted>
13.9935

> <Gold.Chemscore.Internal.Correction.Weighted>
   9.000000E+99

> <Gold.Protein.RotatedTorsions>
[ 6907 6896 6895 6894 ] final -108.68 input  -60.11 | X-H torsion
[ 7974 7965 7964 7962 ] final -165.20 input  175.53 | X-H torsion
[ 8008 7997 7996 7995 ] final -161.12 input   59.86 | X-H torsion
[ 10167 10162 10161 10158 ] final  145.90 input  -65.29 | X-H torsion
[ 10718 10713 10712 10709 ] final   71.57 input   66.30 | X-H torsion
[ 10763 10752 10751 10750 ] final  143.27 input  -60.55 | X-H torsion
[ 11005 11000 10999 10996 ] final  141.66 input  -57.11 | X-H torsion

> <Gold.Protein.ActiveResidues>
 VAL166  LYS551  ARG553  GLY616  TRP617  ASP618  TYR619  PRO620  LYS621  CYS622 
 ASP623  PHE694  ASN695  SER759  ASP760  ASP761  ALA762  ILE779  LEU786  VAL792 
 PHE793  MET794  SER795  GLU796  ALA797  LYS798  CYS799  TRP800  GLU811  SER814 

> <Gold.Protein.RotatedAtoms>
  150.7516  133.9641  159.3524 H   0  0  0  0  0  0  0  0  0  0  0  0  # atno 6907 bound_to 6896
  151.7569  135.0817  160.0349 H   0  0  0  0  0  0  0  0  0  0  0  0  # atno 6908 bound_to 6896
  152.3429  133.6051  159.5925 H   0  0  0  0  0  0  0  0  0  0  0  0  # atno 6909 bound_to 6896
  144.7276  140.2848  143.6230 H   0  0  0  0  0  0  0  0  0  0  0  0  # atno 7974 bound_to 7965
  155.7876  140.0873  157.2026 H   0  0  0  0  0  0  0  0  0  0  0  0  # atno 8008 bound_to 7997
  154.3987  140.1496  156.3183 H   0  0  0  0  0  0  0  0  0  0  0  0  # atno 8009 bound_to 7997
  155.8591  140.3431  155.5747 H   0  0  0  0  0  0  0  0  0  0  0  0  # atno 8010 bound_to 7997
  139.4917  144.5869  151.6760 H   0  0  0  0  0  0  0  0  0  0  0  0  # atno 10167 bound_to 10162
  157.6458  130.9535  150.0807 H   0  0  0  0  0  0  0  0  0  0  0  0  # atno 10718 bound_to 10713
  153.9696  135.2952  155.3428 H   0  0  0  0  0  0  0  0  0  0  0  0  # atno 10763 bound_to 10752
  154.7329  135.5059  153.8997 H   0  0  0  0  0  0  0  0  0  0  0  0  # atno 10764 bound_to 10752
  153.0906  135.6706  153.9973 H   0  0  0  0  0  0  0  0  0  0  0  0  # atno 10765 bound_to 10752
  140.0418  134.9301  157.0857 H   0  0  0  0  0  0  0  0  0  0  0  0  # atno 11005 bound_to 11000
  145.7913  139.1928  143.2101 LP  0  0  0  0  0  0  0  0  0  0  0  0  # atno 17320 bound_to 7965
  146.0753  140.7824  142.9668 LP  0  0  0  0  0  0  0  0  0  0  0  0  # atno 17321 bound_to 7965
  140.5487  144.0461  150.6118 LP  0  0  0  0  0  0  0  0  0  0  0  0  # atno 17342 bound_to 10162
  140.3508  143.2964  152.0489 LP  0  0  0  0  0  0  0  0  0  0  0  0  # atno 17343 bound_to 10162
  156.1784  130.3649  149.9068 LP  0  0  0  0  0  0  0  0  0  0  0  0  # atno 17370 bound_to 10713
  156.7027  130.8939  151.3601 LP  0  0  0  0  0  0  0  0  0  0  0  0  # atno 17371 bound_to 10713
  140.4057  134.2035  155.7163 LP  0  0  0  0  0  0  0  0  0  0  0  0  # atno 17394 bound_to 11000
  141.1887  133.8255  157.0985 LP  0  0  0  0  0  0  0  0  0  0  0  0  # atno 17395 bound_to 11000

$$$$
