AV-unprocessed.smi:3329|AV-procd|sdf|12796|dock5
  -GOLD-   2272019153D 1   1.00000     0.00000
 Structure written by MMmdl.
 42 43  0  0  0  0  0  0  0  0  2 V2000
  153.0395  143.1831  163.3275 C   0  0  0  0  0  0  0  0  0  0  0  0
  153.0299  142.9272  161.8479 C   0  0  0  0  0  0  0  0  0  0  0  0
  153.5111  141.7781  161.1586 C   0  0  0  0  0  0  0  0  0  0  0  0
  153.3559  141.8638  159.8474 N   0  0  0  0  0  0  0  0  0  0  0  0
  152.7684  143.0637  159.6530 N   0  0  0  0  0  0  0  0  0  0  0  0
  152.4541  143.5088  158.3058 C   0  0  0  0  0  0  0  0  0  0  0  0
  150.9867  143.9434  158.1492 C   0  0  0  0  0  0  0  0  0  0  0  0
  150.2808  143.1053  157.1603 N   0  3  0  0  0  0  0  0  0  0  0  0
  149.6032  141.9266  157.7361 C   0  0  0  0  0  0  0  0  0  0  0  0
  148.8431  141.1291  156.6754 C   0  0  0  0  0  0  0  0  0  0  0  0
  148.9759  139.9076  156.6032 O   0  0  0  0  0  0  0  0  0  0  0  0
  148.0469  141.8449  155.8625 N   0  0  0  0  0  0  0  0  0  0  0  0
  147.1954  141.3663  154.7643 C   0  0  2  0  0  0  0  0  0  0  0  0
  146.6069  142.6239  154.1038 C   0  0  0  0  0  0  0  0  0  0  0  0
  146.0681  140.5531  155.2614 C   0  0  0  0  0  0  0  0  0  0  0  0
  145.1844  139.9164  155.6530 N   0  0  0  0  0  0  0  0  0  0  0  0
  147.9163  140.5479  153.6903 C   0  0  0  0  0  0  0  0  0  0  0  0
  147.2370  139.5367  152.7927 C   0  0  0  0  0  0  0  0  0  0  0  0
  148.2071  139.0733  153.8568 C   0  0  0  0  0  0  0  0  0  0  0  0
  152.5713  143.7317  160.8432 C   0  0  0  0  0  0  0  0  0  0  0  0
  154.0213  143.5080  163.6720 H   0  0  0  0  0  0  0  0  0  0  0  0
  152.7803  142.2876  163.8927 H   0  0  0  0  0  0  0  0  0  0  0  0
  152.3265  143.9578  163.6103 H   0  0  0  0  0  0  0  0  0  0  0  0
  153.9665  140.8894  161.5704 H   0  0  0  0  0  0  0  0  0  0  0  0
  153.1202  144.3326  158.0450 H   0  0  0  0  0  0  0  0  0  0  0  0
  152.6788  142.6935  157.6170 H   0  0  0  0  0  0  0  0  0  0  0  0
  150.4761  143.8656  159.1097 H   0  0  0  0  0  0  0  0  0  0  0  0
  150.9315  144.9900  157.8468 H   0  0  0  0  0  0  0  0  0  0  0  0
  149.5851  143.6747  156.6995 H   0  0  0  0  0  0  0  0  0  0  0  0
  150.3406  141.2754  158.2071 H   0  0  0  0  0  0  0  0  0  0  0  0
  148.9085  142.2539  158.5113 H   0  0  0  0  0  0  0  0  0  0  0  0
  148.0214  142.8419  156.0204 H   0  0  0  0  0  0  0  0  0  0  0  0
  145.9272  142.3641  153.2911 H   0  0  0  0  0  0  0  0  0  0  0  0
  147.3899  143.2588  153.6865 H   0  0  0  0  0  0  0  0  0  0  0  0
  146.0417  143.2219  154.8203 H   0  0  0  0  0  0  0  0  0  0  0  0
  148.7026  141.1184  153.1984 H   0  0  0  0  0  0  0  0  0  0  0  0
  146.1869  139.3071  152.9477 H   0  0  0  0  0  0  0  0  0  0  0  0
  147.5695  139.4868  151.7579 H   0  0  0  0  0  0  0  0  0  0  0  0
  149.1807  138.7156  153.5280 H   0  0  0  0  0  0  0  0  0  0  0  0
  147.7927  138.5591  154.7213 H   0  0  0  0  0  0  0  0  0  0  0  0
  152.1225  144.7136  160.8783 H   0  0  0  0  0  0  0  0  0  0  0  0
  150.9437  142.7871  156.4675 H   0  0  0  0  0  0  0  0  0  0  0  0
  1  2  1  0  0  0  0
  1 21  1  0  0  0  0
  1 22  1  0  0  0  0
  1 23  1  0  0  0  0
  2 20  2  0  0  0  0
  2  3  1  0  0  0  0
  3  4  2  0  0  0  0
  3 24  1  0  0  0  0
  4  5  1  0  0  0  0
  5  6  1  0  0  0  0
  5 20  1  0  0  0  0
  6  7  1  0  0  0  0
  6 25  1  0  0  0  0
  6 26  1  0  0  0  0
  7  8  1  0  0  0  0
  7 27  1  0  0  0  0
  7 28  1  0  0  0  0
  8  9  1  0  0  0  0
  8 29  1  0  0  0  0
  8 42  1  0  0  0  0
  9 10  1  0  0  0  0
  9 30  1  0  0  0  0
  9 31  1  0  0  0  0
 10 11  2  0  0  0  0
 10 12  1  0  0  0  0
 12 13  1  0  0  0  0
 12 32  1  0  0  0  0
 13 14  1  0  0  0  0
 13 15  1  0  0  0  0
 13 17  1  0  0  0  0
 14 33  1  0  0  0  0
 14 34  1  0  0  0  0
 14 35  1  0  0  0  0
 15 16  3  0  0  0  0
 17 19  1  0  0  0  0
 17 18  1  0  0  0  0
 17 36  1  0  0  0  0
 18 19  1  0  0  0  0
 18 37  1  0  0  0  0
 18 38  1  0  0  0  0
 19 39  1  0  0  0  0
 19 40  1  0  0  0  0
 20 41  1  0  0  0  0
M  CHG  1   8   1
M  END
> <s_m_source_file>
AV-unprocessed.smi

> <i_m_source_file_index>
3329

> <i_lp_mmshare_version>
43012

> <i_f3d_flags>
0

> <s_epik_input>
W0NIM11jMVtjSF1ubihbY0hdMSlbQ0gyXVtDSDJdW05IXVtDSDJdQyg9TylbTkhdW0NAQF0oW0NIM10pKEMjTilbQ0hdMltDSDJdW0NIMl0y

> <s_epik_cmdline>
J2VwaWtfcHl0aG9uJywgJy1waCcsICc3LjAnLCAnLXRuJywgJzgnLCAnLW1hJywgJzIwMCcsICctbWV0YWxfYmluZGluZycsICctaW1hZScsICc8aW5maWxlLm1hZT4nLCAnLW9tYWUnLCAnPG91dGZpbGUubWFlPic=

> <r_lp_tautomer_probability>
1

> <r_epik_Ionization_Penalty>
0.350291

> <r_epik_Ionization_Penalty_Charging>
0.350239

> <r_epik_Ionization_Penalty_Neutral>
5.12768e-05

> <r_epik_State_Penalty>
0.347656

> <r_epik_Charging_Adjusted_Penalty>
0.697895

> <i_epik_Tot_Q>
1

> <i_epik_Tot_abs_Q>
1

> <r_epik_Metal_State_Penalty>
0.371739

> <b_epik_Metal_Only>
0

> <s_lp_Force_Field>
OPLS_2005

> <r_lp_Energy>
13.221

> <b_lp_Chiralities_Consistent>
1

> <s_lp_Variant>
AV-unprocessed.smi:3329-2

> <Gold.Version>
5.8.1

> <Gold.Id.Protein>
6NUR|6NUR_protein|mol2

> <Gold.PLP.Fitness>
49.4398

> <Gold.PLP.PLP>
-42.2950

> <Gold.PLP.part.hbond>
-1.9514

> <Gold.PLP.part.metal>
0.0000

> <Gold.PLP.part.buried>
-3.4922

> <Gold.PLP.part.nonpolar>
-36.8272

> <Gold.PLP.part.repulsive>
0.1421

> <Gold.PLP.ligand.clash>
0.0000

> <Gold.PLP.ligand.torsion>
1.5449

> <Gold.PLP.Chemscore.Hbond>
2.8960

> <Gold.PLP.Chemscore.CHOScore>
0.0000

> <Gold.PLP.Chemscore.Metal>
0.0000

> <Gold.Chemscore.Hbonds>
donor molecule, donor type, donor heavy atom, donor atom, acceptor molecule, acceptor atom, score
      L1  H     8    29       P1  8028  2.00
      L1  H    12    32       P1  8028  0.86

> <Gold.PLP.Chemscore.Internal.Correction>
1.5466

> <Gold.Rescore>
     Score         DG    S(hbond)    S(metal)    S(lipo)     H(rot)  DE(clash)    DE(int)     intcor
     14.82     -18.19       1.84        0.00     108.64       2.40       0.59       2.78       ----

> <Gold.Chemscore.Fitness>
14.8236

> <Gold.Chemscore.DG>
-18.1901

> <Gold.Chemscore.ZeroCoef>
-5.4800

> <Gold.Chemscore.Hbond>
1.8371

> <Gold.Chemscore.Metal>
0.0000

> <Gold.Chemscore.Lipo>
108.6414

> <Gold.Chemscore.Internal_Hbond>
0.0000

> <Gold.Chemscore.DEClash>
0.5876

> <Gold.Chemscore.DEInternal>
2.7788

> <Gold.Chemscore.Rot>
2.3972

> <Gold.Chemscore.Internal.Correction>
   9.000000E+99

> <Gold.Chemscore.Hbonds>
donor molecule, donor type, donor heavy atom, donor atom, acceptor molecule, acceptor atom, score
      L1  H     8    29       P1  8028  0.98
      L1  H    12    32       P1  8028  0.56

> <Gold.Chemscore.Hbond.Weighted>
-6.1359

> <Gold.Chemscore.Metal.Weighted>
-0.0000

> <Gold.Chemscore.Lipo.Weighted>
-12.7110

> <Gold.Chemscore.Internal_Hbond.Weighted>
0.0000

> <Gold.Chemscore.DEClash.Weighted>
0.5876

> <Gold.Chemscore.DEInternal.Weighted>
2.7788

> <Gold.Chemscore.Rot.Weighted>
6.1369

> <Gold.Chemscore.Internal.Correction.Weighted>
   9.000000E+99

> <Gold.Protein.RotatedTorsions>
[ 6907 6896 6895 6894 ] final   31.97 input  -60.11 | X-H torsion
[ 7974 7965 7964 7962 ] final -151.47 input  175.53 | X-H torsion
[ 8008 7997 7996 7995 ] final  124.62 input   59.86 | X-H torsion
[ 10167 10162 10161 10158 ] final  178.73 input  -65.29 | X-H torsion
[ 10718 10713 10712 10709 ] final   73.58 input   66.30 | X-H torsion
[ 10763 10752 10751 10750 ] final   89.77 input  -60.55 | X-H torsion
[ 11005 11000 10999 10996 ] final  -51.98 input  -57.11 | X-H torsion

> <Gold.Protein.ActiveResidues>
 VAL166  LYS551  ARG553  GLY616  TRP617  ASP618  TYR619  PRO620  LYS621  CYS622 
 ASP623  PHE694  ASN695  SER759  ASP760  ASP761  ALA762  ILE779  LEU786  VAL792 
 PHE793  MET794  SER795  GLU796  ALA797  LYS798  CYS799  TRP800  GLU811  SER814 

> <Gold.Protein.RotatedAtoms>
  152.0679  134.9552  160.0574 H   0  0  0  0  0  0  0  0  0  0  0  0  # atno 6907 bound_to 6896
  152.0890  133.4186  159.4543 H   0  0  0  0  0  0  0  0  0  0  0  0  # atno 6908 bound_to 6896
  150.6836  134.2813  159.4672 H   0  0  0  0  0  0  0  0  0  0  0  0  # atno 6909 bound_to 6896
  144.7848  140.4793  143.5814 H   0  0  0  0  0  0  0  0  0  0  0  0  # atno 7974 bound_to 7965
  156.2807  140.2735  156.1817 H   0  0  0  0  0  0  0  0  0  0  0  0  # atno 8008 bound_to 7997
  155.0550  140.0386  157.2575 H   0  0  0  0  0  0  0  0  0  0  0  0  # atno 8009 bound_to 7997
  154.7164  140.2679  155.6587 H   0  0  0  0  0  0  0  0  0  0  0  0  # atno 8010 bound_to 7997
  139.5306  144.2645  152.0679 H   0  0  0  0  0  0  0  0  0  0  0  0  # atno 10167 bound_to 10162
  157.6554  130.9635  150.1089 H   0  0  0  0  0  0  0  0  0  0  0  0  # atno 10718 bound_to 10713
  153.1905  135.4458  155.0143 H   0  0  0  0  0  0  0  0  0  0  0  0  # atno 10763 bound_to 10752
  154.8087  135.3285  154.7365 H   0  0  0  0  0  0  0  0  0  0  0  0  # atno 10764 bound_to 10752
  153.7819  135.6977  153.4942 H   0  0  0  0  0  0  0  0  0  0  0  0  # atno 10765 bound_to 10752
  141.0900  133.6634  156.3956 H   0  0  0  0  0  0  0  0  0  0  0  0  # atno 11005 bound_to 11000
  145.5952  139.1499  143.3160 LP  0  0  0  0  0  0  0  0  0  0  0  0  # atno 17320 bound_to 7965
  146.2074  140.6076  142.9075 LP  0  0  0  0  0  0  0  0  0  0  0  0  # atno 17321 bound_to 7965
  140.2108  144.4565  150.6387 LP  0  0  0  0  0  0  0  0  0  0  0  0  # atno 17342 bound_to 10162
  140.6482  143.2218  151.6138 LP  0  0  0  0  0  0  0  0  0  0  0  0  # atno 17343 bound_to 10162
  156.1991  130.3659  149.8811 LP  0  0  0  0  0  0  0  0  0  0  0  0  # atno 17370 bound_to 10713
  156.6719  130.8823  151.3563 LP  0  0  0  0  0  0  0  0  0  0  0  0  # atno 17371 bound_to 10713
  140.5274  134.6245  157.5339 LP  0  0  0  0  0  0  0  0  0  0  0  0  # atno 17394 bound_to 11000
  139.9724  134.7271  156.0015 LP  0  0  0  0  0  0  0  0  0  0  0  0  # atno 17395 bound_to 11000

$$$$
