AV-unprocessed.smi:107|AV-procd|sdf|1013|dock7
  -GOLD-   2262018 13D 1   1.00000     0.00000
 Structure written by MMmdl.
 31 32  0  0  0  0  0  0  0  0  1 V2000
  152.9366  142.3416  159.6285 C   0  0  0  0  0  0  0  0  0  0  0  0
  152.1798  141.9887  158.3588 C   0  0  0  0  0  0  0  0  0  0  0  0
  152.1905  140.7388  157.8291 C   0  0  0  0  0  0  0  0  0  0  0  0
  151.5097  140.3849  156.6727 N   0  0  0  0  0  0  0  0  0  0  0  0
  151.5664  138.9728  156.1348 C   0  0  2  0  0  0  0  0  0  0  0  0
  151.7720  138.9735  154.6164 C   0  0  0  0  0  0  0  0  0  0  0  0
  150.8680  137.8416  154.1699 C   0  0  1  0  0  0  0  0  0  0  0  0
  151.5570  136.6059  154.2148 O   0  0  0  0  0  0  0  0  0  0  0  0
  149.7294  137.9141  155.1976 C   0  0  1  0  0  0  0  0  0  0  0  0
  148.9054  136.6334  155.4163 C   0  0  0  0  0  0  0  0  0  0  0  0
  148.1769  136.3138  154.2498 O   0  0  0  0  0  0  0  0  0  0  0  0
  150.3535  138.3331  156.4091 O   0  0  0  0  0  0  0  0  0  0  0  0
  150.7381  141.3563  156.0012 C   0  0  0  0  0  0  0  0  0  0  0  0
  150.0842  141.1132  154.9878 O   0  0  0  0  0  0  0  0  0  0  0  0
  150.7296  142.6410  156.5422 N   0  0  0  0  0  0  0  0  0  0  0  0
  151.4102  143.0436  157.6939 C   0  0  0  0  0  0  0  0  0  0  0  0
  151.3266  144.2109  158.0722 O   0  0  0  0  0  0  0  0  0  0  0  0
  150.1812  143.3403  156.0627 H   0  0  0  0  0  0  0  0  0  0  0  0
  153.4721  141.4819  160.0322 H   0  0  0  0  0  0  0  0  0  0  0  0
  152.2479  142.6972  160.3958 H   0  0  0  0  0  0  0  0  0  0  0  0
  153.6665  143.1277  159.4316 H   0  0  0  0  0  0  0  0  0  0  0  0
  152.7588  139.9782  158.3425 H   0  0  0  0  0  0  0  0  0  0  0  0
  152.3461  138.4335  156.6744 H   0  0  0  0  0  0  0  0  0  0  0  0
  151.4188  139.9170  154.1977 H   0  0  0  0  0  0  0  0  0  0  0  0
  152.8232  138.8453  154.3549 H   0  0  0  0  0  0  0  0  0  0  0  0
  150.5030  137.9928  153.1535 H   0  0  0  0  0  0  0  0  0  0  0  0
  151.4041  136.1485  153.4016 H   0  0  0  0  0  0  0  0  0  0  0  0
  149.0544  138.7176  154.8995 H   0  0  0  0  0  0  0  0  0  0  0  0
  149.5376  135.7917  155.6995 H   0  0  0  0  0  0  0  0  0  0  0  0
  148.1962  136.7842  156.2305 H   0  0  0  0  0  0  0  0  0  0  0  0
  148.7517  136.3984  153.5043 H   0  0  0  0  0  0  0  0  0  0  0  0
  1  2  1  0  0  0  0
  1 19  1  0  0  0  0
  1 20  1  0  0  0  0
  1 21  1  0  0  0  0
  2 16  1  0  0  0  0
  2  3  2  0  0  0  0
  3  4  1  0  0  0  0
  3 22  1  0  0  0  0
  4  5  1  0  0  0  0
  4 13  1  0  0  0  0
  5 12  1  0  0  0  0
  5  6  1  0  0  0  0
  5 23  1  0  0  0  0
  6  7  1  0  0  0  0
  6 24  1  0  0  0  0
  6 25  1  0  0  0  0
  7  8  1  0  0  0  0
  7  9  1  0  0  0  0
  7 26  1  0  0  0  0
  8 27  1  0  0  0  0
  9 10  1  0  0  0  0
  9 12  1  0  0  0  0
  9 28  1  0  0  0  0
 10 11  1  0  0  0  0
 10 29  1  0  0  0  0
 10 30  1  0  0  0  0
 11 31  1  0  0  0  0
 13 14  2  0  0  0  0
 13 15  1  0  0  0  0
 15 18  1  0  0  0  0
 15 16  1  0  0  0  0
 16 17  2  0  0  0  0
M  END
> <s_m_source_file>
AV-unprocessed.smi

> <i_m_source_file_index>
107

> <i_lp_mmshare_version>
43012

> <i_f3d_flags>
0

> <s_epik_input>
Tz1jMVtuSF1jKD1PKW4oW2NIXWMxW0NIM10pW0NAQEhdMltDSDJdW0NAQEhdKFtPSF0pW0NASF0oTzIpW0NIMl1bT0hd

> <s_epik_cmdline>
J2VwaWtfcHl0aG9uJywgJy1waCcsICc3LjAnLCAnLXRuJywgJzgnLCAnLW1hJywgJzIwMCcsICctbWV0YWxfYmluZGluZycsICctaW1hZScsICc8aW5maWxlLm1hZT4nLCAnLW9tYWUnLCAnPG91dGZpbGUubWFlPic=

> <r_lp_tautomer_probability>
0.999537

> <r_epik_Ionization_Penalty>
0.00121888

> <r_epik_Ionization_Penalty_Charging>
0.00121876

> <r_epik_Ionization_Penalty_Neutral>
1.19946e-07

> <r_epik_State_Penalty>
0.000805124

> <r_epik_Charging_Adjusted_Penalty>
0.00202389

> <i_epik_Tot_Q>
0

> <i_epik_Tot_abs_Q>
0

> <r_epik_Metal_State_Penalty>
0.662472

> <b_epik_Metal_Only>
0

> <s_epik_Chemistry_Notes>
This compound contains an acetal/aminal-like group ( X-CH(R)-Y where X, Y are N, S, or O) that may be acid/base labile, releasing an aldehyde.

> <s_lp_Force_Field>
OPLS_2005

> <r_lp_Energy>
27.6975

> <b_lp_Chiralities_Consistent>
1

> <s_lp_Variant>
AV-unprocessed.smi:107-1

> <Gold.Version>
5.8.1

> <Gold.Id.Protein>
6NUR|6NUR_protein|mol2

> <Gold.PLP.Fitness>
41.7124

> <Gold.PLP.PLP>
-30.3665

> <Gold.PLP.part.hbond>
-5.0000

> <Gold.PLP.part.metal>
0.0000

> <Gold.PLP.part.buried>
-4.2080

> <Gold.PLP.part.nonpolar>
-20.9750

> <Gold.PLP.part.repulsive>
0.3215

> <Gold.PLP.ligand.clash>
0.0000

> <Gold.PLP.ligand.torsion>
0.3917

> <Gold.PLP.Chemscore.Hbond>
4.0424

> <Gold.PLP.Chemscore.CHOScore>
0.0000

> <Gold.PLP.Chemscore.Metal>
0.0000

> <Gold.Chemscore.Hbonds>
donor molecule, donor type, donor heavy atom, donor atom, acceptor molecule, acceptor atom, score
      L1  H     8    27       P1  7949  1.00
      L1  H    11    31       P1  7948  0.98
      L1  H    15    18       P1  8028  1.00
      P1  H  7989  7998       L1    14  0.46
      P1  H 10752 10764       L1     8  0.57

> <Gold.PLP.Chemscore.Internal.Correction>
0.0021

> <Gold.Rescore>
     Score         DG    S(hbond)    S(metal)    S(lipo)     H(rot)  DE(clash)    DE(int)     intcor
     12.89     -15.05       3.11        0.00      52.62       2.73       0.29       1.87       ----

> <Gold.Chemscore.Fitness>
12.8909

> <Gold.Chemscore.DG>
-15.0467

> <Gold.Chemscore.ZeroCoef>
-5.4800

> <Gold.Chemscore.Hbond>
3.1097

> <Gold.Chemscore.Metal>
0.0000

> <Gold.Chemscore.Lipo>
52.6250

> <Gold.Chemscore.Internal_Hbond>
0.0000

> <Gold.Chemscore.DEClash>
0.2894

> <Gold.Chemscore.DEInternal>
1.8665

> <Gold.Chemscore.Rot>
2.7253

> <Gold.Chemscore.Internal.Correction>
   9.000000E+99

> <Gold.Chemscore.Hbonds>
donor molecule, donor type, donor heavy atom, donor atom, acceptor molecule, acceptor atom, score
      L1  H     8    27       P1  7949  0.73
      L1  H    11    31       P1  7948  0.93
      L1  H    15    18       P1  8028  0.99
      P1  H  7989  7998       L1    14  0.16
      P1  H 10752 10764       L1     8  0.06

> <Gold.Chemscore.Hbond.Weighted>
-10.3865

> <Gold.Chemscore.Metal.Weighted>
-0.0000

> <Gold.Chemscore.Lipo.Weighted>
-6.1571

> <Gold.Chemscore.Internal_Hbond.Weighted>
0.0000

> <Gold.Chemscore.DEClash.Weighted>
0.2894

> <Gold.Chemscore.DEInternal.Weighted>
1.8665

> <Gold.Chemscore.Rot.Weighted>
6.9769

> <Gold.Chemscore.Internal.Correction.Weighted>
   9.000000E+99

> <Gold.Protein.RotatedTorsions>
[ 6907 6896 6895 6894 ] final  -96.49 input  -60.11 | X-H torsion
[ 7974 7965 7964 7962 ] final  174.02 input  175.53 | X-H torsion
[ 8008 7997 7996 7995 ] final -146.79 input   59.86 | X-H torsion
[ 10167 10162 10161 10158 ] final   66.76 input  -65.29 | X-H torsion
[ 10718 10713 10712 10709 ] final  163.65 input   66.30 | X-H torsion
[ 10763 10752 10751 10750 ] final  -51.05 input  -60.55 | X-H torsion
[ 11005 11000 10999 10996 ] final   53.99 input  -57.11 | X-H torsion

> <Gold.Protein.ActiveResidues>
 VAL166  LYS551  ARG553  GLY616  TRP617  ASP618  TYR619  PRO620  LYS621  CYS622 
 ASP623  PHE694  ASN695  SER759  ASP760  ASP761  ALA762  ILE779  LEU786  VAL792 
 PHE793  MET794  SER795  GLU796  ALA797  LYS798  CYS799  TRP800  GLU811  SER814 

> <Gold.Protein.RotatedAtoms>
  150.6990  134.1495  159.4134 H   0  0  0  0  0  0  0  0  0  0  0  0  # atno 6907 bound_to 6896
  151.9478  135.0181  160.0549 H   0  0  0  0  0  0  0  0  0  0  0  0  # atno 6908 bound_to 6896
  152.2038  133.4825  159.5109 H   0  0  0  0  0  0  0  0  0  0  0  0  # atno 6909 bound_to 6896
  144.7230  139.9735  143.6437 H   0  0  0  0  0  0  0  0  0  0  0  0  # atno 7974 bound_to 7965
  155.5651  140.0629  157.2820 H   0  0  0  0  0  0  0  0  0  0  0  0  # atno 8008 bound_to 7997
  154.4378  140.1879  156.0867 H   0  0  0  0  0  0  0  0  0  0  0  0  # atno 8009 bound_to 7997
  156.0418  140.3294  155.7256 H   0  0  0  0  0  0  0  0  0  0  0  0  # atno 8010 bound_to 7997
  140.0969  144.4938  150.7062 H   0  0  0  0  0  0  0  0  0  0  0  0  # atno 10167 bound_to 10162
  157.1055  131.0454  151.2480 H   0  0  0  0  0  0  0  0  0  0  0  0  # atno 10718 bound_to 10713
  154.1204  135.6535  153.4902 H   0  0  0  0  0  0  0  0  0  0  0  0  # atno 10763 bound_to 10752
  153.0227  135.5269  154.7103 H   0  0  0  0  0  0  0  0  0  0  0  0  # atno 10764 bound_to 10752
  154.6309  135.2976  155.0188 H   0  0  0  0  0  0  0  0  0  0  0  0  # atno 10765 bound_to 10752
  140.0722  134.5454  155.9034 H   0  0  0  0  0  0  0  0  0  0  0  0  # atno 11005 bound_to 11000
  146.0544  139.3542  143.0620 LP  0  0  0  0  0  0  0  0  0  0  0  0  # atno 17320 bound_to 7965
  145.8174  140.9696  143.0917 LP  0  0  0  0  0  0  0  0  0  0  0  0  # atno 17321 bound_to 7965
  140.6999  143.2428  151.4895 LP  0  0  0  0  0  0  0  0  0  0  0  0  # atno 17342 bound_to 10162
  139.5693  144.1967  152.1812 LP  0  0  0  0  0  0  0  0  0  0  0  0  # atno 17343 bound_to 10162
  157.4604  130.7650  149.7231 LP  0  0  0  0  0  0  0  0  0  0  0  0  # atno 17370 bound_to 10713
  155.9863  130.3976  150.3219 LP  0  0  0  0  0  0  0  0  0  0  0  0  # atno 17371 bound_to 10713
  141.2016  133.6619  156.5960 LP  0  0  0  0  0  0  0  0  0  0  0  0  # atno 17394 bound_to 11000
  140.3610  134.7687  157.4534 LP  0  0  0  0  0  0  0  0  0  0  0  0  # atno 17395 bound_to 11000

$$$$
