AV-unprocessed.smi:2520|AV-procd|sdf|9912|dock7
  -GOLD-   2272013553D 1   1.00000     0.00000
 Structure written by MMmdl.
 41 44  0  0  0  0  0  0  0  0  1 V2000
  154.3094  138.7678  158.7394 O   0  0  0  0  0  0  0  0  0  0  0  0
  153.7258  139.1438  159.7545 C   0  0  0  0  0  0  0  0  0  0  0  0
  153.5967  138.3322  160.8259 N   0  0  0  0  0  0  0  0  0  0  0  0
  154.0349  136.9938  161.0525 C   0  0  0  0  0  0  0  0  0  0  0  0
  154.3348  136.6896  162.3976 C   0  0  0  0  0  0  0  0  0  0  0  0
  154.7778  135.3926  162.7089 C   0  0  0  0  0  0  0  0  0  0  0  0
  154.8949  134.4802  161.6469 C   0  0  0  0  0  0  0  0  0  0  0  0
  154.6004  134.8124  160.3718 N   0  0  0  0  0  0  0  0  0  0  0  0
  154.1790  136.0484  160.0856 N   0  0  0  0  0  0  0  0  0  0  0  0
  153.1876  140.3662  159.8743 N   0  0  0  0  0  0  0  0  0  0  0  0
  153.1914  141.4158  158.8564 C   0  0  1  0  0  0  0  0  0  0  0  0
  152.1492  141.1673  157.7416 C   0  0  1  0  0  0  0  0  0  0  0  0
  151.4450  139.8437  157.5649 C   0  0  0  0  0  0  0  0  0  0  0  0
  150.1221  140.0590  158.3066 C   0  0  0  0  0  0  0  0  0  0  0  0
  150.3643  141.1587  159.1822 O   0  0  0  0  0  0  0  0  0  0  0  0
  151.2050  142.0865  158.5002 C   0  0  1  0  0  0  0  0  0  0  0  0
  152.3895  142.6599  159.3062 C   0  0  0  0  0  0  0  0  0  0  0  0
  152.9030  144.0172  158.8283 C   0  0  0  0  0  0  0  0  0  0  0  0
  152.1783  145.0913  159.6459 C   0  0  0  0  0  0  0  0  0  0  0  0
  151.6650  144.3819  160.9026 C   0  0  0  0  0  0  0  0  0  0  0  0
  152.1668  142.9408  160.7930 C   0  0  0  0  0  0  0  0  0  0  0  0
  153.1165  138.7505  161.6092 H   0  0  0  0  0  0  0  0  0  0  0  0
  154.2282  137.4310  163.1761 H   0  0  0  0  0  0  0  0  0  0  0  0
  155.0185  135.1086  163.7224 H   0  0  0  0  0  0  0  0  0  0  0  0
  155.2308  133.4687  161.8207 H   0  0  0  0  0  0  0  0  0  0  0  0
  152.7279  140.5907  160.7459 H   0  0  0  0  0  0  0  0  0  0  0  0
  154.1783  141.6627  158.4613 H   0  0  0  0  0  0  0  0  0  0  0  0
  152.4703  141.6238  156.8038 H   0  0  0  0  0  0  0  0  0  0  0  0
  151.2715  139.6064  156.5152 H   0  0  0  0  0  0  0  0  0  0  0  0
  152.0100  139.0166  157.9945 H   0  0  0  0  0  0  0  0  0  0  0  0
  149.3317  140.3319  157.6061 H   0  0  0  0  0  0  0  0  0  0  0  0
  149.8008  139.1747  158.8572 H   0  0  0  0  0  0  0  0  0  0  0  0
  150.6605  142.7901  157.8690 H   0  0  0  0  0  0  0  0  0  0  0  0
  153.9761  144.0915  159.0098 H   0  0  0  0  0  0  0  0  0  0  0  0
  152.7562  144.1670  157.7581 H   0  0  0  0  0  0  0  0  0  0  0  0
  152.8438  145.9203  159.8889 H   0  0  0  0  0  0  0  0  0  0  0  0
  151.3393  145.4987  159.0809 H   0  0  0  0  0  0  0  0  0  0  0  0
  152.0117  144.8610  161.8186 H   0  0  0  0  0  0  0  0  0  0  0  0
  150.5745  144.3976  160.9145 H   0  0  0  0  0  0  0  0  0  0  0  0
  151.4691  142.2430  161.2569 H   0  0  0  0  0  0  0  0  0  0  0  0
  153.1098  142.8458  161.3330 H   0  0  0  0  0  0  0  0  0  0  0  0
  1  2  2  0  0  0  0
  2  3  1  0  0  0  0
  2 10  1  0  0  0  0
  3  4  1  0  0  0  0
  3 22  1  0  0  0  0
  4  9  1  0  0  0  0
  4  5  2  0  0  0  0
  5  6  1  0  0  0  0
  5 23  1  0  0  0  0
  6  7  2  0  0  0  0
  6 24  1  0  0  0  0
  7  8  1  0  0  0  0
  7 25  1  0  0  0  0
  8  9  2  0  0  0  0
 10 11  1  0  0  0  0
 10 26  1  0  0  0  0
 11 17  1  0  0  0  0
 11 12  1  0  0  0  0
 11 27  1  0  0  0  0
 12 16  1  0  0  0  0
 12 13  1  0  0  0  0
 12 28  1  0  0  0  0
 13 14  1  0  0  0  0
 13 29  1  0  0  0  0
 13 30  1  0  0  0  0
 14 15  1  0  0  0  0
 14 31  1  0  0  0  0
 14 32  1  0  0  0  0
 15 16  1  0  0  0  0
 16 17  1  0  0  0  0
 16 33  1  0  0  0  0
 17 21  1  0  0  0  0
 17 18  1  0  0  0  0
 18 19  1  0  0  0  0
 18 34  1  0  0  0  0
 18 35  1  0  0  0  0
 19 20  1  0  0  0  0
 19 36  1  0  0  0  0
 19 37  1  0  0  0  0
 20 21  1  0  0  0  0
 20 38  1  0  0  0  0
 20 39  1  0  0  0  0
 21 40  1  0  0  0  0
 21 41  1  0  0  0  0
M  END
> <s_m_source_file>
AV-unprocessed.smi

> <i_m_source_file_index>
2520

> <i_lp_mmshare_version>
43012

> <i_f3d_flags>
0

> <s_epik_input>
bjFuW2NIXVtjSF1bY0hdYzFbTkhdQyg9TylbTkhdW0NAQEhdMltDQEBIXShbQ0gyXVtDSDJdTzMpW0NASF0zQzI0W0NIMl1bQ0gyXVtDSDJdW0NIMl00

> <s_epik_cmdline>
J2VwaWtfcHl0aG9uJywgJy1waCcsICc3LjAnLCAnLXRuJywgJzgnLCAnLW1hJywgJzIwMCcsICctbWV0YWxfYmluZGluZycsICctaW1hZScsICc8aW5maWxlLm1hZT4nLCAnLW9tYWUnLCAnPG91dGZpbGUubWFlPic=

> <r_lp_tautomer_probability>
1

> <r_epik_Ionization_Penalty>
0.00552561

> <r_epik_Ionization_Penalty_Charging>
0

> <r_epik_Ionization_Penalty_Neutral>
0.00552561

> <r_epik_State_Penalty>
-0

> <r_epik_Charging_Adjusted_Penalty>
0

> <i_epik_Tot_Q>
0

> <i_epik_Tot_abs_Q>
0

> <r_epik_Metal_State_Penalty>
-0

> <b_epik_Metal_Only>
0

> <s_lp_Force_Field>
OPLS_2005

> <r_lp_Energy>
62.4045

> <b_lp_Chiralities_Consistent>
1

> <s_lp_Variant>
AV-unprocessed.smi:2520-6

> <Gold.Version>
5.8.1

> <Gold.Id.Protein>
6NUR|6NUR_protein|mol2

> <Gold.PLP.Fitness>
37.9560

> <Gold.PLP.PLP>
-35.2890

> <Gold.PLP.part.hbond>
-3.1735

> <Gold.PLP.part.metal>
0.0000

> <Gold.PLP.part.buried>
-3.3080

> <Gold.PLP.part.nonpolar>
-28.5862

> <Gold.PLP.part.repulsive>
0.1458

> <Gold.PLP.ligand.clash>
0.0000

> <Gold.PLP.ligand.torsion>
0.3103

> <Gold.PLP.Chemscore.Hbond>
1.0274

> <Gold.PLP.Chemscore.CHOScore>
0.0000

> <Gold.PLP.Chemscore.Metal>
0.0000

> <Gold.Chemscore.Hbonds>
donor molecule, donor type, donor heavy atom, donor atom, acceptor molecule, acceptor atom, score
      P1  H  6896  6907       L1     9  0.03
      P1  H  7997  8008       L1     1  1.00

> <Gold.PLP.Chemscore.Internal.Correction>
0.2056

> <Gold.Rescore>
     Score         DG    S(hbond)    S(metal)    S(lipo)     H(rot)  DE(clash)    DE(int)     intcor
     17.41     -18.88       1.00        0.00     107.94       1.00       0.21       1.26       ----

> <Gold.Chemscore.Fitness>
17.4087

> <Gold.Chemscore.DG>
-18.8776

> <Gold.Chemscore.ZeroCoef>
-5.4800

> <Gold.Chemscore.Hbond>
0.9967

> <Gold.Chemscore.Metal>
0.0000

> <Gold.Chemscore.Lipo>
107.9380

> <Gold.Chemscore.Internal_Hbond>
0.0000

> <Gold.Chemscore.DEClash>
0.2060

> <Gold.Chemscore.DEInternal>
1.2629

> <Gold.Chemscore.Rot>
1.0000

> <Gold.Chemscore.Internal.Correction>
   9.000000E+99

> <Gold.Chemscore.Hbonds>
donor molecule, donor type, donor heavy atom, donor atom, acceptor molecule, acceptor atom, score
      P1  H  7997  8008       L1     1  0.93

> <Gold.Chemscore.Hbond.Weighted>
-3.3289

> <Gold.Chemscore.Metal.Weighted>
-0.0000

> <Gold.Chemscore.Lipo.Weighted>
-12.6288

> <Gold.Chemscore.Internal_Hbond.Weighted>
0.0000

> <Gold.Chemscore.DEClash.Weighted>
0.2060

> <Gold.Chemscore.DEInternal.Weighted>
1.2629

> <Gold.Chemscore.Rot.Weighted>
2.5600

> <Gold.Chemscore.Internal.Correction.Weighted>
   9.000000E+99

> <Gold.Protein.RotatedTorsions>
[ 6907 6896 6895 6894 ] final   27.91 input  -60.11 | X-H torsion
[ 7974 7965 7964 7962 ] final   -6.53 input  175.53 | X-H torsion
[ 8008 7997 7996 7995 ] final -117.68 input   59.86 | X-H torsion
[ 10167 10162 10161 10158 ] final -107.85 input  -65.29 | X-H torsion
[ 10718 10713 10712 10709 ] final   54.04 input   66.30 | X-H torsion
[ 10763 10752 10751 10750 ] final -165.16 input  -60.55 | X-H torsion
[ 11005 11000 10999 10996 ] final  -19.44 input  -57.11 | X-H torsion

> <Gold.Protein.ActiveResidues>
 VAL166  LYS551  ARG553  GLY616  TRP617  ASP618  TYR619  PRO620  LYS621  CYS622 
 ASP623  PHE694  ASN695  SER759  ASP760  ASP761  ALA762  ILE779  LEU786  VAL792 
 PHE793  MET794  SER795  GLU796  ALA797  LYS798  CYS799  TRP800  GLU811  SER814 

> <Gold.Protein.RotatedAtoms>
  152.0092  134.9886  160.0567 H   0  0  0  0  0  0  0  0  0  0  0  0  # atno 6907 bound_to 6896
  152.1445  133.4479  159.4791 H   0  0  0  0  0  0  0  0  0  0  0  0  # atno 6908 bound_to 6896
  150.6868  134.2182  159.4429 H   0  0  0  0  0  0  0  0  0  0  0  0  # atno 6909 bound_to 6896
  146.2329  140.2184  142.8337 H   0  0  0  0  0  0  0  0  0  0  0  0  # atno 7974 bound_to 7965
  155.0876  140.0394  157.2659 H   0  0  0  0  0  0  0  0  0  0  0  0  # atno 8008 bound_to 7997
  154.6857  140.2642  155.6838 H   0  0  0  0  0  0  0  0  0  0  0  0  # atno 8009 bound_to 7997
  156.2711  140.2769  156.1417 H   0  0  0  0  0  0  0  0  0  0  0  0  # atno 8010 bound_to 7997
  140.1726  143.4031  152.1343 H   0  0  0  0  0  0  0  0  0  0  0  0  # atno 10167 bound_to 10162
  157.5221  130.8572  149.8573 H   0  0  0  0  0  0  0  0  0  0  0  0  # atno 10718 bound_to 10713
  154.6958  135.2979  154.9413 H   0  0  0  0  0  0  0  0  0  0  0  0  # atno 10763 bound_to 10752
  154.0361  135.6663  153.4789 H   0  0  0  0  0  0  0  0  0  0  0  0  # atno 10764 bound_to 10752
  153.0645  135.5096  154.8076 H   0  0  0  0  0  0  0  0  0  0  0  0  # atno 10765 bound_to 10752
  140.8367  133.7956  155.9816 H   0  0  0  0  0  0  0  0  0  0  0  0  # atno 11005 bound_to 11000
  144.9651  140.8314  143.5489 LP  0  0  0  0  0  0  0  0  0  0  0  0  # atno 17320 bound_to 7965
  145.2159  139.2182  143.5118 LP  0  0  0  0  0  0  0  0  0  0  0  0  # atno 17321 bound_to 7965
  139.5331  144.7181  151.4986 LP  0  0  0  0  0  0  0  0  0  0  0  0  # atno 17342 bound_to 10162
  140.6572  143.8574  150.6848 LP  0  0  0  0  0  0  0  0  0  0  0  0  # atno 17343 bound_to 10162
  156.0361  130.3751  150.1557 LP  0  0  0  0  0  0  0  0  0  0  0  0  # atno 17370 bound_to 10713
  156.9745  130.9845  151.3451 LP  0  0  0  0  0  0  0  0  0  0  0  0  # atno 17371 bound_to 10713
  140.8939  134.2461  157.5079 LP  0  0  0  0  0  0  0  0  0  0  0  0  # atno 17394 bound_to 11000
  139.8704  134.9675  156.4598 LP  0  0  0  0  0  0  0  0  0  0  0  0  # atno 17395 bound_to 11000

$$$$
