AV-unprocessed.smi:2707|AV-procd|sdf|10457|dock9
  -GOLD-   2272014493D 1   1.00000     0.00000
 Structure written by MMmdl.
 44 45  0  0  0  0  0  0  0  0  1 V2000
  149.2982  137.1862  156.7886 C   0  0  0  0  0  0  0  0  0  0  0  0
  150.2289  136.9829  155.5715 C   0  0  2  0  0  0  0  0  0  0  0  0
  149.6105  136.0590  154.6133 N   0  0  0  0  0  0  0  0  0  0  0  0
  149.2623  134.7774  154.8169 C   0  0  0  0  0  0  0  0  0  0  0  0
  149.4074  134.1899  155.8888 O   0  0  0  0  0  0  0  0  0  0  0  0
  148.7435  134.2356  153.7012 N   0  0  0  0  0  0  0  0  0  0  0  0
  148.2871  132.9056  153.5059 C   0  0  0  0  0  0  0  0  0  0  0  0
  147.1302  132.7736  152.7117 C   0  0  0  0  0  0  0  0  0  0  0  0
  146.6281  131.4842  152.4686 C   0  0  0  0  0  0  0  0  0  0  0  0
  147.3173  130.3908  153.0404 C   0  0  0  0  0  0  0  0  0  0  0  0
  146.8832  128.9265  152.8472 C   0  0  0  0  0  0  0  0  0  0  0  0
  146.5721  128.2895  154.2175 C   0  0  0  0  0  0  0  0  0  0  0  0
  148.0092  128.1395  152.1449 C   0  0  0  0  0  0  0  0  0  0  0  0
  145.6138  128.7967  151.9753 C   0  0  0  0  0  0  0  0  0  0  0  0
  148.4228  130.5825  153.8010 N   0  0  0  0  0  0  0  0  0  0  0  0
  148.8957  131.8112  154.0278 N   0  0  0  0  0  0  0  0  0  0  0  0
  151.5718  136.3717  156.0404 C   0  0  0  0  0  0  0  0  0  0  0  0
  152.4605  137.4591  156.6613 C   0  0  0  0  0  0  0  0  0  0  0  0
  151.9984  139.0262  155.8362 S   0  0  0  0  0  0  0  0  0  0  0  0
  151.5004  139.9685  156.8497 O   0  0  0  0  0  0  0  0  0  0  0  0
  153.0548  139.4186  154.8912 O   0  0  0  0  0  0  0  0  0  0  0  0
  150.5843  138.3304  154.9024 C   0  0  0  0  0  0  0  0  0  0  0  0
  149.7607  137.8130  157.5511 H   0  0  0  0  0  0  0  0  0  0  0  0
  149.0479  136.2342  157.2577 H   0  0  0  0  0  0  0  0  0  0  0  0
  148.3621  137.6688  156.5075 H   0  0  0  0  0  0  0  0  0  0  0  0
  149.4428  136.4355  153.6918 H   0  0  0  0  0  0  0  0  0  0  0  0
  148.6840  134.8379  152.8938 H   0  0  0  0  0  0  0  0  0  0  0  0
  146.6376  133.6388  152.2920 H   0  0  0  0  0  0  0  0  0  0  0  0
  145.7453  131.3655  151.8599 H   0  0  0  0  0  0  0  0  0  0  0  0
  146.2449  127.2548  154.1091 H   0  0  0  0  0  0  0  0  0  0  0  0
  145.7809  128.8325  154.7354 H   0  0  0  0  0  0  0  0  0  0  0  0
  147.4463  128.2826  154.8693 H   0  0  0  0  0  0  0  0  0  0  0  0
  148.9260  128.1287  152.7352 H   0  0  0  0  0  0  0  0  0  0  0  0
  148.2491  128.5754  151.1745 H   0  0  0  0  0  0  0  0  0  0  0  0
  147.7238  127.1005  151.9768 H   0  0  0  0  0  0  0  0  0  0  0  0
  145.3250  127.7521  151.8519 H   0  0  0  0  0  0  0  0  0  0  0  0
  145.7681  129.2035  150.9750 H   0  0  0  0  0  0  0  0  0  0  0  0
  144.7623  129.3115  152.4222 H   0  0  0  0  0  0  0  0  0  0  0  0
  151.4266  135.5368  156.7269 H   0  0  0  0  0  0  0  0  0  0  0  0
  152.0988  135.9684  155.1740 H   0  0  0  0  0  0  0  0  0  0  0  0
  152.2591  137.5670  157.7271 H   0  0  0  0  0  0  0  0  0  0  0  0
  153.5245  137.2631  156.5277 H   0  0  0  0  0  0  0  0  0  0  0  0
  150.9173  138.1825  153.8746 H   0  0  0  0  0  0  0  0  0  0  0  0
  149.7594  139.0436  154.8917 H   0  0  0  0  0  0  0  0  0  0  0  0
  1  2  1  0  0  0  0
  1 23  1  0  0  0  0
  1 24  1  0  0  0  0
  1 25  1  0  0  0  0
  2 22  1  0  0  0  0
  2  3  1  0  0  0  0
  2 17  1  0  0  0  0
  3  4  1  0  0  0  0
  3 26  1  0  0  0  0
  4  5  2  0  0  0  0
  4  6  1  0  0  0  0
  6  7  1  0  0  0  0
  6 27  1  0  0  0  0
  7 16  1  0  0  0  0
  7  8  2  0  0  0  0
  8  9  1  0  0  0  0
  8 28  1  0  0  0  0
  9 10  2  0  0  0  0
  9 29  1  0  0  0  0
 10 11  1  0  0  0  0
 10 15  1  0  0  0  0
 11 12  1  0  0  0  0
 11 13  1  0  0  0  0
 11 14  1  0  0  0  0
 12 30  1  0  0  0  0
 12 31  1  0  0  0  0
 12 32  1  0  0  0  0
 13 33  1  0  0  0  0
 13 34  1  0  0  0  0
 13 35  1  0  0  0  0
 14 36  1  0  0  0  0
 14 37  1  0  0  0  0
 14 38  1  0  0  0  0
 15 16  2  0  0  0  0
 17 18  1  0  0  0  0
 17 39  1  0  0  0  0
 17 40  1  0  0  0  0
 18 19  1  0  0  0  0
 18 41  1  0  0  0  0
 18 42  1  0  0  0  0
 19 20  2  0  0  0  0
 19 21  2  0  0  0  0
 19 22  1  0  0  0  0
 22 43  1  0  0  0  0
 22 44  1  0  0  0  0
M  END
> <s_m_source_file>
AV-unprocessed.smi

> <i_m_source_file_index>
2707

> <i_lp_mmshare_version>
43012

> <i_f3d_flags>
0

> <s_epik_input>
Tz1TKD1PKShbQ0gyXTEpW0NIMl1bQ0gyXVtDQEBdMShbQ0gzXSlbTkhdQyg9TylbTkhdYzJbY0hdW2NIXWMobm4yKUMoW0NIM10pKFtDSDNdKVtDSDNd

> <s_epik_cmdline>
J2VwaWtfcHl0aG9uJywgJy1waCcsICc3LjAnLCAnLXRuJywgJzgnLCAnLW1hJywgJzIwMCcsICctbWV0YWxfYmluZGluZycsICctaW1hZScsICc8aW5maWxlLm1hZT4nLCAnLW9tYWUnLCAnPG91dGZpbGUubWFlPic=

> <r_lp_tautomer_probability>
1

> <r_epik_Ionization_Penalty>
0.00910408

> <r_epik_Ionization_Penalty_Charging>
0

> <r_epik_Ionization_Penalty_Neutral>
0.00910408

> <r_epik_State_Penalty>
-0

> <r_epik_Charging_Adjusted_Penalty>
0

> <i_epik_Tot_Q>
0

> <i_epik_Tot_abs_Q>
0

> <r_epik_Metal_State_Penalty>
-0

> <b_epik_Metal_Only>
0

> <s_lp_Force_Field>
OPLS_2005

> <r_lp_Energy>
10.6556

> <b_lp_Chiralities_Consistent>
1

> <s_lp_Variant>
AV-unprocessed.smi:2707-2

> <Gold.Version>
5.8.1

> <Gold.Id.Protein>
6NUR|6NUR_protein|mol2

> <Gold.PLP.Fitness>
41.0171

> <Gold.PLP.PLP>
-31.7068

> <Gold.PLP.part.hbond>
-4.0000

> <Gold.PLP.part.metal>
0.0000

> <Gold.PLP.part.buried>
-2.7928

> <Gold.PLP.part.nonpolar>
-24.7761

> <Gold.PLP.part.repulsive>
0.2343

> <Gold.PLP.ligand.clash>
0.0000

> <Gold.PLP.ligand.torsion>
0.3058

> <Gold.PLP.Chemscore.Hbond>
3.3032

> <Gold.PLP.Chemscore.CHOScore>
0.0000

> <Gold.PLP.Chemscore.Metal>
0.0000

> <Gold.Chemscore.Hbonds>
donor molecule, donor type, donor heavy atom, donor atom, acceptor molecule, acceptor atom, score
      L1  H     3    26       P1  7948  1.00
      L1  H     6    27       P1  7948  1.00
      P1  H  7989  7998       L1    21  0.01
      P1  H  7997  8010       L1    21  1.00

> <Gold.PLP.Chemscore.Internal.Correction>
0.0123

> <Gold.Rescore>
     Score         DG    S(hbond)    S(metal)    S(lipo)     H(rot)  DE(clash)    DE(int)     intcor
     16.79     -19.31       2.65        0.00      69.40       1.22       0.12       2.41       ----

> <Gold.Chemscore.Fitness>
16.7866

> <Gold.Chemscore.DG>
-19.3120

> <Gold.Chemscore.ZeroCoef>
-5.4800

> <Gold.Chemscore.Hbond>
2.6484

> <Gold.Chemscore.Metal>
0.0000

> <Gold.Chemscore.Lipo>
69.4044

> <Gold.Chemscore.Internal_Hbond>
0.0000

> <Gold.Chemscore.DEClash>
0.1158

> <Gold.Chemscore.DEInternal>
2.4096

> <Gold.Chemscore.Rot>
1.2242

> <Gold.Chemscore.Internal.Correction>
   9.000000E+99

> <Gold.Chemscore.Hbonds>
donor molecule, donor type, donor heavy atom, donor atom, acceptor molecule, acceptor atom, score
      L1  H     3    26       P1  7948  0.75
      L1  H     6    27       P1  7948  0.25
      P1  H  7997  8010       L1    21  0.85

> <Gold.Chemscore.Hbond.Weighted>
-8.8457

> <Gold.Chemscore.Metal.Weighted>
-0.0000

> <Gold.Chemscore.Lipo.Weighted>
-8.1203

> <Gold.Chemscore.Internal_Hbond.Weighted>
0.0000

> <Gold.Chemscore.DEClash.Weighted>
0.1158

> <Gold.Chemscore.DEInternal.Weighted>
2.4096

> <Gold.Chemscore.Rot.Weighted>
3.1340

> <Gold.Chemscore.Internal.Correction.Weighted>
   9.000000E+99

> <Gold.Protein.RotatedTorsions>
[ 6907 6896 6895 6894 ] final    9.48 input  -60.11 | X-H torsion
[ 7974 7965 7964 7962 ] final  117.55 input  175.53 | X-H torsion
[ 8008 7997 7996 7995 ] final  114.31 input   59.86 | X-H torsion
[ 10167 10162 10161 10158 ] final  115.11 input  -65.29 | X-H torsion
[ 10718 10713 10712 10709 ] final -172.73 input   66.30 | X-H torsion
[ 10763 10752 10751 10750 ] final  -26.37 input  -60.55 | X-H torsion
[ 11005 11000 10999 10996 ] final   47.49 input  -57.11 | X-H torsion

> <Gold.Protein.ActiveResidues>
 VAL166  LYS551  ARG553  GLY616  TRP617  ASP618  TYR619  PRO620  LYS621  CYS622 
 ASP623  PHE694  ASN695  SER759  ASP760  ASP761  ALA762  ILE779  LEU786  VAL792 
 PHE793  MET794  SER795  GLU796  ALA797  LYS798  CYS799  TRP800  GLU811  SER814 

> <Gold.Protein.RotatedAtoms>
  151.7228  135.0891  160.0286 H   0  0  0  0  0  0  0  0  0  0  0  0  # atno 6907 bound_to 6896
  152.3591  133.6270  159.6010 H   0  0  0  0  0  0  0  0  0  0  0  0  # atno 6908 bound_to 6896
  150.7592  133.9369  159.3485 H   0  0  0  0  0  0  0  0  0  0  0  0  # atno 6909 bound_to 6896
  145.1660  139.3128  143.4492 H   0  0  0  0  0  0  0  0  0  0  0  0  # atno 7974 bound_to 7965
  156.2313  140.2962  156.0196 H   0  0  0  0  0  0  0  0  0  0  0  0  # atno 8008 bound_to 7997
  155.2217  140.0416  157.2966 H   0  0  0  0  0  0  0  0  0  0  0  0  # atno 8009 bound_to 7997
  154.6001  140.2424  155.7812 H   0  0  0  0  0  0  0  0  0  0  0  0  # atno 8010 bound_to 7997
  139.6340  144.7118  151.2372 H   0  0  0  0  0  0  0  0  0  0  0  0  # atno 10167 bound_to 10162
  156.7598  130.9409  151.3117 H   0  0  0  0  0  0  0  0  0  0  0  0  # atno 10718 bound_to 10713
  153.7149  135.6948  153.5028 H   0  0  0  0  0  0  0  0  0  0  0  0  # atno 10763 bound_to 10752
  153.2246  135.4358  155.0526 H   0  0  0  0  0  0  0  0  0  0  0  0  # atno 10764 bound_to 10752
  154.8303  135.3469  154.6685 H   0  0  0  0  0  0  0  0  0  0  0  0  # atno 10765 bound_to 10752
  140.1275  134.4749  155.8548 H   0  0  0  0  0  0  0  0  0  0  0  0  # atno 11005 bound_to 11000
  146.3475  140.1788  142.8589 LP  0  0  0  0  0  0  0  0  0  0  0  0  # atno 17320 bound_to 7965
  145.0282  140.8849  143.5126 LP  0  0  0  0  0  0  0  0  0  0  0  0  # atno 17321 bound_to 7965
  140.7455  143.6428  150.8319 LP  0  0  0  0  0  0  0  0  0  0  0  0  # atno 17342 bound_to 10162
  140.0057  143.5696  152.2858 LP  0  0  0  0  0  0  0  0  0  0  0  0  # atno 17343 bound_to 10162
  157.6739  130.9077  150.0105 LP  0  0  0  0  0  0  0  0  0  0  0  0  # atno 17370 bound_to 10713
  156.1346  130.3643  149.9677 LP  0  0  0  0  0  0  0  0  0  0  0  0  # atno 17371 bound_to 10713
  141.2164  133.6783  156.7005 LP  0  0  0  0  0  0  0  0  0  0  0  0  # atno 17394 bound_to 11000
  140.2885  134.8259  157.3996 LP  0  0  0  0  0  0  0  0  0  0  0  0  # atno 17395 bound_to 11000

$$$$
