#       Name:                AV-unprocessed.smi:565
#       Creating user name   scv26
#       Creation time:       Thu Mar 26 23:45:23 2020


#       File generated by GOLD software.
#

@<TRIPOS>MOLECULE
AV-unprocessed.smi:565
    53    54     1
SMALL
NO_CHARGES


@<TRIPOS>ATOM
      1 ****        -3.8153   0.4703   0.3011 C.3            1 S1                 0.0000
      2 ****        -3.3204   1.1908   1.5228 C.2            1 S1                 0.0000
      3 ****        -3.5421   2.4890   1.6400 N.2            1 S1                 0.0000
      4 ****        -2.9769   2.8306   2.8151 N.pl3          1 S1                 0.0000
      5 ****        -3.0418   4.2089   3.2613 C.3            1 S1                 0.0000
      6 ****        -2.3892   1.7470   3.4383 C.2            1 S1                 0.0000
      7 ****        -1.6848   1.8682   4.7514 C.3            1 S1                 0.0000
      8 ****        -2.5952   0.6601   2.6309 C.2            1 S1                 0.0000
      9 ****        -2.1556  -0.7662   2.8443 C.3            1 S1                 0.0000
     10 ****        -0.8454  -1.0067   2.0962 C.2            1 S1                 0.0000
     11 ****         0.2248  -0.6659   2.6002 O.2            1 S1                 0.0000
     12 ****        -0.9436  -1.5716   0.8830 N.am           1 S1                 0.0000
     13 ****         0.1768  -1.8149  -0.0161 C.3            1 S1                 0.0000
     14 ****         0.5570  -0.5359  -0.7871 C.3            1 S1                 0.0000
     15 ****         1.7351  -0.7316  -1.6685 N.4            1 S1                 1.0000
     16 ****         2.4068   0.5518  -1.9994 C.3            1 S1                 0.0000
     17 ****         3.7129   0.3107  -2.7728 C.3            1 S1                 0.0000
     18 ****         3.4594  -0.5215  -4.0378 C.3            1 S1                 0.0000
     19 ****         2.7060  -1.8234  -3.7088 C.3            1 S1                 0.0000
     20 ****         3.5983  -2.8724  -3.0216 C.3            1 S1                 0.0000
     21 ****         1.4316  -1.5200  -2.8940 C.3            1 S1                 0.0000
     22 ****        -4.1751  -0.5277   0.5509 H              1 S1                 0.0000
     23 ****        -3.0176   0.3620  -0.4338 H              1 S1                 0.0000
     24 ****        -4.6372   1.0052  -0.1765 H              1 S1                 0.0000
     25 ****        -3.4822   4.2513   4.2577 H              1 S1                 0.0000
     26 ****        -3.6512   4.8063   2.5818 H              1 S1                 0.0000
     27 ****        -2.0369   4.6297   3.2973 H              1 S1                 0.0000
     28 ****        -1.0911   0.9795   4.9654 H              1 S1                 0.0000
     29 ****        -2.4011   1.9982   5.5628 H              1 S1                 0.0000
     30 ****        -1.0090   2.7237   4.7549 H              1 S1                 0.0000
     31 ****        -2.0023  -0.9864   3.9011 H              1 S1                 0.0000
     32 ****        -2.9120  -1.4724   2.4999 H              1 S1                 0.0000
     33 ****        -1.8634  -1.8231   0.5500 H              1 S1                 0.0000
     34 ****         1.0328  -2.1951   0.5442 H              1 S1                 0.0000
     35 ****        -0.1252  -2.6082  -0.6986 H              1 S1                 0.0000
     36 ****        -0.2881  -0.1693  -1.3724 H              1 S1                 0.0000
     37 ****         0.7871   0.2445  -0.0603 H              1 S1                 0.0000
     38 ****         1.7303   1.1775  -2.5840 H              1 S1                 0.0000
     39 ****         2.6334   1.0993  -1.0838 H              1 S1                 0.0000
     40 ****         4.1655   1.2653  -3.0425 H              1 S1                 0.0000
     41 ****         4.4331  -0.1965  -2.1301 H              1 S1                 0.0000
     42 ****         2.8667   0.0685  -4.7381 H              1 S1                 0.0000
     43 ****         4.4008  -0.7393  -4.5436 H              1 S1                 0.0000
     44 ****         2.3910  -2.2634  -4.6560 H              1 S1                 0.0000
     45 ****         3.9482  -2.5347  -2.0460 H              1 S1                 0.0000
     46 ****         4.4757  -3.0984  -3.6282 H              1 S1                 0.0000
     47 ****         3.0571  -3.8068  -2.8702 H              1 S1                 0.0000
     48 ****         0.9410  -2.4584  -2.6387 H              1 S1                 0.0000
     49 ****         0.7249  -0.9610  -3.5097 H              1 S1                 0.0000
     50 ****         2.4040  -1.2662  -1.1326 H              1 S1                 0.0000
     51 ****        -4.0232   3.0860   0.9981 LP             1 S1                 0.0000
     52 ****         0.2375  -0.2310   3.5006 LP             1 S1                 0.0000
     53 ****         1.0816  -0.8240   2.1093 LP             1 S1                 0.0000
@<TRIPOS>BOND
    1    1    2 1     
    2    1   22 1     
    3    1   23 1     
    4    1   24 1     
    5    2    8 1     
    6    2    3 2     
    7    3    4 1     
    8    4    5 1     
    9    4    6 1     
   10    5   25 1     
   11    5   26 1     
   12    5   27 1     
   13    6    7 1     
   14    6    8 2     
   15    7   28 1     
   16    7   29 1     
   17    7   30 1     
   18    8    9 1     
   19    9   10 1     
   20    9   31 1     
   21    9   32 1     
   22   10   11 2     
   23   10   12 am    
   24   12   13 1     
   25   12   33 1     
   26   13   14 1     
   27   13   34 1     
   28   13   35 1     
   29   14   15 1     
   30   14   36 1     
   31   14   37 1     
   32   15   21 1     
   33   15   16 1     
   34   15   50 1     
   35   16   17 1     
   36   16   38 1     
   37   16   39 1     
   38   17   18 1     
   39   17   40 1     
   40   17   41 1     
   41   18   19 1     
   42   18   42 1     
   43   18   43 1     
   44   19   20 1     
   45   19   21 1     
   46   19   44 1     
   47   20   45 1     
   48   20   46 1     
   49   20   47 1     
   50   21   48 1     
   51   21   49 1     
   52    3   51 1     
   53   11   52 1     
   54   11   53 1     
@<TRIPOS>SUBSTRUCTURE
      1 S1             1
@<TRIPOS>SET
LONE_PAIRS      STATIC     ATOMS    <user>   **** ""
3 51 52 53
DONOR_HYDROGENS      STATIC     ATOMS    <user>   **** ""
2 33 50
ATOM$BLUE        STATIC     ATOMS    COLORGROUP SYSTEM
3 51 52 53
ATOM$RED        STATIC     ATOMS    COLORGROUP SYSTEM
2 33 50
