AV-unprocessed.smi:1664|AV-procd|sdf|6668|dock7
  -GOLD-   22720 7383D 1   1.00000     0.00000
 Structure written by MMmdl.
 35 36  0  0  0  0  0  0  0  0  3 V2000
  148.0200  140.0256  156.8511 C   0  0  0  0  0  0  0  0  0  0  0  0
  148.6178  140.9996  155.8164 C   0  0  2  0  0  0  0  0  0  0  0  0
  149.5902  140.2739  154.9726 C   0  0  0  0  0  0  0  0  0  0  0  0
  150.3524  139.7055  154.3122 N   0  0  0  0  0  0  0  0  0  0  0  0
  149.2693  142.1084  156.5154 N   0  0  0  0  0  0  0  0  0  0  0  0
  149.9560  142.0654  157.6723 C   0  0  0  0  0  0  0  0  0  0  0  0
  150.1180  141.0309  158.3171 O   0  0  0  0  0  0  0  0  0  0  0  0
  150.5645  143.3748  158.2040 C   0  0  0  0  0  0  0  0  0  0  0  0
  151.3996  143.2288  159.4106 N   0  0  0  0  0  0  0  0  0  0  0  0
  152.4028  142.2402  159.3757 C   0  0  0  0  0  0  0  0  0  0  0  0
  153.2290  142.0208  160.4172 C   0  0  0  0  0  0  0  0  0  0  0  0
  154.2616  141.0097  160.3590 N   0  3  0  0  0  0  0  0  0  0  0  0
  154.9593  140.8239  161.3508 O   0  0  0  0  0  0  0  0  0  0  0  0
  154.4108  140.3699  159.3222 O   0  5  0  0  0  0  0  0  0  0  0  0
  153.0536  142.8405  161.6006 C   0  0  0  0  0  0  0  0  0  0  0  0
  152.1002  143.7922  161.6379 C   0  0  0  0  0  0  0  0  0  0  0  0
  151.2095  144.0363  160.4988 C   0  0  0  0  0  0  0  0  0  0  0  0
  150.3506  144.9176  160.5185 O   0  0  0  0  0  0  0  0  0  0  0  0
  147.4840  141.5355  154.9448 C   0  0  0  0  0  0  0  0  0  0  0  0
  147.1132  140.9142  153.6166 C   0  0  0  0  0  0  0  0  0  0  0  0
  147.7290  142.2957  153.6607 C   0  0  0  0  0  0  0  0  0  0  0  0
  147.4745  139.2196  156.3594 H   0  0  0  0  0  0  0  0  0  0  0  0
  147.3239  140.5333  157.5202 H   0  0  0  0  0  0  0  0  0  0  0  0
  148.7905  139.5604  157.4661 H   0  0  0  0  0  0  0  0  0  0  0  0
  149.1978  143.0083  156.0636 H   0  0  0  0  0  0  0  0  0  0  0  0
  151.1358  143.8409  157.3993 H   0  0  0  0  0  0  0  0  0  0  0  0
  149.7460  144.0690  158.4007 H   0  0  0  0  0  0  0  0  0  0  0  0
  152.4553  141.6891  158.4474 H   0  0  0  0  0  0  0  0  0  0  0  0
  153.6850  142.6973  162.4652 H   0  0  0  0  0  0  0  0  0  0  0  0
  151.9875  144.3916  162.5295 H   0  0  0  0  0  0  0  0  0  0  0  0
  146.6393  141.8914  155.5327 H   0  0  0  0  0  0  0  0  0  0  0  0
  147.7284  140.1017  153.2359 H   0  0  0  0  0  0  0  0  0  0  0  0
  146.0545  140.8445  153.3750 H   0  0  0  0  0  0  0  0  0  0  0  0
  147.0782  143.1416  153.4493 H   0  0  0  0  0  0  0  0  0  0  0  0
  148.7532  142.4023  153.3096 H   0  0  0  0  0  0  0  0  0  0  0  0
  1  2  1  0  0  0  0
  1 22  1  0  0  0  0
  1 23  1  0  0  0  0
  1 24  1  0  0  0  0
  2  3  1  0  0  0  0
  2  5  1  0  0  0  0
  2 19  1  0  0  0  0
  3  4  3  0  0  0  0
  5  6  1  0  0  0  0
  5 25  1  0  0  0  0
  6  7  2  0  0  0  0
  6  8  1  0  0  0  0
  8  9  1  0  0  0  0
  8 26  1  0  0  0  0
  8 27  1  0  0  0  0
  9 17  1  0  0  0  0
  9 10  1  0  0  0  0
 10 11  2  0  0  0  0
 10 28  1  0  0  0  0
 11 12  1  0  0  0  0
 11 15  1  0  0  0  0
 12 13  2  0  0  0  0
 12 14  1  0  0  0  0
 15 16  2  0  0  0  0
 15 29  1  0  0  0  0
 16 17  1  0  0  0  0
 16 30  1  0  0  0  0
 17 18  2  0  0  0  0
 19 21  1  0  0  0  0
 19 20  1  0  0  0  0
 19 31  1  0  0  0  0
 20 21  1  0  0  0  0
 20 32  1  0  0  0  0
 20 33  1  0  0  0  0
 21 34  1  0  0  0  0
 21 35  1  0  0  0  0
M  CHG  1  12   1
M  CHG  1  14  -1
M  END
> <s_m_source_file>
AV-unprocessed.smi

> <i_m_source_file_index>
1664

> <i_lp_mmshare_version>
43012

> <i_f3d_flags>
0

> <s_epik_input>
W0NIMl0xW0NIMl1bQ0hdMVtDQF0oW0NIM10pKEMjTilbTkhdQyg9TylbQ0gyXW4yW2NIXWMoW04rXSg9TylbTy1dKVtjSF1bY0hdYzI9Tw==

> <s_epik_cmdline>
J2VwaWtfcHl0aG9uJywgJy1waCcsICc3LjAnLCAnLXRuJywgJzgnLCAnLW1hJywgJzIwMCcsICctbWV0YWxfYmluZGluZycsICctaW1hZScsICc8aW5maWxlLm1hZT4nLCAnLW9tYWUnLCAnPG91dGZpbGUubWFlPic=

> <r_lp_tautomer_probability>
1

> <r_epik_Ionization_Penalty>
4.65324e-07

> <r_epik_Ionization_Penalty_Charging>
6.17383e-11

> <r_epik_Ionization_Penalty_Neutral>
4.65262e-07

> <r_epik_State_Penalty>
-0

> <r_epik_Charging_Adjusted_Penalty>
6.17383e-11

> <i_epik_Tot_Q>
0

> <i_epik_Tot_abs_Q>
2

> <r_epik_Metal_State_Penalty>
-0

> <b_epik_Metal_Only>
0

> <s_lp_Force_Field>
OPLS_2005

> <r_lp_Energy>
24.1204

> <b_lp_Chiralities_Consistent>
1

> <s_lp_Variant>
AV-unprocessed.smi:1664-2

> <Gold.Version>
5.8.1

> <Gold.Id.Protein>
6NUR|6NUR_protein|mol2

> <Gold.PLP.Fitness>
46.6711

> <Gold.PLP.PLP>
-39.5867

> <Gold.PLP.part.hbond>
-4.0000

> <Gold.PLP.part.metal>
0.0000

> <Gold.PLP.part.buried>
-4.9365

> <Gold.PLP.part.nonpolar>
-30.9915

> <Gold.PLP.part.repulsive>
0.3950

> <Gold.PLP.ligand.clash>
0.0064

> <Gold.PLP.ligand.torsion>
1.4513

> <Gold.PLP.Chemscore.Hbond>
2.8247

> <Gold.PLP.Chemscore.CHOScore>
0.0000

> <Gold.PLP.Chemscore.Metal>
0.0000

> <Gold.Chemscore.Hbonds>
donor molecule, donor type, donor heavy atom, donor atom, acceptor molecule, acceptor atom, score
      L1  H     5    25       P1  8028  1.00
      P1  H  7989  7998       L1     4  1.00
      P1  H  7997  8008       L1    14  0.61

> <Gold.PLP.Chemscore.Internal.Correction>
1.5191

> <Gold.Rescore>
     Score         DG    S(hbond)    S(metal)    S(lipo)     H(rot)  DE(clash)    DE(int)     intcor
     14.39     -18.90       2.79        0.00      77.34       1.94       0.19       4.32       ----

> <Gold.Chemscore.Fitness>
14.3864

> <Gold.Chemscore.DG>
-18.8962

> <Gold.Chemscore.ZeroCoef>
-5.4800

> <Gold.Chemscore.Hbond>
2.7933

> <Gold.Chemscore.Metal>
0.0000

> <Gold.Chemscore.Lipo>
77.3434

> <Gold.Chemscore.Internal_Hbond>
0.0000

> <Gold.Chemscore.DEClash>
0.1916

> <Gold.Chemscore.DEInternal>
4.3181

> <Gold.Chemscore.Rot>
1.9386

> <Gold.Chemscore.Internal.Correction>
   9.000000E+99

> <Gold.Chemscore.Hbonds>
donor molecule, donor type, donor heavy atom, donor atom, acceptor molecule, acceptor atom, score
      L1  H     5    25       P1  8028  1.00
      P1  H  7989  7998       L1     4  0.85
      P1  H  7997  8008       L1    14  0.59

> <Gold.Chemscore.Hbond.Weighted>
-9.3297

> <Gold.Chemscore.Metal.Weighted>
-0.0000

> <Gold.Chemscore.Lipo.Weighted>
-9.0492

> <Gold.Chemscore.Internal_Hbond.Weighted>
0.0000

> <Gold.Chemscore.DEClash.Weighted>
0.1916

> <Gold.Chemscore.DEInternal.Weighted>
4.3181

> <Gold.Chemscore.Rot.Weighted>
4.9627

> <Gold.Chemscore.Internal.Correction.Weighted>
   9.000000E+99

> <Gold.Protein.RotatedTorsions>
[ 6907 6896 6895 6894 ] final   19.28 input  -60.11 | X-H torsion
[ 7974 7965 7964 7962 ] final  -55.92 input  175.53 | X-H torsion
[ 8008 7997 7996 7995 ] final -124.88 input   59.86 | X-H torsion
[ 10167 10162 10161 10158 ] final -135.66 input  -65.29 | X-H torsion
[ 10718 10713 10712 10709 ] final  115.24 input   66.30 | X-H torsion
[ 10763 10752 10751 10750 ] final -106.16 input  -60.55 | X-H torsion
[ 11005 11000 10999 10996 ] final -125.51 input  -57.11 | X-H torsion

> <Gold.Protein.ActiveResidues>
 VAL166  LYS551  ARG553  GLY616  TRP617  ASP618  TYR619  PRO620  LYS621  CYS622 
 ASP623  PHE694  ASN695  SER759  ASP760  ASP761  ALA762  ILE779  LEU786  VAL792 
 PHE793  MET794  SER795  GLU796  ALA797  LYS798  CYS799  TRP800  GLU811  SER814 

> <Gold.Protein.RotatedAtoms>
  151.8784  135.0463  160.0486 H   0  0  0  0  0  0  0  0  0  0  0  0  # atno 6907 bound_to 6896
  152.2532  133.5228  159.5346 H   0  0  0  0  0  0  0  0  0  0  0  0  # atno 6908 bound_to 6896
  150.7091  134.0847  159.3953 H   0  0  0  0  0  0  0  0  0  0  0  0  # atno 6909 bound_to 6896
  145.8686  140.8232  142.9900 H   0  0  0  0  0  0  0  0  0  0  0  0  # atno 7974 bound_to 7965
  155.2041  140.0417  157.2922 H   0  0  0  0  0  0  0  0  0  0  0  0  # atno 8008 bound_to 7997
  154.6055  140.2463  155.7708 H   0  0  0  0  0  0  0  0  0  0  0  0  # atno 8009 bound_to 7997
  156.2347  140.2925  156.0291 H   0  0  0  0  0  0  0  0  0  0  0  0  # atno 8010 bound_to 7997
  139.8756  143.6902  152.2634 H   0  0  0  0  0  0  0  0  0  0  0  0  # atno 10167 bound_to 10162
  157.6234  131.1010  150.7301 H   0  0  0  0  0  0  0  0  0  0  0  0  # atno 10718 bound_to 10713
  154.7994  135.4722  154.0239 H   0  0  0  0  0  0  0  0  0  0  0  0  # atno 10763 bound_to 10752
  153.1756  135.6832  153.8554 H   0  0  0  0  0  0  0  0  0  0  0  0  # atno 10764 bound_to 10752
  153.8122  135.3215  155.3379 H   0  0  0  0  0  0  0  0  0  0  0  0  # atno 10765 bound_to 10752
  140.9756  134.0745  157.3822 H   0  0  0  0  0  0  0  0  0  0  0  0  # atno 11005 bound_to 11000
  144.6726  140.1205  143.7450 LP  0  0  0  0  0  0  0  0  0  0  0  0  # atno 17320 bound_to 7965
  145.9163  139.2518  143.1408 LP  0  0  0  0  0  0  0  0  0  0  0  0  # atno 17321 bound_to 7965
  139.7243  144.7596  151.0904 LP  0  0  0  0  0  0  0  0  0  0  0  0  # atno 17342 bound_to 10162
  140.7753  143.5168  150.9585 LP  0  0  0  0  0  0  0  0  0  0  0  0  # atno 17343 bound_to 10162
  156.7654  130.4812  149.5428 LP  0  0  0  0  0  0  0  0  0  0  0  0  # atno 17370 bound_to 10713
  156.1392  130.6232  151.0443 LP  0  0  0  0  0  0  0  0  0  0  0  0  # atno 17371 bound_to 10713
  139.8929  135.0127  156.6871 LP  0  0  0  0  0  0  0  0  0  0  0  0  # atno 17394 bound_to 11000
  140.7264  133.9097  155.8181 LP  0  0  0  0  0  0  0  0  0  0  0  0  # atno 17395 bound_to 11000

$$$$
