AV-unprocessed.smi:2888|AV-procd|sdf|11103|dock1
  -GOLD-   2272015573D 1   1.00000     0.00000
 Structure written by MMmdl.
 33 35  0  0  0  0  0  0  0  0  1 V2000
  152.1368  138.6412  154.8755 C   0  0  0  0  0  0  0  0  0  0  0  0
  151.0480  139.6913  154.9315 C   0  0  0  0  0  0  0  0  0  0  0  0
  149.8529  139.5573  154.1944 C   0  0  0  0  0  0  0  0  0  0  0  0
  148.9182  140.6049  154.3330 C   0  0  0  0  0  0  0  0  0  0  0  0
  147.5963  140.5895  153.5953 C   0  0  0  0  0  0  0  0  0  0  0  0
  149.1579  141.6732  155.1255 N   0  0  0  0  0  0  0  0  0  0  0  0
  150.3247  141.6984  155.7750 C   0  0  0  0  0  0  0  0  0  0  0  0
  150.5395  142.8100  156.5689 N   0  0  0  0  0  0  0  0  0  0  0  0
  151.6455  142.9484  157.5082 C   0  0  1  0  0  0  0  0  0  0  0  0
  151.7814  144.3704  158.0671 C   0  0  0  0  0  0  0  0  0  0  0  0
  151.7117  144.1235  159.5792 C   0  0  2  0  0  0  0  0  0  0  0  0
  152.9531  143.3912  160.1068 C   0  0  0  0  0  0  0  0  0  0  0  0
  152.7277  141.9745  159.5791 C   0  0  0  0  0  0  0  0  0  0  0  0
  151.4191  142.1341  158.7930 C   0  0  1  0  0  0  0  0  0  0  0  0
  150.7547  143.0797  159.6161 O   0  0  0  0  0  0  0  0  0  0  0  0
  151.2811  140.7634  155.7199 N   0  0  0  0  0  0  0  0  0  0  0  0
  151.8251  137.7819  154.2811 H   0  0  0  0  0  0  0  0  0  0  0  0
  152.3795  138.2908  155.8791 H   0  0  0  0  0  0  0  0  0  0  0  0
  153.0397  139.0572  154.4279 H   0  0  0  0  0  0  0  0  0  0  0  0
  149.6651  138.7032  153.5603 H   0  0  0  0  0  0  0  0  0  0  0  0
  147.4468  139.6427  153.0761 H   0  0  0  0  0  0  0  0  0  0  0  0
  147.5652  141.3921  152.8584 H   0  0  0  0  0  0  0  0  0  0  0  0
  146.7692  140.7292  154.2920 H   0  0  0  0  0  0  0  0  0  0  0  0
  149.9912  143.6322  156.3624 H   0  0  0  0  0  0  0  0  0  0  0  0
  152.5651  142.6232  157.0198 H   0  0  0  0  0  0  0  0  0  0  0  0
  152.7112  144.8533  157.7648 H   0  0  0  0  0  0  0  0  0  0  0  0
  150.9536  145.0081  157.7531 H   0  0  0  0  0  0  0  0  0  0  0  0
  151.4368  145.0053  160.1584 H   0  0  0  0  0  0  0  0  0  0  0  0
  153.8802  143.8368  159.7446 H   0  0  0  0  0  0  0  0  0  0  0  0
  152.9746  143.3943  161.1971 H   0  0  0  0  0  0  0  0  0  0  0  0
  153.5487  141.6176  158.9565 H   0  0  0  0  0  0  0  0  0  0  0  0
  152.5977  141.2755  160.4061 H   0  0  0  0  0  0  0  0  0  0  0  0
  150.8802  141.1968  158.6483 H   0  0  0  0  0  0  0  0  0  0  0  0
  1  2  1  0  0  0  0
  1 17  1  0  0  0  0
  1 18  1  0  0  0  0
  1 19  1  0  0  0  0
  2 16  1  0  0  0  0
  2  3  2  0  0  0  0
  3  4  1  0  0  0  0
  3 20  1  0  0  0  0
  4  5  1  0  0  0  0
  4  6  2  0  0  0  0
  5 21  1  0  0  0  0
  5 22  1  0  0  0  0
  5 23  1  0  0  0  0
  6  7  1  0  0  0  0
  7  8  1  0  0  0  0
  7 16  2  0  0  0  0
  8  9  1  0  0  0  0
  8 24  1  0  0  0  0
  9 14  1  0  0  0  0
  9 10  1  0  0  0  0
  9 25  1  0  0  0  0
 10 11  1  0  0  0  0
 10 26  1  0  0  0  0
 10 27  1  0  0  0  0
 11 15  1  0  0  0  0
 11 12  1  0  0  0  0
 11 28  1  0  0  0  0
 12 13  1  0  0  0  0
 12 29  1  0  0  0  0
 12 30  1  0  0  0  0
 13 14  1  0  0  0  0
 13 31  1  0  0  0  0
 13 32  1  0  0  0  0
 14 15  1  0  0  0  0
 14 33  1  0  0  0  0
M  END
> <s_m_source_file>
AV-unprocessed.smi

> <i_m_source_file_index>
2888

> <i_lp_mmshare_version>
43012

> <i_f3d_flags>
0

> <s_epik_input>
W0NIM11jMVtjSF1jKFtDSDNdKW5jKG4xKVtOSF1bQ0BIXShbQ0gyXVtDQEBIXTIzKVtDQEBIXShPMylbQ0gyXVtDSDJdMg==

> <s_epik_cmdline>
J2VwaWtfcHl0aG9uJywgJy1waCcsICc3LjAnLCAnLXRuJywgJzgnLCAnLW1hJywgJzIwMCcsICctbWV0YWxfYmluZGluZycsICctaW1hZScsICc8aW5maWxlLm1hZT4nLCAnLW9tYWUnLCAnPG91dGZpbGUubWFlPic=

> <r_lp_tautomer_probability>
1

> <r_epik_Ionization_Penalty>
0.00890508

> <r_epik_Ionization_Penalty_Charging>
0

> <r_epik_Ionization_Penalty_Neutral>
0.00890508

> <r_epik_State_Penalty>
0.0067342

> <r_epik_Charging_Adjusted_Penalty>
0.0067342

> <i_epik_Tot_Q>
0

> <i_epik_Tot_abs_Q>
0

> <r_epik_Metal_State_Penalty>
0.00663442

> <b_epik_Metal_Only>
0

> <s_lp_Force_Field>
OPLS_2005

> <r_lp_Energy>
31.5377

> <b_lp_Chiralities_Consistent>
1

> <s_lp_Variant>
AV-unprocessed.smi:2888-4

> <Gold.Version>
5.8.1

> <Gold.Id.Protein>
6NUR|6NUR_protein|mol2

> <Gold.PLP.Fitness>
41.9928

> <Gold.PLP.PLP>
-39.3246

> <Gold.PLP.part.hbond>
-2.3359

> <Gold.PLP.part.metal>
0.0000

> <Gold.PLP.part.buried>
-4.1149

> <Gold.PLP.part.nonpolar>
-33.4194

> <Gold.PLP.part.repulsive>
0.5379

> <Gold.PLP.ligand.clash>
0.0000

> <Gold.PLP.ligand.torsion>
0.1755

> <Gold.PLP.Chemscore.Hbond>
1.0000

> <Gold.PLP.Chemscore.CHOScore>
0.0000

> <Gold.PLP.Chemscore.Metal>
0.0000

> <Gold.Chemscore.Hbonds>
donor molecule, donor type, donor heavy atom, donor atom, acceptor molecule, acceptor atom, score
      L1  H     8    24       P1  8028  1.00

> <Gold.PLP.Chemscore.Internal.Correction>
0.0192

> <Gold.Rescore>
     Score         DG    S(hbond)    S(metal)    S(lipo)     H(rot)  DE(clash)    DE(int)     intcor
     18.12     -18.31       1.00        0.00     103.06       1.00       0.11       0.09       ----

> <Gold.Chemscore.Fitness>
18.1188

> <Gold.Chemscore.DG>
-18.3135

> <Gold.Chemscore.ZeroCoef>
-5.4800

> <Gold.Chemscore.Hbond>
0.9987

> <Gold.Chemscore.Metal>
0.0000

> <Gold.Chemscore.Lipo>
103.0590

> <Gold.Chemscore.Internal_Hbond>
0.0000

> <Gold.Chemscore.DEClash>
0.1059

> <Gold.Chemscore.DEInternal>
0.0888

> <Gold.Chemscore.Rot>
1.0000

> <Gold.Chemscore.Internal.Correction>
   9.000000E+99

> <Gold.Chemscore.Hbonds>
donor molecule, donor type, donor heavy atom, donor atom, acceptor molecule, acceptor atom, score
      L1  H     8    24       P1  8028  1.00

> <Gold.Chemscore.Hbond.Weighted>
-3.3356

> <Gold.Chemscore.Metal.Weighted>
-0.0000

> <Gold.Chemscore.Lipo.Weighted>
-12.0579

> <Gold.Chemscore.Internal_Hbond.Weighted>
0.0000

> <Gold.Chemscore.DEClash.Weighted>
0.1059

> <Gold.Chemscore.DEInternal.Weighted>
0.0888

> <Gold.Chemscore.Rot.Weighted>
2.5600

> <Gold.Chemscore.Internal.Correction.Weighted>
   9.000000E+99

> <Gold.Protein.RotatedTorsions>
[ 6907 6896 6895 6894 ] final  103.43 input  -60.11 | X-H torsion
[ 7974 7965 7964 7962 ] final  -40.75 input  175.53 | X-H torsion
[ 8008 7997 7996 7995 ] final   12.34 input   59.86 | X-H torsion
[ 10167 10162 10161 10158 ] final  169.70 input  -65.29 | X-H torsion
[ 10718 10713 10712 10709 ] final   59.13 input   66.30 | X-H torsion
[ 10763 10752 10751 10750 ] final -137.95 input  -60.55 | X-H torsion
[ 11005 11000 10999 10996 ] final  -59.87 input  -57.11 | X-H torsion

> <Gold.Protein.ActiveResidues>
 VAL166  LYS551  ARG553  GLY616  TRP617  ASP618  TYR619  PRO620  LYS621  CYS622 
 ASP623  PHE694  ASN695  SER759  ASP760  ASP761  ALA762  ILE779  LEU786  VAL792 
 PHE793  MET794  SER795  GLU796  ALA797  LYS798  CYS799  TRP800  GLU811  SER814 

> <Gold.Protein.RotatedAtoms>
  152.5295  133.9827  159.7813 H   0  0  0  0  0  0  0  0  0  0  0  0  # atno 6907 bound_to 6896
  151.0078  133.5986  159.2693 H   0  0  0  0  0  0  0  0  0  0  0  0  # atno 6908 bound_to 6896
  151.3072  135.0791  159.9313 H   0  0  0  0  0  0  0  0  0  0  0  0  # atno 6909 bound_to 6896
  146.0276  140.6772  142.9148 H   0  0  0  0  0  0  0  0  0  0  0  0  # atno 7974 bound_to 7965
  154.8193  140.2881  155.5798 H   0  0  0  0  0  0  0  0  0  0  0  0  # atno 8008 bound_to 7997
  156.2996  140.2553  156.3027 H   0  0  0  0  0  0  0  0  0  0  0  0  # atno 8009 bound_to 7997
  154.9357  140.0382  157.2060 H   0  0  0  0  0  0  0  0  0  0  0  0  # atno 8010 bound_to 7997
  139.4999  144.3677  151.9758 H   0  0  0  0  0  0  0  0  0  0  0  0  # atno 10167 bound_to 10162
  157.5652  130.8865  149.9175 H   0  0  0  0  0  0  0  0  0  0  0  0  # atno 10718 bound_to 10713
  154.8649  135.3627  154.5305 H   0  0  0  0  0  0  0  0  0  0  0  0  # atno 10763 bound_to 10752
  153.5931  135.7015  153.5420 H   0  0  0  0  0  0  0  0  0  0  0  0  # atno 10764 bound_to 10752
  153.3356  135.4112  155.1492 H   0  0  0  0  0  0  0  0  0  0  0  0  # atno 10765 bound_to 10752
  141.1265  133.6618  156.5136 H   0  0  0  0  0  0  0  0  0  0  0  0  # atno 11005 bound_to 11000
  144.7016  140.3677  143.7151 LP  0  0  0  0  0  0  0  0  0  0  0  0  # atno 17320 bound_to 7965
  145.7093  139.1680  143.2548 LP  0  0  0  0  0  0  0  0  0  0  0  0  # atno 17321 bound_to 7965
  140.3113  144.3535  150.6033 LP  0  0  0  0  0  0  0  0  0  0  0  0  # atno 17342 bound_to 10162
  140.5796  143.2174  151.7452 LP  0  0  0  0  0  0  0  0  0  0  0  0  # atno 17343 bound_to 10162
  156.0700  130.3686  150.0795 LP  0  0  0  0  0  0  0  0  0  0  0  0  # atno 17370 bound_to 10713
  156.8955  130.9603  151.3583 LP  0  0  0  0  0  0  0  0  0  0  0  0  # atno 17371 bound_to 10713
  140.4348  134.7069  157.4961 LP  0  0  0  0  0  0  0  0  0  0  0  0  # atno 17394 bound_to 11000
  140.0269  134.6464  155.9161 LP  0  0  0  0  0  0  0  0  0  0  0  0  # atno 17395 bound_to 11000

$$$$
