AV-unprocessed.smi:109|AV-procd|sdf|1044|dock10
  -GOLD-   2262018 83D 1   1.00000     0.00000
 Structure written by MMmdl.
 58 61  0  0  0  0  0  0  0  0  1 V2000
  153.6327  139.4215  158.5632 O   0  0  0  0  0  0  0  0  0  0  0  0
  152.4021  139.7544  159.1688 C   0  0  0  0  0  0  0  0  0  0  0  0
  151.4111  140.2532  158.1026 C   0  0  0  0  0  0  0  0  0  0  0  0
  151.5719  141.7502  157.7408 C   0  0  1  0  0  0  0  0  0  0  0  0
  150.7470  142.0575  156.5694 N   0  0  0  0  0  0  0  0  0  0  0  0
  150.0749  141.0967  155.8963 C   0  0  0  0  0  0  0  0  0  0  0  0
  150.5634  140.5616  154.7474 N   0  0  0  0  0  0  0  0  0  0  0  0
  149.8774  139.6102  154.1073 C   0  0  0  0  0  0  0  0  0  0  0  0
  148.7081  139.0581  154.4393 N   0  0  0  0  0  0  0  0  0  0  0  0
  148.2144  139.5905  155.5948 C   0  0  0  0  0  0  0  0  0  0  0  0
  148.8304  140.6094  156.3725 C   0  0  0  0  0  0  0  0  0  0  0  0
  148.0377  140.9029  157.4731 N   0  0  0  0  0  0  0  0  0  0  0  0
  147.0132  140.1030  157.3464 C   0  0  0  0  0  0  0  0  0  0  0  0
  147.0456  139.2645  156.2492 N   0  0  0  0  0  0  0  0  0  0  0  0
  146.0451  138.2474  155.7773 C   0  0  2  0  0  0  0  0  0  0  0  0
  146.6255  136.9884  155.8940 O   0  0  0  0  0  0  0  0  0  0  0  0
  147.3334  136.6863  154.7006 C   0  0  1  0  0  0  0  0  0  0  0  0
  147.5254  135.1655  154.5959 C   0  0  0  0  0  0  0  0  0  0  0  0
  148.2972  134.8435  153.4587 O   0  0  0  0  0  0  0  0  0  0  0  0
  146.4608  137.3049  153.5948 C   0  0  2  0  0  0  0  0  0  0  0  0
  147.2770  137.8242  152.5633 O   0  0  0  0  0  0  0  0  0  0  0  0
  145.6918  138.4334  154.2921 C   0  0  1  0  0  0  0  0  0  0  0  0
  144.3012  138.2945  154.0816 O   0  0  0  0  0  0  0  0  0  0  0  0
  151.2058  142.7198  158.9009 C   0  0  0  0  0  0  0  0  0  0  0  0
  151.1492  144.1854  158.3982 C   0  0  0  0  0  0  0  0  0  0  0  0
  150.7984  145.1809  159.5152 C   0  0  0  0  0  0  0  0  0  0  0  0
  151.7873  145.0743  160.6820 C   0  0  0  0  0  0  0  0  0  0  0  0
  151.8375  143.6377  161.2146 C   0  0  0  0  0  0  0  0  0  0  0  0
  152.1827  142.6352  160.1008 C   0  0  0  0  0  0  0  0  0  0  0  0
  145.1941  138.3633  156.4495 H   0  0  0  0  0  0  0  0  0  0  0  0
  148.3051  137.1800  154.7566 H   0  0  0  0  0  0  0  0  0  0  0  0
  145.7762  136.5619  153.1821 H   0  0  0  0  0  0  0  0  0  0  0  0
  145.9818  139.4284  153.9515 H   0  0  0  0  0  0  0  0  0  0  0  0
  153.8367  138.5223  158.7705 H   0  0  0  0  0  0  0  0  0  0  0  0
  152.0084  138.8743  159.6782 H   0  0  0  0  0  0  0  0  0  0  0  0
  152.5867  140.5161  159.9261 H   0  0  0  0  0  0  0  0  0  0  0  0
  151.5009  139.6443  157.2018 H   0  0  0  0  0  0  0  0  0  0  0  0
  150.4121  140.0747  158.4971 H   0  0  0  0  0  0  0  0  0  0  0  0
  152.6271  141.9154  157.5252 H   0  0  0  0  0  0  0  0  0  0  0  0
  150.5798  143.0408  156.4103 H   0  0  0  0  0  0  0  0  0  0  0  0
  150.3308  139.2370  153.2008 H   0  0  0  0  0  0  0  0  0  0  0  0
  146.2053  140.1094  158.0624 H   0  0  0  0  0  0  0  0  0  0  0  0
  148.0474  134.7934  155.4780 H   0  0  0  0  0  0  0  0  0  0  0  0
  146.5654  134.6506  154.5482 H   0  0  0  0  0  0  0  0  0  0  0  0
  148.3943  135.6213  152.9306 H   0  0  0  0  0  0  0  0  0  0  0  0
  147.8347  137.1335  152.2408 H   0  0  0  0  0  0  0  0  0  0  0  0
  144.0584  138.8116  153.3287 H   0  0  0  0  0  0  0  0  0  0  0  0
  150.2133  142.4504  159.2661 H   0  0  0  0  0  0  0  0  0  0  0  0
  152.1107  144.4587  157.9616 H   0  0  0  0  0  0  0  0  0  0  0  0
  150.4137  144.2918  157.6006 H   0  0  0  0  0  0  0  0  0  0  0  0
  150.8003  146.1971  159.1200 H   0  0  0  0  0  0  0  0  0  0  0  0
  149.7858  144.9896  159.8725 H   0  0  0  0  0  0  0  0  0  0  0  0
  152.7814  145.3792  160.3524 H   0  0  0  0  0  0  0  0  0  0  0  0
  151.5000  145.7591  161.4805 H   0  0  0  0  0  0  0  0  0  0  0  0
  152.5714  143.5657  162.0176 H   0  0  0  0  0  0  0  0  0  0  0  0
  150.8735  143.3777  161.6540 H   0  0  0  0  0  0  0  0  0  0  0  0
  152.1663  141.6409  160.5441 H   0  0  0  0  0  0  0  0  0  0  0  0
  153.2037  142.8077  159.7576 H   0  0  0  0  0  0  0  0  0  0  0  0
  1  2  1  0  0  0  0
  1 34  1  0  0  0  0
  2  3  1  0  0  0  0
  2 35  1  0  0  0  0
  2 36  1  0  0  0  0
  3  4  1  0  0  0  0
  3 37  1  0  0  0  0
  3 38  1  0  0  0  0
  4  5  1  0  0  0  0
  4 24  1  0  0  0  0
  4 39  1  0  0  0  0
  5  6  1  0  0  0  0
  5 40  1  0  0  0  0
  6 11  1  0  0  0  0
  6  7  2  0  0  0  0
  7  8  1  0  0  0  0
  8  9  2  0  0  0  0
  8 41  1  0  0  0  0
  9 10  1  0  0  0  0
 10 14  1  0  0  0  0
 10 11  2  0  0  0  0
 11 12  1  0  0  0  0
 12 13  2  0  0  0  0
 13 14  1  0  0  0  0
 13 42  1  0  0  0  0
 14 15  1  0  0  0  0
 15 30  1  0  0  0  0
 15 22  1  0  0  0  0
 15 16  1  0  0  0  0
 16 17  1  0  0  0  0
 17 31  1  0  0  0  0
 17 18  1  0  0  0  0
 17 20  1  0  0  0  0
 18 19  1  0  0  0  0
 18 43  1  0  0  0  0
 18 44  1  0  0  0  0
 19 45  1  0  0  0  0
 20 32  1  0  0  0  0
 20 21  1  0  0  0  0
 20 22  1  0  0  0  0
 21 46  1  0  0  0  0
 22 33  1  0  0  0  0
 22 23  1  0  0  0  0
 23 47  1  0  0  0  0
 24 29  1  0  0  0  0
 24 25  1  0  0  0  0
 24 48  1  0  0  0  0
 25 26  1  0  0  0  0
 25 49  1  0  0  0  0
 25 50  1  0  0  0  0
 26 27  1  0  0  0  0
 26 51  1  0  0  0  0
 26 52  1  0  0  0  0
 27 28  1  0  0  0  0
 27 53  1  0  0  0  0
 27 54  1  0  0  0  0
 28 29  1  0  0  0  0
 28 55  1  0  0  0  0
 28 56  1  0  0  0  0
 29 57  1  0  0  0  0
 29 58  1  0  0  0  0
M  END
> <s_m_source_file>
AV-unprocessed.smi

> <i_m_source_file_index>
109

> <i_lp_mmshare_version>
43012

> <i_f3d_flags>
0

> <s_epik_input>
W0NIMl0xW0NIMl1bQ0gyXVtDSDJdW0NIMl1bQ0hdMVtDQEhdKFtDSDJdW0NIMl1bT0hdKVtOSF1jKG5bY0hdbjIpYyhjMjMpbltjSF1uM1tDQEBIXTRPW0NASF0oW0NIMl1bT0hdKVtDQEBIXShbT0hdKVtDQEhdNFtPSF0=

> <s_epik_cmdline>
J2VwaWtfcHl0aG9uJywgJy1waCcsICc3LjAnLCAnLXRuJywgJzgnLCAnLW1hJywgJzIwMCcsICctbWV0YWxfYmluZGluZycsICctaW1hZScsICc8aW5maWxlLm1hZT4nLCAnLW9tYWUnLCAnPG91dGZpbGUubWFlPic=

> <r_lp_tautomer_probability>
1

> <r_epik_Ionization_Penalty>
0.000793976

> <r_epik_Ionization_Penalty_Charging>
0

> <r_epik_Ionization_Penalty_Neutral>
0.000793976

> <r_epik_State_Penalty>
-0

> <r_epik_Charging_Adjusted_Penalty>
0

> <i_epik_Tot_Q>
0

> <i_epik_Tot_abs_Q>
0

> <r_epik_Metal_State_Penalty>
-0

> <b_epik_Metal_Only>
0

> <s_epik_Chemistry_Notes>
This compound contains an acetal/aminal-like group ( X-CH(R)-Y where X, Y are N, S, or O) that may be acid/base labile, releasing an aldehyde.

> <s_lp_Force_Field>
OPLS_2005

> <r_lp_Energy>
47.5037

> <b_lp_Chiralities_Consistent>
1

> <s_lp_Variant>
AV-unprocessed.smi:109-14

> <Gold.Version>
5.8.1

> <Gold.Id.Protein>
6NUR|6NUR_protein|mol2

> <Gold.PLP.Fitness>
54.2250

> <Gold.PLP.PLP>
-40.7561

> <Gold.PLP.part.hbond>
-4.7461

> <Gold.PLP.part.metal>
0.0000

> <Gold.PLP.part.buried>
-6.0646

> <Gold.PLP.part.nonpolar>
-29.2612

> <Gold.PLP.part.repulsive>
0.3592

> <Gold.PLP.ligand.clash>
1.3091

> <Gold.PLP.ligand.torsion>
1.2305

> <Gold.PLP.Chemscore.Hbond>
4.9920

> <Gold.PLP.Chemscore.CHOScore>
0.7208

> <Gold.PLP.Chemscore.Metal>
0.0000

> <Gold.Chemscore.Hbonds>
donor molecule, donor type, donor heavy atom, donor atom, acceptor molecule, acceptor atom, score
      L1  H    19    45       P1  7948  0.49
      L1  H    21    46       P1  7948  0.86
      L1  H    23    47       P1 10175  1.00
      P1  H  7989  7998       L1     7  0.79
      P1  H  7997  8009       L1     1  1.00
      L1  C     8    41       P1  7957  0.81

> <Gold.PLP.Chemscore.Internal.Correction>
0.1007

> <Gold.Rescore>
     Score         DG    S(hbond)    S(metal)    S(lipo)     H(rot)  DE(clash)    DE(int)     intcor
     13.45     -17.86       4.65        0.00      92.68       5.47       0.37       4.03       ----

> <Gold.Chemscore.Fitness>
13.4525

> <Gold.Chemscore.DG>
-17.8576

> <Gold.Chemscore.ZeroCoef>
-5.4800

> <Gold.Chemscore.Hbond>
4.6491

> <Gold.Chemscore.Metal>
0.0000

> <Gold.Chemscore.Lipo>
92.6753

> <Gold.Chemscore.Internal_Hbond>
0.0000

> <Gold.Chemscore.DEClash>
0.3732

> <Gold.Chemscore.DEInternal>
4.0318

> <Gold.Chemscore.Rot>
5.4662

> <Gold.Chemscore.Internal.Correction>
   9.000000E+99

> <Gold.Chemscore.Hbonds>
donor molecule, donor type, donor heavy atom, donor atom, acceptor molecule, acceptor atom, score
      L1  H     5    40       P1  8028  0.01
      L1  H    19    45       P1  7948  0.47
      L1  H    21    46       P1  7948  0.84
      L1  H    23    47       P1 10175  0.97
      P1  H  7989  7998       L1     7  0.11
      P1  H  7997  8009       L1     1  0.65

> <Gold.Chemscore.Hbond.Weighted>
-15.5281

> <Gold.Chemscore.Metal.Weighted>
-0.0000

> <Gold.Chemscore.Lipo.Weighted>
-10.8430

> <Gold.Chemscore.Internal_Hbond.Weighted>
0.0000

> <Gold.Chemscore.DEClash.Weighted>
0.3732

> <Gold.Chemscore.DEInternal.Weighted>
4.0318

> <Gold.Chemscore.Rot.Weighted>
13.9935

> <Gold.Chemscore.Internal.Correction.Weighted>
   9.000000E+99

> <Gold.Protein.RotatedTorsions>
[ 6907 6896 6895 6894 ] final  152.10 input  -60.11 | X-H torsion
[ 7974 7965 7964 7962 ] final  -72.54 input  175.53 | X-H torsion
[ 8008 7997 7996 7995 ] final  133.02 input   59.86 | X-H torsion
[ 10167 10162 10161 10158 ] final -160.52 input  -65.29 | X-H torsion
[ 10718 10713 10712 10709 ] final  145.53 input   66.30 | X-H torsion
[ 10763 10752 10751 10750 ] final -127.91 input  -60.55 | X-H torsion
[ 11005 11000 10999 10996 ] final   58.98 input  -57.11 | X-H torsion

> <Gold.Protein.ActiveResidues>
 VAL166  LYS551  ARG553  GLY616  TRP617  ASP618  TYR619  PRO620  LYS621  CYS622 
 ASP623  PHE694  ASN695  SER759  ASP760  ASP761  ALA762  ILE779  LEU786  VAL792 
 PHE793  MET794  SER795  GLU796  ALA797  LYS798  CYS799  TRP800  GLU811  SER814 

> <Gold.Protein.RotatedAtoms>
  152.0915  133.4203  159.4545 H   0  0  0  0  0  0  0  0  0  0  0  0  # atno 6907 bound_to 6896
  150.6862  134.2866  159.4658 H   0  0  0  0  0  0  0  0  0  0  0  0  # atno 6908 bound_to 6896
  152.0718  134.9528  160.0625 H   0  0  0  0  0  0  0  0  0  0  0  0  # atno 6909 bound_to 6896
  145.6638  140.9244  143.0919 H   0  0  0  0  0  0  0  0  0  0  0  0  # atno 7974 bound_to 7965
  156.2988  140.2532  156.3185 H   0  0  0  0  0  0  0  0  0  0  0  0  # atno 8008 bound_to 7997
  154.9258  140.0399  157.2041 H   0  0  0  0  0  0  0  0  0  0  0  0  # atno 8009 bound_to 7997
  154.8266  140.2869  155.5754 H   0  0  0  0  0  0  0  0  0  0  0  0  # atno 8010 bound_to 7997
  139.6533  144.0044  152.2177 H   0  0  0  0  0  0  0  0  0  0  0  0  # atno 10167 bound_to 10162
  157.3442  131.0940  151.1056 H   0  0  0  0  0  0  0  0  0  0  0  0  # atno 10718 bound_to 10713
  154.8754  135.3946  154.3670 H   0  0  0  0  0  0  0  0  0  0  0  0  # atno 10763 bound_to 10752
  153.4435  135.7027  153.6159 H   0  0  0  0  0  0  0  0  0  0  0  0  # atno 10764 bound_to 10752
  153.4730  135.3786  155.2370 H   0  0  0  0  0  0  0  0  0  0  0  0  # atno 10765 bound_to 10752
  140.0337  134.5974  155.9472 H   0  0  0  0  0  0  0  0  0  0  0  0  # atno 11005 bound_to 11000
  144.7080  139.8484  143.7424 LP  0  0  0  0  0  0  0  0  0  0  0  0  # atno 17320 bound_to 7965
  146.1103  139.4107  143.0292 LP  0  0  0  0  0  0  0  0  0  0  0  0  # atno 17321 bound_to 7965
  139.9764  144.6458  150.7941 LP  0  0  0  0  0  0  0  0  0  0  0  0  # atno 17342 bound_to 10162
  140.7548  143.3033  151.3024 LP  0  0  0  0  0  0  0  0  0  0  0  0  # atno 17343 bound_to 10162
  157.2256  130.6501  149.5829 LP  0  0  0  0  0  0  0  0  0  0  0  0  # atno 17370 bound_to 10713
  155.9712  130.4615  150.6111 LP  0  0  0  0  0  0  0  0  0  0  0  0  # atno 17371 bound_to 10713
  141.1845  133.6553  156.5161 LP  0  0  0  0  0  0  0  0  0  0  0  0  # atno 17394 bound_to 11000
  140.4183  134.7210  157.4875 LP  0  0  0  0  0  0  0  0  0  0  0  0  # atno 17395 bound_to 11000

$$$$
