#       Name:                AV-unprocessed.smi:518
#       Creating user name   scv26
#       Creation time:       Thu Mar 26 23:26:51 2020


#       File generated by GOLD software.
#

@<TRIPOS>MOLECULE
AV-unprocessed.smi:518
    44    46     1
SMALL
NO_CHARGES


@<TRIPOS>ATOM
      1 ****        -3.9114   0.8960   1.7065 O.3            1 S1                 0.0000
      2 ****        -2.5202   0.7455   1.5326 C.3            1 S1                 0.0000
      3 ****        -2.1429  -0.7365   1.6645 C.3            1 S1                 0.0000
      4 ****        -0.7125  -0.9469   1.5003 N.pl3          1 S1                 0.0000
      5 ****        -0.0082  -1.1267   0.3530 C.2            1 S1                 0.0000
      6 ****        -0.6607  -1.1224  -1.0057 C.3            1 S1                 0.0000
      7 ****         0.1557  -0.1973  -1.8345 N.4            1 S1                 1.0000
      8 ****         0.0060  -0.4698  -3.2869 C.3            1 S1                 0.0000
      9 ****         0.9696   0.3953  -4.1167 C.3            1 S1                 0.0000
     10 ****         0.7674   1.8865  -3.8174 C.3            1 S1                 0.0000
     11 ****         0.8928   2.1394  -2.3093 C.3            1 S1                 0.0000
     12 ****        -0.0710   1.2397  -1.5182 C.3            1 S1                 0.0000
     13 ****         1.3039  -1.3231   0.5089 N.2            1 S1                 0.0000
     14 ****         1.4674  -1.2433   1.8775 C.ar           1 S1                 0.0000
     15 ****         2.6308  -1.3581   2.6713 C.ar           1 S1                 0.0000
     16 ****         2.5516  -1.2368   4.0741 C.ar           1 S1                 0.0000
     17 ****         1.3110  -0.9995   4.7012 C.ar           1 S1                 0.0000
     18 ****         1.2270  -0.8519   6.4178 Cl             1 S1                 0.0000
     19 ****         0.1399  -0.8831   3.9278 C.ar           1 S1                 0.0000
     20 ****         0.2242  -1.0052   2.5281 C.ar           1 S1                 0.0000
     21 ****        -4.1242   1.8162   1.6676 H              1 S1                 0.0000
     22 ****        -2.2444   1.1352   0.5533 H              1 S1                 0.0000
     23 ****        -2.0009   1.3433   2.2822 H              1 S1                 0.0000
     24 ****        -2.4363  -1.1084   2.6469 H              1 S1                 0.0000
     25 ****        -2.6841  -1.3477   0.9421 H              1 S1                 0.0000
     26 ****        -0.6332  -2.1381  -1.4024 H              1 S1                 0.0000
     27 ****        -1.6996  -0.7958  -0.9794 H              1 S1                 0.0000
     28 ****         0.2094  -1.5227  -3.4863 H              1 S1                 0.0000
     29 ****        -1.0260  -0.2827  -3.5887 H              1 S1                 0.0000
     30 ****         1.9994   0.1133  -3.8930 H              1 S1                 0.0000
     31 ****         0.8207   0.2044  -5.1800 H              1 S1                 0.0000
     32 ****         1.4986   2.4841  -4.3628 H              1 S1                 0.0000
     33 ****        -0.2171   2.2031  -4.1646 H              1 S1                 0.0000
     34 ****         1.9181   1.9487  -1.9887 H              1 S1                 0.0000
     35 ****         0.6895   3.1878  -2.0891 H              1 S1                 0.0000
     36 ****        -1.1042   1.5042  -1.7492 H              1 S1                 0.0000
     37 ****         0.0704   1.4223  -0.4526 H              1 S1                 0.0000
     38 ****         3.5863  -1.5396   2.2019 H              1 S1                 0.0000
     39 ****         3.4475  -1.3269   4.6710 H              1 S1                 0.0000
     40 ****        -0.8113  -0.7017   4.4060 H              1 S1                 0.0000
     41 ****         1.1193  -0.3993  -1.6071 H              1 S1                 0.0000
     42 ****        -4.1813   0.5255   2.5952 LP             1 S1                 0.0000
     43 ****        -4.3959   0.4076   0.9807 LP             1 S1                 0.0000
     44 ****         1.9971  -1.4875  -0.1929 LP             1 S1                 0.0000
@<TRIPOS>BOND
    1    1    2 1     
    2    1   21 1     
    3    2    3 1     
    4    2   22 1     
    5    2   23 1     
    6    3    4 1     
    7    3   24 1     
    8    3   25 1     
    9    4   20 1     
   10    4    5 1     
   11    5    6 1     
   12    5   13 2     
   13    6    7 1     
   14    6   26 1     
   15    6   27 1     
   16    7   12 1     
   17    7    8 1     
   18    7   41 1     
   19    8    9 1     
   20    8   28 1     
   21    8   29 1     
   22    9   10 1     
   23    9   30 1     
   24    9   31 1     
   25   10   11 1     
   26   10   32 1     
   27   10   33 1     
   28   11   12 1     
   29   11   34 1     
   30   11   35 1     
   31   12   36 1     
   32   12   37 1     
   33   13   14 1     
   34   14   20 ar    
   35   14   15 ar    
   36   15   16 ar    
   37   15   38 1     
   38   16   17 ar    
   39   16   39 1     
   40   17   18 1     
   41   17   19 ar    
   42   19   20 ar    
   43   19   40 1     
   44    1   42 1     
   45    1   43 1     
   46   13   44 1     
@<TRIPOS>SUBSTRUCTURE
      1 S1             1
@<TRIPOS>SET
LONE_PAIRS      STATIC     ATOMS    <user>   **** ""
3 42 43 44
DONOR_HYDROGENS      STATIC     ATOMS    <user>   **** ""
2 21 41
ATOM$BLUE        STATIC     ATOMS    COLORGROUP SYSTEM
3 42 43 44
ATOM$RED        STATIC     ATOMS    COLORGROUP SYSTEM
2 21 41
