AV-unprocessed.smi:3031|AV-procd|sdf|11545|dock8
  -GOLD-   2272016503D 1   1.00000     0.00000
 Structure written by MMmdl.
 47 48  0  0  0  0  0  0  0  0  2 V2000
  152.2080  145.3866  159.2239 C   0  0  0  0  0  0  0  0  0  0  0  0
  152.2060  143.9368  158.8335 C   0  0  0  0  0  0  0  0  0  0  0  0
  152.9256  142.8689  159.4410 C   0  0  0  0  0  0  0  0  0  0  0  0
  152.7017  141.7014  158.8604 N   0  0  0  0  0  0  0  0  0  0  0  0
  151.8347  141.9811  157.8646 N   0  0  0  0  0  0  0  0  0  0  0  0
  151.3529  140.9133  157.0060 C   0  0  0  0  0  0  0  0  0  0  0  0
  150.3178  141.4102  155.9771 C   0  0  2  0  0  0  0  0  0  0  0  0
  148.9189  141.4827  156.6153 C   0  0  0  0  0  0  0  0  0  0  0  0
  150.3277  140.5401  154.7954 N   0  0  0  0  0  0  0  0  0  0  0  0
  149.1300  140.6001  153.9584 C   0  0  0  0  0  0  0  0  0  0  0  0
  148.3461  139.2788  154.0189 C   0  0  2  0  0  0  0  0  0  0  0  0
  149.2486  138.2326  153.7208 O   0  0  0  0  0  0  0  0  0  0  0  0
  147.1893  139.2214  152.9984 C   0  0  0  0  0  0  0  0  0  0  0  0
  146.7322  137.8324  152.7404 N   0  3  0  0  0  0  0  0  0  0  0  0
  146.1850  137.1551  153.9426 C   0  0  0  0  0  0  0  0  0  0  0  0
  145.7761  135.7112  153.6056 C   0  0  0  0  0  0  0  0  0  0  0  0
  144.8318  135.7182  152.5422 O   0  0  0  0  0  0  0  0  0  0  0  0
  145.3720  136.2864  151.3555 C   0  0  0  0  0  0  0  0  0  0  0  0
  145.7680  137.7495  151.6175 C   0  0  0  0  0  0  0  0  0  0  0  0
  151.5201  143.3229  157.8239 C   0  0  0  0  0  0  0  0  0  0  0  0
  153.2217  145.7755  159.3211 H   0  0  0  0  0  0  0  0  0  0  0  0
  151.7093  145.5446  160.1804 H   0  0  0  0  0  0  0  0  0  0  0  0
  151.6958  146.0066  158.4877 H   0  0  0  0  0  0  0  0  0  0  0  0
  153.5994  142.9077  160.2842 H   0  0  0  0  0  0  0  0  0  0  0  0
  152.2060  140.4533  156.5054 H   0  0  0  0  0  0  0  0  0  0  0  0
  150.9144  140.1424  157.6416 H   0  0  0  0  0  0  0  0  0  0  0  0
  150.6008  142.4206  155.6786 H   0  0  0  0  0  0  0  0  0  0  0  0
  148.9394  142.0802  157.5271 H   0  0  0  0  0  0  0  0  0  0  0  0
  148.5498  140.4910  156.8795 H   0  0  0  0  0  0  0  0  0  0  0  0
  148.1904  141.9482  155.9518 H   0  0  0  0  0  0  0  0  0  0  0  0
  150.4958  139.5816  155.0830 H   0  0  0  0  0  0  0  0  0  0  0  0
  148.4819  141.4212  154.2645 H   0  0  0  0  0  0  0  0  0  0  0  0
  149.4229  140.7989  152.9266 H   0  0  0  0  0  0  0  0  0  0  0  0
  147.9834  139.1305  155.0360 H   0  0  0  0  0  0  0  0  0  0  0  0
  148.8875  137.7115  153.0195 H   0  0  0  0  0  0  0  0  0  0  0  0
  146.3387  139.8139  153.3385 H   0  0  0  0  0  0  0  0  0  0  0  0
  147.5226  139.6826  152.0670 H   0  0  0  0  0  0  0  0  0  0  0  0
  146.9217  137.1423  154.7449 H   0  0  0  0  0  0  0  0  0  0  0  0
  145.3199  137.7073  154.3133 H   0  0  0  0  0  0  0  0  0  0  0  0
  146.6466  135.1124  153.3325 H   0  0  0  0  0  0  0  0  0  0  0  0
  145.3232  135.2361  154.4763 H   0  0  0  0  0  0  0  0  0  0  0  0
  146.2304  135.7042  151.0165 H   0  0  0  0  0  0  0  0  0  0  0  0
  144.6217  136.2360  150.5663 H   0  0  0  0  0  0  0  0  0  0  0  0
  144.8816  138.3416  151.8512 H   0  0  0  0  0  0  0  0  0  0  0  0
  146.2107  138.1745  150.7158 H   0  0  0  0  0  0  0  0  0  0  0  0
  150.8366  143.7246  157.0903 H   0  0  0  0  0  0  0  0  0  0  0  0
  147.5493  137.3130  152.4514 H   0  0  0  0  0  0  0  0  0  0  0  0
  1  2  1  0  0  0  0
  1 21  1  0  0  0  0
  1 22  1  0  0  0  0
  1 23  1  0  0  0  0
  2 20  2  0  0  0  0
  2  3  1  0  0  0  0
  3  4  2  0  0  0  0
  3 24  1  0  0  0  0
  4  5  1  0  0  0  0
  5  6  1  0  0  0  0
  5 20  1  0  0  0  0
  6  7  1  0  0  0  0
  6 25  1  0  0  0  0
  6 26  1  0  0  0  0
  7  8  1  0  0  0  0
  7  9  1  0  0  0  0
  7 27  1  0  0  0  0
  8 28  1  0  0  0  0
  8 29  1  0  0  0  0
  8 30  1  0  0  0  0
  9 10  1  0  0  0  0
  9 31  1  0  0  0  0
 10 11  1  0  0  0  0
 10 32  1  0  0  0  0
 10 33  1  0  0  0  0
 11 12  1  0  0  0  0
 11 13  1  0  0  0  0
 11 34  1  0  0  0  0
 12 35  1  0  0  0  0
 13 14  1  0  0  0  0
 13 36  1  0  0  0  0
 13 37  1  0  0  0  0
 14 19  1  0  0  0  0
 14 15  1  0  0  0  0
 14 47  1  0  0  0  0
 15 16  1  0  0  0  0
 15 38  1  0  0  0  0
 15 39  1  0  0  0  0
 16 17  1  0  0  0  0
 16 40  1  0  0  0  0
 16 41  1  0  0  0  0
 17 18  1  0  0  0  0
 18 19  1  0  0  0  0
 18 42  1  0  0  0  0
 18 43  1  0  0  0  0
 19 44  1  0  0  0  0
 19 45  1  0  0  0  0
 20 46  1  0  0  0  0
M  CHG  1  14   1
M  END
> <s_m_source_file>
AV-unprocessed.smi

> <i_m_source_file_index>
3031

> <i_lp_mmshare_version>
43012

> <i_f3d_flags>
0

> <s_epik_input>
W0NIM11jMVtjSF1ubihbY0hdMSlbQ0gyXVtDQEhdKFtDSDNdKVtOSF1bQ0gyXVtDQEhdKFtPSF0pW0NIMl1OMltDSDJdW0NIMl1PW0NIMl1bQ0gyXTI=

> <s_epik_cmdline>
J2VwaWtfcHl0aG9uJywgJy1waCcsICc3LjAnLCAnLXRuJywgJzgnLCAnLW1hJywgJzIwMCcsICctbWV0YWxfYmluZGluZycsICctaW1hZScsICc8aW5maWxlLm1hZT4nLCAnLW9tYWUnLCAnPG91dGZpbGUubWFlPic=

> <r_epik_Ionization_Penalty>
0.467051

> <r_epik_Ionization_Penalty_Charging>
0.202493

> <r_epik_Ionization_Penalty_Neutral>
0.264558

> <r_epik_State_Penalty>
1.34287

> <r_epik_Charging_Adjusted_Penalty>
1.54537

> <i_epik_Tot_Q>
1

> <i_epik_Tot_abs_Q>
1

> <r_epik_Metal_State_Penalty>
1.34281

> <b_epik_Metal_Only>
0

> <s_lp_Force_Field>
OPLS_2005

> <r_lp_Energy>
23.7878

> <b_lp_Chiralities_Consistent>
1

> <s_lp_Variant>
AV-unprocessed.smi:3031-5

> <Gold.Version>
5.8.1

> <Gold.Id.Protein>
6NUR|6NUR_protein|mol2

> <Gold.PLP.Fitness>
51.8792

> <Gold.PLP.PLP>
-39.0276

> <Gold.PLP.part.hbond>
-3.5844

> <Gold.PLP.part.metal>
0.0000

> <Gold.PLP.part.buried>
-1.6866

> <Gold.PLP.part.nonpolar>
-34.8153

> <Gold.PLP.part.repulsive>
0.1280

> <Gold.PLP.ligand.clash>
0.0000

> <Gold.PLP.ligand.torsion>
1.0552

> <Gold.PLP.Chemscore.Hbond>
3.9280

> <Gold.PLP.Chemscore.CHOScore>
1.0000

> <Gold.PLP.Chemscore.Metal>
0.0000

> <Gold.Chemscore.Hbonds>
donor molecule, donor type, donor heavy atom, donor atom, acceptor molecule, acceptor atom, score
      L1  H    12    35       P1  7948  1.00
      L1  H    14    47       P1  7948  2.00
      P1  H  7989  7998       L1     9  0.91
      L1  C    20    46       P1  8028  0.83

> <Gold.PLP.Chemscore.Internal.Correction>
0.1779

> <Gold.Rescore>
     Score         DG    S(hbond)    S(metal)    S(lipo)     H(rot)  DE(clash)    DE(int)     intcor
     16.12     -17.56       1.99        0.00     104.56       2.65       0.26       1.18       ----

> <Gold.Chemscore.Fitness>
16.1203

> <Gold.Chemscore.DG>
-17.5603

> <Gold.Chemscore.ZeroCoef>
-5.4800

> <Gold.Chemscore.Hbond>
1.9870

> <Gold.Chemscore.Metal>
0.0000

> <Gold.Chemscore.Lipo>
104.5574

> <Gold.Chemscore.Internal_Hbond>
0.0000

> <Gold.Chemscore.DEClash>
0.2565

> <Gold.Chemscore.DEInternal>
1.1835

> <Gold.Chemscore.Rot>
2.6521

> <Gold.Chemscore.Internal.Correction>
   9.000000E+99

> <Gold.Chemscore.Hbonds>
donor molecule, donor type, donor heavy atom, donor atom, acceptor molecule, acceptor atom, score
      L1  H    12    35       P1  7948  0.95
      L1  H    14    47       P1  7948  1.00
      P1  H  7989  7998       L1     9  0.09

> <Gold.Chemscore.Hbond.Weighted>
-6.6364

> <Gold.Chemscore.Metal.Weighted>
-0.0000

> <Gold.Chemscore.Lipo.Weighted>
-12.2332

> <Gold.Chemscore.Internal_Hbond.Weighted>
0.0000

> <Gold.Chemscore.DEClash.Weighted>
0.2565

> <Gold.Chemscore.DEInternal.Weighted>
1.1835

> <Gold.Chemscore.Rot.Weighted>
6.7894

> <Gold.Chemscore.Internal.Correction.Weighted>
   9.000000E+99

> <Gold.Protein.RotatedTorsions>
[ 6907 6896 6895 6894 ] final  172.32 input  -60.11 | X-H torsion
[ 7974 7965 7964 7962 ] final   23.29 input  175.53 | X-H torsion
[ 8008 7997 7996 7995 ] final  -23.27 input   59.86 | X-H torsion
[ 10167 10162 10161 10158 ] final -161.49 input  -65.29 | X-H torsion
[ 10718 10713 10712 10709 ] final -162.70 input   66.30 | X-H torsion
[ 10763 10752 10751 10750 ] final   96.83 input  -60.55 | X-H torsion
[ 11005 11000 10999 10996 ] final  151.21 input  -57.11 | X-H torsion

> <Gold.Protein.ActiveResidues>
 VAL166  LYS551  ARG553  GLY616  TRP617  ASP618  TYR619  PRO620  LYS621  CYS622 
 ASP623  PHE694  ASN695  SER759  ASP760  ASP761  ALA762  ILE779  LEU786  VAL792 
 PHE793  MET794  SER795  GLU796  ALA797  LYS798  CYS799  TRP800  GLU811  SER814 

> <Gold.Protein.RotatedAtoms>
  151.7861  133.3354  159.3485 H   0  0  0  0  0  0  0  0  0  0  0  0  # atno 6907 bound_to 6896
  150.7408  134.5886  159.5985 H   0  0  0  0  0  0  0  0  0  0  0  0  # atno 6908 bound_to 6896
  152.3242  134.7343  160.0357 H   0  0  0  0  0  0  0  0  0  0  0  0  # atno 6909 bound_to 6896
  146.1991  139.7765  142.8775 H   0  0  0  0  0  0  0  0  0  0  0  0  # atno 7974 bound_to 7965
  154.4595  140.1985  156.0284 H   0  0  0  0  0  0  0  0  0  0  0  0  # atno 8008 bound_to 7997
  156.0812  140.3271  155.7668 H   0  0  0  0  0  0  0  0  0  0  0  0  # atno 8009 bound_to 7997
  155.5108  140.0561  157.2914 H   0  0  0  0  0  0  0  0  0  0  0  0  # atno 8010 bound_to 7997
  139.6461  144.0169  152.2128 H   0  0  0  0  0  0  0  0  0  0  0  0  # atno 10167 bound_to 10162
  156.6142  130.8863  151.2943 H   0  0  0  0  0  0  0  0  0  0  0  0  # atno 10718 bound_to 10713
  153.2696  135.4205  155.0974 H   0  0  0  0  0  0  0  0  0  0  0  0  # atno 10763 bound_to 10752
  154.8451  135.3469  154.6263 H   0  0  0  0  0  0  0  0  0  0  0  0  # atno 10764 bound_to 10752
  153.6683  135.7045  153.5212 H   0  0  0  0  0  0  0  0  0  0  0  0  # atno 10765 bound_to 10752
  140.1198  134.8871  157.2056 H   0  0  0  0  0  0  0  0  0  0  0  0  # atno 11005 bound_to 11000
  145.3545  141.0314  143.3319 LP  0  0  0  0  0  0  0  0  0  0  0  0  # atno 17320 bound_to 7965
  144.8643  139.5130  143.6797 LP  0  0  0  0  0  0  0  0  0  0  0  0  # atno 17321 bound_to 7965
  139.9871  144.6387  150.7848 LP  0  0  0  0  0  0  0  0  0  0  0  0  # atno 17342 bound_to 10162
  140.7515  143.2974  151.3169 LP  0  0  0  0  0  0  0  0  0  0  0  0  # atno 17343 bound_to 10162
  157.7246  130.9604  150.1579 LP  0  0  0  0  0  0  0  0  0  0  0  0  # atno 17370 bound_to 10713
  156.2364  130.3687  149.8386 LP  0  0  0  0  0  0  0  0  0  0  0  0  # atno 17371 bound_to 10713
  140.2980  134.3165  155.7297 LP  0  0  0  0  0  0  0  0  0  0  0  0  # atno 17394 bound_to 11000
  141.2149  133.7574  156.9599 LP  0  0  0  0  0  0  0  0  0  0  0  0  # atno 17395 bound_to 11000

$$$$
