AV-unprocessed.smi:3303|AV-procd|sdf|12674|dock10
  -GOLD-   2272019 13D 1   1.00000     0.00000
 Structure written by MMmdl.
 44 45  0  0  0  0  0  0  0  0  2 V2000
  151.2297  137.9442  154.4838 C   0  0  0  0  0  0  0  0  0  0  0  0
  150.5425  139.3196  154.4543 C   0  0  1  0  0  0  0  0  0  0  0  0
  149.0444  139.2109  154.1063 C   0  0  0  0  0  0  0  0  0  0  0  0
  148.4657  140.5468  153.9593 N   0  0  0  0  0  0  0  0  0  0  0  0
  147.1134  140.4643  153.4215 C   0  0  0  0  0  0  0  0  0  0  0  0
  148.5472  141.3596  155.1828 C   0  0  1  0  0  0  0  0  0  0  0  0
  147.6109  140.8940  156.3223 C   0  0  0  0  0  0  0  0  0  0  0  0
  150.0270  141.4889  155.6161 C   0  0  0  0  0  0  0  0  0  0  0  0
  150.7627  140.1358  155.7459 C   0  0  1  0  0  0  0  0  0  0  0  0
  150.3461  139.3731  156.9468 N   0  3  0  0  0  0  0  0  0  0  0  0
  150.3563  140.1280  158.2165 C   0  0  0  0  0  0  0  0  0  0  0  0
  151.7758  140.5962  158.5630 C   0  0  0  0  0  0  0  0  0  0  0  0
  151.8596  142.1034  158.7118 C   0  0  0  0  0  0  0  0  0  0  0  0
  152.3937  142.6856  159.8811 C   0  0  0  0  0  0  0  0  0  0  0  0
  152.4564  144.0903  159.9616 C   0  0  0  0  0  0  0  0  0  0  0  0
  151.9867  144.8536  158.8754 C   0  0  0  0  0  0  0  0  0  0  0  0
  151.4724  144.1760  157.7522 C   0  0  0  0  0  0  0  0  0  0  0  0
  151.4085  142.8297  157.6645 N   0  0  0  0  0  0  0  0  0  0  0  0
  150.7814  137.2827  155.2255 H   0  0  0  0  0  0  0  0  0  0  0  0
  152.2908  138.0392  154.7160 H   0  0  0  0  0  0  0  0  0  0  0  0
  151.1494  137.4498  153.5152 H   0  0  0  0  0  0  0  0  0  0  0  0
  151.0159  139.8770  153.6436 H   0  0  0  0  0  0  0  0  0  0  0  0
  148.9366  138.6741  153.1626 H   0  0  0  0  0  0  0  0  0  0  0  0
  148.5052  138.6329  154.8572 H   0  0  0  0  0  0  0  0  0  0  0  0
  146.6837  141.4599  153.3053 H   0  0  0  0  0  0  0  0  0  0  0  0
  146.4573  139.8764  154.0641 H   0  0  0  0  0  0  0  0  0  0  0  0
  147.1261  139.9934  152.4381 H   0  0  0  0  0  0  0  0  0  0  0  0
  148.2176  142.3626  154.9086 H   0  0  0  0  0  0  0  0  0  0  0  0
  147.7806  141.4842  157.2234 H   0  0  0  0  0  0  0  0  0  0  0  0
  147.7483  139.8472  156.5874 H   0  0  0  0  0  0  0  0  0  0  0  0
  146.5623  141.0276  156.0564 H   0  0  0  0  0  0  0  0  0  0  0  0
  150.5451  142.0789  154.8585 H   0  0  0  0  0  0  0  0  0  0  0  0
  150.1055  142.0773  156.5296 H   0  0  0  0  0  0  0  0  0  0  0  0
  151.8323  140.3288  155.8417 H   0  0  0  0  0  0  0  0  0  0  0  0
  149.4201  139.0023  156.7883 H   0  0  0  0  0  0  0  0  0  0  0  0
  149.6930  140.9897  158.1313 H   0  0  0  0  0  0  0  0  0  0  0  0
  149.9725  139.5018  159.0213 H   0  0  0  0  0  0  0  0  0  0  0  0
  152.1068  140.1315  159.4932 H   0  0  0  0  0  0  0  0  0  0  0  0
  152.4759  140.2720  157.7917 H   0  0  0  0  0  0  0  0  0  0  0  0
  152.7489  142.0738  160.6974 H   0  0  0  0  0  0  0  0  0  0  0  0
  152.8587  144.5737  160.8395 H   0  0  0  0  0  0  0  0  0  0  0  0
  152.0197  145.9329  158.9023 H   0  0  0  0  0  0  0  0  0  0  0  0
  151.1044  144.7300  156.9010 H   0  0  0  0  0  0  0  0  0  0  0  0
  150.9868  138.5993  157.0514 H   0  0  0  0  0  0  0  0  0  0  0  0
  1  2  1  0  0  0  0
  1 19  1  0  0  0  0
  1 20  1  0  0  0  0
  1 21  1  0  0  0  0
  2  9  1  0  0  0  0
  2  3  1  0  0  0  0
  2 22  1  0  0  0  0
  3  4  1  0  0  0  0
  3 23  1  0  0  0  0
  3 24  1  0  0  0  0
  4  5  1  0  0  0  0
  4  6  1  0  0  0  0
  5 25  1  0  0  0  0
  5 26  1  0  0  0  0
  5 27  1  0  0  0  0
  6  7  1  0  0  0  0
  6  8  1  0  0  0  0
  6 28  1  0  0  0  0
  7 29  1  0  0  0  0
  7 30  1  0  0  0  0
  7 31  1  0  0  0  0
  8  9  1  0  0  0  0
  8 32  1  0  0  0  0
  8 33  1  0  0  0  0
  9 10  1  0  0  0  0
  9 34  1  0  0  0  0
 10 11  1  0  0  0  0
 10 35  1  0  0  0  0
 10 44  1  0  0  0  0
 11 12  1  0  0  0  0
 11 36  1  0  0  0  0
 11 37  1  0  0  0  0
 12 13  1  0  0  0  0
 12 38  1  0  0  0  0
 12 39  1  0  0  0  0
 13 18  1  0  0  0  0
 13 14  2  0  0  0  0
 14 15  1  0  0  0  0
 14 40  1  0  0  0  0
 15 16  2  0  0  0  0
 15 41  1  0  0  0  0
 16 17  1  0  0  0  0
 16 42  1  0  0  0  0
 17 18  2  0  0  0  0
 17 43  1  0  0  0  0
M  CHG  1  10   1
M  END
> <s_m_source_file>
AV-unprocessed.smi

> <i_m_source_file_index>
3303

> <i_lp_mmshare_version>
43012

> <i_f3d_flags>
0

> <s_epik_input>
W0NIM11bQ0BASF0xW0NIMl1OKFtDSDNdKVtDQEBIXShbQ0gzXSlbQ0gyXVtDQEhdMVtOSF1bQ0gyXVtDSDJdYzJbY0hdW2NIXVtjSF1bY0hdbjI=

> <s_epik_cmdline>
J2VwaWtfcHl0aG9uJywgJy1waCcsICc3LjAnLCAnLXRuJywgJzgnLCAnLW1hJywgJzIwMCcsICctbWV0YWxfYmluZGluZycsICctaW1hZScsICc8aW5maWxlLm1hZT4nLCAnLW9tYWUnLCAnPG91dGZpbGUubWFlPic=

> <r_epik_Ionization_Penalty>
1.37325

> <r_epik_Ionization_Penalty_Charging>
0.000251572

> <r_epik_Ionization_Penalty_Neutral>
1.373

> <r_epik_State_Penalty>
1.46343

> <r_epik_Charging_Adjusted_Penalty>
1.46368

> <i_epik_Tot_Q>
1

> <i_epik_Tot_abs_Q>
1

> <r_epik_Metal_State_Penalty>
1.46331

> <b_epik_Metal_Only>
0

> <s_lp_Force_Field>
OPLS_2005

> <r_lp_Energy>
24.8067

> <b_lp_Chiralities_Consistent>
1

> <s_lp_Variant>
AV-unprocessed.smi:3303-18

> <Gold.Version>
5.8.1

> <Gold.Id.Protein>
6NUR|6NUR_protein|mol2

> <Gold.PLP.Fitness>
42.3742

> <Gold.PLP.PLP>
-40.2697

> <Gold.PLP.part.hbond>
0.0000

> <Gold.PLP.part.metal>
0.0000

> <Gold.PLP.part.buried>
-3.4802

> <Gold.PLP.part.nonpolar>
-38.0341

> <Gold.PLP.part.repulsive>
0.6027

> <Gold.PLP.ligand.clash>
0.0000

> <Gold.PLP.ligand.torsion>
0.4512

> <Gold.PLP.Chemscore.Hbond>
0.0000

> <Gold.PLP.Chemscore.CHOScore>
0.9984

> <Gold.PLP.Chemscore.Metal>
0.0000

> <Gold.Chemscore.Hbonds>
donor molecule, donor type, donor heavy atom, donor atom, acceptor molecule, acceptor atom, score
      L1  C    17    43       P1  8028  1.00

> <Gold.PLP.Chemscore.Internal.Correction>
0.0117

> <Gold.Rescore>
     Score         DG    S(hbond)    S(metal)    S(lipo)     H(rot)  DE(clash)    DE(int)     intcor
     15.72     -16.22       0.00        0.00     120.91       1.33       0.07       0.44       ----

> <Gold.Chemscore.Fitness>
15.7167

> <Gold.Chemscore.DG>
-16.2219

> <Gold.Chemscore.ZeroCoef>
-5.4800

> <Gold.Chemscore.Hbond>
0.0000

> <Gold.Chemscore.Metal>
0.0000

> <Gold.Chemscore.Lipo>
120.9082

> <Gold.Chemscore.Internal_Hbond>
0.0000

> <Gold.Chemscore.DEClash>
0.0679

> <Gold.Chemscore.DEInternal>
0.4373

> <Gold.Chemscore.Rot>
1.3298

> <Gold.Chemscore.Internal.Correction>
   9.000000E+99

> <Gold.Chemscore.Hbond.Weighted>
-0.0000

> <Gold.Chemscore.Metal.Weighted>
-0.0000

> <Gold.Chemscore.Lipo.Weighted>
-14.1463

> <Gold.Chemscore.Internal_Hbond.Weighted>
0.0000

> <Gold.Chemscore.DEClash.Weighted>
0.0679

> <Gold.Chemscore.DEInternal.Weighted>
0.4373

> <Gold.Chemscore.Rot.Weighted>
3.4043

> <Gold.Chemscore.Internal.Correction.Weighted>
   9.000000E+99

> <Gold.Protein.RotatedTorsions>
[ 6907 6896 6895 6894 ] final -173.42 input  -60.11 | X-H torsion
[ 7974 7965 7964 7962 ] final  -20.34 input  175.53 | X-H torsion
[ 8008 7997 7996 7995 ] final -137.47 input   59.86 | X-H torsion
[ 10167 10162 10161 10158 ] final   75.93 input  -65.29 | X-H torsion
[ 10718 10713 10712 10709 ] final   86.27 input   66.30 | X-H torsion
[ 10763 10752 10751 10750 ] final -104.88 input  -60.55 | X-H torsion
[ 11005 11000 10999 10996 ] final  -31.35 input  -57.11 | X-H torsion

> <Gold.Protein.ActiveResidues>
 VAL166  LYS551  ARG553  GLY616  TRP617  ASP618  TYR619  PRO620  LYS621  CYS622 
 ASP623  PHE694  ASN695  SER759  ASP760  ASP761  ALA762  ILE779  LEU786  VAL792 
 PHE793  MET794  SER795  GLU796  ALA797  LYS798  CYS799  TRP800  GLU811  SER814 

> <Gold.Protein.RotatedAtoms>
  151.5558  133.3410  159.2961 H   0  0  0  0  0  0  0  0  0  0  0  0  # atno 6907 bound_to 6896
  150.8451  134.7760  159.6975 H   0  0  0  0  0  0  0  0  0  0  0  0  # atno 6908 bound_to 6896
  152.4511  134.5400  159.9888 H   0  0  0  0  0  0  0  0  0  0  0  0  # atno 6909 bound_to 6896
  146.1793  140.4188  142.8501 H   0  0  0  0  0  0  0  0  0  0  0  0  # atno 7974 bound_to 7965
  155.4123  140.0513  157.3031 H   0  0  0  0  0  0  0  0  0  0  0  0  # atno 8008 bound_to 7997
  154.4940  140.2131  155.9446 H   0  0  0  0  0  0  0  0  0  0  0  0  # atno 8009 bound_to 7997
  156.1381  140.3159  155.8457 H   0  0  0  0  0  0  0  0  0  0  0  0  # atno 8010 bound_to 7997
  139.9977  144.5710  150.7764 H   0  0  0  0  0  0  0  0  0  0  0  0  # atno 10167 bound_to 10162
  157.6926  131.0209  150.2948 H   0  0  0  0  0  0  0  0  0  0  0  0  # atno 10718 bound_to 10713
  154.7908  135.4770  154.0049 H   0  0  0  0  0  0  0  0  0  0  0  0  # atno 10763 bound_to 10752
  153.1629  135.6812  153.8724 H   0  0  0  0  0  0  0  0  0  0  0  0  # atno 10764 bound_to 10752
  153.8332  135.3189  155.3398 H   0  0  0  0  0  0  0  0  0  0  0  0  # atno 10765 bound_to 10752
  140.9460  133.7249  156.1148 H   0  0  0  0  0  0  0  0  0  0  0  0  # atno 11005 bound_to 11000
  144.8288  140.6673  143.6304 LP  0  0  0  0  0  0  0  0  0  0  0  0  # atno 17320 bound_to 7965
  145.4122  139.1578  143.4120 LP  0  0  0  0  0  0  0  0  0  0  0  0  # atno 17321 bound_to 7965
  140.7431  143.2841  151.3514 LP  0  0  0  0  0  0  0  0  0  0  0  0  # atno 17342 bound_to 10162
  139.6294  144.0750  152.2463 LP  0  0  0  0  0  0  0  0  0  0  0  0  # atno 17343 bound_to 10162
  156.3473  130.3825  149.7358 LP  0  0  0  0  0  0  0  0  0  0  0  0  # atno 17370 bound_to 10713
  156.4848  130.8057  151.3070 LP  0  0  0  0  0  0  0  0  0  0  0  0  # atno 17371 bound_to 10713
  140.7668  134.3877  157.5515 LP  0  0  0  0  0  0  0  0  0  0  0  0  # atno 17394 bound_to 11000
  139.8833  134.8997  156.2771 LP  0  0  0  0  0  0  0  0  0  0  0  0  # atno 17395 bound_to 11000

$$$$
