AV-unprocessed.smi:1471|AV-procd|sdf|5963|dock3
  -GOLD-   22720 6 53D 1   1.00000     0.00000
 Structure written by MMmdl.
 42 43  0  0  0  0  0  0  0  0  1 V2000
  146.2529  137.5634  162.0851 C   0  0  0  0  0  0  0  0  0  0  0  0
  146.9800  136.6136  161.1715 C   0  0  0  0  0  0  0  0  0  0  0  0
  147.5426  137.1287  160.1280 N   0  0  0  0  0  0  0  0  0  0  0  0
  148.2302  136.3460  159.2222 N   0  0  0  0  0  0  0  0  0  0  0  0
  148.7992  137.0970  158.0974 C   0  0  0  0  0  0  0  0  0  0  0  0
  150.3349  137.2303  158.2062 C   0  0  1  0  0  0  0  0  0  0  0  0
  150.9071  136.9613  156.9418 O   0  0  0  0  0  0  0  0  0  0  0  0
  150.7628  138.6498  158.6064 C   0  0  0  0  0  0  0  0  0  0  0  0
  152.1388  138.8165  158.2968 O   0  0  0  0  0  0  0  0  0  0  0  0
  152.4051  139.9003  157.4187 C   0  0  0  0  0  0  0  0  0  0  0  0
  152.2789  141.2577  158.0908 C   0  0  0  0  0  0  0  0  0  0  0  0
  151.5294  142.2831  157.4756 C   0  0  0  0  0  0  0  0  0  0  0  0
  151.4134  143.5440  158.0923 C   0  0  0  0  0  0  0  0  0  0  0  0
  152.0499  143.7868  159.3246 C   0  0  0  0  0  0  0  0  0  0  0  0
  152.8040  142.7685  159.9390 C   0  0  0  0  0  0  0  0  0  0  0  0
  152.9216  141.5068  159.3237 C   0  0  0  0  0  0  0  0  0  0  0  0
  153.6530  140.5370  159.9235 F   0  0  0  0  0  0  0  0  0  0  0  0
  148.3807  134.9941  159.3195 C   0  0  0  0  0  0  0  0  0  0  0  0
  148.9930  134.3329  158.4795 O   0  0  0  0  0  0  0  0  0  0  0  0
  147.7453  134.4176  160.5066 C   0  0  0  0  0  0  0  0  0  0  0  0
  147.8785  133.0034  160.6479 C   0  0  0  0  0  0  0  0  0  0  0  0
  147.9896  131.8590  160.7831 N   0  0  0  0  0  0  0  0  0  0  0  0
  147.0739  135.1765  161.4084 C   0  0  0  0  0  0  0  0  0  0  0  0
  146.3969  134.6255  162.6560 C   0  0  0  0  0  0  0  0  0  0  0  0
  145.2276  137.2329  162.2532 H   0  0  0  0  0  0  0  0  0  0  0  0
  146.2069  138.5718  161.6705 H   0  0  0  0  0  0  0  0  0  0  0  0
  146.7519  137.6255  163.0524 H   0  0  0  0  0  0  0  0  0  0  0  0
  148.5199  136.6461  157.1429 H   0  0  0  0  0  0  0  0  0  0  0  0
  148.3398  138.0871  158.0772 H   0  0  0  0  0  0  0  0  0  0  0  0
  150.7432  136.5228  158.9289 H   0  0  0  0  0  0  0  0  0  0  0  0
  151.6549  137.5267  156.8242 H   0  0  0  0  0  0  0  0  0  0  0  0
  150.1841  139.3902  158.0515 H   0  0  0  0  0  0  0  0  0  0  0  0
  150.5724  138.8139  159.6684 H   0  0  0  0  0  0  0  0  0  0  0  0
  153.4298  139.7978  157.0612 H   0  0  0  0  0  0  0  0  0  0  0  0
  151.7635  139.8388  156.5382 H   0  0  0  0  0  0  0  0  0  0  0  0
  151.0382  142.1057  156.5302 H   0  0  0  0  0  0  0  0  0  0  0  0
  150.8368  144.3252  157.6189 H   0  0  0  0  0  0  0  0  0  0  0  0
  151.9615  144.7540  159.7971 H   0  0  0  0  0  0  0  0  0  0  0  0
  153.2946  142.9558  160.8828 H   0  0  0  0  0  0  0  0  0  0  0  0
  146.6243  133.5721  162.8160 H   0  0  0  0  0  0  0  0  0  0  0  0
  145.3139  134.7225  162.5743 H   0  0  0  0  0  0  0  0  0  0  0  0
  146.7250  135.1648  163.5451 H   0  0  0  0  0  0  0  0  0  0  0  0
  1  2  1  0  0  0  0
  1 25  1  0  0  0  0
  1 26  1  0  0  0  0
  1 27  1  0  0  0  0
  2 23  1  0  0  0  0
  2  3  2  0  0  0  0
  3  4  1  0  0  0  0
  4  5  1  0  0  0  0
  4 18  1  0  0  0  0
  5  6  1  0  0  0  0
  5 28  1  0  0  0  0
  5 29  1  0  0  0  0
  6  7  1  0  0  0  0
  6  8  1  0  0  0  0
  6 30  1  0  0  0  0
  7 31  1  0  0  0  0
  8  9  1  0  0  0  0
  8 32  1  0  0  0  0
  8 33  1  0  0  0  0
  9 10  1  0  0  0  0
 10 11  1  0  0  0  0
 10 34  1  0  0  0  0
 10 35  1  0  0  0  0
 11 16  1  0  0  0  0
 11 12  2  0  0  0  0
 12 13  1  0  0  0  0
 12 36  1  0  0  0  0
 13 14  2  0  0  0  0
 13 37  1  0  0  0  0
 14 15  1  0  0  0  0
 14 38  1  0  0  0  0
 15 16  2  0  0  0  0
 15 39  1  0  0  0  0
 16 17  1  0  0  0  0
 18 19  2  0  0  0  0
 18 20  1  0  0  0  0
 20 21  1  0  0  0  0
 20 23  2  0  0  0  0
 21 22  3  0  0  0  0
 23 24  1  0  0  0  0
 24 40  1  0  0  0  0
 24 41  1  0  0  0  0
 24 42  1  0  0  0  0
M  END
> <s_m_source_file>
AV-unprocessed.smi

> <i_m_source_file_index>
1471

> <i_lp_mmshare_version>
43012

> <i_f3d_flags>
0

> <s_epik_input>
TiNDYyhjMVtDSDNdKWMoPU8pbihuYzFbQ0gzXSlbQ0gyXVtDQEhdKFtPSF0pW0NIMl1PW0NIMl1jMltjSF1bY0hdW2NIXVtjSF1jMkY=

> <s_epik_cmdline>
J2VwaWtfcHl0aG9uJywgJy1waCcsICc3LjAnLCAnLXRuJywgJzgnLCAnLW1hJywgJzIwMCcsICctbWV0YWxfYmluZGluZycsICctaW1hZScsICc8aW5maWxlLm1hZT4nLCAnLW9tYWUnLCAnPG91dGZpbGUubWFlPic=

> <r_lp_tautomer_probability>
1

> <r_epik_Ionization_Penalty>
6.13319e-08

> <r_epik_Ionization_Penalty_Charging>
2.19172e-10

> <r_epik_Ionization_Penalty_Neutral>
6.11128e-08

> <r_epik_State_Penalty>
-0

> <r_epik_Charging_Adjusted_Penalty>
2.19172e-10

> <i_epik_Tot_Q>
0

> <i_epik_Tot_abs_Q>
0

> <r_epik_Metal_State_Penalty>
-0

> <b_epik_Metal_Only>
0

> <s_lp_Force_Field>
OPLS_2005

> <r_lp_Energy>
30.1465

> <b_lp_Chiralities_Consistent>
1

> <s_lp_Variant>
AV-unprocessed.smi:1471-2

> <Gold.Version>
5.8.1

> <Gold.Id.Protein>
6NUR|6NUR_protein|mol2

> <Gold.PLP.Fitness>
49.4164

> <Gold.PLP.PLP>
-44.9202

> <Gold.PLP.part.hbond>
-3.0000

> <Gold.PLP.part.metal>
0.0000

> <Gold.PLP.part.buried>
-1.4600

> <Gold.PLP.part.nonpolar>
-41.3157

> <Gold.PLP.part.repulsive>
0.0000

> <Gold.PLP.ligand.clash>
0.0000

> <Gold.PLP.ligand.torsion>
1.4768

> <Gold.PLP.Chemscore.Hbond>
2.4689

> <Gold.PLP.Chemscore.CHOScore>
0.0000

> <Gold.PLP.Chemscore.Metal>
0.0000

> <Gold.Chemscore.Hbonds>
donor molecule, donor type, donor heavy atom, donor atom, acceptor molecule, acceptor atom, score
      P1  H  6896  6909       L1    19  0.90
      P1  H  6934  6947       L1     3  0.38

> <Gold.PLP.Chemscore.Internal.Correction>
0.0431

> <Gold.Rescore>
     Score         DG    S(hbond)    S(metal)    S(lipo)     H(rot)  DE(clash)    DE(int)     intcor
     13.43     -16.33       0.93        0.00     124.27       2.65       0.04       2.86       ----

> <Gold.Chemscore.Fitness>
13.4346

> <Gold.Chemscore.DG>
-16.3344

> <Gold.Chemscore.ZeroCoef>
-5.4800

> <Gold.Chemscore.Hbond>
0.9255

> <Gold.Chemscore.Metal>
0.0000

> <Gold.Chemscore.Lipo>
124.2693

> <Gold.Chemscore.Internal_Hbond>
0.0000

> <Gold.Chemscore.DEClash>
0.0355

> <Gold.Chemscore.DEInternal>
2.8642

> <Gold.Chemscore.Rot>
2.6470

> <Gold.Chemscore.Internal.Correction>
   9.000000E+99

> <Gold.Chemscore.Hbonds>
donor molecule, donor type, donor heavy atom, donor atom, acceptor molecule, acceptor atom, score
      P1  H  6896  6909       L1    19  0.18
      P1  H  6934  6947       L1     3  0.01

> <Gold.Chemscore.Hbond.Weighted>
-3.0911

> <Gold.Chemscore.Metal.Weighted>
-0.0000

> <Gold.Chemscore.Lipo.Weighted>
-14.5395

> <Gold.Chemscore.Internal_Hbond.Weighted>
0.0000

> <Gold.Chemscore.DEClash.Weighted>
0.0355

> <Gold.Chemscore.DEInternal.Weighted>
2.8642

> <Gold.Chemscore.Rot.Weighted>
6.7762

> <Gold.Chemscore.Internal.Correction.Weighted>
   9.000000E+99

> <Gold.Protein.RotatedTorsions>
[ 6907 6896 6895 6894 ] final   25.51 input  -60.11 | X-H torsion
[ 7974 7965 7964 7962 ] final   66.42 input  175.53 | X-H torsion
[ 8008 7997 7996 7995 ] final  103.57 input   59.86 | X-H torsion
[ 10167 10162 10161 10158 ] final   43.65 input  -65.29 | X-H torsion
[ 10718 10713 10712 10709 ] final -179.55 input   66.30 | X-H torsion
[ 10763 10752 10751 10750 ] final  134.27 input  -60.55 | X-H torsion
[ 11005 11000 10999 10996 ] final  -26.95 input  -57.11 | X-H torsion

> <Gold.Protein.ActiveResidues>
 VAL166  LYS551  ARG553  GLY616  TRP617  ASP618  TYR619  PRO620  LYS621  CYS622 
 ASP623  PHE694  ASN695  SER759  ASP760  ASP761  ALA762  ILE779  LEU786  VAL792 
 PHE793  MET794  SER795  GLU796  ALA797  LYS798  CYS799  TRP800  GLU811  SER814 

> <Gold.Protein.RotatedAtoms>
  151.9736  135.0064  160.0553 H   0  0  0  0  0  0  0  0  0  0  0  0  # atno 6907 bound_to 6896
  152.1760  133.4671  159.4942 H   0  0  0  0  0  0  0  0  0  0  0  0  # atno 6908 bound_to 6896
  150.6909  134.1810  159.4292 H   0  0  0  0  0  0  0  0  0  0  0  0  # atno 6909 bound_to 6896
  145.8269  139.3116  143.1010 H   0  0  0  0  0  0  0  0  0  0  0  0  # atno 7974 bound_to 7965
  156.1496  140.3162  155.8626 H   0  0  0  0  0  0  0  0  0  0  0  0  # atno 8008 bound_to 7997
  155.3997  140.0499  157.3054 H   0  0  0  0  0  0  0  0  0  0  0  0  # atno 8009 bound_to 7997
  154.5046  140.2142  155.9288 H   0  0  0  0  0  0  0  0  0  0  0  0  # atno 8010 bound_to 7997
  140.3423  144.2455  150.6154 H   0  0  0  0  0  0  0  0  0  0  0  0  # atno 10167 bound_to 10162
  156.8608  130.9751  151.3083 H   0  0  0  0  0  0  0  0  0  0  0  0  # atno 10718 bound_to 10713
  153.8208  135.3116  155.3410 H   0  0  0  0  0  0  0  0  0  0  0  0  # atno 10763 bound_to 10752
  154.8013  135.4724  154.0287 H   0  0  0  0  0  0  0  0  0  0  0  0  # atno 10764 bound_to 10752
  153.1695  135.6875  153.8718 H   0  0  0  0  0  0  0  0  0  0  0  0  # atno 10765 bound_to 10752
  140.9076  133.7482  156.0627 H   0  0  0  0  0  0  0  0  0  0  0  0  # atno 11005 bound_to 11000
  145.9614  140.8832  143.0209 LP  0  0  0  0  0  0  0  0  0  0  0  0  # atno 17320 bound_to 7965
  144.6743  140.1818  143.7405 LP  0  0  0  0  0  0  0  0  0  0  0  0  # atno 17321 bound_to 7965
  140.5298  143.2246  151.8257 LP  0  0  0  0  0  0  0  0  0  0  0  0  # atno 17342 bound_to 10162
  139.4838  144.4735  151.9396 LP  0  0  0  0  0  0  0  0  0  0  0  0  # atno 17343 bound_to 10162
  157.6251  130.8685  149.9175 LP  0  0  0  0  0  0  0  0  0  0  0  0  # atno 17370 bound_to 10713
  156.0778  130.3677  150.0642 LP  0  0  0  0  0  0  0  0  0  0  0  0  # atno 17371 bound_to 10713
  140.8151  134.3354  157.5399 LP  0  0  0  0  0  0  0  0  0  0  0  0  # atno 17394 bound_to 11000
  139.8752  134.9277  156.3432 LP  0  0  0  0  0  0  0  0  0  0  0  0  # atno 17395 bound_to 11000

$$$$
