#       Name:                AV-unprocessed.smi:1626
#       Creating user name   scv26
#       Creation time:       Fri Mar 27 07:18:31 2020


#       File generated by GOLD software.
#

@<TRIPOS>MOLECULE
AV-unprocessed.smi:1626
    53    55     1
SMALL
NO_CHARGES


@<TRIPOS>ATOM
      1 ****        -3.3217   4.6730  -2.4729 C.3            1 S1                 0.0000
      2 ****        -3.0018   3.5440  -1.5077 C.ar           1 S1                 0.0000
      3 ****        -3.3195   3.7148  -0.1412 C.ar           1 S1                 0.0000
      4 ****        -3.0147   2.6649   0.7167 C.ar           1 S1                 0.0000
      5 ****        -3.1996   2.5251   2.0938 N.pl3          1 S1                 1.0000
      6 ****        -2.7439   1.3051   2.4922 C.2            1 S1                 0.0000
      7 ****        -2.2641   0.6665   1.3897 N.pl3          1 S1                 0.0000
      8 ****        -1.6688  -0.6701   1.2560 C.3            1 S1                 0.0000
      9 ****        -0.1292  -0.6423   1.1800 C.3            1 S1                 0.0000
     10 ****         0.3813  -0.0089   2.3376 O.3            1 S1                 0.0000
     11 ****         0.4600  -2.0643   1.0921 C.3            1 S1                 0.0000
     12 ****         1.9354  -2.0642   0.9161 N.4            1 S1                 1.0000
     13 ****         2.3614  -1.7676  -0.4779 C.3            1 S1                 0.0000
     14 ****         3.8926  -1.6425  -0.5804 C.3            1 S1                 0.0000
     15 ****         4.6094  -2.8898  -0.0381 C.3            1 S1                 0.0000
     16 ****         4.4027  -3.9878  -0.9042 O.3            1 S1                 0.0000
     17 ****         4.0988  -3.2261   1.3724 C.3            1 S1                 0.0000
     18 ****         2.5628  -3.3118   1.4237 C.3            1 S1                 0.0000
     19 ****        -2.4155   1.4755   0.2585 C.ar           1 S1                 0.0000
     20 ****        -2.0964   1.2899  -1.0843 C.ar           1 S1                 0.0000
     21 ****        -2.3969   2.3473  -1.9729 C.ar           1 S1                 0.0000
     22 ****        -2.0588   2.1757  -3.4441 C.3            1 S1                 0.0000
     23 ****        -3.8093   5.5060  -1.9655 H              1 S1                 0.0000
     24 ****        -3.9909   4.3267  -3.2609 H              1 S1                 0.0000
     25 ****        -2.4091   5.0519  -2.9336 H              1 S1                 0.0000
     26 ****        -3.7801   4.6229   0.2200 H              1 S1                 0.0000
     27 ****        -2.7594   0.9159   3.5004 H              1 S1                 0.0000
     28 ****        -1.9947  -1.2585   2.1151 H              1 S1                 0.0000
     29 ****        -2.0955  -1.1496   0.3739 H              1 S1                 0.0000
     30 ****         0.1686  -0.0525   0.3140 H              1 S1                 0.0000
     31 ****         0.0352   0.8701   2.3767 H              1 S1                 0.0000
     32 ****         0.1969  -2.6006   2.0054 H              1 S1                 0.0000
     33 ****         0.0007  -2.6207   0.2733 H              1 S1                 0.0000
     34 ****         2.0025  -2.5541  -1.1436 H              1 S1                 0.0000
     35 ****         1.9105  -0.8383  -0.8235 H              1 S1                 0.0000
     36 ****         4.1869  -1.4550  -1.6138 H              1 S1                 0.0000
     37 ****         4.2153  -0.7704  -0.0100 H              1 S1                 0.0000
     38 ****         5.6836  -2.7062  -0.0003 H              1 S1                 0.0000
     39 ****         4.8087  -3.7972  -1.7365 H              1 S1                 0.0000
     40 ****         4.5396  -4.1604   1.7225 H              1 S1                 0.0000
     41 ****         4.4336  -2.4537   2.0663 H              1 S1                 0.0000
     42 ****         2.2542  -3.4864   2.4552 H              1 S1                 0.0000
     43 ****         2.2089  -4.1633   0.8404 H              1 S1                 0.0000
     44 ****        -1.6389   0.3783  -1.4387 H              1 S1                 0.0000
     45 ****        -1.5699   1.2195  -3.6328 H              1 S1                 0.0000
     46 ****        -1.3848   2.9649  -3.7779 H              1 S1                 0.0000
     47 ****        -2.9636   2.2129  -4.0510 H              1 S1                 0.0000
     48 ****         2.2858  -1.3182   1.5002 H              1 S1                 0.0000
     49 ****        -3.6098   3.2090   2.7173 H              1 S1                 0.0000
     50 ****         1.3797   0.0236   2.2917 LP             1 S1                 0.0000
     51 ****         0.1015  -0.5179   3.1517 LP             1 S1                 0.0000
     52 ****         3.4221  -4.1345  -1.0337 LP             1 S1                 0.0000
     53 ****         4.8134  -4.8098  -0.5096 LP             1 S1                 0.0000
@<TRIPOS>BOND
    1    1    2 1     
    2    1   23 1     
    3    1   24 1     
    4    1   25 1     
    5    2   21 ar    
    6    2    3 ar    
    7    3    4 ar    
    8    3   26 1     
    9    4   19 ar    
   10    4    5 1     
   11    5    6 2     
   12    5   49 1     
   13    6    7 1     
   14    6   27 1     
   15    7    8 1     
   16    7   19 1     
   17    8    9 1     
   18    8   28 1     
   19    8   29 1     
   20    9   10 1     
   21    9   11 1     
   22    9   30 1     
   23   10   31 1     
   24   11   12 1     
   25   11   32 1     
   26   11   33 1     
   27   12   18 1     
   28   12   13 1     
   29   12   48 1     
   30   13   14 1     
   31   13   34 1     
   32   13   35 1     
   33   14   15 1     
   34   14   36 1     
   35   14   37 1     
   36   15   16 1     
   37   15   17 1     
   38   15   38 1     
   39   16   39 1     
   40   17   18 1     
   41   17   40 1     
   42   17   41 1     
   43   18   42 1     
   44   18   43 1     
   45   19   20 ar    
   46   20   21 ar    
   47   20   44 1     
   48   21   22 1     
   49   22   45 1     
   50   22   46 1     
   51   22   47 1     
   52   10   50 1     
   53   10   51 1     
   54   16   52 1     
   55   16   53 1     
@<TRIPOS>SUBSTRUCTURE
      1 S1             1
@<TRIPOS>SET
LONE_PAIRS      STATIC     ATOMS    <user>   **** ""
4 50 51 52 53
DONOR_HYDROGENS      STATIC     ATOMS    <user>   **** ""
4 49 31 48 39
ATOM$BLUE        STATIC     ATOMS    COLORGROUP SYSTEM
4 50 51 52 53
ATOM$RED        STATIC     ATOMS    COLORGROUP SYSTEM
4 49 31 48 39
