AV-unprocessed.smi:215|AV-procd|sdf|1652|dock1
  -GOLD-   2262020 33D 1   1.00000     0.00000
 Structure written by MMmdl.
 59 62  0  0  0  0  0  0  0  0  2 V2000
  147.7560  136.6709  156.2372 C   0  0  0  0  0  0  0  0  0  0  0  0
  148.6849  136.1194  155.1329 C   0  0  2  0  0  0  0  0  0  0  0  0
  148.3627  134.6656  154.7014 C   0  0  1  0  0  0  0  0  0  0  0  0
  147.3819  134.5225  153.5813 N   0  3  2  0  0  0  0  0  0  0  0  0
  146.1605  135.3543  153.7063 C   0  0  0  0  0  0  0  0  0  0  0  0
  147.0418  133.1030  153.2889 C   0  0  0  0  0  0  0  0  0  0  0  0
  146.2468  132.9617  151.9805 C   0  0  0  0  0  0  0  0  0  0  0  0
  147.1279  132.9595  150.8770 O   0  0  0  0  0  0  0  0  0  0  0  0
  149.7483  134.1382  154.2968 C   0  0  0  0  0  0  0  0  0  0  0  0
  150.7178  134.8382  155.2414 C   0  0  0  0  0  0  0  0  0  0  0  0
  150.0646  136.0801  155.6208 N   0  0  0  0  0  0  0  0  0  0  0  0
  150.8265  137.2011  155.7326 C   0  0  0  0  0  0  0  0  0  0  0  0
  151.9303  137.3412  154.9514 N   0  0  0  0  0  0  0  0  0  0  0  0
  152.6939  138.4332  155.0451 C   0  0  0  0  0  0  0  0  0  0  0  0
  152.5394  139.4920  155.8408 N   0  0  0  0  0  0  0  0  0  0  0  0
  151.4318  139.3641  156.6260 C   0  0  0  0  0  0  0  0  0  0  0  0
  150.5276  138.2638  156.6345 C   0  0  0  0  0  0  0  0  0  0  0  0
  149.5097  138.5012  157.5510 N   0  0  0  0  0  0  0  0  0  0  0  0
  149.7961  139.6709  158.0543 C   0  0  0  0  0  0  0  0  0  0  0  0
  150.9439  140.2554  157.5667 N   0  0  0  0  0  0  0  0  0  0  0  0
  151.4824  141.5400  157.9159 C   0  0  0  0  0  0  0  0  0  0  0  0
  152.7207  141.6955  158.8038 C   0  0  0  0  0  0  0  0  0  0  0  0
  152.1345  143.0124  159.3654 C   0  0  0  0  0  0  0  0  0  0  0  0
  152.3379  143.2093  160.8782 C   0  0  0  0  0  0  0  0  0  0  0  0
  151.3771  144.0864  161.4290 O   0  0  0  0  0  0  0  0  0  0  0  0
  152.6130  144.2768  158.6200 C   0  0  0  0  0  0  0  0  0  0  0  0
  151.9974  145.4512  159.1071 O   0  0  0  0  0  0  0  0  0  0  0  0
  150.7684  142.4317  158.9297 C   0  0  0  0  0  0  0  0  0  0  0  0
  148.6483  136.7644  154.2538 H   0  0  0  0  0  0  0  0  0  0  0  0
  148.0078  134.1074  155.5701 H   0  0  0  0  0  0  0  0  0  0  0  0
  146.7159  136.7316  155.9266 H   0  0  0  0  0  0  0  0  0  0  0  0
  148.0486  137.6767  156.5377 H   0  0  0  0  0  0  0  0  0  0  0  0
  147.7934  136.0438  157.1286 H   0  0  0  0  0  0  0  0  0  0  0  0
  145.6242  135.1252  154.6278 H   0  0  0  0  0  0  0  0  0  0  0  0
  145.4779  135.1809  152.8751 H   0  0  0  0  0  0  0  0  0  0  0  0
  146.4001  136.4170  153.6884 H   0  0  0  0  0  0  0  0  0  0  0  0
  147.9340  132.4820  153.2150 H   0  0  0  0  0  0  0  0  0  0  0  0
  146.4714  132.6890  154.1218 H   0  0  0  0  0  0  0  0  0  0  0  0
  145.6951  132.0213  151.9787 H   0  0  0  0  0  0  0  0  0  0  0  0
  145.5137  133.7590  151.8605 H   0  0  0  0  0  0  0  0  0  0  0  0
  147.5782  132.1288  150.8495 H   0  0  0  0  0  0  0  0  0  0  0  0
  149.8399  133.0538  154.3571 H   0  0  0  0  0  0  0  0  0  0  0  0
  149.9739  134.4342  153.2710 H   0  0  0  0  0  0  0  0  0  0  0  0
  150.8798  134.2411  156.1394 H   0  0  0  0  0  0  0  0  0  0  0  0
  151.6834  134.9990  154.7599 H   0  0  0  0  0  0  0  0  0  0  0  0
  153.5522  138.4623  154.3901 H   0  0  0  0  0  0  0  0  0  0  0  0
  149.1671  140.1403  158.7960 H   0  0  0  0  0  0  0  0  0  0  0  0
  151.6329  142.0783  156.9785 H   0  0  0  0  0  0  0  0  0  0  0  0
  152.8101  140.9133  159.5590 H   0  0  0  0  0  0  0  0  0  0  0  0
  153.6559  141.8084  158.2543 H   0  0  0  0  0  0  0  0  0  0  0  0
  152.2511  142.2606  161.4083 H   0  0  0  0  0  0  0  0  0  0  0  0
  153.3344  143.5930  161.0987 H   0  0  0  0  0  0  0  0  0  0  0  0
  150.6534  144.1581  160.8259 H   0  0  0  0  0  0  0  0  0  0  0  0
  153.6945  144.3922  158.6961 H   0  0  0  0  0  0  0  0  0  0  0  0
  152.3931  144.2129  157.5542 H   0  0  0  0  0  0  0  0  0  0  0  0
  151.2005  145.5973  158.6211 H   0  0  0  0  0  0  0  0  0  0  0  0
  150.0775  143.1508  158.4887 H   0  0  0  0  0  0  0  0  0  0  0  0
  150.2803  141.8578  159.7198 H   0  0  0  0  0  0  0  0  0  0  0  0
  147.8655  134.8627  152.7616 H   0  0  0  0  0  0  0  0  0  0  0  0
  1  2  1  0  0  0  0
  1 31  1  0  0  0  0
  1 32  1  0  0  0  0
  1 33  1  0  0  0  0
  2 29  1  0  0  0  0
  2 11  1  0  0  0  0
  2  3  1  0  0  0  0
  3 30  1  0  0  0  0
  3  4  1  0  0  0  0
  3  9  1  0  0  0  0
  4  5  1  0  0  0  0
  4  6  1  0  0  0  0
  4 59  1  0  0  0  0
  5 34  1  0  0  0  0
  5 35  1  0  0  0  0
  5 36  1  0  0  0  0
  6  7  1  0  0  0  0
  6 37  1  0  0  0  0
  6 38  1  0  0  0  0
  7  8  1  0  0  0  0
  7 39  1  0  0  0  0
  7 40  1  0  0  0  0
  8 41  1  0  0  0  0
  9 10  1  0  0  0  0
  9 42  1  0  0  0  0
  9 43  1  0  0  0  0
 10 11  1  0  0  0  0
 10 44  1  0  0  0  0
 10 45  1  0  0  0  0
 11 12  1  0  0  0  0
 12 17  1  0  0  0  0
 12 13  2  0  0  0  0
 13 14  1  0  0  0  0
 14 15  2  0  0  0  0
 14 46  1  0  0  0  0
 15 16  1  0  0  0  0
 16 20  1  0  0  0  0
 16 17  2  0  0  0  0
 17 18  1  0  0  0  0
 18 19  2  0  0  0  0
 19 20  1  0  0  0  0
 19 47  1  0  0  0  0
 20 21  1  0  0  0  0
 21 28  1  0  0  0  0
 21 22  1  0  0  0  0
 21 48  1  0  0  0  0
 22 23  1  0  0  0  0
 22 49  1  0  0  0  0
 22 50  1  0  0  0  0
 23 24  1  0  0  0  0
 23 26  1  0  0  0  0
 23 28  1  0  0  0  0
 24 25  1  0  0  0  0
 24 51  1  0  0  0  0
 24 52  1  0  0  0  0
 25 53  1  0  0  0  0
 26 27  1  0  0  0  0
 26 54  1  0  0  0  0
 26 55  1  0  0  0  0
 27 56  1  0  0  0  0
 28 57  1  0  0  0  0
 28 58  1  0  0  0  0
M  CHG  1   4   1
M  END
> <s_m_source_file>
AV-unprocessed.smi

> <i_m_source_file_index>
215

> <i_lp_mmshare_version>
43012

> <i_f3d_flags>
0

> <s_epik_input>
W09IXVtDSDJdW0NIMl1OKFtDSDNdKVtDQEBIXShbQ0BIXTFbQ0gzXSlbQ0gyXVtDSDJdTjFjKG5bY0hdbjIpYyhjMjMpbltjSF1uM1tDSF0oW0NIMl00KVtDSDJdQzQoW0NIMl1bT0hdKVtDSDJdW09IXQ==

> <s_epik_cmdline>
J2VwaWtfcHl0aG9uJywgJy1waCcsICc3LjAnLCAnLXRuJywgJzgnLCAnLW1hJywgJzIwMCcsICctbWV0YWxfYmluZGluZycsICctaW1hZScsICc8aW5maWxlLm1hZT4nLCAnLW9tYWUnLCAnPG91dGZpbGUubWFlPic=

> <r_lp_tautomer_probability>
1

> <r_epik_Ionization_Penalty>
0.0036237

> <r_epik_Ionization_Penalty_Charging>
0.0032725

> <r_epik_Ionization_Penalty_Neutral>
0.000351196

> <r_epik_State_Penalty>
-0

> <r_epik_Charging_Adjusted_Penalty>
0.0032725

> <i_epik_Tot_Q>
1

> <i_epik_Tot_abs_Q>
1

> <r_epik_Metal_State_Penalty>
-0

> <b_epik_Metal_Only>
0

> <s_lp_Force_Field>
OPLS_2005

> <r_lp_Energy>
64.69

> <b_lp_Chiralities_Consistent>
1

> <s_lp_Variant>
AV-unprocessed.smi:215-3

> <Gold.Version>
5.8.1

> <Gold.Id.Protein>
6NUR|6NUR_protein|mol2

> <Gold.PLP.Fitness>
57.1558

> <Gold.PLP.PLP>
-44.7317

> <Gold.PLP.part.hbond>
-5.3835

> <Gold.PLP.part.metal>
0.0000

> <Gold.PLP.part.buried>
-7.2631

> <Gold.PLP.part.nonpolar>
-32.6968

> <Gold.PLP.part.repulsive>
0.0888

> <Gold.PLP.ligand.clash>
0.0000

> <Gold.PLP.ligand.torsion>
1.5812

> <Gold.PLP.Chemscore.Hbond>
4.8960

> <Gold.PLP.Chemscore.CHOScore>
0.0000

> <Gold.PLP.Chemscore.Metal>
0.0000

> <Gold.Chemscore.Hbonds>
donor molecule, donor type, donor heavy atom, donor atom, acceptor molecule, acceptor atom, score
      L1  H     4    59       P1  7948  2.00
      L1  H     8    41       P1 10747  1.00
      P1  H  7997  8009       L1    15  1.00
      P1  H 10752 10765       L1    13  0.87

> <Gold.PLP.Chemscore.Internal.Correction>
0.8984

> <Gold.Rescore>
     Score         DG    S(hbond)    S(metal)    S(lipo)     H(rot)  DE(clash)    DE(int)     intcor
     13.90     -16.64       3.41        0.00      95.97       4.48       0.12       2.62       ----

> <Gold.Chemscore.Fitness>
13.8994

> <Gold.Chemscore.DG>
-16.6375

> <Gold.Chemscore.ZeroCoef>
-5.4800

> <Gold.Chemscore.Hbond>
3.4115

> <Gold.Chemscore.Metal>
0.0000

> <Gold.Chemscore.Lipo>
95.9693

> <Gold.Chemscore.Internal_Hbond>
0.0000

> <Gold.Chemscore.DEClash>
0.1218

> <Gold.Chemscore.DEInternal>
2.6163

> <Gold.Chemscore.Rot>
4.4787

> <Gold.Chemscore.Internal.Correction>
   9.000000E+99

> <Gold.Chemscore.Hbonds>
donor molecule, donor type, donor heavy atom, donor atom, acceptor molecule, acceptor atom, score
      L1  H     4    59       P1  7948  0.89
      L1  H     8    41       P1 10747  0.96
      P1  H  7997  8009       L1    15  0.60
      P1  H 10752 10765       L1    13  0.69

> <Gold.Chemscore.Hbond.Weighted>
-11.3946

> <Gold.Chemscore.Metal.Weighted>
-0.0000

> <Gold.Chemscore.Lipo.Weighted>
-11.2284

> <Gold.Chemscore.Internal_Hbond.Weighted>
0.0000

> <Gold.Chemscore.DEClash.Weighted>
0.1218

> <Gold.Chemscore.DEInternal.Weighted>
2.6163

> <Gold.Chemscore.Rot.Weighted>
11.4655

> <Gold.Chemscore.Internal.Correction.Weighted>
   9.000000E+99

> <Gold.Protein.RotatedTorsions>
[ 6907 6896 6895 6894 ] final -134.50 input  -60.11 | X-H torsion
[ 7974 7965 7964 7962 ] final   77.77 input  175.53 | X-H torsion
[ 8008 7997 7996 7995 ] final -161.50 input   59.86 | X-H torsion
[ 10167 10162 10161 10158 ] final  166.86 input  -65.29 | X-H torsion
[ 10718 10713 10712 10709 ] final  161.01 input   66.30 | X-H torsion
[ 10763 10752 10751 10750 ] final  168.83 input  -60.55 | X-H torsion
[ 11005 11000 10999 10996 ] final  -53.38 input  -57.11 | X-H torsion

> <Gold.Protein.ActiveResidues>
 VAL166  LYS551  ARG553  GLY616  TRP617  ASP618  TYR619  PRO620  LYS621  CYS622 
 ASP623  PHE694  ASN695  SER759  ASP760  ASP761  ALA762  ILE779  LEU786  VAL792 
 PHE793  MET794  SER795  GLU796  ALA797  LYS798  CYS799  TRP800  GLU811  SER814 

> <Gold.Protein.RotatedAtoms>
  150.9866  133.6192  159.2714 H   0  0  0  0  0  0  0  0  0  0  0  0  # atno 6907 bound_to 6896
  151.3428  135.0866  159.9386 H   0  0  0  0  0  0  0  0  0  0  0  0  # atno 6908 bound_to 6896
  152.5232  133.9474  159.7710 H   0  0  0  0  0  0  0  0  0  0  0  0  # atno 6909 bound_to 6896
  145.6857  139.2537  143.1789 H   0  0  0  0  0  0  0  0  0  0  0  0  # atno 7974 bound_to 7965
  155.7931  140.0881  157.1998 H   0  0  0  0  0  0  0  0  0  0  0  0  # atno 8008 bound_to 7997
  154.3984  140.1486  156.3244 H   0  0  0  0  0  0  0  0  0  0  0  0  # atno 8009 bound_to 7997
  155.8539  140.3433  155.5714 H   0  0  0  0  0  0  0  0  0  0  0  0  # atno 8010 bound_to 7997
  139.4933  144.3983  151.9439 H   0  0  0  0  0  0  0  0  0  0  0  0  # atno 10167 bound_to 10162
  157.1424  131.0544  151.2320 H   0  0  0  0  0  0  0  0  0  0  0  0  # atno 10718 bound_to 10713
  154.3743  135.2753  155.2248 H   0  0  0  0  0  0  0  0  0  0  0  0  # atno 10763 bound_to 10752
  154.4382  135.5961  153.6115 H   0  0  0  0  0  0  0  0  0  0  0  0  # atno 10764 bound_to 10752
  152.9837  135.6012  154.3978 H   0  0  0  0  0  0  0  0  0  0  0  0  # atno 10765 bound_to 10752
  141.0973  133.6623  156.4164 H   0  0  0  0  0  0  0  0  0  0  0  0  # atno 11005 bound_to 11000
  146.0926  140.7638  142.9588 LP  0  0  0  0  0  0  0  0  0  0  0  0  # atno 17320 bound_to 7965
  144.7012  140.3661  143.7154 LP  0  0  0  0  0  0  0  0  0  0  0  0  # atno 17321 bound_to 7965
  140.3421  144.3190  150.5965 LP  0  0  0  0  0  0  0  0  0  0  0  0  # atno 17342 bound_to 10162
  140.5557  143.2199  151.7852 LP  0  0  0  0  0  0  0  0  0  0  0  0  # atno 17343 bound_to 10162
  157.4295  130.7482  149.6978 LP  0  0  0  0  0  0  0  0  0  0  0  0  # atno 17370 bound_to 10713
  155.9786  130.4049  150.3639 LP  0  0  0  0  0  0  0  0  0  0  0  0  # atno 17371 bound_to 10713
  140.5109  134.6396  157.5284 LP  0  0  0  0  0  0  0  0  0  0  0  0  # atno 17394 bound_to 11000
  139.9813  134.7132  155.9854 LP  0  0  0  0  0  0  0  0  0  0  0  0  # atno 17395 bound_to 11000

$$$$
