AV-unprocessed.smi:3319|AV-procd|sdf|12767|dock7
  -GOLD-   2272019103D 1   1.00000     0.00000
 Structure written by MMmdl.
 40 41  0  0  0  0  0  0  0  0  2 V2000
  146.8002  138.8083  152.0772 C   0  0  0  0  0  0  0  0  0  0  0  0
  147.0777  138.5596  153.2401 C   0  0  0  0  0  0  0  0  0  0  0  0
  147.4278  138.2550  154.6396 C   0  0  0  0  0  0  0  0  0  0  0  0
  148.2737  139.2768  155.2565 N   0  0  0  0  0  0  0  0  0  0  0  0
  147.6135  140.5774  155.1277 C   0  0  0  0  0  0  0  0  0  0  0  0
  148.4246  141.6613  155.8586 C   0  0  0  0  0  0  0  0  0  0  0  0
  149.8490  141.7647  155.2928 C   0  0  0  0  0  0  0  0  0  0  0  0
  150.6346  142.7474  156.0720 N   0  3  0  0  0  0  0  0  0  0  0  0
  150.8504  142.4021  157.4928 C   0  0  0  0  0  0  0  0  0  0  0  0
  151.5642  143.5422  158.2314 C   0  0  0  0  0  0  0  0  0  0  0  0
  152.1933  143.0783  159.5309 C   0  0  0  0  0  0  0  0  0  0  0  0
  151.8765  143.7105  160.7510 C   0  0  0  0  0  0  0  0  0  0  0  0
  152.4897  143.2407  161.9303 C   0  0  0  0  0  0  0  0  0  0  0  0
  153.3651  142.2127  161.9515 N   0  0  0  0  0  0  0  0  0  0  0  0
  153.6629  141.6116  160.7796 C   0  0  0  0  0  0  0  0  0  0  0  0
  153.1059  142.0035  159.5453 C   0  0  0  0  0  0  0  0  0  0  0  0
  150.4893  140.3653  155.3163 C   0  0  0  0  0  0  0  0  0  0  0  0
  149.5910  139.3338  154.6112 C   0  0  0  0  0  0  0  0  0  0  0  0
  146.5583  139.0218  151.0602 H   0  0  0  0  0  0  0  0  0  0  0  0
  146.5129  138.1025  155.2139 H   0  0  0  0  0  0  0  0  0  0  0  0
  147.9575  137.3018  154.6149 H   0  0  0  0  0  0  0  0  0  0  0  0
  147.4895  140.8364  154.0747 H   0  0  0  0  0  0  0  0  0  0  0  0
  146.6151  140.5261  155.5639 H   0  0  0  0  0  0  0  0  0  0  0  0
  147.9157  142.6215  155.7676 H   0  0  0  0  0  0  0  0  0  0  0  0
  148.4595  141.4295  156.9244 H   0  0  0  0  0  0  0  0  0  0  0  0
  149.7819  142.1138  154.2610 H   0  0  0  0  0  0  0  0  0  0  0  0
  151.5440  142.8229  155.6389 H   0  0  0  0  0  0  0  0  0  0  0  0
  149.8931  142.1996  157.9729 H   0  0  0  0  0  0  0  0  0  0  0  0
  151.4445  141.4895  157.5556 H   0  0  0  0  0  0  0  0  0  0  0  0
  152.3403  143.9729  157.5971 H   0  0  0  0  0  0  0  0  0  0  0  0
  150.8605  144.3474  158.4468 H   0  0  0  0  0  0  0  0  0  0  0  0
  151.1817  144.5369  160.7878 H   0  0  0  0  0  0  0  0  0  0  0  0
  152.2706  143.7029  162.8816 H   0  0  0  0  0  0  0  0  0  0  0  0
  154.3659  140.7930  160.8260 H   0  0  0  0  0  0  0  0  0  0  0  0
  153.3765  141.4891  158.6347 H   0  0  0  0  0  0  0  0  0  0  0  0
  151.4621  140.3801  154.8251 H   0  0  0  0  0  0  0  0  0  0  0  0
  150.6658  140.0502  156.3460 H   0  0  0  0  0  0  0  0  0  0  0  0
  150.0761  138.3584  154.6565 H   0  0  0  0  0  0  0  0  0  0  0  0
  149.4815  139.5845  153.5548 H   0  0  0  0  0  0  0  0  0  0  0  0
  150.1781  143.6466  156.0145 H   0  0  0  0  0  0  0  0  0  0  0  0
  1  2  3  0  0  0  0
  1 19  1  0  0  0  0
  2  3  1  0  0  0  0
  3  4  1  0  0  0  0
  3 20  1  0  0  0  0
  3 21  1  0  0  0  0
  4 18  1  0  0  0  0
  4  5  1  0  0  0  0
  5  6  1  0  0  0  0
  5 22  1  0  0  0  0
  5 23  1  0  0  0  0
  6  7  1  0  0  0  0
  6 24  1  0  0  0  0
  6 25  1  0  0  0  0
  7  8  1  0  0  0  0
  7 17  1  0  0  0  0
  7 26  1  0  0  0  0
  8  9  1  0  0  0  0
  8 27  1  0  0  0  0
  8 40  1  0  0  0  0
  9 10  1  0  0  0  0
  9 28  1  0  0  0  0
  9 29  1  0  0  0  0
 10 11  1  0  0  0  0
 10 30  1  0  0  0  0
 10 31  1  0  0  0  0
 11 16  1  0  0  0  0
 11 12  2  0  0  0  0
 12 13  1  0  0  0  0
 12 32  1  0  0  0  0
 13 14  2  0  0  0  0
 13 33  1  0  0  0  0
 14 15  1  0  0  0  0
 15 16  2  0  0  0  0
 15 34  1  0  0  0  0
 16 35  1  0  0  0  0
 17 18  1  0  0  0  0
 17 36  1  0  0  0  0
 17 37  1  0  0  0  0
 18 38  1  0  0  0  0
 18 39  1  0  0  0  0
M  CHG  1   8   1
M  END
> <s_m_source_file>
AV-unprocessed.smi

> <i_m_source_file_index>
3319

> <i_lp_mmshare_version>
43012

> <i_f3d_flags>
0

> <s_epik_input>
W0NIXSNDW0NIMl1OMVtDSDJdW0NIMl1bQ0hdKFtDSDJdW0NIMl0xKVtOSF1bQ0gyXVtDSDJdYzJbY0hdW2NIXW5bY0hdW2NIXTI=

> <s_epik_cmdline>
J2VwaWtfcHl0aG9uJywgJy1waCcsICc3LjAnLCAnLXRuJywgJzgnLCAnLW1hJywgJzIwMCcsICctbWV0YWxfYmluZGluZycsICctaW1hZScsICc8aW5maWxlLm1hZT4nLCAnLW9tYWUnLCAnPG91dGZpbGUubWFlPic=

> <r_epik_Ionization_Penalty>
0.00927662

> <r_epik_Ionization_Penalty_Charging>
0.000485704

> <r_epik_Ionization_Penalty_Neutral>
0.00879091

> <r_epik_State_Penalty>
0.00559669

> <r_epik_Charging_Adjusted_Penalty>
0.0060824

> <i_epik_Tot_Q>
1

> <i_epik_Tot_abs_Q>
1

> <r_epik_Metal_State_Penalty>
-0

> <b_epik_Metal_Only>
0

> <s_lp_Force_Field>
OPLS_2005

> <r_lp_Energy>
19.7292

> <b_lp_Chiralities_Consistent>
1

> <s_lp_Variant>
AV-unprocessed.smi:3319-1

> <Gold.Version>
5.8.1

> <Gold.Id.Protein>
6NUR|6NUR_protein|mol2

> <Gold.PLP.Fitness>
45.4366

> <Gold.PLP.PLP>
-39.6577

> <Gold.PLP.part.hbond>
-1.0000

> <Gold.PLP.part.metal>
0.0000

> <Gold.PLP.part.buried>
-0.2931

> <Gold.PLP.part.nonpolar>
-37.8323

> <Gold.PLP.part.repulsive>
0.2172

> <Gold.PLP.ligand.clash>
0.0000

> <Gold.PLP.ligand.torsion>
0.1265

> <Gold.PLP.Chemscore.Hbond>
2.0000

> <Gold.PLP.Chemscore.CHOScore>
0.0000

> <Gold.PLP.Chemscore.Metal>
0.0000

> <Gold.Chemscore.Hbonds>
donor molecule, donor type, donor heavy atom, donor atom, acceptor molecule, acceptor atom, score
      L1  H     8    40       P1  8028  2.00

> <Gold.PLP.Chemscore.Internal.Correction>
0.0319

> <Gold.Rescore>
     Score         DG    S(hbond)    S(metal)    S(lipo)     H(rot)  DE(clash)    DE(int)     intcor
     19.05     -19.55       1.00        0.00     123.28       1.44       0.35       0.15       ----

> <Gold.Chemscore.Fitness>
19.0532

> <Gold.Chemscore.DG>
-19.5491

> <Gold.Chemscore.ZeroCoef>
-5.4800

> <Gold.Chemscore.Hbond>
0.9955

> <Gold.Chemscore.Metal>
0.0000

> <Gold.Chemscore.Lipo>
123.2752

> <Gold.Chemscore.Internal_Hbond>
0.0000

> <Gold.Chemscore.DEClash>
0.3485

> <Gold.Chemscore.DEInternal>
0.1474

> <Gold.Chemscore.Rot>
1.4371

> <Gold.Chemscore.Internal.Correction>
   9.000000E+99

> <Gold.Chemscore.Hbonds>
donor molecule, donor type, donor heavy atom, donor atom, acceptor molecule, acceptor atom, score
      L1  H     8    40       P1  8028  0.98

> <Gold.Chemscore.Hbond.Weighted>
-3.3249

> <Gold.Chemscore.Metal.Weighted>
-0.0000

> <Gold.Chemscore.Lipo.Weighted>
-14.4232

> <Gold.Chemscore.Internal_Hbond.Weighted>
0.0000

> <Gold.Chemscore.DEClash.Weighted>
0.3485

> <Gold.Chemscore.DEInternal.Weighted>
0.1474

> <Gold.Chemscore.Rot.Weighted>
3.6790

> <Gold.Chemscore.Internal.Correction.Weighted>
   9.000000E+99

> <Gold.Protein.RotatedTorsions>
[ 6907 6896 6895 6894 ] final  -59.37 input  -60.11 | X-H torsion
[ 7974 7965 7964 7962 ] final -134.84 input  175.53 | X-H torsion
[ 8008 7997 7996 7995 ] final   56.06 input   59.86 | X-H torsion
[ 10167 10162 10161 10158 ] final -142.22 input  -65.29 | X-H torsion
[ 10718 10713 10712 10709 ] final   23.12 input   66.30 | X-H torsion
[ 10763 10752 10751 10750 ] final  155.02 input  -60.55 | X-H torsion
[ 11005 11000 10999 10996 ] final  -94.66 input  -57.11 | X-H torsion

> <Gold.Protein.ActiveResidues>
 VAL166  LYS551  ARG553  GLY616  TRP617  ASP618  TYR619  PRO620  LYS621  CYS622 
 ASP623  PHE694  ASN695  SER759  ASP760  ASP761  ALA762  ILE779  LEU786  VAL792 
 PHE793  MET794  SER795  GLU796  ALA797  LYS798  CYS799  TRP800  GLU811  SER814 

> <Gold.Protein.RotatedAtoms>
  150.7935  134.6977  159.6531 H   0  0  0  0  0  0  0  0  0  0  0  0  # atno 6907 bound_to 6896
  152.4044  134.6229  160.0065 H   0  0  0  0  0  0  0  0  0  0  0  0  # atno 6908 bound_to 6896
  151.6490  133.3285  159.3184 H   0  0  0  0  0  0  0  0  0  0  0  0  # atno 6909 bound_to 6896
  144.9067  140.6842  143.5051 H   0  0  0  0  0  0  0  0  0  0  0  0  # atno 7974 bound_to 7965
  155.5112  140.3477  155.4389 H   0  0  0  0  0  0  0  0  0  0  0  0  # atno 8008 bound_to 7997
  156.0848  140.1395  156.9694 H   0  0  0  0  0  0  0  0  0  0  0  0  # atno 8009 bound_to 7997
  154.4600  140.0938  156.6843 H   0  0  0  0  0  0  0  0  0  0  0  0  # atno 8010 bound_to 7997
  139.8109  143.7703  152.2663 H   0  0  0  0  0  0  0  0  0  0  0  0  # atno 10167 bound_to 10162
  157.1617  130.6720  149.6046 H   0  0  0  0  0  0  0  0  0  0  0  0  # atno 10718 bound_to 10713
  154.1616  135.2809  155.3107 H   0  0  0  0  0  0  0  0  0  0  0  0  # atno 10763 bound_to 10752
  154.6142  135.5488  153.7509 H   0  0  0  0  0  0  0  0  0  0  0  0  # atno 10764 bound_to 10752
  153.0190  135.6423  154.1758 H   0  0  0  0  0  0  0  0  0  0  0  0  # atno 10765 bound_to 10752
  141.1464  133.7972  157.0329 H   0  0  0  0  0  0  0  0  0  0  0  0  # atno 11005 bound_to 11000
  145.3524  139.1703  143.4427 LP  0  0  0  0  0  0  0  0  0  0  0  0  # atno 17320 bound_to 7965
  146.3137  140.3577  142.8662 LP  0  0  0  0  0  0  0  0  0  0  0  0  # atno 17321 bound_to 7965
  139.7852  144.7430  151.0032 LP  0  0  0  0  0  0  0  0  0  0  0  0  # atno 17342 bound_to 10162
  140.7818  143.4499  151.0427 LP  0  0  0  0  0  0  0  0  0  0  0  0  # atno 17343 bound_to 10162
  155.9753  130.4709  150.6447 LP  0  0  0  0  0  0  0  0  0  0  0  0  # atno 17370 bound_to 10713
  157.4126  131.0826  151.1206 LP  0  0  0  0  0  0  0  0  0  0  0  0  # atno 17371 bound_to 10713
  140.0742  134.9685  157.1518 LP  0  0  0  0  0  0  0  0  0  0  0  0  # atno 17394 bound_to 11000
  140.3667  134.2435  155.7181 LP  0  0  0  0  0  0  0  0  0  0  0  0  # atno 17395 bound_to 11000

$$$$
