AV-unprocessed.smi:726|AV-procd|sdf|3510|dock3
  -GOLD-   22720 0503D 1   1.00000     0.00000
 Structure written by MMmdl.
 24 24  0  0  0  0  0  0  0  0  2 V2000
  152.9873  139.4239  158.6167 C   0  0  0  0  0  0  0  0  0  0  0  0
  152.1503  140.3363  157.7271 C   0  0  0  0  0  0  0  0  0  0  0  0
  151.7841  141.5523  158.1724 C   0  0  0  0  0  0  0  0  0  0  0  0
  150.9577  142.4003  157.3542 C   0  0  0  0  0  0  0  0  0  0  0  0
  150.6123  143.6207  157.7831 O   0  0  0  0  0  0  0  0  0  0  0  0
  150.5271  141.9522  156.1632 C   0  0  0  0  0  0  0  0  0  0  0  0
  150.8816  140.6247  155.6573 C   0  0  0  0  0  0  0  0  0  0  0  0
  150.4272  140.2296  154.5838 O   0  0  0  0  0  0  0  0  0  0  0  0
  151.7272  139.8685  156.4400 N   0  0  0  0  0  0  0  0  0  0  0  0
  152.2478  138.5680  155.9163 C   0  0  2  0  0  0  0  0  0  0  0  0
  153.1622  138.7222  154.6748 C   0  0  0  0  0  0  0  0  0  0  0  0
  151.1405  137.5077  155.7743 C   0  0  0  0  0  0  0  0  0  0  0  0
  151.4805  136.3396  155.4833 O   0  0  0  0  0  0  0  0  0  0  0  0
  149.9635  137.8883  155.9591 O   0  5  0  0  0  0  0  0  0  0  0  0
  153.0581  139.8260  159.6279 H   0  0  0  0  0  0  0  0  0  0  0  0
  154.0036  139.3334  158.2320 H   0  0  0  0  0  0  0  0  0  0  0  0
  152.5436  138.4325  158.7062 H   0  0  0  0  0  0  0  0  0  0  0  0
  152.0945  141.8911  159.1503 H   0  0  0  0  0  0  0  0  0  0  0  0
  150.0759  144.0152  157.1127 H   0  0  0  0  0  0  0  0  0  0  0  0
  149.9012  142.5875  155.5527 H   0  0  0  0  0  0  0  0  0  0  0  0
  152.9365  138.1156  156.6224 H   0  0  0  0  0  0  0  0  0  0  0  0
  153.6609  137.7789  154.4495 H   0  0  0  0  0  0  0  0  0  0  0  0
  153.9416  139.4625  154.8561 H   0  0  0  0  0  0  0  0  0  0  0  0
  152.6292  139.0129  153.7707 H   0  0  0  0  0  0  0  0  0  0  0  0
  1  2  1  0  0  0  0
  1 15  1  0  0  0  0
  1 16  1  0  0  0  0
  1 17  1  0  0  0  0
  2  9  1  0  0  0  0
  2  3  2  0  0  0  0
  3  4  1  0  0  0  0
  3 18  1  0  0  0  0
  4  5  1  0  0  0  0
  4  6  2  0  0  0  0
  5 19  1  0  0  0  0
  6  7  1  0  0  0  0
  6 20  1  0  0  0  0
  7  8  2  0  0  0  0
  7  9  1  0  0  0  0
  9 10  1  0  0  0  0
 10 11  1  0  0  0  0
 10 12  1  0  0  0  0
 10 21  1  0  0  0  0
 11 22  1  0  0  0  0
 11 23  1  0  0  0  0
 11 24  1  0  0  0  0
 12 13  2  0  0  0  0
 12 14  1  0  0  0  0
M  CHG  1  14  -1
M  END
> <s_m_source_file>
AV-unprocessed.smi

> <i_m_source_file_index>
726

> <i_lp_mmshare_version>
43012

> <i_f3d_flags>
0

> <s_epik_input>
W0NIM11jMVtjSF1jKFtPSF0pW2NIXWMoPU8pbjFbQ0BIXShbQ0gzXSlDKD1PKVtPSF0=

> <s_epik_cmdline>
J2VwaWtfcHl0aG9uJywgJy1waCcsICc3LjAnLCAnLXRuJywgJzgnLCAnLW1hJywgJzIwMCcsICctbWV0YWxfYmluZGluZycsICctaW1hZScsICc8aW5maWxlLm1hZT4nLCAnLW9tYWUnLCAnPG91dGZpbGUubWFlPic=

> <r_lp_tautomer_probability>
0.999984

> <r_epik_Ionization_Penalty>
0.316948

> <r_epik_Ionization_Penalty_Charging>
0.000813874

> <r_epik_Ionization_Penalty_Neutral>
0.316134

> <r_epik_State_Penalty>
0.363429

> <r_epik_Charging_Adjusted_Penalty>
0.364242

> <i_epik_Tot_Q>
-1

> <i_epik_Tot_abs_Q>
1

> <r_epik_Metal_State_Penalty>
0.363429

> <b_epik_Metal_Only>
0

> <s_lp_Force_Field>
OPLS_2005

> <r_lp_Energy>
20.5014

> <b_lp_Chiralities_Consistent>
1

> <s_lp_Variant>
AV-unprocessed.smi:726-1

> <Gold.Version>
5.8.1

> <Gold.Id.Protein>
6NUR|6NUR_protein|mol2

> <Gold.PLP.Fitness>
37.7212

> <Gold.PLP.PLP>
-25.7312

> <Gold.PLP.part.hbond>
-3.0000

> <Gold.PLP.part.metal>
0.0000

> <Gold.PLP.part.buried>
-2.4641

> <Gold.PLP.part.nonpolar>
-20.4341

> <Gold.PLP.part.repulsive>
0.2236

> <Gold.PLP.ligand.clash>
0.0000

> <Gold.PLP.ligand.torsion>
0.1517

> <Gold.PLP.Chemscore.Hbond>
4.0000

> <Gold.PLP.Chemscore.CHOScore>
0.0000

> <Gold.PLP.Chemscore.Metal>
0.0000

> <Gold.Chemscore.Hbonds>
donor molecule, donor type, donor heavy atom, donor atom, acceptor molecule, acceptor atom, score
      L1  H     5    19       P1  8028  1.00
      P1  H  7989  7998       L1     8  1.00
      P1  H 10752 10763       L1    13  2.00

> <Gold.PLP.Chemscore.Internal.Correction>
0.2934

> <Gold.Rescore>
     Score         DG    S(hbond)    S(metal)    S(lipo)     H(rot)  DE(clash)    DE(int)     intcor
     13.16     -14.80       2.86        0.00      43.15       2.06       0.01       1.62       ----

> <Gold.Chemscore.Fitness>
13.1608

> <Gold.Chemscore.DG>
-14.7955

> <Gold.Chemscore.ZeroCoef>
-5.4800

> <Gold.Chemscore.Hbond>
2.8557

> <Gold.Chemscore.Metal>
0.0000

> <Gold.Chemscore.Lipo>
43.1541

> <Gold.Chemscore.Internal_Hbond>
0.0000

> <Gold.Chemscore.DEClash>
0.0149

> <Gold.Chemscore.DEInternal>
1.6199

> <Gold.Chemscore.Rot>
2.0592

> <Gold.Chemscore.Internal.Correction>
   9.000000E+99

> <Gold.Chemscore.Hbonds>
donor molecule, donor type, donor heavy atom, donor atom, acceptor molecule, acceptor atom, score
      L1  H     5    19       P1  8028  0.88
      P1  H  7989  7998       L1     8  0.25
      P1  H 10752 10763       L1    13  1.00

> <Gold.Chemscore.Hbond.Weighted>
-9.5380

> <Gold.Chemscore.Metal.Weighted>
-0.0000

> <Gold.Chemscore.Lipo.Weighted>
-5.0490

> <Gold.Chemscore.Internal_Hbond.Weighted>
0.0000

> <Gold.Chemscore.DEClash.Weighted>
0.0149

> <Gold.Chemscore.DEInternal.Weighted>
1.6199

> <Gold.Chemscore.Rot.Weighted>
5.2715

> <Gold.Chemscore.Internal.Correction.Weighted>
   9.000000E+99

> <Gold.Protein.RotatedTorsions>
[ 6907 6896 6895 6894 ] final  -89.84 input  -60.11 | X-H torsion
[ 7974 7965 7964 7962 ] final  -88.73 input  175.53 | X-H torsion
[ 8008 7997 7996 7995 ] final -124.53 input   59.86 | X-H torsion
[ 10167 10162 10161 10158 ] final -140.95 input  -65.29 | X-H torsion
[ 10718 10713 10712 10709 ] final -150.36 input   66.30 | X-H torsion
[ 10763 10752 10751 10750 ] final   79.56 input  -60.55 | X-H torsion
[ 11005 11000 10999 10996 ] final -122.69 input  -57.11 | X-H torsion

> <Gold.Protein.ActiveResidues>
 VAL166  LYS551  ARG553  GLY616  TRP617  ASP618  TYR619  PRO620  LYS621  CYS622 
 ASP623  PHE694  ASN695  SER759  ASP760  ASP761  ALA762  ILE779  LEU786  VAL792 
 PHE793  MET794  SER795  GLU796  ALA797  LYS798  CYS799  TRP800  GLU811  SER814 

> <Gold.Protein.RotatedAtoms>
  150.6877  134.2524  159.4515 H   0  0  0  0  0  0  0  0  0  0  0  0  # atno 6907 bound_to 6896
  152.0460  134.9680  160.0583 H   0  0  0  0  0  0  0  0  0  0  0  0  # atno 6908 bound_to 6896
  152.1163  133.4293  159.4691 H   0  0  0  0  0  0  0  0  0  0  0  0  # atno 6909 bound_to 6896
  145.4492  140.9560  143.2032 H   0  0  0  0  0  0  0  0  0  0  0  0  # atno 7974 bound_to 7965
  155.1983  140.0415  157.2913 H   0  0  0  0  0  0  0  0  0  0  0  0  # atno 8008 bound_to 7997
  154.6091  140.2472  155.7663 H   0  0  0  0  0  0  0  0  0  0  0  0  # atno 8009 bound_to 7997
  156.2368  140.2918  156.0345 H   0  0  0  0  0  0  0  0  0  0  0  0  # atno 8010 bound_to 7997
  139.8232  143.7546  152.2666 H   0  0  0  0  0  0  0  0  0  0  0  0  # atno 10167 bound_to 10162
  156.4452  130.8141  151.2371 H   0  0  0  0  0  0  0  0  0  0  0  0  # atno 10718 bound_to 10713
  153.0962  135.4835  154.8783 H   0  0  0  0  0  0  0  0  0  0  0  0  # atno 10763 bound_to 10752
  154.7327  135.3064  154.8866 H   0  0  0  0  0  0  0  0  0  0  0  0  # atno 10764 bound_to 10752
  153.9497  135.6824  153.4797 H   0  0  0  0  0  0  0  0  0  0  0  0  # atno 10765 bound_to 10752
  140.9976  134.0449  157.3578 H   0  0  0  0  0  0  0  0  0  0  0  0  # atno 11005 bound_to 11000
  144.8072  139.6029  143.7045 LP  0  0  0  0  0  0  0  0  0  0  0  0  # atno 17320 bound_to 7965
  146.2514  139.6207  142.9425 LP  0  0  0  0  0  0  0  0  0  0  0  0  # atno 17321 bound_to 7965
  139.7731  144.7470  151.0196 LP  0  0  0  0  0  0  0  0  0  0  0  0  # atno 17342 bound_to 10162
  140.7812  143.4623  151.0260 LP  0  0  0  0  0  0  0  0  0  0  0  0  # atno 17343 bound_to 10162
  157.7505  131.0155  150.3509 LP  0  0  0  0  0  0  0  0  0  0  0  0  # atno 17370 bound_to 10713
  156.3875  130.3892  149.7055 LP  0  0  0  0  0  0  0  0  0  0  0  0  # atno 17371 bound_to 10713
  139.9022  135.0168  156.7323 LP  0  0  0  0  0  0  0  0  0  0  0  0  # atno 17394 bound_to 11000
  140.6941  133.9364  155.7984 LP  0  0  0  0  0  0  0  0  0  0  0  0  # atno 17395 bound_to 11000

$$$$
