AV-unprocessed.smi:1574|AV-procd|sdf|6338|dock2
  -GOLD-   22720 6553D 1   1.00000     0.00000
 Structure written by MMmdl.
 40 41  0  0  0  0  0  0  0  0  1 V2000
  153.7614  140.8926  160.0991 C   0  0  0  0  0  0  0  0  0  0  0  0
  152.7314  142.0176  160.2897 C   0  0  1  0  0  0  0  0  0  0  0  0
  153.1267  142.9246  161.4730 C   0  0  0  0  0  0  0  0  0  0  0  0
  152.1183  144.0654  161.6805 C   0  0  0  0  0  0  0  0  0  0  0  0
  151.9506  144.8934  160.3991 C   0  0  0  0  0  0  0  0  0  0  0  0
  151.5458  143.9992  159.2199 C   0  0  0  0  0  0  0  0  0  0  0  0
  152.5514  142.8502  159.0007 C   0  0  2  0  0  0  0  0  0  0  0  0
  152.0386  141.9972  157.9865 O   0  0  0  0  0  0  0  0  0  0  0  0
  150.7838  141.4100  158.2993 C   0  0  0  0  0  0  0  0  0  0  0  0
  150.2161  140.7597  157.0302 C   0  0  0  0  0  0  0  0  0  0  0  0
  151.1457  139.7771  156.4832 N   0  0  0  0  0  0  0  0  0  0  0  0
  151.2963  139.5033  155.1778 C   0  0  0  0  0  0  0  0  0  0  0  0
  150.7021  140.1075  154.2853 O   0  0  0  0  0  0  0  0  0  0  0  0
  152.2510  138.3639  154.8217 C   0  0  0  0  0  0  0  0  0  0  0  0
  152.0493  137.2224  155.6949 N   0  0  0  0  0  0  0  0  0  0  0  0
  150.9593  136.4964  155.9510 C   0  0  0  0  0  0  0  0  0  0  0  0
  151.2079  135.5309  156.8229 N   0  0  0  0  0  0  0  0  0  0  0  0
  152.5543  135.6970  157.1008 N   0  0  0  0  0  0  0  0  0  0  0  0
  153.0586  136.7001  156.4361 N   0  0  0  0  0  0  0  0  0  0  0  0
  154.7422  141.2926  159.8402 H   0  0  0  0  0  0  0  0  0  0  0  0
  153.4606  140.2104  159.3036 H   0  0  0  0  0  0  0  0  0  0  0  0
  153.8722  140.3035  161.0098 H   0  0  0  0  0  0  0  0  0  0  0  0
  151.7736  141.5536  160.5309 H   0  0  0  0  0  0  0  0  0  0  0  0
  153.1996  142.3345  162.3873 H   0  0  0  0  0  0  0  0  0  0  0  0
  154.1180  143.3458  161.2994 H   0  0  0  0  0  0  0  0  0  0  0  0
  151.1537  143.6521  161.9779 H   0  0  0  0  0  0  0  0  0  0  0  0
  152.4458  144.7080  162.4983 H   0  0  0  0  0  0  0  0  0  0  0  0
  151.1984  145.6679  160.5519 H   0  0  0  0  0  0  0  0  0  0  0  0
  152.8842  145.4071  160.1665 H   0  0  0  0  0  0  0  0  0  0  0  0
  150.5604  143.5767  159.4140 H   0  0  0  0  0  0  0  0  0  0  0  0
  151.4460  144.6060  158.3201 H   0  0  0  0  0  0  0  0  0  0  0  0
  153.5226  143.2542  158.7067 H   0  0  0  0  0  0  0  0  0  0  0  0
  150.8723  140.6652  159.0911 H   0  0  0  0  0  0  0  0  0  0  0  0
  150.1096  142.1847  158.6661 H   0  0  0  0  0  0  0  0  0  0  0  0
  149.2569  140.2860  157.2446 H   0  0  0  0  0  0  0  0  0  0  0  0
  150.0260  141.5207  156.2728 H   0  0  0  0  0  0  0  0  0  0  0  0
  151.6744  139.2328  157.1492 H   0  0  0  0  0  0  0  0  0  0  0  0
  152.0962  138.0535  153.7872 H   0  0  0  0  0  0  0  0  0  0  0  0
  153.2858  138.6986  154.9069 H   0  0  0  0  0  0  0  0  0  0  0  0
  149.9930  136.6729  155.5026 H   0  0  0  0  0  0  0  0  0  0  0  0
  1  2  1  0  0  0  0
  1 20  1  0  0  0  0
  1 21  1  0  0  0  0
  1 22  1  0  0  0  0
  2  7  1  0  0  0  0
  2  3  1  0  0  0  0
  2 23  1  0  0  0  0
  3  4  1  0  0  0  0
  3 24  1  0  0  0  0
  3 25  1  0  0  0  0
  4  5  1  0  0  0  0
  4 26  1  0  0  0  0
  4 27  1  0  0  0  0
  5  6  1  0  0  0  0
  5 28  1  0  0  0  0
  5 29  1  0  0  0  0
  6  7  1  0  0  0  0
  6 30  1  0  0  0  0
  6 31  1  0  0  0  0
  7  8  1  0  0  0  0
  7 32  1  0  0  0  0
  8  9  1  0  0  0  0
  9 10  1  0  0  0  0
  9 33  1  0  0  0  0
  9 34  1  0  0  0  0
 10 11  1  0  0  0  0
 10 35  1  0  0  0  0
 10 36  1  0  0  0  0
 11 12  1  0  0  0  0
 11 37  1  0  0  0  0
 12 13  2  0  0  0  0
 12 14  1  0  0  0  0
 14 15  1  0  0  0  0
 14 38  1  0  0  0  0
 14 39  1  0  0  0  0
 15 19  1  0  0  0  0
 15 16  1  0  0  0  0
 16 17  2  0  0  0  0
 16 40  1  0  0  0  0
 17 18  1  0  0  0  0
 18 19  2  0  0  0  0
M  END
> <s_m_source_file>
AV-unprocessed.smi

> <i_m_source_file_index>
1574

> <i_lp_mmshare_version>
43012

> <i_f3d_flags>
0

> <s_epik_input>
W0NIM11bQ0BASF0xW0NIMl1bQ0gyXVtDSDJdW0NIMl1bQ0BIXTFPW0NIMl1bQ0gyXVtOSF1DKD1PKVtDSDJdbjJbY0hdbm5uMg==

> <s_epik_cmdline>
J2VwaWtfcHl0aG9uJywgJy1waCcsICc3LjAnLCAnLXRuJywgJzgnLCAnLW1hJywgJzIwMCcsICctbWV0YWxfYmluZGluZycsICctaW1hZScsICc8aW5maWxlLm1hZT4nLCAnLW9tYWUnLCAnPG91dGZpbGUubWFlPic=

> <r_lp_tautomer_probability>
1

> <r_epik_Ionization_Penalty>
1.44269e-06

> <r_epik_Ionization_Penalty_Charging>
0

> <r_epik_Ionization_Penalty_Neutral>
1.44269e-06

> <r_epik_State_Penalty>
-0

> <r_epik_Charging_Adjusted_Penalty>
0

> <i_epik_Tot_Q>
0

> <i_epik_Tot_abs_Q>
0

> <r_epik_Metal_State_Penalty>
-0

> <b_epik_Metal_Only>
0

> <s_lp_Force_Field>
OPLS_2005

> <r_lp_Energy>
11.2802

> <b_lp_Chiralities_Consistent>
1

> <s_lp_Variant>
AV-unprocessed.smi:1574-4

> <Gold.Version>
5.8.1

> <Gold.Id.Protein>
6NUR|6NUR_protein|mol2

> <Gold.PLP.Fitness>
45.6707

> <Gold.PLP.PLP>
-40.4468

> <Gold.PLP.part.hbond>
-3.3699

> <Gold.PLP.part.metal>
0.0000

> <Gold.PLP.part.buried>
-6.1592

> <Gold.PLP.part.nonpolar>
-31.1519

> <Gold.PLP.part.repulsive>
0.1819

> <Gold.PLP.ligand.clash>
0.0000

> <Gold.PLP.ligand.torsion>
0.4337

> <Gold.PLP.Chemscore.Hbond>
2.0000

> <Gold.PLP.Chemscore.CHOScore>
0.0000

> <Gold.PLP.Chemscore.Metal>
0.0000

> <Gold.Chemscore.Hbonds>
donor molecule, donor type, donor heavy atom, donor atom, acceptor molecule, acceptor atom, score
      P1  H  7989  7998       L1    13  0.76
      P1  H 10752 10765       L1    19  0.08

> <Gold.PLP.Chemscore.Internal.Correction>
0.0913

> <Gold.Rescore>
     Score         DG    S(hbond)    S(metal)    S(lipo)     H(rot)  DE(clash)    DE(int)     intcor
     14.73     -15.45       1.86        0.00      95.68       2.90       0.10       0.62       ----

> <Gold.Chemscore.Fitness>
14.7332

> <Gold.Chemscore.DG>
-15.4529

> <Gold.Chemscore.ZeroCoef>
-5.4800

> <Gold.Chemscore.Hbond>
1.8607

> <Gold.Chemscore.Metal>
0.0000

> <Gold.Chemscore.Lipo>
95.6830

> <Gold.Chemscore.Internal_Hbond>
0.0000

> <Gold.Chemscore.DEClash>
0.0979

> <Gold.Chemscore.DEInternal>
0.6217

> <Gold.Chemscore.Rot>
2.9050

> <Gold.Chemscore.Internal.Correction>
   9.000000E+99

> <Gold.Chemscore.Hbonds>
donor molecule, donor type, donor heavy atom, donor atom, acceptor molecule, acceptor atom, score
      P1  H  7989  7998       L1    13  0.59

> <Gold.Chemscore.Hbond.Weighted>
-6.2147

> <Gold.Chemscore.Metal.Weighted>
-0.0000

> <Gold.Chemscore.Lipo.Weighted>
-11.1949

> <Gold.Chemscore.Internal_Hbond.Weighted>
0.0000

> <Gold.Chemscore.DEClash.Weighted>
0.0979

> <Gold.Chemscore.DEInternal.Weighted>
0.6217

> <Gold.Chemscore.Rot.Weighted>
7.4367

> <Gold.Chemscore.Internal.Correction.Weighted>
   9.000000E+99

> <Gold.Protein.RotatedTorsions>
[ 6907 6896 6895 6894 ] final  -87.75 input  -60.11 | X-H torsion
[ 7974 7965 7964 7962 ] final  -10.14 input  175.53 | X-H torsion
[ 8008 7997 7996 7995 ] final -150.54 input   59.86 | X-H torsion
[ 10167 10162 10161 10158 ] final -153.67 input  -65.29 | X-H torsion
[ 10718 10713 10712 10709 ] final -148.56 input   66.30 | X-H torsion
[ 10763 10752 10751 10750 ] final -121.94 input  -60.55 | X-H torsion
[ 11005 11000 10999 10996 ] final   41.61 input  -57.11 | X-H torsion

> <Gold.Protein.ActiveResidues>
 VAL166  LYS551  ARG553  GLY616  TRP617  ASP618  TYR619  PRO620  LYS621  CYS622 
 ASP623  PHE694  ASN695  SER759  ASP760  ASP761  ALA762  ILE779  LEU786  VAL792 
 PHE793  MET794  SER795  GLU796  ALA797  LYS798  CYS799  TRP800  GLU811  SER814 

> <Gold.Protein.RotatedAtoms>
  150.6867  134.2847  159.4641 H   0  0  0  0  0  0  0  0  0  0  0  0  # atno 6907 bound_to 6896
  152.0758  134.9501  160.0583 H   0  0  0  0  0  0  0  0  0  0  0  0  # atno 6908 bound_to 6896
  152.0873  133.4148  159.4565 H   0  0  0  0  0  0  0  0  0  0  0  0  # atno 6909 bound_to 6896
  146.2230  140.2719  142.8357 H   0  0  0  0  0  0  0  0  0  0  0  0  # atno 7974 bound_to 7965
  155.6252  140.0685  157.2666 H   0  0  0  0  0  0  0  0  0  0  0  0  # atno 8008 bound_to 7997
  154.4219  140.1777  156.1462 H   0  0  0  0  0  0  0  0  0  0  0  0  # atno 8009 bound_to 7997
  155.9977  140.3339  155.6818 H   0  0  0  0  0  0  0  0  0  0  0  0  # atno 8010 bound_to 7997
  139.7077  143.9159  152.2455 H   0  0  0  0  0  0  0  0  0  0  0  0  # atno 10167 bound_to 10162
  156.4218  130.8033  151.2256 H   0  0  0  0  0  0  0  0  0  0  0  0  # atno 10718 bound_to 10713
  154.8679  135.4150  154.2701 H   0  0  0  0  0  0  0  0  0  0  0  0  # atno 10763 bound_to 10752
  153.3613  135.7003  153.6716 H   0  0  0  0  0  0  0  0  0  0  0  0  # atno 10764 bound_to 10752
  153.5615  135.3609  155.2773 H   0  0  0  0  0  0  0  0  0  0  0  0  # atno 10765 bound_to 10752
  140.1817  134.4095  155.8196 H   0  0  0  0  0  0  0  0  0  0  0  0  # atno 11005 bound_to 11000
  144.9261  140.7923  143.5718 LP  0  0  0  0  0  0  0  0  0  0  0  0  # atno 17320 bound_to 7965
  145.2659  139.1973  143.4867 LP  0  0  0  0  0  0  0  0  0  0  0  0  # atno 17321 bound_to 7965
  139.9020  144.6906  150.8655 LP  0  0  0  0  0  0  0  0  0  0  0  0  # atno 17342 bound_to 10162
  140.7726  143.3507  151.2020 LP  0  0  0  0  0  0  0  0  0  0  0  0  # atno 17343 bound_to 10162
  157.7508  131.0225  150.3797 LP  0  0  0  0  0  0  0  0  0  0  0  0  # atno 17370 bound_to 10713
  156.4116  130.3935  149.6888 LP  0  0  0  0  0  0  0  0  0  0  0  0  # atno 17371 bound_to 10713
  141.2223  133.7004  156.7943 LP  0  0  0  0  0  0  0  0  0  0  0  0  # atno 17394 bound_to 11000
  140.2259  134.8722  157.3426 LP  0  0  0  0  0  0  0  0  0  0  0  0  # atno 17395 bound_to 11000

$$$$
