AV-unprocessed.smi:2447|AV-procd|sdf|9649|dock1
  -GOLD-   2272013283D 1   1.00000     0.00000
 Structure written by MMmdl.
 30 31  0  0  0  0  0  0  0  0  1 V2000
  146.8036  140.4354  152.5934 N   0  0  0  0  0  0  0  0  0  0  0  0
  147.3745  140.7315  153.7626 C   0  0  0  0  0  0  0  0  0  0  0  0
  146.7187  141.0536  154.7517 O   0  0  0  0  0  0  0  0  0  0  0  0
  148.7143  140.6299  153.7051 N   0  0  0  0  0  0  0  0  0  0  0  0
  149.6565  140.8559  154.7429 C   0  0  0  0  0  0  0  0  0  0  0  0
  150.8468  140.1885  154.7173 N   0  0  0  0  0  0  0  0  0  0  0  0
  151.3894  140.6812  155.8233 C   0  0  0  0  0  0  0  0  0  0  0  0
  150.6138  141.5571  156.4685 N   0  0  0  0  0  0  0  0  0  0  0  0
  150.8653  142.3132  157.6859 C   0  0  0  0  0  0  0  0  0  0  0  0
  151.2176  143.7857  157.3856 C   0  0  0  0  0  0  0  0  0  0  0  0
  151.4695  144.5736  158.6819 C   0  0  0  0  0  0  0  0  0  0  0  0
  152.5607  143.9078  159.5358 C   0  0  0  0  0  0  0  0  0  0  0  0
  152.2159  142.4400  159.8357 C   0  0  0  0  0  0  0  0  0  0  0  0
  151.9642  141.6500  158.5408 C   0  0  0  0  0  0  0  0  0  0  0  0
  149.4635  141.6935  155.7642 N   0  0  0  0  0  0  0  0  0  0  0  0
  145.7980  140.4735  152.5078 H   0  0  0  0  0  0  0  0  0  0  0  0
  147.3711  140.1739  151.8008 H   0  0  0  0  0  0  0  0  0  0  0  0
  149.1082  140.3528  152.8182 H   0  0  0  0  0  0  0  0  0  0  0  0
  152.3734  140.3993  156.1685 H   0  0  0  0  0  0  0  0  0  0  0  0
  149.9388  142.3023  158.2623 H   0  0  0  0  0  0  0  0  0  0  0  0
  152.1078  143.8394  156.7573 H   0  0  0  0  0  0  0  0  0  0  0  0
  150.4117  144.2554  156.8206 H   0  0  0  0  0  0  0  0  0  0  0  0
  151.7576  145.5979  158.4434 H   0  0  0  0  0  0  0  0  0  0  0  0
  150.5445  144.6386  159.2559 H   0  0  0  0  0  0  0  0  0  0  0  0
  153.5156  143.9581  159.0112 H   0  0  0  0  0  0  0  0  0  0  0  0
  152.6904  144.4576  160.4687 H   0  0  0  0  0  0  0  0  0  0  0  0
  153.0235  141.9762  160.4024 H   0  0  0  0  0  0  0  0  0  0  0  0
  151.3287  142.3952  160.4685 H   0  0  0  0  0  0  0  0  0  0  0  0
  151.6804  140.6256  158.7851 H   0  0  0  0  0  0  0  0  0  0  0  0
  152.8928  141.5859  157.9717 H   0  0  0  0  0  0  0  0  0  0  0  0
  1  2  1  0  0  0  0
  1 16  1  0  0  0  0
  1 17  1  0  0  0  0
  2  3  2  0  0  0  0
  2  4  1  0  0  0  0
  4  5  1  0  0  0  0
  4 18  1  0  0  0  0
  5 15  2  0  0  0  0
  5  6  1  0  0  0  0
  6  7  2  0  0  0  0
  7  8  1  0  0  0  0
  7 19  1  0  0  0  0
  8  9  1  0  0  0  0
  8 15  1  0  0  0  0
  9 14  1  0  0  0  0
  9 10  1  0  0  0  0
  9 20  1  0  0  0  0
 10 11  1  0  0  0  0
 10 21  1  0  0  0  0
 10 22  1  0  0  0  0
 11 12  1  0  0  0  0
 11 23  1  0  0  0  0
 11 24  1  0  0  0  0
 12 13  1  0  0  0  0
 12 25  1  0  0  0  0
 12 26  1  0  0  0  0
 13 14  1  0  0  0  0
 13 27  1  0  0  0  0
 13 28  1  0  0  0  0
 14 29  1  0  0  0  0
 14 30  1  0  0  0  0
M  END
> <s_m_source_file>
AV-unprocessed.smi

> <i_m_source_file_index>
2447

> <i_lp_mmshare_version>
43012

> <i_f3d_flags>
0

> <s_epik_input>
W05IMl1DKD1PKVtOSF1jMW5bY0hdbihuMSlbQ0hdMltDSDJdW0NIMl1bQ0gyXVtDSDJdW0NIMl0y

> <s_epik_cmdline>
J2VwaWtfcHl0aG9uJywgJy1waCcsICc3LjAnLCAnLXRuJywgJzgnLCAnLW1hJywgJzIwMCcsICctbWV0YWxfYmluZGluZycsICctaW1hZScsICc8aW5maWxlLm1hZT4nLCAnLW9tYWUnLCAnPG91dGZpbGUubWFlPic=

> <r_epik_Ionization_Penalty>
0.00749739

> <r_epik_Ionization_Penalty_Charging>
0

> <r_epik_Ionization_Penalty_Neutral>
0.00749739

> <r_epik_State_Penalty>
2.70815e-06

> <r_epik_Charging_Adjusted_Penalty>
2.70815e-06

> <i_epik_Tot_Q>
0

> <i_epik_Tot_abs_Q>
0

> <r_epik_Metal_State_Penalty>
1.00719

> <b_epik_Metal_Only>
0

> <s_lp_Force_Field>
OPLS_2005

> <r_lp_Energy>
13.5965

> <b_lp_Chiralities_Consistent>
1

> <s_lp_Variant>
AV-unprocessed.smi:2447-1

> <Gold.Version>
5.8.1

> <Gold.Id.Protein>
6NUR|6NUR_protein|mol2

> <Gold.PLP.Fitness>
42.0614

> <Gold.PLP.PLP>
-34.0979

> <Gold.PLP.part.hbond>
-3.3459

> <Gold.PLP.part.metal>
0.0000

> <Gold.PLP.part.buried>
-2.9814

> <Gold.PLP.part.nonpolar>
-29.2159

> <Gold.PLP.part.repulsive>
1.0449

> <Gold.PLP.ligand.clash>
0.0000

> <Gold.PLP.ligand.torsion>
0.6712

> <Gold.PLP.Chemscore.Hbond>
3.0937

> <Gold.PLP.Chemscore.CHOScore>
0.0000

> <Gold.PLP.Chemscore.Metal>
0.0000

> <Gold.Chemscore.Hbonds>
donor molecule, donor type, donor heavy atom, donor atom, acceptor molecule, acceptor atom, score
      L1  H     1    16       P1 10175  0.81
      L1  H     1    17       P1  7957  0.28
      L1  H     4    18       P1  7957  1.00
      P1  H  7989  7998       L1     6  1.00

> <Gold.PLP.Chemscore.Internal.Correction>
0.0248

> <Gold.Rescore>
     Score         DG    S(hbond)    S(metal)    S(lipo)     H(rot)  DE(clash)    DE(int)     intcor
     16.41     -17.46       2.07        0.00      65.03       1.00       0.10       0.94       ----

> <Gold.Chemscore.Fitness>
16.4134

> <Gold.Chemscore.DG>
-17.4558

> <Gold.Chemscore.ZeroCoef>
-5.4800

> <Gold.Chemscore.Hbond>
2.0742

> <Gold.Chemscore.Metal>
0.0000

> <Gold.Chemscore.Lipo>
65.0252

> <Gold.Chemscore.Internal_Hbond>
0.0000

> <Gold.Chemscore.DEClash>
0.0989

> <Gold.Chemscore.DEInternal>
0.9435

> <Gold.Chemscore.Rot>
1.0000

> <Gold.Chemscore.Internal.Correction>
   9.000000E+99

> <Gold.Chemscore.Hbonds>
donor molecule, donor type, donor heavy atom, donor atom, acceptor molecule, acceptor atom, score
      L1  H     1    16       P1 10175  0.44
      L1  H     1    17       P1  7957  0.27
      L1  H     4    18       P1  7957  1.00
      P1  H  7989  7998       L1     6  0.22

> <Gold.Chemscore.Hbond.Weighted>
-6.9278

> <Gold.Chemscore.Metal.Weighted>
-0.0000

> <Gold.Chemscore.Lipo.Weighted>
-7.6079

> <Gold.Chemscore.Internal_Hbond.Weighted>
0.0000

> <Gold.Chemscore.DEClash.Weighted>
0.0989

> <Gold.Chemscore.DEInternal.Weighted>
0.9435

> <Gold.Chemscore.Rot.Weighted>
2.5600

> <Gold.Chemscore.Internal.Correction.Weighted>
   9.000000E+99

> <Gold.Protein.RotatedTorsions>
[ 6907 6896 6895 6894 ] final   27.93 input  -60.11 | X-H torsion
[ 7974 7965 7964 7962 ] final   28.03 input  175.53 | X-H torsion
[ 8008 7997 7996 7995 ] final   90.57 input   59.86 | X-H torsion
[ 10167 10162 10161 10158 ] final  171.17 input  -65.29 | X-H torsion
[ 10718 10713 10712 10709 ] final -153.30 input   66.30 | X-H torsion
[ 10763 10752 10751 10750 ] final -153.55 input  -60.55 | X-H torsion
[ 11005 11000 10999 10996 ] final   95.68 input  -57.11 | X-H torsion

> <Gold.Protein.ActiveResidues>
 VAL166  LYS551  ARG553  GLY616  TRP617  ASP618  TYR619  PRO620  LYS621  CYS622 
 ASP623  PHE694  ASN695  SER759  ASP760  ASP761  ALA762  ILE779  LEU786  VAL792 
 PHE793  MET794  SER795  GLU796  ALA797  LYS798  CYS799  TRP800  GLU811  SER814 

> <Gold.Protein.RotatedAtoms>
  152.0095  134.9884  160.0567 H   0  0  0  0  0  0  0  0  0  0  0  0  # atno 6907 bound_to 6896
  152.1442  133.4477  159.4790 H   0  0  0  0  0  0  0  0  0  0  0  0  # atno 6908 bound_to 6896
  150.6868  134.2186  159.4431 H   0  0  0  0  0  0  0  0  0  0  0  0  # atno 6909 bound_to 6896
  146.1752  139.7111  142.8940 H   0  0  0  0  0  0  0  0  0  0  0  0  # atno 7974 bound_to 7965
  156.0135  140.3348  155.6965 H   0  0  0  0  0  0  0  0  0  0  0  0  # atno 8008 bound_to 7997
  155.6124  140.0666  157.2720 H   0  0  0  0  0  0  0  0  0  0  0  0  # atno 8009 bound_to 7997
  154.4290  140.1791  156.1274 H   0  0  0  0  0  0  0  0  0  0  0  0  # atno 8010 bound_to 7997
  139.5039  144.3515  151.9918 H   0  0  0  0  0  0  0  0  0  0  0  0  # atno 10167 bound_to 10162
  156.4841  130.8316  151.2542 H   0  0  0  0  0  0  0  0  0  0  0  0  # atno 10718 bound_to 10713
  154.7920  135.3210  154.7755 H   0  0  0  0  0  0  0  0  0  0  0  0  # atno 10763 bound_to 10752
  153.8442  135.6868  153.4804 H   0  0  0  0  0  0  0  0  0  0  0  0  # atno 10764 bound_to 10752
  153.1594  135.4667  154.9692 H   0  0  0  0  0  0  0  0  0  0  0  0  # atno 10765 bound_to 10752
  139.8787  134.8912  156.4047 H   0  0  0  0  0  0  0  0  0  0  0  0  # atno 11005 bound_to 11000
  145.4232  141.0408  143.2952 LP  0  0  0  0  0  0  0  0  0  0  0  0  # atno 17320 bound_to 7965
  144.8224  139.5768  143.6981 LP  0  0  0  0  0  0  0  0  0  0  0  0  # atno 17321 bound_to 7965
  140.2952  144.3709  150.6076 LP  0  0  0  0  0  0  0  0  0  0  0  0  # atno 17342 bound_to 10162
  140.5916  143.2168  151.7242 LP  0  0  0  0  0  0  0  0  0  0  0  0  # atno 17343 bound_to 10162
  157.7480  131.0035  150.3041 LP  0  0  0  0  0  0  0  0  0  0  0  0  # atno 17370 bound_to 10713
  156.3492  130.3828  149.7343 LP  0  0  0  0  0  0  0  0  0  0  0  0  # atno 17371 bound_to 10713
  140.9242  133.7624  155.9944 LP  0  0  0  0  0  0  0  0  0  0  0  0  # atno 17394 bound_to 11000
  140.8405  134.3072  157.5315 LP  0  0  0  0  0  0  0  0  0  0  0  0  # atno 17395 bound_to 11000

$$$$
