AV-unprocessed.smi:1601|AV-procd|sdf|6435|dock3
  -GOLD-   22720 7 83D 1   1.00000     0.00000
 Structure written by MMmdl.
 42 43  0  0  0  0  0  0  0  0  2 V2000
  146.9960  137.4750  154.3132 C   0  0  0  0  0  0  0  0  0  0  0  0
  147.5005  136.1574  154.9517 C   0  0  2  0  0  0  0  0  0  0  0  0
  148.7433  136.4217  155.8481 C   0  0  0  0  0  0  0  0  0  0  0  0
  149.6113  137.4808  155.3383 N   0  0  0  0  0  0  0  0  0  0  0  0
  150.9361  137.3776  155.1396 C   0  0  0  0  0  0  0  0  0  0  0  0
  151.5658  136.3382  155.3391 O   0  0  0  0  0  0  0  0  0  0  0  0
  151.6458  138.6424  154.6282 C   0  0  2  0  0  0  0  0  0  0  0  0
  153.1833  138.5274  154.6683 C   0  0  0  0  0  0  0  0  0  0  0  0
  151.1681  139.8208  155.3422 N   0  0  0  0  0  0  0  0  0  0  0  0
  151.4443  140.1964  156.6415 C   0  0  0  0  0  0  0  0  0  0  0  0
  150.8074  141.3820  156.8710 C   0  0  0  0  0  0  0  0  0  0  0  0
  150.1638  141.6648  155.6343 C   0  0  0  0  0  0  0  0  0  0  0  0
  150.3857  140.7342  154.7209 N   0  0  0  0  0  0  0  0  0  0  0  0
  147.7649  135.1104  153.9068 N   0  3  0  0  0  0  0  0  0  0  0  0
  148.6132  133.9773  154.3750 C   0  0  0  0  0  0  0  0  0  0  0  0
  148.8497  132.9461  153.2583 C   0  0  0  0  0  0  0  0  0  0  0  0
  147.6056  132.4727  152.7690 O   0  0  0  0  0  0  0  0  0  0  0  0
  146.8467  133.5258  152.1978 C   0  0  0  0  0  0  0  0  0  0  0  0
  146.5254  134.5754  153.2747 C   0  0  0  0  0  0  0  0  0  0  0  0
  146.8339  138.2555  155.0555 H   0  0  0  0  0  0  0  0  0  0  0  0
  146.0329  137.3595  153.8195 H   0  0  0  0  0  0  0  0  0  0  0  0
  147.7095  137.8592  153.5838 H   0  0  0  0  0  0  0  0  0  0  0  0
  146.7078  135.7787  155.5991 H   0  0  0  0  0  0  0  0  0  0  0  0
  148.4408  136.7722  156.8337 H   0  0  0  0  0  0  0  0  0  0  0  0
  149.2992  135.4959  156.0066 H   0  0  0  0  0  0  0  0  0  0  0  0
  149.1757  138.3710  155.1444 H   0  0  0  0  0  0  0  0  0  0  0  0
  151.3628  138.7645  153.5813 H   0  0  0  0  0  0  0  0  0  0  0  0
  153.5299  137.6730  154.0858 H   0  0  0  0  0  0  0  0  0  0  0  0
  153.5599  138.4087  155.6852 H   0  0  0  0  0  0  0  0  0  0  0  0
  153.6489  139.4189  154.2472 H   0  0  0  0  0  0  0  0  0  0  0  0
  152.0647  139.5946  157.2892 H   0  0  0  0  0  0  0  0  0  0  0  0
  150.8044  141.9606  157.7827 H   0  0  0  0  0  0  0  0  0  0  0  0
  149.5495  142.5139  155.3736 H   0  0  0  0  0  0  0  0  0  0  0  0
  149.5941  134.3266  154.6926 H   0  0  0  0  0  0  0  0  0  0  0  0
  148.1417  133.4974  155.2340 H   0  0  0  0  0  0  0  0  0  0  0  0
  149.4362  133.3783  152.4456 H   0  0  0  0  0  0  0  0  0  0  0  0
  149.4194  132.1010  153.6448 H   0  0  0  0  0  0  0  0  0  0  0  0
  147.3885  133.9745  151.3632 H   0  0  0  0  0  0  0  0  0  0  0  0
  145.9237  133.1128  151.7904 H   0  0  0  0  0  0  0  0  0  0  0  0
  145.8841  134.1373  154.0412 H   0  0  0  0  0  0  0  0  0  0  0  0
  145.9556  135.3654  152.7902 H   0  0  0  0  0  0  0  0  0  0  0  0
  148.2870  135.5673  153.1725 H   0  0  0  0  0  0  0  0  0  0  0  0
  1  2  1  0  0  0  0
  1 20  1  0  0  0  0
  1 21  1  0  0  0  0
  1 22  1  0  0  0  0
  2  3  1  0  0  0  0
  2 14  1  0  0  0  0
  2 23  1  0  0  0  0
  3  4  1  0  0  0  0
  3 24  1  0  0  0  0
  3 25  1  0  0  0  0
  4  5  1  0  0  0  0
  4 26  1  0  0  0  0
  5  6  2  0  0  0  0
  5  7  1  0  0  0  0
  7  8  1  0  0  0  0
  7  9  1  0  0  0  0
  7 27  1  0  0  0  0
  8 28  1  0  0  0  0
  8 29  1  0  0  0  0
  8 30  1  0  0  0  0
  9 13  1  0  0  0  0
  9 10  1  0  0  0  0
 10 11  2  0  0  0  0
 10 31  1  0  0  0  0
 11 12  1  0  0  0  0
 11 32  1  0  0  0  0
 12 13  2  0  0  0  0
 12 33  1  0  0  0  0
 14 19  1  0  0  0  0
 14 15  1  0  0  0  0
 14 42  1  0  0  0  0
 15 16  1  0  0  0  0
 15 34  1  0  0  0  0
 15 35  1  0  0  0  0
 16 17  1  0  0  0  0
 16 36  1  0  0  0  0
 16 37  1  0  0  0  0
 17 18  1  0  0  0  0
 18 19  1  0  0  0  0
 18 38  1  0  0  0  0
 18 39  1  0  0  0  0
 19 40  1  0  0  0  0
 19 41  1  0  0  0  0
M  CHG  1  14   1
M  END
> <s_m_source_file>
AV-unprocessed.smi

> <i_m_source_file_index>
1601

> <i_lp_mmshare_version>
43012

> <i_f3d_flags>
0

> <s_epik_input>
W0NIMl0xW0NIMl1PW0NIMl1bQ0gyXU4xW0NASF0oW0NIM10pW0NIMl1bTkhdQyg9TylbQ0BIXShbQ0gzXSluMltjSF1bY0hdW2NIXW4y

> <s_epik_cmdline>
J2VwaWtfcHl0aG9uJywgJy1waCcsICc3LjAnLCAnLXRuJywgJzgnLCAnLW1hJywgJzIwMCcsICctbWV0YWxfYmluZGluZycsICctaW1hZScsICc8aW5maWxlLm1hZT4nLCAnLW9tYWUnLCAnPG91dGZpbGUubWFlPic=

> <r_lp_tautomer_probability>
1

> <r_epik_Ionization_Penalty>
0.732551

> <r_epik_Ionization_Penalty_Charging>
0.732531

> <r_epik_Ionization_Penalty_Neutral>
2.04647e-05

> <r_epik_State_Penalty>
0.757939

> <r_epik_Charging_Adjusted_Penalty>
1.49047

> <i_epik_Tot_Q>
1

> <i_epik_Tot_abs_Q>
1

> <r_epik_Metal_State_Penalty>
0.757952

> <b_epik_Metal_Only>
0

> <s_lp_Force_Field>
OPLS_2005

> <r_lp_Energy>
26.1921

> <b_lp_Chiralities_Consistent>
1

> <s_lp_Variant>
AV-unprocessed.smi:1601-5

> <Gold.Version>
5.8.1

> <Gold.Id.Protein>
6NUR|6NUR_protein|mol2

> <Gold.PLP.Fitness>
43.0136

> <Gold.PLP.PLP>
-31.0283

> <Gold.PLP.part.hbond>
-3.0000

> <Gold.PLP.part.metal>
0.0000

> <Gold.PLP.part.buried>
-2.9280

> <Gold.PLP.part.nonpolar>
-26.0952

> <Gold.PLP.part.repulsive>
0.3357

> <Gold.PLP.ligand.clash>
0.0000

> <Gold.PLP.ligand.torsion>
1.1263

> <Gold.PLP.Chemscore.Hbond>
3.6960

> <Gold.PLP.Chemscore.CHOScore>
1.0000

> <Gold.PLP.Chemscore.Metal>
0.0000

> <Gold.Chemscore.Hbonds>
donor molecule, donor type, donor heavy atom, donor atom, acceptor molecule, acceptor atom, score
      L1  H    14    42       P1  7948  2.00
      P1  H  7989  7998       L1    13  0.38
      P1  H 10752 10764       L1     6  1.00
      L1  C    12    33       P1  8028  1.00

> <Gold.PLP.Chemscore.Internal.Correction>
0.1499

> <Gold.Rescore>
     Score         DG    S(hbond)    S(metal)    S(lipo)     H(rot)  DE(clash)    DE(int)     intcor
     15.81     -17.01       2.81        0.00      59.20       1.86       0.21       0.99       ----

> <Gold.Chemscore.Fitness>
15.8142

> <Gold.Chemscore.DG>
-17.0090

> <Gold.Chemscore.ZeroCoef>
-5.4800

> <Gold.Chemscore.Hbond>
2.8059

> <Gold.Chemscore.Metal>
0.0000

> <Gold.Chemscore.Lipo>
59.2044

> <Gold.Chemscore.Internal_Hbond>
0.0000

> <Gold.Chemscore.DEClash>
0.2074

> <Gold.Chemscore.DEInternal>
0.9875

> <Gold.Chemscore.Rot>
1.8631

> <Gold.Chemscore.Internal.Correction>
   9.000000E+99

> <Gold.Chemscore.Hbonds>
donor molecule, donor type, donor heavy atom, donor atom, acceptor molecule, acceptor atom, score
      L1  H    14    42       P1  7948  0.99
      P1  H  7989  7998       L1    13  0.01
      P1  H 10752 10764       L1     6  1.00

> <Gold.Chemscore.Hbond.Weighted>
-9.3717

> <Gold.Chemscore.Metal.Weighted>
-0.0000

> <Gold.Chemscore.Lipo.Weighted>
-6.9269

> <Gold.Chemscore.Internal_Hbond.Weighted>
0.0000

> <Gold.Chemscore.DEClash.Weighted>
0.2074

> <Gold.Chemscore.DEInternal.Weighted>
0.9875

> <Gold.Chemscore.Rot.Weighted>
4.7697

> <Gold.Chemscore.Internal.Correction.Weighted>
   9.000000E+99

> <Gold.Protein.RotatedTorsions>
[ 6907 6896 6895 6894 ] final  123.97 input  -60.11 | X-H torsion
[ 7974 7965 7964 7962 ] final   13.60 input  175.53 | X-H torsion
[ 8008 7997 7996 7995 ] final   41.60 input   59.86 | X-H torsion
[ 10167 10162 10161 10158 ] final   83.61 input  -65.29 | X-H torsion
[ 10718 10713 10712 10709 ] final  108.03 input   66.30 | X-H torsion
[ 10763 10752 10751 10750 ] final  -55.46 input  -60.55 | X-H torsion
[ 11005 11000 10999 10996 ] final   69.42 input  -57.11 | X-H torsion

> <Gold.Protein.ActiveResidues>
 VAL166  LYS551  ARG553  GLY616  TRP617  ASP618  TYR619  PRO620  LYS621  CYS622 
 ASP623  PHE694  ASN695  SER759  ASP760  ASP761  ALA762  ILE779  LEU786  VAL792 
 PHE793  MET794  SER795  GLU796  ALA797  LYS798  CYS799  TRP800  GLU811  SER814 

> <Gold.Protein.RotatedAtoms>
  152.4117  133.6974  159.6403 H   0  0  0  0  0  0  0  0  0  0  0  0  # atno 6907 bound_to 6896
  150.7997  133.8612  159.3241 H   0  0  0  0  0  0  0  0  0  0  0  0  # atno 6908 bound_to 6896
  151.6352  135.1020  160.0181 H   0  0  0  0  0  0  0  0  0  0  0  0  # atno 6909 bound_to 6896
  146.2325  139.9165  142.8516 H   0  0  0  0  0  0  0  0  0  0  0  0  # atno 7974 bound_to 7965
  155.2724  140.3367  155.4264 H   0  0  0  0  0  0  0  0  0  0  0  0  # atno 8008 bound_to 7997
  156.2127  140.1776  156.7701 H   0  0  0  0  0  0  0  0  0  0  0  0  # atno 8009 bound_to 7997
  154.5709  140.0670  156.8947 H   0  0  0  0  0  0  0  0  0  0  0  0  # atno 8010 bound_to 7997
  139.9166  144.6239  150.8483 H   0  0  0  0  0  0  0  0  0  0  0  0  # atno 10167 bound_to 10162
  157.6604  131.0885  150.6244 H   0  0  0  0  0  0  0  0  0  0  0  0  # atno 10718 bound_to 10713
  154.1912  135.6427  153.5060 H   0  0  0  0  0  0  0  0  0  0  0  0  # atno 10763 bound_to 10752
  153.0034  135.5429  154.6413 H   0  0  0  0  0  0  0  0  0  0  0  0  # atno 10764 bound_to 10752
  154.5802  135.2924  155.0713 H   0  0  0  0  0  0  0  0  0  0  0  0  # atno 10765 bound_to 10752
  139.9655  134.6988  156.0555 H   0  0  0  0  0  0  0  0  0  0  0  0  # atno 11005 bound_to 11000
  145.2178  140.9922  143.4063 LP  0  0  0  0  0  0  0  0  0  0  0  0  # atno 17320 bound_to 7965
  144.9636  139.3954  143.6344 LP  0  0  0  0  0  0  0  0  0  0  0  0  # atno 17321 bound_to 7965
  140.7672  143.3327  151.2375 LP  0  0  0  0  0  0  0  0  0  0  0  0  # atno 17342 bound_to 10162
  139.6897  143.9713  152.2853 LP  0  0  0  0  0  0  0  0  0  0  0  0  # atno 17343 bound_to 10162
  156.6547  130.4495  149.5707 LP  0  0  0  0  0  0  0  0  0  0  0  0  # atno 17370 bound_to 10713
  156.2111  130.6679  151.1270 LP  0  0  0  0  0  0  0  0  0  0  0  0  # atno 17371 bound_to 10713
  141.1334  133.6581  156.3527 LP  0  0  0  0  0  0  0  0  0  0  0  0  # atno 17394 bound_to 11000
  140.5406  134.6124  157.5378 LP  0  0  0  0  0  0  0  0  0  0  0  0  # atno 17395 bound_to 11000

$$$$
