AV-unprocessed.smi:2007|AV-procd|sdf|8137|dock10
  -GOLD-   2272010373D 1   1.00000     0.00000
 Structure written by MMmdl.
 35 36  0  0  0  0  0  0  0  0  2 V2000
  154.6624  140.3392  160.8673 C   0  0  0  0  0  0  0  0  0  0  0  0
  153.5954  141.1418  160.1113 C   0  0  2  0  0  0  0  0  0  0  0  0
  152.7600  142.0047  161.0831 C   0  0  0  0  0  0  0  0  0  0  0  0
  151.6027  142.6837  160.4983 N   0  0  0  0  0  0  0  0  0  0  0  0
  150.9734  143.5807  161.4600 C   0  0  0  0  0  0  0  0  0  0  0  0
  149.7431  144.2865  160.8636 C   0  0  0  0  0  0  0  0  0  0  0  0
  150.1219  144.9936  159.6872 O   0  0  0  0  0  0  0  0  0  0  0  0
  150.7057  144.1458  158.7029 C   0  0  0  0  0  0  0  0  0  0  0  0
  151.9380  143.4400  159.2940 C   0  0  0  0  0  0  0  0  0  0  0  0
  152.7310  140.2105  159.3865 N   0  0  0  0  0  0  0  0  0  0  0  0
  153.0985  139.3731  158.4050 C   0  0  0  0  0  0  0  0  0  0  0  0
  154.2760  139.3215  158.0422 O   0  0  0  0  0  0  0  0  0  0  0  0
  152.0743  138.6490  157.8987 N   0  5  0  0  0  0  0  0  0  0  0  0
  152.0124  138.4062  156.5795 C   0  0  0  0  0  0  0  0  0  0  0  0
  152.6604  139.1435  155.6704 N   0  0  0  0  0  0  0  0  0  0  0  0
  152.4591  138.7099  154.3589 C   0  0  0  0  0  0  0  0  0  0  0  0
  151.6465  137.6111  154.2678 C   0  0  0  0  0  0  0  0  0  0  0  0
  151.1057  137.0853  155.8364 S   0  0  0  0  0  0  0  0  0  0  0  0
  155.3435  141.0005  161.4033 H   0  0  0  0  0  0  0  0  0  0  0  0
  155.2601  139.7383  160.1811 H   0  0  0  0  0  0  0  0  0  0  0  0
  154.2117  139.6639  161.5955 H   0  0  0  0  0  0  0  0  0  0  0  0
  154.1301  141.7834  159.4108 H   0  0  0  0  0  0  0  0  0  0  0  0
  152.4175  141.3547  161.8897 H   0  0  0  0  0  0  0  0  0  0  0  0
  153.4074  142.7445  161.5563 H   0  0  0  0  0  0  0  0  0  0  0  0
  150.6711  143.0208  162.3458 H   0  0  0  0  0  0  0  0  0  0  0  0
  151.6934  144.3294  161.7941 H   0  0  0  0  0  0  0  0  0  0  0  0
  148.9608  143.5637  160.6260 H   0  0  0  0  0  0  0  0  0  0  0  0
  149.3230  144.9894  161.5829 H   0  0  0  0  0  0  0  0  0  0  0  0
  149.9717  143.4149  158.3591 H   0  0  0  0  0  0  0  0  0  0  0  0
  150.9902  144.7453  157.8382 H   0  0  0  0  0  0  0  0  0  0  0  0
  152.7043  144.1817  159.5237 H   0  0  0  0  0  0  0  0  0  0  0  0
  152.3582  142.7833  158.5339 H   0  0  0  0  0  0  0  0  0  0  0  0
  151.7546  140.2112  159.6418 H   0  0  0  0  0  0  0  0  0  0  0  0
  152.9358  139.2430  153.5498 H   0  0  0  0  0  0  0  0  0  0  0  0
  151.3353  137.0810  153.3805 H   0  0  0  0  0  0  0  0  0  0  0  0
  1  2  1  0  0  0  0
  1 19  1  0  0  0  0
  1 20  1  0  0  0  0
  1 21  1  0  0  0  0
  2  3  1  0  0  0  0
  2 10  1  0  0  0  0
  2 22  1  0  0  0  0
  3  4  1  0  0  0  0
  3 23  1  0  0  0  0
  3 24  1  0  0  0  0
  4  9  1  0  0  0  0
  4  5  1  0  0  0  0
  5  6  1  0  0  0  0
  5 25  1  0  0  0  0
  5 26  1  0  0  0  0
  6  7  1  0  0  0  0
  6 27  1  0  0  0  0
  6 28  1  0  0  0  0
  7  8  1  0  0  0  0
  8  9  1  0  0  0  0
  8 29  1  0  0  0  0
  8 30  1  0  0  0  0
  9 31  1  0  0  0  0
  9 32  1  0  0  0  0
 10 11  1  0  0  0  0
 10 33  1  0  0  0  0
 11 12  2  0  0  0  0
 11 13  1  0  0  0  0
 13 14  1  0  0  0  0
 14 18  1  0  0  0  0
 14 15  2  0  0  0  0
 15 16  1  0  0  0  0
 16 17  2  0  0  0  0
 16 34  1  0  0  0  0
 17 18  1  0  0  0  0
 17 35  1  0  0  0  0
M  CHG  1  13  -1
M  END
> <s_m_source_file>
AV-unprocessed.smi

> <i_m_source_file_index>
2007

> <i_lp_mmshare_version>
43012

> <i_f3d_flags>
0

> <s_epik_input>
W0NIMl0xW0NIMl1PW0NIMl1bQ0gyXU4xW0NIMl1bQ0BASF0oW0NIM10pW05IXUMoPU8pW05IXWMybltjSF1bY0hdczI=

> <s_epik_cmdline>
J2VwaWtfcHl0aG9uJywgJy1waCcsICc3LjAnLCAnLXRuJywgJzgnLCAnLW1hJywgJzIwMCcsICctbWV0YWxfYmluZGluZycsICctaW1hZScsICc8aW5maWxlLm1hZT4nLCAnLW9tYWUnLCAnPG91dGZpbGUubWFlPic=

> <r_lp_tautomer_probability>
0.999

> <r_epik_Ionization_Penalty>
7.09127

> <r_epik_Ionization_Penalty_Charging>
5.74083

> <r_epik_Ionization_Penalty_Neutral>
1.35044

> <r_epik_State_Penalty>
5.95014

> <r_epik_Charging_Adjusted_Penalty>
11.691

> <i_epik_Tot_Q>
-1

> <i_epik_Tot_abs_Q>
1

> <r_epik_Metal_State_Penalty>
1.93831

> <b_epik_Metal_Only>
1

> <s_lp_Force_Field>
OPLS_2005

> <r_lp_Energy>
21.0216

> <b_lp_Chiralities_Consistent>
1

> <s_lp_Variant>
AV-unprocessed.smi:2007-5

> <Gold.Version>
5.8.1

> <Gold.Id.Protein>
6NUR|6NUR_protein|mol2

> <Gold.PLP.Fitness>
48.3468

> <Gold.PLP.PLP>
-41.0509

> <Gold.PLP.part.hbond>
-3.0000

> <Gold.PLP.part.metal>
0.0000

> <Gold.PLP.part.buried>
-6.2084

> <Gold.PLP.part.nonpolar>
-32.7421

> <Gold.PLP.part.repulsive>
0.2524

> <Gold.PLP.ligand.clash>
0.0000

> <Gold.PLP.ligand.torsion>
0.4641

> <Gold.PLP.Chemscore.Hbond>
1.7280

> <Gold.PLP.Chemscore.CHOScore>
1.0000

> <Gold.PLP.Chemscore.Metal>
0.0000

> <Gold.Chemscore.Hbonds>
donor molecule, donor type, donor heavy atom, donor atom, acceptor molecule, acceptor atom, score
      P1  H  7997  8008       L1    15  0.50
      P1  H  7997  8010       L1    12  0.41
      L1  C    17    35       P1  7949  1.00

> <Gold.PLP.Chemscore.Internal.Correction>
0.0401

> <Gold.Rescore>
     Score         DG    S(hbond)    S(metal)    S(lipo)     H(rot)  DE(clash)    DE(int)     intcor
     14.86     -17.49       1.38        0.00      97.13       1.55       0.03       2.61       ----

> <Gold.Chemscore.Fitness>
14.8562

> <Gold.Chemscore.DG>
-17.4921

> <Gold.Chemscore.ZeroCoef>
-5.4800

> <Gold.Chemscore.Hbond>
1.3828

> <Gold.Chemscore.Metal>
0.0000

> <Gold.Chemscore.Lipo>
97.1290

> <Gold.Chemscore.Internal_Hbond>
0.0000

> <Gold.Chemscore.DEClash>
0.0265

> <Gold.Chemscore.DEInternal>
2.6095

> <Gold.Chemscore.Rot>
1.5510

> <Gold.Chemscore.Internal.Correction>
   9.000000E+99

> <Gold.Chemscore.Hbonds>
donor molecule, donor type, donor heavy atom, donor atom, acceptor molecule, acceptor atom, score
      P1  H  7997  8008       L1    15  0.33
      P1  H  7997  8010       L1    12  0.41

> <Gold.Chemscore.Hbond.Weighted>
-4.6186

> <Gold.Chemscore.Metal.Weighted>
-0.0000

> <Gold.Chemscore.Lipo.Weighted>
-11.3641

> <Gold.Chemscore.Internal_Hbond.Weighted>
0.0000

> <Gold.Chemscore.DEClash.Weighted>
0.0265

> <Gold.Chemscore.DEInternal.Weighted>
2.6095

> <Gold.Chemscore.Rot.Weighted>
3.9706

> <Gold.Chemscore.Internal.Correction.Weighted>
   9.000000E+99

> <Gold.Protein.RotatedTorsions>
[ 6907 6896 6895 6894 ] final   95.72 input  -60.11 | X-H torsion
[ 7974 7965 7964 7962 ] final  102.32 input  175.53 | X-H torsion
[ 8008 7997 7996 7995 ] final   -4.07 input   59.86 | X-H torsion
[ 10167 10162 10161 10158 ] final   92.28 input  -65.29 | X-H torsion
[ 10718 10713 10712 10709 ] final   31.53 input   66.30 | X-H torsion
[ 10763 10752 10751 10750 ] final -155.49 input  -60.55 | X-H torsion
[ 11005 11000 10999 10996 ] final  126.05 input  -57.11 | X-H torsion

> <Gold.Protein.ActiveResidues>
 VAL166  LYS551  ARG553  GLY616  TRP617  ASP618  TYR619  PRO620  LYS621  CYS622 
 ASP623  PHE694  ASN695  SER759  ASP760  ASP761  ALA762  ILE779  LEU786  VAL792 
 PHE793  MET794  SER795  GLU796  ALA797  LYS798  CYS799  TRP800  GLU811  SER814 

> <Gold.Protein.RotatedAtoms>
  152.5441  134.0996  159.8311 H   0  0  0  0  0  0  0  0  0  0  0  0  # atno 6907 bound_to 6896
  151.1075  133.5190  159.2614 H   0  0  0  0  0  0  0  0  0  0  0  0  # atno 6908 bound_to 6896
  151.1921  135.0416  159.8891 H   0  0  0  0  0  0  0  0  0  0  0  0  # atno 6909 bound_to 6896
  145.3607  139.2419  143.3508 H   0  0  0  0  0  0  0  0  0  0  0  0  # atno 7974 bound_to 7965
  154.6182  140.2493  155.7583 H   0  0  0  0  0  0  0  0  0  0  0  0  # atno 8008 bound_to 7997
  156.2411  140.2932  156.0396 H   0  0  0  0  0  0  0  0  0  0  0  0  # atno 8009 bound_to 7997
  155.1940  140.0392  157.2896 H   0  0  0  0  0  0  0  0  0  0  0  0  # atno 8010 bound_to 7997
  139.8292  144.6695  150.9421 H   0  0  0  0  0  0  0  0  0  0  0  0  # atno 10167 bound_to 10162
  157.2736  130.7220  149.6518 H   0  0  0  0  0  0  0  0  0  0  0  0  # atno 10718 bound_to 10713
  154.7783  135.3166  154.8045 H   0  0  0  0  0  0  0  0  0  0  0  0  # atno 10763 bound_to 10752
  153.8763  135.6839  153.4774 H   0  0  0  0  0  0  0  0  0  0  0  0  # atno 10764 bound_to 10752
  153.1412  135.4738  154.9435 H   0  0  0  0  0  0  0  0  0  0  0  0  # atno 10765 bound_to 10752
  139.9437  134.9632  156.8649 H   0  0  0  0  0  0  0  0  0  0  0  0  # atno 11005 bound_to 11000
  146.2929  140.4240  142.8733 LP  0  0  0  0  0  0  0  0  0  0  0  0  # atno 17320 bound_to 7965
  144.8649  140.7191  143.6084 LP  0  0  0  0  0  0  0  0  0  0  0  0  # atno 17321 bound_to 7965
  140.7808  143.4017  151.1138 LP  0  0  0  0  0  0  0  0  0  0  0  0  # atno 17342 bound_to 10162
  139.7672  143.8547  152.3113 LP  0  0  0  0  0  0  0  0  0  0  0  0  # atno 17343 bound_to 10162
  155.9663  130.4360  150.5114 LP  0  0  0  0  0  0  0  0  0  0  0  0  # atno 17370 bound_to 10713
  157.3044  131.0651  151.2046 LP  0  0  0  0  0  0  0  0  0  0  0  0  # atno 17371 bound_to 10713
  140.5889  134.0281  155.7492 LP  0  0  0  0  0  0  0  0  0  0  0  0  # atno 17394 bound_to 11000
  141.1080  133.9663  157.2962 LP  0  0  0  0  0  0  0  0  0  0  0  0  # atno 17395 bound_to 11000

$$$$
