AV-unprocessed.smi:3032|AV-procd|sdf|11563|dock2
  -GOLD-   2272016533D 1   1.00000     0.00000
 Structure written by MMmdl.
 37 38  0  0  0  0  0  0  0  0  1 V2000
  151.2722  145.0410  158.8103 C   0  0  0  0  0  0  0  0  0  0  0  0
  151.5215  143.7740  159.6406 C   0  0  2  0  0  0  0  0  0  0  0  0
  152.4291  144.0641  160.8518 C   0  0  0  0  0  0  0  0  0  0  0  0
  152.6863  142.7960  161.6811 C   0  0  0  0  0  0  0  0  0  0  0  0
  153.2754  141.6734  160.8133 C   0  0  0  0  0  0  0  0  0  0  0  0
  152.3646  141.3644  159.6075 C   0  0  2  0  0  0  0  0  0  0  0  0
  152.9684  140.2503  158.7427 C   0  0  0  0  0  0  0  0  0  0  0  0
  154.1136  139.8495  158.9533 O   0  0  0  0  0  0  0  0  0  0  0  0
  152.1809  139.7500  157.7787 N   0  0  0  0  0  0  0  0  0  0  0  0
  152.5375  138.6462  156.8927 C   0  0  0  0  0  0  0  0  0  0  0  0
  152.3441  138.9869  155.4010 C   0  0  0  0  0  0  0  0  0  0  0  0
  150.9120  138.9933  154.9678 C   0  0  0  0  0  0  0  0  0  0  0  0
  150.3306  140.1121  154.5316 N   0  0  0  0  0  0  0  0  0  0  0  0
  149.0675  139.6991  154.2909 N   0  0  0  0  0  0  0  0  0  0  0  0
  148.9727  138.4065  154.5977 C   0  0  0  0  0  0  0  0  0  0  0  0
  150.1087  137.8869  155.0427 N   0  0  0  0  0  0  0  0  0  0  0  0
  152.1188  142.6438  158.7789 C   0  0  0  0  0  0  0  0  0  0  0  0
  152.2025  145.4363  158.4007 H   0  0  0  0  0  0  0  0  0  0  0  0
  150.8159  145.8241  159.4163 H   0  0  0  0  0  0  0  0  0  0  0  0
  150.6009  144.8378  157.9757 H   0  0  0  0  0  0  0  0  0  0  0  0
  150.5558  143.4342  160.0178 H   0  0  0  0  0  0  0  0  0  0  0  0
  153.3812  144.4722  160.5096 H   0  0  0  0  0  0  0  0  0  0  0  0
  151.9758  144.8282  161.4843 H   0  0  0  0  0  0  0  0  0  0  0  0
  153.3635  143.0228  162.5051 H   0  0  0  0  0  0  0  0  0  0  0  0
  151.7528  142.4578  162.1327 H   0  0  0  0  0  0  0  0  0  0  0  0
  154.2686  141.9678  160.4702 H   0  0  0  0  0  0  0  0  0  0  0  0
  153.4119  140.7773  161.4205 H   0  0  0  0  0  0  0  0  0  0  0  0
  151.4022  141.0180  159.9893 H   0  0  0  0  0  0  0  0  0  0  0  0
  151.2543  140.1375  157.6746 H   0  0  0  0  0  0  0  0  0  0  0  0
  153.5849  138.4054  157.0756 H   0  0  0  0  0  0  0  0  0  0  0  0
  151.9667  137.7541  157.1548 H   0  0  0  0  0  0  0  0  0  0  0  0
  152.7842  139.9620  155.1889 H   0  0  0  0  0  0  0  0  0  0  0  0
  152.8911  138.2716  154.7855 H   0  0  0  0  0  0  0  0  0  0  0  0
  148.0600  137.8380  154.4973 H   0  0  0  0  0  0  0  0  0  0  0  0
  151.4459  142.4216  157.9494 H   0  0  0  0  0  0  0  0  0  0  0  0
  153.0539  142.9865  158.3324 H   0  0  0  0  0  0  0  0  0  0  0  0
  148.3420  140.3075  153.9389 H   0  0  0  0  0  0  0  0  0  0  0  0
  1  2  1  0  0  0  0
  1 18  1  0  0  0  0
  1 19  1  0  0  0  0
  1 20  1  0  0  0  0
  2 17  1  0  0  0  0
  2  3  1  0  0  0  0
  2 21  1  0  0  0  0
  3  4  1  0  0  0  0
  3 22  1  0  0  0  0
  3 23  1  0  0  0  0
  4  5  1  0  0  0  0
  4 24  1  0  0  0  0
  4 25  1  0  0  0  0
  5  6  1  0  0  0  0
  5 26  1  0  0  0  0
  5 27  1  0  0  0  0
  6  7  1  0  0  0  0
  6 17  1  0  0  0  0
  6 28  1  0  0  0  0
  7  8  2  0  0  0  0
  7  9  1  0  0  0  0
  9 10  1  0  0  0  0
  9 29  1  0  0  0  0
 10 11  1  0  0  0  0
 10 30  1  0  0  0  0
 10 31  1  0  0  0  0
 11 32  1  0  0  0  0
 11 33  1  0  0  0  0
 11 12  1  0  0  0  0
 12 16  1  0  0  0  0
 12 13  2  0  0  0  0
 13 14  1  0  0  0  0
 14 15  1  0  0  0  0
 14 37  1  0  0  0  0
 15 16  2  0  0  0  0
 15 34  1  0  0  0  0
 17 35  1  0  0  0  0
 17 36  1  0  0  0  0
M  END
> <s_m_source_file>
AV-unprocessed.smi

> <i_m_source_file_index>
3032

> <i_lp_mmshare_version>
43012

> <i_f3d_flags>
0

> <s_epik_input>
W0NIM11bQ0BASF0xW0NIMl1bQ0gyXVtDSDJdW0NASF0oW0NIMl0xKUMoPU8pW05IXVtDSDJdW0NIMl1jMm5uW2NIXVtuSF0y

> <s_epik_cmdline>
J2VwaWtfcHl0aG9uJywgJy1waCcsICc3LjAnLCAnLXRuJywgJzgnLCAnLW1hJywgJzIwMCcsICctbWV0YWxfYmluZGluZycsICctaW1hZScsICc8aW5maWxlLm1hZT4nLCAnLW9tYWUnLCAnPG91dGZpbGUubWFlPic=

> <r_epik_Ionization_Penalty>
0.000752022

> <r_epik_Ionization_Penalty_Charging>
0

> <r_epik_Ionization_Penalty_Neutral>
0.000752022

> <r_epik_State_Penalty>
0.639926

> <r_epik_Charging_Adjusted_Penalty>
0.639926

> <i_epik_Tot_Q>
0

> <i_epik_Tot_abs_Q>
0

> <r_epik_Metal_State_Penalty>
0.76532

> <b_epik_Metal_Only>
0

> <s_lp_Force_Field>
OPLS_2005

> <r_lp_Energy>
8.90132

> <b_lp_Chiralities_Consistent>
1

> <s_lp_Variant>
AV-unprocessed.smi:3032-7

> <Gold.Version>
5.8.1

> <Gold.Id.Protein>
6NUR|6NUR_protein|mol2

> <Gold.PLP.Fitness>
43.8000

> <Gold.PLP.PLP>
-38.2021

> <Gold.PLP.part.hbond>
-2.8614

> <Gold.PLP.part.metal>
0.0000

> <Gold.PLP.part.buried>
-4.6473

> <Gold.PLP.part.nonpolar>
-30.4596

> <Gold.PLP.part.repulsive>
0.4952

> <Gold.PLP.ligand.clash>
0.0000

> <Gold.PLP.ligand.torsion>
0.2149

> <Gold.PLP.Chemscore.Hbond>
2.0000

> <Gold.PLP.Chemscore.CHOScore>
0.0000

> <Gold.PLP.Chemscore.Metal>
0.0000

> <Gold.Chemscore.Hbonds>
donor molecule, donor type, donor heavy atom, donor atom, acceptor molecule, acceptor atom, score
      P1  H  7989  7998       L1    13  1.00
      P1  H  7997  8008       L1     8  1.00

> <Gold.PLP.Chemscore.Internal.Correction>
0.0277

> <Gold.Rescore>
     Score         DG    S(hbond)    S(metal)    S(lipo)     H(rot)  DE(clash)    DE(int)     intcor
     15.30     -15.45       1.56        0.00      89.91       2.25       0.07       0.08       ----

> <Gold.Chemscore.Fitness>
15.3033

> <Gold.Chemscore.DG>
-15.4526

> <Gold.Chemscore.ZeroCoef>
-5.4800

> <Gold.Chemscore.Hbond>
1.5610

> <Gold.Chemscore.Metal>
0.0000

> <Gold.Chemscore.Lipo>
89.9079

> <Gold.Chemscore.Internal_Hbond>
0.0000

> <Gold.Chemscore.DEClash>
0.0689

> <Gold.Chemscore.DEInternal>
0.0804

> <Gold.Chemscore.Rot>
2.2501

> <Gold.Chemscore.Internal.Correction>
   9.000000E+99

> <Gold.Chemscore.Hbonds>
donor molecule, donor type, donor heavy atom, donor atom, acceptor molecule, acceptor atom, score
      P1  H  7989  7998       L1    13  0.39
      P1  H  7997  8008       L1     8  0.44

> <Gold.Chemscore.Hbond.Weighted>
-5.2137

> <Gold.Chemscore.Metal.Weighted>
-0.0000

> <Gold.Chemscore.Lipo.Weighted>
-10.5192

> <Gold.Chemscore.Internal_Hbond.Weighted>
0.0000

> <Gold.Chemscore.DEClash.Weighted>
0.0689

> <Gold.Chemscore.DEInternal.Weighted>
0.0804

> <Gold.Chemscore.Rot.Weighted>
5.7603

> <Gold.Chemscore.Internal.Correction.Weighted>
   9.000000E+99

> <Gold.Protein.RotatedTorsions>
[ 6907 6896 6895 6894 ] final  -19.63 input  -60.11 | X-H torsion
[ 7974 7965 7964 7962 ] final   36.96 input  175.53 | X-H torsion
[ 8008 7997 7996 7995 ] final -111.87 input   59.86 | X-H torsion
[ 10167 10162 10161 10158 ] final   -2.62 input  -65.29 | X-H torsion
[ 10718 10713 10712 10709 ] final   93.22 input   66.30 | X-H torsion
[ 10763 10752 10751 10750 ] final   49.45 input  -60.55 | X-H torsion
[ 11005 11000 10999 10996 ] final -165.17 input  -57.11 | X-H torsion

> <Gold.Protein.ActiveResidues>
 VAL166  LYS551  ARG553  GLY616  TRP617  ASP618  TYR619  PRO620  LYS621  CYS622 
 ASP623  PHE694  ASN695  SER759  ASP760  ASP761  ALA762  ILE779  LEU786  VAL792 
 PHE793  MET794  SER795  GLU796  ALA797  LYS798  CYS799  TRP800  GLU811  SER814 

> <Gold.Protein.RotatedAtoms>
  151.2602  135.0651  159.9095 H   0  0  0  0  0  0  0  0  0  0  0  0  # atno 6907 bound_to 6896
  152.5367  134.0239  159.8004 H   0  0  0  0  0  0  0  0  0  0  0  0  # atno 6908 bound_to 6896
  151.0461  133.5615  159.2677 H   0  0  0  0  0  0  0  0  0  0  0  0  # atno 6909 bound_to 6896
  146.1173  139.5953  142.9313 H   0  0  0  0  0  0  0  0  0  0  0  0  # atno 7974 bound_to 7965
  154.9965  140.0394  157.2342 H   0  0  0  0  0  0  0  0  0  0  0  0  # atno 8008 bound_to 7997
  154.7582  140.2779  155.6213 H   0  0  0  0  0  0  0  0  0  0  0  0  # atno 8009 bound_to 7997
  156.2899  140.2633  156.2353 H   0  0  0  0  0  0  0  0  0  0  0  0  # atno 8010 bound_to 7997
  140.6858  143.6636  150.8245 H   0  0  0  0  0  0  0  0  0  0  0  0  # atno 10167 bound_to 10162
  157.6955  131.0470  150.4001 H   0  0  0  0  0  0  0  0  0  0  0  0  # atno 10718 bound_to 10713
  152.9787  135.5911  154.4091 H   0  0  0  0  0  0  0  0  0  0  0  0  # atno 10763 bound_to 10752
  154.3728  135.2767  155.2258 H   0  0  0  0  0  0  0  0  0  0  0  0  # atno 10764 bound_to 10752
  154.4206  135.6060  153.6062 H   0  0  0  0  0  0  0  0  0  0  0  0  # atno 10765 bound_to 10752
  140.5787  134.5163  157.5175 H   0  0  0  0  0  0  0  0  0  0  0  0  # atno 11005 bound_to 11000
  145.5540  141.0411  143.2263 LP  0  0  0  0  0  0  0  0  0  0  0  0  # atno 17320 bound_to 7965
  144.7565  139.7062  143.7252 LP  0  0  0  0  0  0  0  0  0  0  0  0  # atno 17321 bound_to 7965
  140.0343  143.5411  152.2746 LP  0  0  0  0  0  0  0  0  0  0  0  0  # atno 17342 bound_to 10162
  139.6215  144.7630  151.2729 LP  0  0  0  0  0  0  0  0  0  0  0  0  # atno 17343 bound_to 10162
  156.4395  130.3988  149.6706 LP  0  0  0  0  0  0  0  0  0  0  0  0  # atno 17370 bound_to 10713
  156.3895  130.7620  151.2620 LP  0  0  0  0  0  0  0  0  0  0  0  0  # atno 17371 bound_to 10713
  139.9327  134.7933  156.0886 LP  0  0  0  0  0  0  0  0  0  0  0  0  # atno 17394 bound_to 11000
  141.1010  133.6677  156.2754 LP  0  0  0  0  0  0  0  0  0  0  0  0  # atno 17395 bound_to 11000

$$$$
