AV-unprocessed.smi:79|AV-procd|sdf|779|dock10
  -GOLD-   2262017143D 1   1.00000     0.00000
 Structure written by MMmdl.
 56 59  0  0  0  0  0  0  0  0  2 V2000
  143.2843  132.7346  150.9512 C   0  0  0  0  0  0  0  0  0  0  0  0
  144.4685  133.2706  150.1360 C   0  0  2  0  0  0  0  0  0  0  0  0
  143.9600  133.7855  148.9215 O   0  0  0  0  0  0  0  0  0  0  0  0
  145.5001  132.1648  149.8335 C   0  0  0  0  0  0  0  0  0  0  0  0
  146.4779  131.9677  150.9342 N   0  3  1  0  0  0  0  0  0  0  0  0
  146.7794  133.2121  151.6865 C   0  0  0  0  0  0  0  0  0  0  0  0
  147.8575  132.9601  152.7505 C   0  0  0  0  0  0  0  0  0  0  0  0
  147.4879  131.8508  153.6239 N   0  0  0  0  0  0  0  0  0  0  0  0
  148.3510  131.7338  154.6576 C   0  0  0  0  0  0  0  0  0  0  0  0
  148.2831  132.6765  155.6286 N   0  0  0  0  0  0  0  0  0  0  0  0
  149.1089  132.6134  156.6779 C   0  0  0  0  0  0  0  0  0  0  0  0
  150.0580  131.7119  156.9404 N   0  0  0  0  0  0  0  0  0  0  0  0
  150.1301  130.7653  155.9611 C   0  0  0  0  0  0  0  0  0  0  0  0
  149.3209  130.7007  154.7927 C   0  0  0  0  0  0  0  0  0  0  0  0
  149.6838  129.6019  154.0236 N   0  0  0  0  0  0  0  0  0  0  0  0
  150.6537  129.0484  154.6995 C   0  0  0  0  0  0  0  0  0  0  0  0
  150.9813  129.6767  155.8803 N   0  0  0  0  0  0  0  0  0  0  0  0
  152.0174  129.2805  156.8219 C   0  0  0  0  0  0  0  0  0  0  0  0
  153.2366  130.2239  156.8404 C   0  0  0  0  0  0  0  0  0  0  0  0
  152.8407  131.6127  157.3722 C   0  0  0  0  0  0  0  0  0  0  0  0
  152.2363  131.5279  158.6468 O   0  0  0  0  0  0  0  0  0  0  0  0
  154.5168  129.6496  157.4643 C   0  0  0  0  0  0  0  0  0  0  0  0
  155.3054  129.9912  156.3054 O   0  0  0  0  0  0  0  0  0  0  0  0
  154.0912  130.2396  155.5656 C   0  0  0  0  0  0  0  0  0  0  0  0
  147.1563  130.6033  152.9258 C   0  0  1  0  0  0  0  0  0  0  0  0
  146.6818  129.4910  153.8831 C   0  0  0  0  0  0  0  0  0  0  0  0
  146.0822  130.8677  151.8492 C   0  0  0  0  0  0  0  0  0  0  0  0
  143.6168  132.3438  151.9132 H   0  0  0  0  0  0  0  0  0  0  0  0
  142.7694  131.9292  150.4262 H   0  0  0  0  0  0  0  0  0  0  0  0
  142.5556  133.5213  151.1505 H   0  0  0  0  0  0  0  0  0  0  0  0
  144.9226  134.0889  150.6936 H   0  0  0  0  0  0  0  0  0  0  0  0
  144.5763  134.4083  148.5683 H   0  0  0  0  0  0  0  0  0  0  0  0
  144.9967  131.2180  149.6314 H   0  0  0  0  0  0  0  0  0  0  0  0
  146.0264  132.4279  148.9144 H   0  0  0  0  0  0  0  0  0  0  0  0
  147.1226  133.9965  151.0134 H   0  0  0  0  0  0  0  0  0  0  0  0
  145.8685  133.5791  152.1622 H   0  0  0  0  0  0  0  0  0  0  0  0
  148.8076  132.7393  152.2617 H   0  0  0  0  0  0  0  0  0  0  0  0
  148.0069  133.8649  153.3421 H   0  0  0  0  0  0  0  0  0  0  0  0
  148.9928  133.3973  157.4120 H   0  0  0  0  0  0  0  0  0  0  0  0
  151.1608  128.1607  154.3502 H   0  0  0  0  0  0  0  0  0  0  0  0
  151.5601  129.2314  157.8110 H   0  0  0  0  0  0  0  0  0  0  0  0
  152.3216  128.2583  156.5947 H   0  0  0  0  0  0  0  0  0  0  0  0
  153.6974  132.2844  157.4265 H   0  0  0  0  0  0  0  0  0  0  0  0
  152.1268  132.0895  156.6994 H   0  0  0  0  0  0  0  0  0  0  0  0
  152.2102  130.6196  158.9073 H   0  0  0  0  0  0  0  0  0  0  0  0
  154.8454  130.1694  158.3651 H   0  0  0  0  0  0  0  0  0  0  0  0
  154.4910  128.5710  157.6254 H   0  0  0  0  0  0  0  0  0  0  0  0
  153.8672  129.4283  154.8712 H   0  0  0  0  0  0  0  0  0  0  0  0
  154.1043  131.2001  155.0494 H   0  0  0  0  0  0  0  0  0  0  0  0
  148.0547  130.2519  152.4169 H   0  0  0  0  0  0  0  0  0  0  0  0
  146.3983  128.5950  153.3301 H   0  0  0  0  0  0  0  0  0  0  0  0
  145.8144  129.8106  154.4618 H   0  0  0  0  0  0  0  0  0  0  0  0
  147.4617  129.1959  154.5857 H   0  0  0  0  0  0  0  0  0  0  0  0
  145.1312  131.1214  152.3213 H   0  0  0  0  0  0  0  0  0  0  0  0
  145.9171  129.9560  151.2732 H   0  0  0  0  0  0  0  0  0  0  0  0
  147.3390  131.6690  150.4998 H   0  0  0  0  0  0  0  0  0  0  0  0
  1  2  1  0  0  0  0
  1 28  1  0  0  0  0
  1 29  1  0  0  0  0
  1 30  1  0  0  0  0
  2  3  1  0  0  0  0
  2  4  1  0  0  0  0
  2 31  1  0  0  0  0
  3 32  1  0  0  0  0
  4  5  1  0  0  0  0
  4 33  1  0  0  0  0
  4 34  1  0  0  0  0
  5 27  1  0  0  0  0
  5  6  1  0  0  0  0
  5 56  1  0  0  0  0
  6  7  1  0  0  0  0
  6 35  1  0  0  0  0
  6 36  1  0  0  0  0
  7  8  1  0  0  0  0
  7 37  1  0  0  0  0
  7 38  1  0  0  0  0
  8  9  1  0  0  0  0
  8 25  1  0  0  0  0
  9 14  1  0  0  0  0
  9 10  2  0  0  0  0
 10 11  1  0  0  0  0
 11 12  2  0  0  0  0
 11 39  1  0  0  0  0
 12 13  1  0  0  0  0
 13 17  1  0  0  0  0
 13 14  2  0  0  0  0
 14 15  1  0  0  0  0
 15 16  2  0  0  0  0
 16 17  1  0  0  0  0
 16 40  1  0  0  0  0
 17 18  1  0  0  0  0
 18 19  1  0  0  0  0
 18 41  1  0  0  0  0
 18 42  1  0  0  0  0
 19 24  1  0  0  0  0
 19 20  1  0  0  0  0
 19 22  1  0  0  0  0
 20 21  1  0  0  0  0
 20 43  1  0  0  0  0
 20 44  1  0  0  0  0
 21 45  1  0  0  0  0
 22 23  1  0  0  0  0
 22 46  1  0  0  0  0
 22 47  1  0  0  0  0
 23 24  1  0  0  0  0
 24 48  1  0  0  0  0
 24 49  1  0  0  0  0
 25 26  1  0  0  0  0
 25 27  1  0  0  0  0
 25 50  1  0  0  0  0
 26 51  1  0  0  0  0
 26 52  1  0  0  0  0
 26 53  1  0  0  0  0
 27 54  1  0  0  0  0
 27 55  1  0  0  0  0
M  CHG  1   5   1
M  END
> <s_m_source_file>
AV-unprocessed.smi

> <i_m_source_file_index>
79

> <i_lp_mmshare_version>
43012

> <i_f3d_flags>
0

> <s_epik_input>
W0NIM11bQ0BIXShbT0hdKVtDSDJdTjFbQ0gyXVtDSDJdTihbQ0BASF0oW0NIM10pW0NIMl0xKWMobltjSF1uMiljKGMyMyluW2NIXW4zW0NIMl1DNChbQ0gyXVtPSF0pW0NIMl1PW0NIMl00

> <s_epik_cmdline>
J2VwaWtfcHl0aG9uJywgJy1waCcsICc3LjAnLCAnLXRuJywgJzgnLCAnLW1hJywgJzIwMCcsICctbWV0YWxfYmluZGluZycsICctaW1hZScsICc8aW5maWxlLm1hZT4nLCAnLW9tYWUnLCAnPG91dGZpbGUubWFlPic=

> <r_lp_tautomer_probability>
1

> <r_epik_Ionization_Penalty>
0.00515943

> <r_epik_Ionization_Penalty_Charging>
0.00509693

> <r_epik_Ionization_Penalty_Neutral>
6.25007e-05

> <r_epik_State_Penalty>
-0

> <r_epik_Charging_Adjusted_Penalty>
0.00509693

> <i_epik_Tot_Q>
1

> <i_epik_Tot_abs_Q>
1

> <r_epik_Metal_State_Penalty>
-0

> <b_epik_Metal_Only>
0

> <s_lp_Force_Field>
OPLS_2005

> <r_lp_Energy>
50.7064

> <b_lp_Chiralities_Consistent>
1

> <s_lp_Variant>
AV-unprocessed.smi:79-3

> <Gold.Version>
5.8.1

> <Gold.Id.Protein>
6NUR|6NUR_protein|mol2

> <Gold.PLP.Fitness>
49.2173

> <Gold.PLP.PLP>
-39.8921

> <Gold.PLP.part.hbond>
-4.0000

> <Gold.PLP.part.metal>
0.0000

> <Gold.PLP.part.buried>
-3.0613

> <Gold.PLP.part.nonpolar>
-32.6932

> <Gold.PLP.part.repulsive>
0.2826

> <Gold.PLP.ligand.clash>
0.0000

> <Gold.PLP.ligand.torsion>
1.4857

> <Gold.PLP.Chemscore.Hbond>
3.0000

> <Gold.PLP.Chemscore.CHOScore>
0.9238

> <Gold.PLP.Chemscore.Metal>
0.0000

> <Gold.Chemscore.Hbonds>
donor molecule, donor type, donor heavy atom, donor atom, acceptor molecule, acceptor atom, score
      L1  H     3    32       P1  7921  1.00
      L1  H     5    56       P1 10747  1.00
      P1  H  6896  6909       L1    21  1.00
      L1  C    16    40       P1 10737  0.30

> <Gold.PLP.Chemscore.Internal.Correction>
0.5252

> <Gold.Rescore>
     Score         DG    S(hbond)    S(metal)    S(lipo)     H(rot)  DE(clash)    DE(int)     intcor
     11.99     -16.18       2.98        0.00      87.90       3.72       0.03       4.17       ----

> <Gold.Chemscore.Fitness>
11.9853

> <Gold.Chemscore.DG>
-16.1844

> <Gold.Chemscore.ZeroCoef>
-5.4800

> <Gold.Chemscore.Hbond>
2.9791

> <Gold.Chemscore.Metal>
0.0000

> <Gold.Chemscore.Lipo>
87.8982

> <Gold.Chemscore.Internal_Hbond>
0.0000

> <Gold.Chemscore.DEClash>
0.0280

> <Gold.Chemscore.DEInternal>
4.1711

> <Gold.Chemscore.Rot>
3.7226

> <Gold.Chemscore.Internal.Correction>
   9.000000E+99

> <Gold.Chemscore.Hbonds>
donor molecule, donor type, donor heavy atom, donor atom, acceptor molecule, acceptor atom, score
      L1  H     3    32       P1  7921  0.95
      L1  H     5    56       P1 10747  1.00
      P1  H  6896  6909       L1    21  0.78

> <Gold.Chemscore.Hbond.Weighted>
-9.9501

> <Gold.Chemscore.Metal.Weighted>
-0.0000

> <Gold.Chemscore.Lipo.Weighted>
-10.2841

> <Gold.Chemscore.Internal_Hbond.Weighted>
0.0000

> <Gold.Chemscore.DEClash.Weighted>
0.0280

> <Gold.Chemscore.DEInternal.Weighted>
4.1711

> <Gold.Chemscore.Rot.Weighted>
9.5298

> <Gold.Chemscore.Internal.Correction.Weighted>
   9.000000E+99

> <Gold.Protein.RotatedTorsions>
[ 6907 6896 6895 6894 ] final  -75.16 input  -60.11 | X-H torsion
[ 7974 7965 7964 7962 ] final  148.68 input  175.53 | X-H torsion
[ 8008 7997 7996 7995 ] final   72.69 input   59.86 | X-H torsion
[ 10167 10162 10161 10158 ] final  -37.43 input  -65.29 | X-H torsion
[ 10718 10713 10712 10709 ] final -166.50 input   66.30 | X-H torsion
[ 10763 10752 10751 10750 ] final  -48.22 input  -60.55 | X-H torsion
[ 11005 11000 10999 10996 ] final  -65.59 input  -57.11 | X-H torsion

> <Gold.Protein.ActiveResidues>
 VAL166  LYS551  ARG553  GLY616  TRP617  ASP618  TYR619  PRO620  LYS621  CYS622 
 ASP623  PHE694  ASN695  SER759  ASP760  ASP761  ALA762  ILE779  LEU786  VAL792 
 PHE793  MET794  SER795  GLU796  ALA797  LYS798  CYS799  TRP800  GLU811  SER814 

> <Gold.Protein.RotatedAtoms>
  150.7068  134.4762  159.5448 H   0  0  0  0  0  0  0  0  0  0  0  0  # atno 6907 bound_to 6896
  152.2408  134.8227  160.0469 H   0  0  0  0  0  0  0  0  0  0  0  0  # atno 6908 bound_to 6896
  151.9009  133.3503  159.3867 H   0  0  0  0  0  0  0  0  0  0  0  0  # atno 6909 bound_to 6896
  144.8496  139.6184  143.5980 H   0  0  0  0  0  0  0  0  0  0  0  0  # atno 7974 bound_to 7965
  155.7726  140.3484  155.5255 H   0  0  0  0  0  0  0  0  0  0  0  0  # atno 8008 bound_to 7997
  155.8807  140.1001  157.1508 H   0  0  0  0  0  0  0  0  0  0  0  0  # atno 8009 bound_to 7997
  154.4024  140.1323  156.4180 H   0  0  0  0  0  0  0  0  0  0  0  0  # atno 8010 bound_to 7997
  140.7118  143.3342  151.2500 H   0  0  0  0  0  0  0  0  0  0  0  0  # atno 10167 bound_to 10162
  156.6687  130.9075  151.3040 H   0  0  0  0  0  0  0  0  0  0  0  0  # atno 10718 bound_to 10713
  154.0742  135.6600  153.4828 H   0  0  0  0  0  0  0  0  0  0  0  0  # atno 10763 bound_to 10752
  153.0379  135.5164  154.7537 H   0  0  0  0  0  0  0  0  0  0  0  0  # atno 10764 bound_to 10752
  154.6612  135.3015  154.9832 H   0  0  0  0  0  0  0  0  0  0  0  0  # atno 10765 bound_to 10752
  141.1459  133.6684  156.6010 H   0  0  0  0  0  0  0  0  0  0  0  0  # atno 11005 bound_to 11000
  146.2773  139.6786  142.9254 LP  0  0  0  0  0  0  0  0  0  0  0  0  # atno 17320 bound_to 7965
  145.4528  141.0429  143.2795 LP  0  0  0  0  0  0  0  0  0  0  0  0  # atno 17321 bound_to 7965
  139.6832  143.9818  152.2820 LP  0  0  0  0  0  0  0  0  0  0  0  0  # atno 17342 bound_to 10162
  139.9455  144.6654  150.8224 LP  0  0  0  0  0  0  0  0  0  0  0  0  # atno 17343 bound_to 10162
  157.7085  130.9412  150.1008 LP  0  0  0  0  0  0  0  0  0  0  0  0  # atno 17370 bound_to 10713
  156.1955  130.3657  149.8855 LP  0  0  0  0  0  0  0  0  0  0  0  0  # atno 17371 bound_to 10713
  140.3689  134.7623  157.4585 LP  0  0  0  0  0  0  0  0  0  0  0  0  # atno 17394 bound_to 11000
  140.0726  134.5841  155.8625 LP  0  0  0  0  0  0  0  0  0  0  0  0  # atno 17395 bound_to 11000

$$$$
