AV-unprocessed.smi:630|AV-procd|sdf|3119|dock8
  -GOLD-   22720 0 43D 1   1.00000     0.00000
 Structure written by MMmdl.
 37 38  0  0  0  0  0  0  0  0  1 V2000
  145.0624  133.7133  155.3400 N   0  0  0  0  0  0  0  0  0  0  0  0
  145.8696  134.2034  154.3951 C   0  0  0  0  0  0  0  0  0  0  0  0
  146.8833  134.8423  154.6742 O   0  0  0  0  0  0  0  0  0  0  0  0
  145.4903  133.9215  152.9262 C   0  0  2  0  0  0  0  0  0  0  0  0
  146.4502  132.8909  152.2821 C   0  0  0  0  0  0  0  0  0  0  0  0
  145.7184  131.9027  151.3547 C   0  0  0  0  0  0  0  0  0  0  0  0
  145.2434  132.4994  150.0200 C   0  0  0  0  0  0  0  0  0  0  0  0
  144.3534  133.7497  150.1420 C   0  0  0  0  0  0  0  0  0  0  0  0
  145.1449  135.0002  150.5614 C   0  0  0  0  0  0  0  0  0  0  0  0
  145.3066  135.2203  152.0845 C   0  0  2  0  0  0  0  0  0  0  0  0
  146.3845  136.1886  152.3062 N   0  0  0  0  0  0  0  0  0  0  0  0
  146.2320  137.4319  152.7847 C   0  0  0  0  0  0  0  0  0  0  0  0
  145.1403  137.9159  153.0838 O   0  0  0  0  0  0  0  0  0  0  0  0
  147.4144  138.0593  152.8887 N   0  0  0  0  0  0  0  0  0  0  0  0
  147.6588  139.3793  153.3413 C   0  0  0  0  0  0  0  0  0  0  0  0
  146.7432  140.3214  153.1079 N   0  0  0  0  0  0  0  0  0  0  0  0
  147.1288  141.5652  153.6162 C   0  0  0  0  0  0  0  0  0  0  0  0
  148.3525  141.5521  154.2384 C   0  0  0  0  0  0  0  0  0  0  0  0
  149.0769  139.9670  154.2135 S   0  0  0  0  0  0  0  0  0  0  0  0
  145.2732  133.8793  156.3135 H   0  0  0  0  0  0  0  0  0  0  0  0
  144.2434  133.1832  155.0799 H   0  0  0  0  0  0  0  0  0  0  0  0
  144.5101  133.4445  152.9785 H   0  0  0  0  0  0  0  0  0  0  0  0
  147.2586  133.3913  151.7479 H   0  0  0  0  0  0  0  0  0  0  0  0
  146.9374  132.2969  153.0572 H   0  0  0  0  0  0  0  0  0  0  0  0
  146.3886  131.0714  151.1338 H   0  0  0  0  0  0  0  0  0  0  0  0
  144.8715  131.4606  151.8810 H   0  0  0  0  0  0  0  0  0  0  0  0
  146.1082  132.7269  149.3955 H   0  0  0  0  0  0  0  0  0  0  0  0
  144.6900  131.7291  149.4818 H   0  0  0  0  0  0  0  0  0  0  0  0
  143.9229  133.9418  149.1587 H   0  0  0  0  0  0  0  0  0  0  0  0
  143.5063  133.5742  150.8057 H   0  0  0  0  0  0  0  0  0  0  0  0
  146.1232  134.9769  150.0786 H   0  0  0  0  0  0  0  0  0  0  0  0
  144.6472  135.8782  150.1474 H   0  0  0  0  0  0  0  0  0  0  0  0
  144.3774  135.6685  152.4429 H   0  0  0  0  0  0  0  0  0  0  0  0
  147.3206  135.8758  152.0930 H   0  0  0  0  0  0  0  0  0  0  0  0
  148.2313  137.5365  152.6088 H   0  0  0  0  0  0  0  0  0  0  0  0
  146.4686  142.4105  153.4899 H   0  0  0  0  0  0  0  0  0  0  0  0
  148.8699  142.3753  154.7081 H   0  0  0  0  0  0  0  0  0  0  0  0
  1  2  1  0  0  0  0
  1 20  1  0  0  0  0
  1 21  1  0  0  0  0
  2  3  2  0  0  0  0
  2  4  1  0  0  0  0
  4 10  1  0  0  0  0
  4  5  1  0  0  0  0
  4 22  1  0  0  0  0
  5  6  1  0  0  0  0
  5 23  1  0  0  0  0
  5 24  1  0  0  0  0
  6  7  1  0  0  0  0
  6 25  1  0  0  0  0
  6 26  1  0  0  0  0
  7  8  1  0  0  0  0
  7 27  1  0  0  0  0
  7 28  1  0  0  0  0
  8  9  1  0  0  0  0
  8 29  1  0  0  0  0
  8 30  1  0  0  0  0
  9 10  1  0  0  0  0
  9 31  1  0  0  0  0
  9 32  1  0  0  0  0
 10 11  1  0  0  0  0
 10 33  1  0  0  0  0
 11 12  1  0  0  0  0
 11 34  1  0  0  0  0
 12 13  2  0  0  0  0
 12 14  1  0  0  0  0
 14 15  1  0  0  0  0
 14 35  1  0  0  0  0
 15 19  1  0  0  0  0
 15 16  2  0  0  0  0
 16 17  1  0  0  0  0
 17 18  2  0  0  0  0
 17 36  1  0  0  0  0
 18 19  1  0  0  0  0
 18 37  1  0  0  0  0
M  END
> <s_m_source_file>
AV-unprocessed.smi

> <i_m_source_file_index>
630

> <i_lp_mmshare_version>
43012

> <i_f3d_flags>
0

> <s_epik_input>
W05IMl1DKD1PKVtDQEBIXTFbQ0gyXVtDSDJdW0NIMl1bQ0gyXVtDSDJdW0NASF0xW05IXUMoPU8pW05IXWMybltjSF1bY0hdczI=

> <s_epik_cmdline>
J2VwaWtfcHl0aG9uJywgJy1waCcsICc3LjAnLCAnLXRuJywgJzgnLCAnLW1hJywgJzIwMCcsICctbWV0YWxfYmluZGluZycsICctaW1hZScsICc8aW5maWxlLm1hZT4nLCAnLW9tYWUnLCAnPG91dGZpbGUubWFlPic=

> <r_lp_tautomer_probability>
0.999

> <r_epik_Ionization_Penalty>
0.000342689

> <r_epik_Ionization_Penalty_Charging>
0

> <r_epik_Ionization_Penalty_Neutral>
0.000342689

> <r_epik_State_Penalty>
0.000177984

> <r_epik_Charging_Adjusted_Penalty>
0.000177984

> <i_epik_Tot_Q>
0

> <i_epik_Tot_abs_Q>
0

> <r_epik_Metal_State_Penalty>
0.00743087

> <b_epik_Metal_Only>
0

> <s_lp_Force_Field>
OPLS_2005

> <r_lp_Energy>
11.6017

> <b_lp_Chiralities_Consistent>
1

> <s_lp_Variant>
AV-unprocessed.smi:630-3

> <Gold.Version>
5.8.1

> <Gold.Id.Protein>
6NUR|6NUR_protein|mol2

> <Gold.PLP.Fitness>
40.0182

> <Gold.PLP.PLP>
-28.7386

> <Gold.PLP.part.hbond>
-2.9847

> <Gold.PLP.part.metal>
0.0000

> <Gold.PLP.part.buried>
-2.9094

> <Gold.PLP.part.nonpolar>
-23.7705

> <Gold.PLP.part.repulsive>
1.0384

> <Gold.PLP.ligand.clash>
0.0000

> <Gold.PLP.ligand.torsion>
0.3767

> <Gold.PLP.Chemscore.Hbond>
2.9670

> <Gold.PLP.Chemscore.CHOScore>
1.0000

> <Gold.PLP.Chemscore.Metal>
0.0000

> <Gold.Chemscore.Hbonds>
donor molecule, donor type, donor heavy atom, donor atom, acceptor molecule, acceptor atom, score
      L1  H     1    21       P1 10957  0.75
      L1  H    11    34       P1  7948  1.00
      L1  H    14    35       P1  7948  1.00
      L1  C    18    37       P1  8028  1.00

> <Gold.PLP.Chemscore.Internal.Correction>
0.1320

> <Gold.Rescore>
     Score         DG    S(hbond)    S(metal)    S(lipo)     H(rot)  DE(clash)    DE(int)     intcor
     17.24     -18.84       2.93        0.00      63.78       1.52       0.03       1.56       ----

> <Gold.Chemscore.Fitness>
17.2409

> <Gold.Chemscore.DG>
-18.8365

> <Gold.Chemscore.ZeroCoef>
-5.4800

> <Gold.Chemscore.Hbond>
2.9285

> <Gold.Chemscore.Metal>
0.0000

> <Gold.Chemscore.Lipo>
63.7835

> <Gold.Chemscore.Internal_Hbond>
0.0000

> <Gold.Chemscore.DEClash>
0.0309

> <Gold.Chemscore.DEInternal>
1.5647

> <Gold.Chemscore.Rot>
1.5184

> <Gold.Chemscore.Internal.Correction>
   9.000000E+99

> <Gold.Chemscore.Hbonds>
donor molecule, donor type, donor heavy atom, donor atom, acceptor molecule, acceptor atom, score
      L1  H     1    21       P1 10957  0.73
      L1  H    11    34       P1  7948  0.94
      L1  H    14    35       P1  7948  0.96

> <Gold.Chemscore.Hbond.Weighted>
-9.7811

> <Gold.Chemscore.Metal.Weighted>
-0.0000

> <Gold.Chemscore.Lipo.Weighted>
-7.4627

> <Gold.Chemscore.Internal_Hbond.Weighted>
0.0000

> <Gold.Chemscore.DEClash.Weighted>
0.0309

> <Gold.Chemscore.DEInternal.Weighted>
1.5647

> <Gold.Chemscore.Rot.Weighted>
3.8872

> <Gold.Chemscore.Internal.Correction.Weighted>
   9.000000E+99

> <Gold.Protein.RotatedTorsions>
[ 6907 6896 6895 6894 ] final  118.39 input  -60.11 | X-H torsion
[ 7974 7965 7964 7962 ] final -149.10 input  175.53 | X-H torsion
[ 8008 7997 7996 7995 ] final -124.18 input   59.86 | X-H torsion
[ 10167 10162 10161 10158 ] final  142.87 input  -65.29 | X-H torsion
[ 10718 10713 10712 10709 ] final   69.83 input   66.30 | X-H torsion
[ 10763 10752 10751 10750 ] final   50.59 input  -60.55 | X-H torsion
[ 11005 11000 10999 10996 ] final   47.00 input  -57.11 | X-H torsion

> <Gold.Protein.ActiveResidues>
 VAL166  LYS551  ARG553  GLY616  TRP617  ASP618  TYR619  PRO620  LYS621  CYS622 
 ASP623  PHE694  ASN695  SER759  ASP760  ASP761  ALA762  ILE779  LEU786  VAL792 
 PHE793  MET794  SER795  GLU796  ALA797  LYS798  CYS799  TRP800  GLU811  SER814 

> <Gold.Protein.RotatedAtoms>
  152.4546  133.7698  159.6792 H   0  0  0  0  0  0  0  0  0  0  0  0  # atno 6907 bound_to 6896
  150.8468  133.7838  159.3046 H   0  0  0  0  0  0  0  0  0  0  0  0  # atno 6908 bound_to 6896
  151.5446  135.1071  159.9986 H   0  0  0  0  0  0  0  0  0  0  0  0  # atno 6909 bound_to 6896
  144.7988  140.5109  143.5721 H   0  0  0  0  0  0  0  0  0  0  0  0  # atno 7974 bound_to 7965
  155.1926  140.0413  157.2903 H   0  0  0  0  0  0  0  0  0  0  0  0  # atno 8008 bound_to 7997
  154.6128  140.2481  155.7619 H   0  0  0  0  0  0  0  0  0  0  0  0  # atno 8009 bound_to 7997
  156.2389  140.2911  156.0399 H   0  0  0  0  0  0  0  0  0  0  0  0  # atno 8010 bound_to 7997
  139.4983  144.6078  151.6339 H   0  0  0  0  0  0  0  0  0  0  0  0  # atno 10167 bound_to 10162
  157.6367  130.9446  150.0567 H   0  0  0  0  0  0  0  0  0  0  0  0  # atno 10718 bound_to 10713
  152.9784  135.5874  154.4276 H   0  0  0  0  0  0  0  0  0  0  0  0  # atno 10763 bound_to 10752
  154.3893  135.2767  155.2166 H   0  0  0  0  0  0  0  0  0  0  0  0  # atno 10764 bound_to 10752
  154.4045  135.6096  153.5971 H   0  0  0  0  0  0  0  0  0  0  0  0  # atno 10765 bound_to 10752
  140.1318  134.4695  155.8515 H   0  0  0  0  0  0  0  0  0  0  0  0  # atno 11005 bound_to 11000
  145.5605  139.1479  143.3344 LP  0  0  0  0  0  0  0  0  0  0  0  0  # atno 17320 bound_to 7965
  146.2264  140.5741  142.8994 LP  0  0  0  0  0  0  0  0  0  0  0  0  # atno 17321 bound_to 7965
  140.5745  144.0053  150.6234 LP  0  0  0  0  0  0  0  0  0  0  0  0  # atno 17342 bound_to 10162
  140.3181  143.3155  152.0812 LP  0  0  0  0  0  0  0  0  0  0  0  0  # atno 17343 bound_to 10162
  156.1612  130.3644  149.9296 LP  0  0  0  0  0  0  0  0  0  0  0  0  # atno 17370 bound_to 10713
  156.7294  130.9037  151.3624 LP  0  0  0  0  0  0  0  0  0  0  0  0  # atno 17371 bound_to 10713
  141.2171  133.6799  156.7084 LP  0  0  0  0  0  0  0  0  0  0  0  0  # atno 17394 bound_to 11000
  140.2832  134.8300  157.3952 LP  0  0  0  0  0  0  0  0  0  0  0  0  # atno 17395 bound_to 11000

$$$$
