#       Name:                AV-unprocessed.smi:1598
#       Creating user name   scv26
#       Creation time:       Fri Mar 27 07:05:59 2020


#       File generated by GOLD software.
#

@<TRIPOS>MOLECULE
AV-unprocessed.smi:1598
    47    47     1
SMALL
NO_CHARGES


@<TRIPOS>ATOM
      1 ****        -2.2220  -3.1975   1.9472 C.3            1 S1                 0.0000
      2 ****        -2.0861  -1.9656   1.2618 O.3            1 S1                 0.0000
      3 ****        -2.6492  -0.8779   1.9794 C.3            1 S1                 0.0000
      4 ****        -2.4394   0.4305   1.1965 C.3            1 S1                 0.0000
      5 ****        -3.1752   0.4290  -0.1505 C.3            1 S1                 0.0000
      6 ****        -1.0174   0.6693   0.9769 N.am           1 S1                 0.0000
      7 ****        -0.1648   1.2245   1.8548 C.2            1 S1                 0.0000
      8 ****        -0.5168   1.6301   2.9617 O.2            1 S1                 0.0000
      9 ****         1.3185   1.3355   1.4529 C.3            1 S1                 0.0000
     10 ****         1.6382   0.8623   0.0799 N.am           1 S1                 0.0000
     11 ****         2.1309  -0.4656  -0.1227 C.2            1 S1                 0.0000
     12 ****         2.2993  -1.4018   1.0831 C.3            1 S1                 0.0000
     13 ****         2.5927  -2.6428   0.6920 F              1 S1                 0.0000
     14 ****         3.3021  -0.9953   1.8622 F              1 S1                 0.0000
     15 ****         1.1855  -1.4879   1.8098 F              1 S1                 0.0000
     16 ****         2.4151  -0.8909  -1.3675 C.2            1 S1                 0.0000
     17 ****         2.2326  -0.0140  -2.4910 C.2            1 S1                 0.0000
     18 ****         1.7671   1.2438  -2.3174 C.2            1 S1                 0.0000
     19 ****         1.5596   2.1824  -3.4440 C.2            1 S1                 0.0000
     20 ****         1.8271   1.6636  -4.6490 N.am           1 S1                 0.0000
     21 ****         1.1762   3.3501  -3.3750 O.2            1 S1                 0.0000
     22 ****         1.4374   1.7454  -0.9584 C.2            1 S1                 0.0000
     23 ****         0.9967   2.8762  -0.7314 O.2            1 S1                 0.0000
     24 ****        -1.7660  -3.9948   1.3605 H              1 S1                 0.0000
     25 ****        -3.2722  -3.4492   2.1000 H              1 S1                 0.0000
     26 ****        -1.7241  -3.1663   2.9172 H              1 S1                 0.0000
     27 ****        -3.7146  -1.0493   2.1413 H              1 S1                 0.0000
     28 ****        -2.1839  -0.8028   2.9636 H              1 S1                 0.0000
     29 ****        -2.8468   1.2521   1.7880 H              1 S1                 0.0000
     30 ****        -4.2448   0.2698  -0.0122 H              1 S1                 0.0000
     31 ****        -2.8040  -0.3576  -0.8082 H              1 S1                 0.0000
     32 ****        -3.0478   1.3810  -0.6670 H              1 S1                 0.0000
     33 ****        -0.6431   0.3586   0.0922 H              1 S1                 0.0000
     34 ****         1.6182   2.3776   1.5778 H              1 S1                 0.0000
     35 ****         1.9087   0.8333   2.2134 H              1 S1                 0.0000
     36 ****         2.7806  -1.8913  -1.5449 H              1 S1                 0.0000
     37 ****         2.4819  -0.4049  -3.4663 H              1 S1                 0.0000
     38 ****         1.7183   2.2277  -5.4792 H              1 S1                 0.0000
     39 ****         2.1407   0.7066  -4.7213 H              1 S1                 0.0000
     40 ****        -2.5466  -2.0386   0.3771 LP             1 S1                 0.0000
     41 ****        -1.1133  -1.7849   1.1173 LP             1 S1                 0.0000
     42 ****        -1.4739   1.5534   3.2412 LP             1 S1                 0.0000
     43 ****         0.1541   2.0365   3.5819 LP             1 S1                 0.0000
     44 ****         0.9690   3.7566  -2.4852 LP             1 S1                 0.0000
     45 ****         1.0719   3.8922  -4.2088 LP             1 S1                 0.0000
     46 ****         0.7853   3.1515   0.2064 LP             1 S1                 0.0000
     47 ****         0.8511   3.5168  -1.4854 LP             1 S1                 0.0000
@<TRIPOS>BOND
    1    1    2 1     
    2    1   24 1     
    3    1   25 1     
    4    1   26 1     
    5    2    3 1     
    6    3    4 1     
    7    3   27 1     
    8    3   28 1     
    9    4    5 1     
   10    4    6 1     
   11    4   29 1     
   12    5   30 1     
   13    5   31 1     
   14    5   32 1     
   15    6    7 am    
   16    6   33 1     
   17    7    8 2     
   18    7    9 1     
   19    9   10 1     
   20    9   34 1     
   21    9   35 1     
   22   10   22 am    
   23   10   11 1     
   24   11   12 1     
   25   11   16 2     
   26   12   13 1     
   27   12   14 1     
   28   12   15 1     
   29   16   17 1     
   30   16   36 1     
   31   17   18 2     
   32   17   37 1     
   33   18   19 1     
   34   18   22 1     
   35   19   20 am    
   36   19   21 2     
   37   20   38 1     
   38   20   39 1     
   39   22   23 2     
   40    2   40 1     
   41    2   41 1     
   42    8   42 1     
   43    8   43 1     
   44   21   44 1     
   45   21   45 1     
   46   23   46 1     
   47   23   47 1     
@<TRIPOS>SUBSTRUCTURE
      1 S1             1
@<TRIPOS>SET
LONE_PAIRS      STATIC     ATOMS    <user>   **** ""
8 40 41 42 43 44 45 46 47
DONOR_HYDROGENS      STATIC     ATOMS    <user>   **** ""
3 33 38 39
ATOM$BLUE        STATIC     ATOMS    COLORGROUP SYSTEM
8 40 41 42 43 44 45 46 47
ATOM$RED        STATIC     ATOMS    COLORGROUP SYSTEM
3 33 38 39
