#       Name:                AV-unprocessed.smi:1308
#       Creating user name   scv26
#       Creation time:       Fri Mar 27 05:00:51 2020


#       File generated by GOLD software.
#

@<TRIPOS>MOLECULE
AV-unprocessed.smi:1308
    50    50     1
SMALL
NO_CHARGES


@<TRIPOS>ATOM
      1 ****        -5.0693   3.9245  -1.1073 C.3            1 S1                 0.0000
      2 ****        -4.1770   2.7178  -1.3009 C.2            1 S1                 0.0000
      3 ****        -3.6225   2.2413  -0.1244 N.pl3          1 S1                 0.0000
      4 ****        -2.7964   1.1336  -0.1999 C.2            1 S1                 0.0000
      5 ****        -2.2310   0.6753   1.1335 C.3            1 S1                 0.0000
      6 ****        -2.5327   0.5341  -1.3889 C.2            1 S1                 0.0000
      7 ****        -1.6263  -0.6901  -1.5153 C.3            1 S1                 0.0000
      8 ****        -0.1193  -0.4212  -1.5219 C.2            1 S1                 0.0000
      9 ****         0.3109   0.7311  -1.5745 O.2            1 S1                 0.0000
     10 ****         0.6671  -1.5087  -1.4544 N.am           1 S1                 0.0000
     11 ****         2.1305  -1.5465  -1.3909 C.3            1 S1                 0.0000
     12 ****         2.7713  -0.9909  -2.6752 C.3            1 S1                 0.0000
     13 ****         2.6934  -0.8789  -0.1157 C.3            1 S1                 0.0000
     14 ****         2.1384  -1.4705   1.1958 C.3            1 S1                 0.0000
     15 ****         2.7001  -0.8112   2.4719 C.3            1 S1                 0.0000
     16 ****         4.1901  -1.1247   2.6900 C.3            1 S1                 0.0000
     17 ****         1.8823  -1.2296   3.7035 C.3            1 S1                 0.0000
     18 ****        -3.1461   1.0966  -2.6151 C.2            1 S1                 0.0000
     19 ****        -2.9316   0.6095  -3.7244 O.2            1 S1                 0.0000
     20 ****        -3.9840   2.2158  -2.4827 N.2            1 S1                 0.0000
     21 ****        -3.7911   2.6577   0.7799 H              1 S1                 0.0000
     22 ****        -5.4576   4.2803  -2.0624 H              1 S1                 0.0000
     23 ****        -4.5130   4.7387  -0.6420 H              1 S1                 0.0000
     24 ****        -5.9162   3.6724  -0.4683 H              1 S1                 0.0000
     25 ****        -1.1410   0.6814   1.1096 H              1 S1                 0.0000
     26 ****        -2.5656  -0.3365   1.3624 H              1 S1                 0.0000
     27 ****        -2.5498   1.3252   1.9495 H              1 S1                 0.0000
     28 ****        -1.8790  -1.2646  -2.4070 H              1 S1                 0.0000
     29 ****        -1.8419  -1.3607  -0.6829 H              1 S1                 0.0000
     30 ****         0.2031  -2.4048  -1.4196 H              1 S1                 0.0000
     31 ****         2.3887  -2.6049  -1.3426 H              1 S1                 0.0000
     32 ****         3.8493  -1.1538  -2.6721 H              1 S1                 0.0000
     33 ****         2.6048   0.0811  -2.7827 H              1 S1                 0.0000
     34 ****         2.3684  -1.4823  -3.5613 H              1 S1                 0.0000
     35 ****         3.7777  -0.9857  -0.1299 H              1 S1                 0.0000
     36 ****         2.5015   0.1942  -0.1391 H              1 S1                 0.0000
     37 ****         1.0541  -1.3547   1.1993 H              1 S1                 0.0000
     38 ****         2.3256  -2.5447   1.2239 H              1 S1                 0.0000
     39 ****         2.5956   0.2698   2.3692 H              1 S1                 0.0000
     40 ****         4.3630  -2.1992   2.7574 H              1 S1                 0.0000
     41 ****         4.5531  -0.6729   3.6135 H              1 S1                 0.0000
     42 ****         4.8086  -0.7366   1.8812 H              1 S1                 0.0000
     43 ****         1.9304  -2.3072   3.8639 H              1 S1                 0.0000
     44 ****         0.8326  -0.9557   3.5927 H              1 S1                 0.0000
     45 ****         2.2527  -0.7423   4.6059 H              1 S1                 0.0000
     46 ****        -0.3258   1.5012  -1.6134 LP             1 S1                 0.0000
     47 ****         1.2970   0.8969  -1.5784 LP             1 S1                 0.0000
     48 ****        -2.3310  -0.1850  -3.8140 LP             1 S1                 0.0000
     49 ****        -3.3580   1.0080  -4.5365 LP             1 S1                 0.0000
     50 ****        -4.4245   2.6191  -3.2848 LP             1 S1                 0.0000
@<TRIPOS>BOND
    1    1   22 1     
    2    1   23 1     
    3    1   24 1     
    4    1    2 1     
    5    2    3 1     
    6    2   20 2     
    7    3    4 1     
    8    3   21 1     
    9    4    6 2     
   10    4    5 1     
   11    5   25 1     
   12    5   26 1     
   13    5   27 1     
   14    6   18 1     
   15    6    7 1     
   16    7    8 1     
   17    7   28 1     
   18    7   29 1     
   19    8    9 2     
   20    8   10 am    
   21   10   11 1     
   22   10   30 1     
   23   11   12 1     
   24   11   13 1     
   25   11   31 1     
   26   12   32 1     
   27   12   33 1     
   28   12   34 1     
   29   13   14 1     
   30   13   35 1     
   31   13   36 1     
   32   14   15 1     
   33   14   37 1     
   34   14   38 1     
   35   15   16 1     
   36   15   17 1     
   37   15   39 1     
   38   16   40 1     
   39   16   41 1     
   40   16   42 1     
   41   17   43 1     
   42   17   44 1     
   43   17   45 1     
   44   18   19 2     
   45   18   20 1     
   46    9   46 1     
   47    9   47 1     
   48   19   48 1     
   49   19   49 1     
   50   20   50 1     
@<TRIPOS>SUBSTRUCTURE
      1 S1             1
@<TRIPOS>SET
LONE_PAIRS      STATIC     ATOMS    <user>   **** ""
5 46 47 48 49 50
DONOR_HYDROGENS      STATIC     ATOMS    <user>   **** ""
2 21 30
ATOM$BLUE        STATIC     ATOMS    COLORGROUP SYSTEM
5 46 47 48 49 50
ATOM$RED        STATIC     ATOMS    COLORGROUP SYSTEM
2 21 30
