AV-unprocessed.smi:2198|AV-procd|sdf|8922|dock1
  -GOLD-   2272012133D 1   1.00000     0.00000
 Structure written by MMmdl.
 42 43  0  0  0  0  0  0  0  0  2 V2000
  150.7772  135.2135  154.1818 C   0  0  0  0  0  0  0  0  0  0  0  0
  150.6826  136.4354  155.0705 C   0  0  0  0  0  0  0  0  0  0  0  0
  150.4175  136.2862  156.3121 N   0  0  0  0  0  0  0  0  0  0  0  0
  150.3247  137.4173  157.1407 C   0  0  0  0  0  0  0  0  0  0  0  0
  150.0000  137.1430  158.5989 C   0  0  0  0  0  0  0  0  0  0  0  0
  150.5169  138.6737  156.6449 C   0  0  0  0  0  0  0  0  0  0  0  0
  150.4194  139.9355  157.5015 C   0  0  0  0  0  0  0  0  0  0  0  0
  151.7108  140.7456  157.6234 C   0  0  0  0  0  0  0  0  0  0  0  0
  152.7539  140.3223  157.1260 O   0  0  0  0  0  0  0  0  0  0  0  0
  151.6276  141.9081  158.2887 N   0  0  0  0  0  0  0  0  0  0  0  0
  152.7344  142.8320  158.5286 C   0  0  1  0  0  0  0  0  0  0  0  0
  152.2223  144.2340  158.9211 C   0  0  0  0  0  0  0  0  0  0  0  0
  151.5872  144.2456  160.3216 C   0  0  0  0  0  0  0  0  0  0  0  0
  152.5571  143.6953  161.3786 C   0  0  0  0  0  0  0  0  0  0  0  0
  153.0453  142.2793  161.0178 C   0  0  2  0  0  0  0  0  0  0  0  0
  154.0187  141.7369  162.0741 C   0  0  0  0  0  0  0  0  0  0  0  0
  153.6773  142.2660  159.6094 C   0  0  0  0  0  0  0  0  0  0  0  0
  150.8287  138.8015  155.2095 C   0  0  0  0  0  0  0  0  0  0  0  0
  151.0269  139.9094  154.7123 O   0  0  0  0  0  0  0  0  0  0  0  0
  150.8900  137.6570  154.4707 N   0  5  0  0  0  0  0  0  0  0  0  0
  150.7836  134.2971  154.7732 H   0  0  0  0  0  0  0  0  0  0  0  0
  151.6928  135.2423  153.5899 H   0  0  0  0  0  0  0  0  0  0  0  0
  149.9264  135.1771  153.5011 H   0  0  0  0  0  0  0  0  0  0  0  0
  149.0853  137.6574  158.8939 H   0  0  0  0  0  0  0  0  0  0  0  0
  150.8135  137.4784  159.2420 H   0  0  0  0  0  0  0  0  0  0  0  0
  149.8538  136.0769  158.7765 H   0  0  0  0  0  0  0  0  0  0  0  0
  149.6380  140.5979  157.1281 H   0  0  0  0  0  0  0  0  0  0  0  0
  150.0771  139.6517  158.4970 H   0  0  0  0  0  0  0  0  0  0  0  0
  150.7278  142.1725  158.6626 H   0  0  0  0  0  0  0  0  0  0  0  0
  153.3066  142.9187  157.6032 H   0  0  0  0  0  0  0  0  0  0  0  0
  153.0577  144.9349  158.9048 H   0  0  0  0  0  0  0  0  0  0  0  0
  151.5077  144.6014  158.1836 H   0  0  0  0  0  0  0  0  0  0  0  0
  151.2902  145.2613  160.5843 H   0  0  0  0  0  0  0  0  0  0  0  0
  150.6734  143.6502  160.3173 H   0  0  0  0  0  0  0  0  0  0  0  0
  153.4113  144.3676  161.4714 H   0  0  0  0  0  0  0  0  0  0  0  0
  152.0664  143.6840  162.3525 H   0  0  0  0  0  0  0  0  0  0  0  0
  152.1775  141.6183  161.0076 H   0  0  0  0  0  0  0  0  0  0  0  0
  154.9138  142.3559  162.1441 H   0  0  0  0  0  0  0  0  0  0  0  0
  154.3340  140.7214  161.8334 H   0  0  0  0  0  0  0  0  0  0  0  0
  153.5536  141.7116  163.0600 H   0  0  0  0  0  0  0  0  0  0  0  0
  153.9791  141.2521  159.3427 H   0  0  0  0  0  0  0  0  0  0  0  0
  154.5932  142.8586  159.6230 H   0  0  0  0  0  0  0  0  0  0  0  0
  1  2  1  0  0  0  0
  1 21  1  0  0  0  0
  1 22  1  0  0  0  0
  1 23  1  0  0  0  0
  2 20  1  0  0  0  0
  2  3  2  0  0  0  0
  3  4  1  0  0  0  0
  4  5  1  0  0  0  0
  4  6  2  0  0  0  0
  5 24  1  0  0  0  0
  5 25  1  0  0  0  0
  5 26  1  0  0  0  0
  6  7  1  0  0  0  0
  6 18  1  0  0  0  0
  7  8  1  0  0  0  0
  7 27  1  0  0  0  0
  7 28  1  0  0  0  0
  8  9  2  0  0  0  0
  8 10  1  0  0  0  0
 10 11  1  0  0  0  0
 10 29  1  0  0  0  0
 11 17  1  0  0  0  0
 11 12  1  0  0  0  0
 11 30  1  0  0  0  0
 12 13  1  0  0  0  0
 12 31  1  0  0  0  0
 12 32  1  0  0  0  0
 13 14  1  0  0  0  0
 13 33  1  0  0  0  0
 13 34  1  0  0  0  0
 14 15  1  0  0  0  0
 14 35  1  0  0  0  0
 14 36  1  0  0  0  0
 15 16  1  0  0  0  0
 15 17  1  0  0  0  0
 15 37  1  0  0  0  0
 16 38  1  0  0  0  0
 16 39  1  0  0  0  0
 16 40  1  0  0  0  0
 17 41  1  0  0  0  0
 17 42  1  0  0  0  0
 18 19  2  0  0  0  0
 18 20  1  0  0  0  0
M  CHG  1  20  -1
M  END
> <s_m_source_file>
AV-unprocessed.smi

> <i_m_source_file_index>
2198

> <i_lp_mmshare_version>
43012

> <i_f3d_flags>
0

> <s_epik_input>
W0NIM11jMW5jKFtDSDNdKWMoYyg9TylbbkhdMSlbQ0gyXUMoPU8pW05IXVtDQEBIXTJbQ0gyXVtDSDJdW0NIMl1bQ0BASF0oW0NIM10pW0NIMl0y

> <s_epik_cmdline>
J2VwaWtfcHl0aG9uJywgJy1waCcsICc3LjAnLCAnLXRuJywgJzgnLCAnLW1hJywgJzIwMCcsICctbWV0YWxfYmluZGluZycsICctaW1hZScsICc8aW5maWxlLm1hZT4nLCAnLW9tYWUnLCAnPG91dGZpbGUubWFlPic=

> <r_lp_tautomer_probability>
0.839158

> <r_epik_Ionization_Penalty>
6.67193

> <r_epik_Ionization_Penalty_Charging>
7.66837e-08

> <r_epik_Ionization_Penalty_Neutral>
6.67193

> <r_epik_State_Penalty>
4.51643

> <r_epik_Charging_Adjusted_Penalty>
4.51643

> <i_epik_Tot_Q>
-1

> <i_epik_Tot_abs_Q>
1

> <r_epik_Metal_State_Penalty>
0.851582

> <b_epik_Metal_Only>
1

> <s_lp_Force_Field>
OPLS_2005

> <r_lp_Energy>
13.9181

> <b_lp_Chiralities_Consistent>
1

> <s_lp_Variant>
AV-unprocessed.smi:2198-12

> <Gold.Version>
5.8.1

> <Gold.Id.Protein>
6NUR|6NUR_protein|mol2

> <Gold.PLP.Fitness>
46.2829

> <Gold.PLP.PLP>
-41.0852

> <Gold.PLP.part.hbond>
-2.0000

> <Gold.PLP.part.metal>
0.0000

> <Gold.PLP.part.buried>
-5.2791

> <Gold.PLP.part.nonpolar>
-33.2321

> <Gold.PLP.part.repulsive>
0.2663

> <Gold.PLP.ligand.clash>
0.0000

> <Gold.PLP.ligand.torsion>
0.2372

> <Gold.PLP.Chemscore.Hbond>
1.8882

> <Gold.PLP.Chemscore.CHOScore>
0.0000

> <Gold.PLP.Chemscore.Metal>
0.0000

> <Gold.Chemscore.Hbonds>
donor molecule, donor type, donor heavy atom, donor atom, acceptor molecule, acceptor atom, score
      P1  H  7989  7998       L1    19  1.00
      P1  H  7997  8009       L1     9  0.96

> <Gold.PLP.Chemscore.Internal.Correction>
0.0077

> <Gold.Rescore>
     Score         DG    S(hbond)    S(metal)    S(lipo)     H(rot)  DE(clash)    DE(int)     intcor
     19.32     -19.49       1.93        0.00      96.25       1.45       0.07       0.10       ----

> <Gold.Chemscore.Fitness>
19.3248

> <Gold.Chemscore.DG>
-19.4926

> <Gold.Chemscore.ZeroCoef>
-5.4800

> <Gold.Chemscore.Hbond>
1.9312

> <Gold.Chemscore.Metal>
0.0000

> <Gold.Chemscore.Lipo>
96.2528

> <Gold.Chemscore.Internal_Hbond>
0.0000

> <Gold.Chemscore.DEClash>
0.0665

> <Gold.Chemscore.DEInternal>
0.1013

> <Gold.Chemscore.Rot>
1.4450

> <Gold.Chemscore.Internal.Correction>
   9.000000E+99

> <Gold.Chemscore.Hbonds>
donor molecule, donor type, donor heavy atom, donor atom, acceptor molecule, acceptor atom, score
      P1  H  7989  7998       L1    19  1.00
      P1  H  7997  8009       L1     9  0.92

> <Gold.Chemscore.Hbond.Weighted>
-6.4503

> <Gold.Chemscore.Metal.Weighted>
-0.0000

> <Gold.Chemscore.Lipo.Weighted>
-11.2616

> <Gold.Chemscore.Internal_Hbond.Weighted>
0.0000

> <Gold.Chemscore.DEClash.Weighted>
0.0665

> <Gold.Chemscore.DEInternal.Weighted>
0.1013

> <Gold.Chemscore.Rot.Weighted>
3.6992

> <Gold.Chemscore.Internal.Correction.Weighted>
   9.000000E+99

> <Gold.Protein.RotatedTorsions>
[ 6907 6896 6895 6894 ] final  113.35 input  -60.11 | X-H torsion
[ 7974 7965 7964 7962 ] final  112.53 input  175.53 | X-H torsion
[ 8008 7997 7996 7995 ] final  179.05 input   59.86 | X-H torsion
[ 10167 10162 10161 10158 ] final -123.01 input  -65.29 | X-H torsion
[ 10718 10713 10712 10709 ] final -131.87 input   66.30 | X-H torsion
[ 10763 10752 10751 10750 ] final   57.24 input  -60.55 | X-H torsion
[ 11005 11000 10999 10996 ] final    1.56 input  -57.11 | X-H torsion

> <Gold.Protein.ActiveResidues>
 VAL166  LYS551  ARG553  GLY616  TRP617  ASP618  TYR619  PRO620  LYS621  CYS622 
 ASP623  PHE694  ASN695  SER759  ASP760  ASP761  ALA762  ILE779  LEU786  VAL792 
 PHE793  MET794  SER795  GLU796  ALA797  LYS798  CYS799  TRP800  GLU811  SER814 

> <Gold.Protein.RotatedAtoms>
  152.4865  133.8387  159.7141 H   0  0  0  0  0  0  0  0  0  0  0  0  # atno 6907 bound_to 6896
  150.8957  133.7175  159.2899 H   0  0  0  0  0  0  0  0  0  0  0  0  # atno 6908 bound_to 6896
  151.4633  135.1044  159.9783 H   0  0  0  0  0  0  0  0  0  0  0  0  # atno 6909 bound_to 6896
  145.2284  139.2830  143.4181 H   0  0  0  0  0  0  0  0  0  0  0  0  # atno 7974 bound_to 7965
  156.0478  140.1318  157.0084 H   0  0  0  0  0  0  0  0  0  0  0  0  # atno 8008 bound_to 7997
  154.4420  140.1017  156.6402 H   0  0  0  0  0  0  0  0  0  0  0  0  # atno 8009 bound_to 7997
  155.5570  140.3464  155.4484 H   0  0  0  0  0  0  0  0  0  0  0  0  # atno 8010 bound_to 7997
  140.0081  143.5470  152.2275 H   0  0  0  0  0  0  0  0  0  0  0  0  # atno 10167 bound_to 10162
  156.2288  130.7024  151.0835 H   0  0  0  0  0  0  0  0  0  0  0  0  # atno 10718 bound_to 10713
  152.9846  135.5648  154.5359 H   0  0  0  0  0  0  0  0  0  0  0  0  # atno 10763 bound_to 10752
  154.4822  135.2789  155.1564 H   0  0  0  0  0  0  0  0  0  0  0  0  # atno 10764 bound_to 10752
  154.3067  135.6296  153.5501 H   0  0  0  0  0  0  0  0  0  0  0  0  # atno 10765 bound_to 10752
  140.6140  133.9722  155.8191 H   0  0  0  0  0  0  0  0  0  0  0  0  # atno 11005 bound_to 11000
  146.3359  140.2612  142.8602 LP  0  0  0  0  0  0  0  0  0  0  0  0  # atno 17320 bound_to 7965
  144.9699  140.8359  143.5461 LP  0  0  0  0  0  0  0  0  0  0  0  0  # atno 17321 bound_to 7965
  139.6224  144.7631  151.2711 LP  0  0  0  0  0  0  0  0  0  0  0  0  # atno 17342 bound_to 10162
  140.7392  143.6624  150.8153 LP  0  0  0  0  0  0  0  0  0  0  0  0  # atno 17343 bound_to 10162
  157.7123  131.0728  150.6456 LP  0  0  0  0  0  0  0  0  0  0  0  0  # atno 17370 bound_to 10713
  156.6522  130.4488  149.5715 LP  0  0  0  0  0  0  0  0  0  0  0  0  # atno 17371 bound_to 10713
  141.0788  134.0094  157.3417 LP  0  0  0  0  0  0  0  0  0  0  0  0  # atno 17394 bound_to 11000
  139.9180  135.0198  156.7957 LP  0  0  0  0  0  0  0  0  0  0  0  0  # atno 17395 bound_to 11000

$$$$
