#       Name:                AV-unprocessed.smi:19
#       Creating user name   scv26
#       Creation time:       Thu Mar 26 15:27:00 2020


#       File generated by GOLD software.
#

@<TRIPOS>MOLECULE
AV-unprocessed.smi:19
    69    72     1
SMALL
NO_CHARGES


@<TRIPOS>ATOM
      1 ****        -4.9900  -2.8599  -1.4810 C.3            1 S1                 0.0000
      2 ****        -4.0946  -1.9739  -0.8279 O.3            1 S1                 0.0000
      3 ****        -4.4859  -0.6078  -0.8736 C.3            1 S1                 0.0000
      4 ****        -4.0924   0.0638  -2.2094 C.3            1 S1                 0.0000
      5 ****        -2.5703   0.2003  -2.4036 C.3            1 S1                 0.0000
      6 ****        -2.0354   1.2542  -1.5490 N.3            1 S1                 0.0000
      7 ****        -0.6868   1.2507  -1.4019 C.ar           1 S1                 0.0000
      8 ****         0.0451   2.3194  -1.8160 N.ar           1 S1                 0.0000
      9 ****         1.3745   2.3191  -1.6821 C.ar           1 S1                 0.0000
     10 ****         2.1603   1.3739  -1.1641 N.ar           1 S1                 0.0000
     11 ****         1.4324   0.3041  -0.7340 C.ar           1 S1                 0.0000
     12 ****         0.0185   0.1603  -0.8188 C.ar           1 S1                 0.0000
     13 ****        -0.3651  -1.0612  -0.2787 N.2            1 S1                 0.0000
     14 ****         0.7577  -1.6131   0.0905 C.2            1 S1                 0.0000
     15 ****         1.8867  -0.8549  -0.1271 N.pl3          1 S1                 0.0000
     16 ****         3.2595  -1.2249   0.1913 C.3            1 S1                 0.0000
     17 ****         3.7031  -0.9124   1.6521 C.3            1 S1                 0.0000
     18 ****         3.6210   0.6151   1.9350 C.3            1 S1                 0.0000
     19 ****         4.4697   1.3634   1.0878 O.3            1 S1                 0.0000
     20 ****         2.7975  -1.6725   2.6551 C.3            1 S1                 0.0000
     21 ****         3.3593  -1.6873   4.0893 C.3            1 S1                 0.0000
     22 ****         4.6760  -2.2221   4.0962 O.3            1 S1                 0.0000
     23 ****         5.5867  -1.4519   3.3228 C.3            1 S1                 0.0000
     24 ****         5.1440  -1.4487   1.8492 C.3            1 S1                 0.0000
     25 ****        -2.7111   2.5344  -1.7314 C.3            1 S1                 0.0000
     26 ****        -4.2250   2.3658  -1.5120 C.3            1 S1                 0.0000
     27 ****        -4.9940   3.6549  -1.8183 C.3            1 S1                 0.0000
     28 ****        -4.7211   1.3382  -2.3705 O.3            1 S1                 0.0000
     29 ****        -4.6288  -3.8826  -1.3728 H              1 S1                 0.0000
     30 ****        -5.0702  -2.6496  -2.5472 H              1 S1                 0.0000
     31 ****        -5.9858  -2.8107  -1.0387 H              1 S1                 0.0000
     32 ****        -5.5588  -0.5162  -0.6973 H              1 S1                 0.0000
     33 ****        -3.9961  -0.1040  -0.0404 H              1 S1                 0.0000
     34 ****        -4.4777  -0.5474  -3.0242 H              1 S1                 0.0000
     35 ****        -2.0871  -0.7591  -2.2220 H              1 S1                 0.0000
     36 ****        -2.3575   0.4620  -3.4411 H              1 S1                 0.0000
     37 ****         1.8811   3.2026  -2.0414 H              1 S1                 0.0000
     38 ****         0.7914  -2.5927   0.5448 H              1 S1                 0.0000
     39 ****         3.3634  -2.2918  -0.0104 H              1 S1                 0.0000
     40 ****         3.9200  -0.7288  -0.5208 H              1 S1                 0.0000
     41 ****         2.6008   0.9785   1.8103 H              1 S1                 0.0000
     42 ****         3.8974   0.8509   2.9612 H              1 S1                 0.0000
     43 ****         4.3484   2.2817   1.2757 H              1 S1                 0.0000
     44 ****         1.7949  -1.2443   2.6701 H              1 S1                 0.0000
     45 ****         2.6828  -2.7065   2.3271 H              1 S1                 0.0000
     46 ****         3.3549  -0.6919   4.5342 H              1 S1                 0.0000
     47 ****         2.7298  -2.3111   4.7242 H              1 S1                 0.0000
     48 ****         5.6647  -0.4400   3.7215 H              1 S1                 0.0000
     49 ****         6.5775  -1.8980   3.4096 H              1 S1                 0.0000
     50 ****         5.2014  -2.4745   1.4819 H              1 S1                 0.0000
     51 ****         5.8564  -0.8814   1.2494 H              1 S1                 0.0000
     52 ****        -2.3187   3.2711  -1.0290 H              1 S1                 0.0000
     53 ****        -2.5143   2.9054  -2.7383 H              1 S1                 0.0000
     54 ****        -4.4153   2.0984  -0.4723 H              1 S1                 0.0000
     55 ****        -4.6587   4.4724  -1.1794 H              1 S1                 0.0000
     56 ****        -6.0630   3.5201  -1.6515 H              1 S1                 0.0000
     57 ****        -4.8539   3.9610  -2.8554 H              1 S1                 0.0000
     58 ****        -3.1981  -2.0576  -1.2630 LP             1 S1                 0.0000
     59 ****        -4.0265  -2.2483   0.1314 LP             1 S1                 0.0000
     60 ****        -2.2909   1.0173  -0.6116 LP             1 S1                 0.0000
     61 ****        -0.4139   3.1093  -2.2226 LP             1 S1                 0.0000
     62 ****         3.1559   1.4412  -1.0994 LP             1 S1                 0.0000
     63 ****        -1.2898  -1.4321  -0.1927 LP             1 S1                 0.0000
     64 ****         4.2378   1.1813   0.1323 LP             1 S1                 0.0000
     65 ****         5.4222   1.1082   1.2542 LP             1 S1                 0.0000
     66 ****         4.6461  -3.1500   3.7245 LP             1 S1                 0.0000
     67 ****         5.0040  -2.2518   5.0404 LP             1 S1                 0.0000
     68 ****        -5.6984   1.2275  -2.1900 LP             1 S1                 0.0000
     69 ****        -4.5881   1.6328  -3.3168 LP             1 S1                 0.0000
@<TRIPOS>BOND
    1    1    2 1     
    2    1   29 1     
    3    1   30 1     
    4    1   31 1     
    5    2    3 1     
    6    3    4 1     
    7    3   32 1     
    8    3   33 1     
    9    4   28 1     
   10    4    5 1     
   11    4   34 1     
   12    5    6 1     
   13    5   35 1     
   14    5   36 1     
   15    6    7 1     
   16    6   25 1     
   17    7   12 ar    
   18    7    8 ar    
   19    8    9 ar    
   20    9   10 ar    
   21    9   37 1     
   22   10   11 ar    
   23   11   15 1     
   24   11   12 ar    
   25   12   13 1     
   26   13   14 2     
   27   14   15 1     
   28   14   38 1     
   29   15   16 1     
   30   16   17 1     
   31   16   39 1     
   32   16   40 1     
   33   17   24 1     
   34   17   18 1     
   35   17   20 1     
   36   18   19 1     
   37   18   41 1     
   38   18   42 1     
   39   19   43 1     
   40   20   21 1     
   41   20   44 1     
   42   20   45 1     
   43   21   22 1     
   44   21   46 1     
   45   21   47 1     
   46   22   23 1     
   47   23   24 1     
   48   23   48 1     
   49   23   49 1     
   50   24   50 1     
   51   24   51 1     
   52   25   26 1     
   53   25   52 1     
   54   25   53 1     
   55   26   27 1     
   56   26   28 1     
   57   26   54 1     
   58   27   55 1     
   59   27   56 1     
   60   27   57 1     
   61    2   58 1     
   62    2   59 1     
   63    6   60 1     
   64    8   61 1     
   65   10   62 1     
   66   13   63 1     
   67   19   64 1     
   68   19   65 1     
   69   22   66 1     
   70   22   67 1     
   71   28   68 1     
   72   28   69 1     
@<TRIPOS>SUBSTRUCTURE
      1 S1             1
@<TRIPOS>SET
LONE_PAIRS      STATIC     ATOMS    <user>   **** ""
12 58 59 60 61 62 63 64 65 66 67 68 69
DONOR_HYDROGENS      STATIC     ATOMS    <user>   **** ""
1 43
ATOM$BLUE        STATIC     ATOMS    COLORGROUP SYSTEM
12 58 59 60 61 62 63 64 65 66 67 68 69
ATOM$RED        STATIC     ATOMS    COLORGROUP SYSTEM
1 43
