#       Name:                AV-unprocessed.smi:35
#       Creating user name   scv26
#       Creation time:       Thu Mar 26 16:03:17 2020


#       File generated by GOLD software.
#

@<TRIPOS>MOLECULE
AV-unprocessed.smi:35
    41    42     1
SMALL
NO_CHARGES


@<TRIPOS>ATOM
      1 ****        -4.2163   2.9113   1.7246 O.2            1 S1                 0.0000
      2 ****        -3.3066   2.3601   1.1077 C.2            1 S1                 0.0000
      3 ****        -3.3778   2.0821  -0.2263 N.pl3          1 S1                -1.0000
      4 ****        -2.3641   1.4703  -0.9065 C.2            1 S1                 0.0000
      5 ****        -2.4250   1.1986  -2.1058 O.2            1 S1                 0.0000
      6 ****        -1.1808   1.1129  -0.2041 N.am           1 S1                 0.0000
      7 ****        -0.0553   0.4345  -0.9623 C.3            1 S1                 0.0000
      8 ****         1.1412   0.5830  -0.2498 O.3            1 S1                 0.0000
      9 ****         1.5550  -0.6796   0.2566 C.3            1 S1                 0.0000
     10 ****         3.0611  -0.6743   0.5742 C.3            1 S1                 0.0000
     11 ****         3.8534  -0.6796  -0.5957 O.3            1 S1                 0.0000
     12 ****         1.0653  -1.6716  -0.7982 C.3            1 S1                 0.0000
     13 ****         0.9972  -3.0024  -0.3194 O.3            1 S1                 0.0000
     14 ****        -0.2927  -1.0838  -1.1735 C.3            1 S1                 0.0000
     15 ****        -1.3423  -1.6116  -0.3754 O.3            1 S1                 0.0000
     16 ****        -1.0822   1.3772   1.1523 C.2            1 S1                 0.0000
     17 ****        -2.0890   1.9781   1.8179 C.2            1 S1                 0.0000
     18 ****        -1.8125   2.2931   3.7547 Br             1 S1                 0.0000
     19 ****         0.0504   0.9897  -1.8958 H              1 S1                 0.0000
     20 ****         1.0065  -0.8473   1.1853 H              1 S1                 0.0000
     21 ****         3.3195   0.1893   1.1874 H              1 S1                 0.0000
     22 ****         3.3155  -1.5632   1.1519 H              1 S1                 0.0000
     23 ****         4.7637  -0.6802  -0.3419 H              1 S1                 0.0000
     24 ****         1.7100  -1.6442  -1.6771 H              1 S1                 0.0000
     25 ****         0.5694  -3.5320  -0.9747 H              1 S1                 0.0000
     26 ****        -0.5337  -1.2708  -2.2204 H              1 S1                 0.0000
     27 ****        -2.1366  -1.1431  -0.5842 H              1 S1                 0.0000
     28 ****        -0.1938   1.1025   1.6995 H              1 S1                 0.0000
     29 ****        -4.1181   3.0939   2.7028 LP             1 S1                 0.0000
     30 ****        -5.0543   3.1771   1.2480 LP             1 S1                 0.0000
     31 ****        -4.2057   2.3367  -0.7260 LP             1 S1                 0.0000
     32 ****        -3.2460   1.4269  -2.6292 LP             1 S1                 0.0000
     33 ****        -1.6535   0.7497  -2.5566 LP             1 S1                 0.0000
     34 ****         0.9991   1.2163   0.5109 LP             1 S1                 0.0000
     35 ****         1.8477   0.9455  -0.8577 LP             1 S1                 0.0000
     36 ****         3.6558   0.1354  -1.1405 LP             1 S1                 0.0000
     37 ****         3.6531  -1.4976  -1.1349 LP             1 S1                 0.0000
     38 ****         0.4732  -3.0290   0.5318 LP             1 S1                 0.0000
     39 ****         1.9202  -3.3497  -0.1537 LP             1 S1                 0.0000
     40 ****        -1.1237  -1.4925   0.5931 LP             1 S1                 0.0000
     41 ****        -1.4613  -2.5846  -0.5731 LP             1 S1                 0.0000
@<TRIPOS>BOND
    1    1    2 2     
    2    2   17 1     
    3    2    3 1     
    4    3    4 1     
    5    4    5 2     
    6    4    6 am    
    7    6    7 1     
    8    6   16 1     
    9    7   14 1     
   10    7    8 1     
   11    7   19 1     
   12    8    9 1     
   13    9   10 1     
   14    9   12 1     
   15    9   20 1     
   16   10   11 1     
   17   10   21 1     
   18   10   22 1     
   19   11   23 1     
   20   12   13 1     
   21   12   14 1     
   22   12   24 1     
   23   13   25 1     
   24   14   15 1     
   25   14   26 1     
   26   15   27 1     
   27   16   17 2     
   28   16   28 1     
   29   17   18 1     
   30    1   29 1     
   31    1   30 1     
   32    3   31 1     
   33    5   32 1     
   34    5   33 1     
   35    8   34 1     
   36    8   35 1     
   37   11   36 1     
   38   11   37 1     
   39   13   38 1     
   40   13   39 1     
   41   15   40 1     
   42   15   41 1     
@<TRIPOS>SUBSTRUCTURE
      1 S1             1
@<TRIPOS>SET
LONE_PAIRS      STATIC     ATOMS    <user>   **** ""
13 29 30 31 32 33 34 35 36 37 38 39 40 41
DONOR_HYDROGENS      STATIC     ATOMS    <user>   **** ""
3 23 25 27
ATOM$BLUE        STATIC     ATOMS    COLORGROUP SYSTEM
13 29 30 31 32 33 34 35 36 37 38 39 40 41
ATOM$RED        STATIC     ATOMS    COLORGROUP SYSTEM
3 23 25 27
