#       Name:                AV-unprocessed.smi:227
#       Creating user name   scv26
#       Creation time:       Thu Mar 26 20:21:52 2020


#       File generated by GOLD software.
#

@<TRIPOS>MOLECULE
AV-unprocessed.smi:227
    64    68     1
SMALL
NO_CHARGES


@<TRIPOS>ATOM
      1 ****        -3.2756  -2.5367   1.2354 O.3            1 S1                 0.0000
      2 ****        -1.8905  -2.7494   1.4114 C.3            1 S1                 0.0000
      3 ****        -1.3257  -1.9181   2.5921 C.3            1 S1                 0.0000
      4 ****         0.2138  -1.7673   2.4893 C.3            1 S1                 0.0000
      5 ****         0.6582  -1.1599   1.2467 N.pl3          1 S1                 0.0000
      6 ****         1.3263  -1.7809   0.2172 C.2            1 S1                 0.0000
      7 ****         1.6188  -1.0126  -0.7954 N.2            1 S1                 0.0000
      8 ****         1.1215   0.2368  -0.4400 C.ar           1 S1                 0.0000
      9 ****         1.0905   1.5191  -1.0649 C.ar           1 S1                 0.0000
     10 ****         1.6059   1.7916  -2.2963 N.3            1 S1                 0.0000
     11 ****         1.5332   0.8179  -3.3740 C.3            1 S1                 0.0000
     12 ****         0.0532   0.8456  -3.8041 C.3            1 S1                 0.0000
     13 ****        -0.2923   2.3284  -3.5929 C.3            1 S1                 0.0000
     14 ****         1.0582   2.8844  -3.0911 C.3            1 S1                 0.0000
     15 ****         2.0335   2.9704  -4.2837 C.3            1 S1                 0.0000
     16 ****         3.2505   3.8674  -3.9944 C.3            1 S1                 0.0000
     17 ****         4.0667   3.9668  -5.1422 O.3            1 S1                 0.0000
     18 ****         2.3906   1.4806  -4.4650 C.3            1 S1                 0.0000
     19 ****         0.5268   2.5370  -0.3609 N.ar           1 S1                 0.0000
     20 ****         0.0066   2.3222   0.8501 C.ar           1 S1                 0.0000
     21 ****        -0.0511   1.1841   1.5420 N.ar           1 S1                 0.0000
     22 ****         0.5260   0.1595   0.8527 C.ar           1 S1                 0.0000
     23 ****        -1.7089  -2.5171   3.9733 C.3            1 S1                 0.0000
     24 ****        -3.1965  -2.6214   4.2637 C.3            1 S1                 0.0000
     25 ****        -3.2233  -2.7839   5.7791 C.3            1 S1                 0.0000
     26 ****        -2.1069  -2.0474   6.2630 O.3            1 S1                 0.0000
     27 ****        -1.2598  -1.6818   5.1786 C.3            1 S1                 0.0000
     28 ****        -3.5679  -3.0501   0.4978 H              1 S1                 0.0000
     29 ****        -1.6986  -3.8124   1.5596 H              1 S1                 0.0000
     30 ****        -1.4238  -2.4759   0.4664 H              1 S1                 0.0000
     31 ****        -1.7517  -0.9156   2.5263 H              1 S1                 0.0000
     32 ****         0.5979  -1.1497   3.3011 H              1 S1                 0.0000
     33 ****         0.6933  -2.7420   2.5895 H              1 S1                 0.0000
     34 ****         1.5857  -2.8293   0.2378 H              1 S1                 0.0000
     35 ****         1.8949  -0.1808  -3.1376 H              1 S1                 0.0000
     36 ****        -0.0915   0.5177  -4.8340 H              1 S1                 0.0000
     37 ****        -0.5555   0.2126  -3.1572 H              1 S1                 0.0000
     38 ****        -0.6421   2.8177  -4.5024 H              1 S1                 0.0000
     39 ****        -1.0686   2.4366  -2.8346 H              1 S1                 0.0000
     40 ****         0.9589   3.8346  -2.5646 H              1 S1                 0.0000
     41 ****         1.5166   3.3568  -5.1637 H              1 S1                 0.0000
     42 ****         2.9233   4.8700  -3.7175 H              1 S1                 0.0000
     43 ****         3.8389   3.4799  -3.1621 H              1 S1                 0.0000
     44 ****         4.3699   3.1012  -5.3701 H              1 S1                 0.0000
     45 ****         3.4496   1.2978  -4.2766 H              1 S1                 0.0000
     46 ****         2.1606   1.1097  -5.4643 H              1 S1                 0.0000
     47 ****        -0.4252   3.1861   1.3337 H              1 S1                 0.0000
     48 ****        -1.2738  -3.5139   4.0645 H              1 S1                 0.0000
     49 ****        -3.7067  -1.7007   3.9768 H              1 S1                 0.0000
     50 ****        -3.6786  -3.4554   3.7536 H              1 S1                 0.0000
     51 ****        -4.1564  -2.4335   6.2206 H              1 S1                 0.0000
     52 ****        -3.0912  -3.8317   6.0513 H              1 S1                 0.0000
     53 ****        -0.2130  -1.8456   5.4352 H              1 S1                 0.0000
     54 ****        -1.3972  -0.6173   4.9834 H              1 S1                 0.0000
     55 ****        -3.4481  -1.5673   1.0607 LP             1 S1                 0.0000
     56 ****        -3.7672  -2.8197   2.0589 LP             1 S1                 0.0000
     57 ****         2.0941  -1.2652  -1.6383 LP             1 S1                 0.0000
     58 ****         2.5009   1.9252  -1.8707 LP             1 S1                 0.0000
     59 ****         4.8495   4.5585  -4.9494 LP             1 S1                 0.0000
     60 ****         3.5382   4.3495  -5.9000 LP             1 S1                 0.0000
     61 ****         0.5016   3.4560  -0.7543 LP             1 S1                 0.0000
     62 ****        -0.4638   1.0938   2.4483 LP             1 S1                 0.0000
     63 ****        -1.5929  -2.6112   6.9095 LP             1 S1                 0.0000
     64 ****        -2.4297  -1.2212   6.7245 LP             1 S1                 0.0000
@<TRIPOS>BOND
    1    1    2 1     
    2    1   28 1     
    3    2    3 1     
    4    2   29 1     
    5    2   30 1     
    6    3    4 1     
    7    3   23 1     
    8    3   31 1     
    9    4    5 1     
   10    4   32 1     
   11    4   33 1     
   12    5   22 1     
   13    5    6 1     
   14    6    7 2     
   15    6   34 1     
   16    7    8 1     
   17    8   22 ar    
   18    8    9 ar    
   19    9   10 1     
   20    9   19 ar    
   21   10   14 1     
   22   10   11 1     
   23   11   18 1     
   24   11   12 1     
   25   11   35 1     
   26   12   13 1     
   27   12   36 1     
   28   12   37 1     
   29   13   14 1     
   30   13   38 1     
   31   13   39 1     
   32   14   15 1     
   33   14   40 1     
   34   15   16 1     
   35   15   18 1     
   36   15   41 1     
   37   16   17 1     
   38   16   42 1     
   39   16   43 1     
   40   17   44 1     
   41   18   45 1     
   42   18   46 1     
   43   19   20 ar    
   44   20   21 ar    
   45   20   47 1     
   46   21   22 ar    
   47   23   27 1     
   48   23   24 1     
   49   23   48 1     
   50   24   25 1     
   51   24   49 1     
   52   24   50 1     
   53   25   26 1     
   54   25   51 1     
   55   25   52 1     
   56   26   27 1     
   57   27   53 1     
   58   27   54 1     
   59    1   55 1     
   60    1   56 1     
   61    7   57 1     
   62   10   58 1     
   63   17   59 1     
   64   17   60 1     
   65   19   61 1     
   66   21   62 1     
   67   26   63 1     
   68   26   64 1     
@<TRIPOS>SUBSTRUCTURE
      1 S1             1
@<TRIPOS>SET
LONE_PAIRS      STATIC     ATOMS    <user>   **** ""
10 55 56 57 58 59 60 61 62 63 64
DONOR_HYDROGENS      STATIC     ATOMS    <user>   **** ""
2 28 44
ATOM$BLUE        STATIC     ATOMS    COLORGROUP SYSTEM
10 55 56 57 58 59 60 61 62 63 64
ATOM$RED        STATIC     ATOMS    COLORGROUP SYSTEM
2 28 44
