AV-unprocessed.smi:3335|AV-procd|sdf|12841|dock5
  -GOLD-   2272019223D 1   1.00000     0.00000
 Structure written by MMmdl.
 47 48  0  0  0  0  0  0  0  0  2 V2000
  143.6591  132.2461  150.5800 C   0  0  0  0  0  0  0  0  0  0  0  0
  143.8545  133.5858  151.2298 C   0  0  0  0  0  0  0  0  0  0  0  0
  143.2641  134.0710  152.4303 C   0  0  0  0  0  0  0  0  0  0  0  0
  143.6436  135.3029  152.7265 N   0  0  0  0  0  0  0  0  0  0  0  0
  144.4981  135.6481  151.7370 N   0  0  0  0  0  0  0  0  0  0  0  0
  145.1094  136.9753  151.6986 C   0  0  2  0  0  0  0  0  0  0  0  0
  145.9654  137.1794  150.4328 C   0  0  0  0  0  0  0  0  0  0  0  0
  145.8706  137.3248  153.0063 C   0  0  2  0  0  0  0  0  0  0  0  0
  146.6607  138.6495  152.9344 C   0  0  0  0  0  0  0  0  0  0  0  0
  146.7614  136.1935  153.3648 N   0  3  0  0  0  0  0  0  0  0  0  0
  147.1376  136.0380  154.7892 C   0  0  1  0  0  0  0  0  0  0  0  0
  145.9752  135.4446  155.6117 C   0  0  0  0  0  0  0  0  0  0  0  0
  148.3936  135.1505  154.8709 C   0  0  0  0  0  0  0  0  0  0  0  0
  149.4151  135.6018  155.3906 O   0  0  0  0  0  0  0  0  0  0  0  0
  148.3371  133.8874  154.3950 N   0  0  0  0  0  0  0  0  0  0  0  0
  149.4727  132.9670  154.4322 C   0  0  0  0  0  0  0  0  0  0  0  0
  149.0551  131.7570  153.5969 C   0  0  0  0  0  0  0  0  0  0  0  0
  147.5358  131.7555  153.6815 C   0  0  0  0  0  0  0  0  0  0  0  0
  147.1679  133.2341  153.8055 C   0  0  0  0  0  0  0  0  0  0  0  0
  144.6353  134.6278  150.8175 C   0  0  0  0  0  0  0  0  0  0  0  0
  142.9450  131.6297  151.1267 H   0  0  0  0  0  0  0  0  0  0  0  0
  144.5922  131.6853  150.5278 H   0  0  0  0  0  0  0  0  0  0  0  0
  143.2845  132.3434  149.5609 H   0  0  0  0  0  0  0  0  0  0  0  0
  142.5709  133.5686  153.0890 H   0  0  0  0  0  0  0  0  0  0  0  0
  144.2862  137.6863  151.6092 H   0  0  0  0  0  0  0  0  0  0  0  0
  146.3440  138.2005  150.3782 H   0  0  0  0  0  0  0  0  0  0  0  0
  145.3760  137.0023  149.5325 H   0  0  0  0  0  0  0  0  0  0  0  0
  146.8237  136.5087  150.3982 H   0  0  0  0  0  0  0  0  0  0  0  0
  145.1205  137.4213  153.7904 H   0  0  0  0  0  0  0  0  0  0  0  0
  146.0341  139.4690  152.5841 H   0  0  0  0  0  0  0  0  0  0  0  0
  147.5148  138.5760  152.2613 H   0  0  0  0  0  0  0  0  0  0  0  0
  147.0395  138.9490  153.9105 H   0  0  0  0  0  0  0  0  0  0  0  0
  146.3149  135.3341  153.0776 H   0  0  0  0  0  0  0  0  0  0  0  0
  147.3765  137.0069  155.2231 H   0  0  0  0  0  0  0  0  0  0  0  0
  146.2867  135.2299  156.6349 H   0  0  0  0  0  0  0  0  0  0  0  0
  145.6040  134.5156  155.1765 H   0  0  0  0  0  0  0  0  0  0  0  0
  145.1354  136.1357  155.6788 H   0  0  0  0  0  0  0  0  0  0  0  0
  150.3849  133.4224  154.0427 H   0  0  0  0  0  0  0  0  0  0  0  0
  149.6566  132.6722  155.4666 H   0  0  0  0  0  0  0  0  0  0  0  0
  149.3620  131.9048  152.5607 H   0  0  0  0  0  0  0  0  0  0  0  0
  149.5007  130.8258  153.9478 H   0  0  0  0  0  0  0  0  0  0  0  0
  147.0645  131.2728  152.8248 H   0  0  0  0  0  0  0  0  0  0  0  0
  147.2218  131.2226  154.5802 H   0  0  0  0  0  0  0  0  0  0  0  0
  146.2708  133.3598  154.4122 H   0  0  0  0  0  0  0  0  0  0  0  0
  146.9789  133.6608  152.8193 H   0  0  0  0  0  0  0  0  0  0  0  0
  145.2715  134.7261  149.9501 H   0  0  0  0  0  0  0  0  0  0  0  0
  147.6105  136.2988  152.8280 H   0  0  0  0  0  0  0  0  0  0  0  0
  1  2  1  0  0  0  0
  1 21  1  0  0  0  0
  1 22  1  0  0  0  0
  1 23  1  0  0  0  0
  2 20  2  0  0  0  0
  2  3  1  0  0  0  0
  3  4  2  0  0  0  0
  3 24  1  0  0  0  0
  4  5  1  0  0  0  0
  5  6  1  0  0  0  0
  5 20  1  0  0  0  0
  6  7  1  0  0  0  0
  6  8  1  0  0  0  0
  6 25  1  0  0  0  0
  7 26  1  0  0  0  0
  7 27  1  0  0  0  0
  7 28  1  0  0  0  0
  8  9  1  0  0  0  0
  8 10  1  0  0  0  0
  8 29  1  0  0  0  0
  9 30  1  0  0  0  0
  9 31  1  0  0  0  0
  9 32  1  0  0  0  0
 10 11  1  0  0  0  0
 10 33  1  0  0  0  0
 10 47  1  0  0  0  0
 11 12  1  0  0  0  0
 11 13  1  0  0  0  0
 11 34  1  0  0  0  0
 12 35  1  0  0  0  0
 12 36  1  0  0  0  0
 12 37  1  0  0  0  0
 13 14  2  0  0  0  0
 13 15  1  0  0  0  0
 15 19  1  0  0  0  0
 15 16  1  0  0  0  0
 16 17  1  0  0  0  0
 16 38  1  0  0  0  0
 16 39  1  0  0  0  0
 17 18  1  0  0  0  0
 17 40  1  0  0  0  0
 17 41  1  0  0  0  0
 18 19  1  0  0  0  0
 18 42  1  0  0  0  0
 18 43  1  0  0  0  0
 19 44  1  0  0  0  0
 19 45  1  0  0  0  0
 20 46  1  0  0  0  0
M  CHG  1  10   1
M  END
> <s_m_source_file>
AV-unprocessed.smi

> <i_m_source_file_index>
3335

> <i_lp_mmshare_version>
43012

> <i_f3d_flags>
0

> <s_epik_input>
W0NIM11jMVtjSF1ubihbY0hdMSlbQ0BIXShbQ0gzXSlbQ0BIXShbQ0gzXSlbTkhdW0NASF0oW0NIM10pQyg9TylOMltDSDJdW0NIMl1bQ0gyXVtDSDJdMg==

> <s_epik_cmdline>
J2VwaWtfcHl0aG9uJywgJy1waCcsICc3LjAnLCAnLXRuJywgJzgnLCAnLW1hJywgJzIwMCcsICctbWV0YWxfYmluZGluZycsICctaW1hZScsICc8aW5maWxlLm1hZT4nLCAnLW9tYWUnLCAnPG91dGZpbGUubWFlPic=

> <r_lp_tautomer_probability>
1

> <r_epik_Ionization_Penalty>
0.14175

> <r_epik_Ionization_Penalty_Charging>
0.141731

> <r_epik_Ionization_Penalty_Neutral>
1.91261e-05

> <r_epik_State_Penalty>
0.131043

> <r_epik_Charging_Adjusted_Penalty>
0.272773

> <i_epik_Tot_Q>
1

> <i_epik_Tot_abs_Q>
1

> <r_epik_Metal_State_Penalty>
0.131408

> <b_epik_Metal_Only>
0

> <s_lp_Force_Field>
OPLS_2005

> <r_lp_Energy>
38.6819

> <b_lp_Chiralities_Consistent>
1

> <s_lp_Variant>
AV-unprocessed.smi:3335-5

> <Gold.Version>
5.8.1

> <Gold.Id.Protein>
6NUR|6NUR_protein|mol2

> <Gold.PLP.Fitness>
39.2424

> <Gold.PLP.PLP>
-28.2539

> <Gold.PLP.part.hbond>
-1.0000

> <Gold.PLP.part.metal>
0.0000

> <Gold.PLP.part.buried>
2.9279

> <Gold.PLP.part.nonpolar>
-30.8141

> <Gold.PLP.part.repulsive>
0.2311

> <Gold.PLP.ligand.clash>
0.0000

> <Gold.PLP.ligand.torsion>
0.6073

> <Gold.PLP.Chemscore.Hbond>
2.0000

> <Gold.PLP.Chemscore.CHOScore>
2.0000

> <Gold.PLP.Chemscore.Metal>
0.0000

> <Gold.Chemscore.Hbonds>
donor molecule, donor type, donor heavy atom, donor atom, acceptor molecule, acceptor atom, score
      L1  H    10    47       P1  7948  2.00
      L1  C     3    24       P1 10957  1.00
      L1  C    20    46       P1  7921  1.00

> <Gold.PLP.Chemscore.Internal.Correction>
0.2031

> <Gold.Rescore>
     Score         DG    S(hbond)    S(metal)    S(lipo)     H(rot)  DE(clash)    DE(int)     intcor
     10.39     -13.50       1.00        0.00      76.84       1.68       1.41       1.71       ----

> <Gold.Chemscore.Fitness>
10.3918

> <Gold.Chemscore.DG>
-13.5041

> <Gold.Chemscore.ZeroCoef>
-5.4800

> <Gold.Chemscore.Hbond>
0.9966

> <Gold.Chemscore.Metal>
0.0000

> <Gold.Chemscore.Lipo>
76.8442

> <Gold.Chemscore.Internal_Hbond>
0.0000

> <Gold.Chemscore.DEClash>
1.4050

> <Gold.Chemscore.DEInternal>
1.7073

> <Gold.Chemscore.Rot>
1.6778

> <Gold.Chemscore.Internal.Correction>
   9.000000E+99

> <Gold.Chemscore.Hbonds>
donor molecule, donor type, donor heavy atom, donor atom, acceptor molecule, acceptor atom, score
      L1  H    10    47       P1  7948  1.00

> <Gold.Chemscore.Hbond.Weighted>
-3.3286

> <Gold.Chemscore.Metal.Weighted>
-0.0000

> <Gold.Chemscore.Lipo.Weighted>
-8.9908

> <Gold.Chemscore.Internal_Hbond.Weighted>
0.0000

> <Gold.Chemscore.DEClash.Weighted>
1.4050

> <Gold.Chemscore.DEInternal.Weighted>
1.7073

> <Gold.Chemscore.Rot.Weighted>
4.2952

> <Gold.Chemscore.Internal.Correction.Weighted>
   9.000000E+99

> <Gold.Protein.RotatedTorsions>
[ 6907 6896 6895 6894 ] final   67.09 input  -60.11 | X-H torsion
[ 7974 7965 7964 7962 ] final   12.78 input  175.53 | X-H torsion
[ 8008 7997 7996 7995 ] final   61.53 input   59.86 | X-H torsion
[ 10167 10162 10161 10158 ] final  135.85 input  -65.29 | X-H torsion
[ 10718 10713 10712 10709 ] final   12.23 input   66.30 | X-H torsion
[ 10763 10752 10751 10750 ] final -143.03 input  -60.55 | X-H torsion
[ 11005 11000 10999 10996 ] final -141.70 input  -57.11 | X-H torsion

> <Gold.Protein.ActiveResidues>
 VAL166  LYS551  ARG553  GLY616  TRP617  ASP618  TYR619  PRO620  LYS621  CYS622 
 ASP623  PHE694  ASN695  SER759  ASP760  ASP761  ALA762  ILE779  LEU786  VAL792 
 PHE793  MET794  SER795  GLU796  ALA797  LYS798  CYS799  TRP800  GLU811  SER814 

> <Gold.Protein.RotatedAtoms>
  152.4527  134.5358  159.9824 H   0  0  0  0  0  0  0  0  0  0  0  0  # atno 6907 bound_to 6896
  151.5427  133.3424  159.2946 H   0  0  0  0  0  0  0  0  0  0  0  0  # atno 6908 bound_to 6896
  150.8461  134.7802  159.7035 H   0  0  0  0  0  0  0  0  0  0  0  0  # atno 6909 bound_to 6896
  146.2344  139.9286  142.8499 H   0  0  0  0  0  0  0  0  0  0  0  0  # atno 7974 bound_to 7965
  155.5998  140.3494  155.4590 H   0  0  0  0  0  0  0  0  0  0  0  0  # atno 8008 bound_to 7997
  156.0237  140.1259  157.0355 H   0  0  0  0  0  0  0  0  0  0  0  0  # atno 8009 bound_to 7997
  154.4325  140.1057  156.5986 H   0  0  0  0  0  0  0  0  0  0  0  0  # atno 8010 bound_to 7997
  139.5202  144.6495  151.5342 H   0  0  0  0  0  0  0  0  0  0  0  0  # atno 10167 bound_to 10162
  157.0071  130.6102  149.5703 H   0  0  0  0  0  0  0  0  0  0  0  0  # atno 10718 bound_to 10713
  154.8486  135.3479  154.6122 H   0  0  0  0  0  0  0  0  0  0  0  0  # atno 10763 bound_to 10752
  153.6730  135.6984  153.5146 H   0  0  0  0  0  0  0  0  0  0  0  0  # atno 10764 bound_to 10752
  153.2727  135.4288  155.0960 H   0  0  0  0  0  0  0  0  0  0  0  0  # atno 10765 bound_to 10752
  140.8299  134.2530  157.4862 H   0  0  0  0  0  0  0  0  0  0  0  0  # atno 11005 bound_to 11000
  145.2066  140.9878  143.4125 LP  0  0  0  0  0  0  0  0  0  0  0  0  # atno 17320 bound_to 7965
  144.9727  139.3863  143.6301 LP  0  0  0  0  0  0  0  0  0  0  0  0  # atno 17321 bound_to 7965
  140.6295  143.9104  150.6593 LP  0  0  0  0  0  0  0  0  0  0  0  0  # atno 17342 bound_to 10162
  140.2404  143.3668  152.1491 LP  0  0  0  0  0  0  0  0  0  0  0  0  # atno 17343 bound_to 10162
  156.0149  130.5243  150.8105 LP  0  0  0  0  0  0  0  0  0  0  0  0  # atno 17370 bound_to 10713
  157.5348  131.0938  150.9907 LP  0  0  0  0  0  0  0  0  0  0  0  0  # atno 17371 bound_to 10713
  139.8705  134.9580  156.4287 LP  0  0  0  0  0  0  0  0  0  0  0  0  # atno 17394 bound_to 11000
  140.9009  133.7780  155.9679 LP  0  0  0  0  0  0  0  0  0  0  0  0  # atno 17395 bound_to 11000

$$$$
