AV-unprocessed.smi:3199|AV-procd|sdf|12231|dock9
  -GOLD-   2272018 63D 1   1.00000     0.00000
 Structure written by MMmdl.
 35 36  0  0  0  0  0  0  0  0  1 V2000
  152.9374  142.9508  162.2535 C   0  0  0  0  0  0  0  0  0  0  0  0
  152.4584  142.9416  160.8169 C   0  0  0  0  0  0  0  0  0  0  0  0
  152.5168  144.1090  160.0266 C   0  0  0  0  0  0  0  0  0  0  0  0
  152.0593  144.0417  158.6964 C   0  0  0  0  0  0  0  0  0  0  0  0
  151.5617  142.8156  158.2097 C   0  0  0  0  0  0  0  0  0  0  0  0
  151.0640  142.6872  156.7835 C   0  0  0  0  0  0  0  0  0  0  0  0
  150.5481  141.2717  156.4776 C   0  0  0  0  0  0  0  0  0  0  0  0
  149.1578  141.2872  156.0391 N   0  0  0  0  0  0  0  0  0  0  0  0
  148.7433  141.1380  154.7714 C   0  0  0  0  0  0  0  0  0  0  0  0
  149.5174  140.9588  153.8306 O   0  0  0  0  0  0  0  0  0  0  0  0
  147.2236  141.1954  154.5566 C   0  0  2  0  0  0  0  0  0  0  0  0
  146.7097  142.3243  153.6379 C   0  0  0  0  0  0  0  0  0  0  0  0
  145.9142  143.2162  154.5716 C   0  0  0  0  0  0  0  0  0  0  0  0
  145.4552  142.2312  155.6366 C   0  0  0  0  0  0  0  0  0  0  0  0
  146.5993  141.4140  155.8211 O   0  0  0  0  0  0  0  0  0  0  0  0
  151.5459  141.7073  159.0827 C   0  0  0  0  0  0  0  0  0  0  0  0
  151.9831  141.7623  160.3592 N   0  0  0  0  0  0  0  0  0  0  0  0
  153.3432  143.9245  162.5292 H   0  0  0  0  0  0  0  0  0  0  0  0
  153.7187  142.2039  162.3984 H   0  0  0  0  0  0  0  0  0  0  0  0
  152.1127  142.7218  162.9291 H   0  0  0  0  0  0  0  0  0  0  0  0
  152.9035  145.0347  160.4268 H   0  0  0  0  0  0  0  0  0  0  0  0
  152.0929  144.9161  158.0632 H   0  0  0  0  0  0  0  0  0  0  0  0
  150.2743  143.4224  156.6224 H   0  0  0  0  0  0  0  0  0  0  0  0
  151.8718  142.9479  156.0982 H   0  0  0  0  0  0  0  0  0  0  0  0
  151.1449  140.8233  155.6829 H   0  0  0  0  0  0  0  0  0  0  0  0
  150.6575  140.6257  157.3503 H   0  0  0  0  0  0  0  0  0  0  0  0
  148.4559  141.4330  156.7503 H   0  0  0  0  0  0  0  0  0  0  0  0
  146.8905  140.2329  154.1647 H   0  0  0  0  0  0  0  0  0  0  0  0
  147.4828  142.8831  153.1103 H   0  0  0  0  0  0  0  0  0  0  0  0
  146.0495  141.9016  152.8792 H   0  0  0  0  0  0  0  0  0  0  0  0
  146.5661  143.9690  155.0167 H   0  0  0  0  0  0  0  0  0  0  0  0
  145.0874  143.7262  154.0762 H   0  0  0  0  0  0  0  0  0  0  0  0
  145.1550  142.7193  156.5639 H   0  0  0  0  0  0  0  0  0  0  0  0
  144.6233  141.6236  155.2770 H   0  0  0  0  0  0  0  0  0  0  0  0
  151.1759  140.7495  158.7474 H   0  0  0  0  0  0  0  0  0  0  0  0
  1  2  1  0  0  0  0
  1 18  1  0  0  0  0
  1 19  1  0  0  0  0
  1 20  1  0  0  0  0
  2 17  1  0  0  0  0
  2  3  2  0  0  0  0
  3  4  1  0  0  0  0
  3 21  1  0  0  0  0
  4  5  2  0  0  0  0
  4 22  1  0  0  0  0
  5  6  1  0  0  0  0
  5 16  1  0  0  0  0
  6  7  1  0  0  0  0
  6 23  1  0  0  0  0
  6 24  1  0  0  0  0
  7  8  1  0  0  0  0
  7 25  1  0  0  0  0
  7 26  1  0  0  0  0
  8  9  1  0  0  0  0
  8 27  1  0  0  0  0
  9 10  2  0  0  0  0
  9 11  1  0  0  0  0
 11 15  1  0  0  0  0
 11 12  1  0  0  0  0
 11 28  1  0  0  0  0
 12 13  1  0  0  0  0
 12 29  1  0  0  0  0
 12 30  1  0  0  0  0
 13 14  1  0  0  0  0
 13 31  1  0  0  0  0
 13 32  1  0  0  0  0
 14 15  1  0  0  0  0
 14 33  1  0  0  0  0
 14 34  1  0  0  0  0
 16 17  2  0  0  0  0
 16 35  1  0  0  0  0
M  END
> <s_m_source_file>
AV-unprocessed.smi

> <i_m_source_file_index>
3199

> <i_lp_mmshare_version>
43012

> <i_f3d_flags>
0

> <s_epik_input>
W0NIM11jMVtjSF1bY0hdYyhbY0hdbjEpW0NIMl1bQ0gyXVtOSF1DKD1PKVtDQEBIXTJbQ0gyXVtDSDJdW0NIMl1PMg==

> <s_epik_cmdline>
J2VwaWtfcHl0aG9uJywgJy1waCcsICc3LjAnLCAnLXRuJywgJzgnLCAnLW1hJywgJzIwMCcsICctbWV0YWxfYmluZGluZycsICctaW1hZScsICc8aW5maWxlLm1hZT4nLCAnLW9tYWUnLCAnPG91dGZpbGUubWFlPic=

> <r_epik_Ionization_Penalty>
0.0519155

> <r_epik_Ionization_Penalty_Charging>
0

> <r_epik_Ionization_Penalty_Neutral>
0.0519155

> <r_epik_State_Penalty>
0.0445047

> <r_epik_Charging_Adjusted_Penalty>
0.0445047

> <i_epik_Tot_Q>
0

> <i_epik_Tot_abs_Q>
0

> <r_epik_Metal_State_Penalty>
0.0408967

> <b_epik_Metal_Only>
0

> <s_lp_Force_Field>
OPLS_2005

> <r_lp_Energy>
17.3487

> <b_lp_Chiralities_Consistent>
1

> <s_lp_Variant>
AV-unprocessed.smi:3199-1

> <Gold.Version>
5.8.1

> <Gold.Id.Protein>
6NUR|6NUR_protein|mol2

> <Gold.PLP.Fitness>
41.5452

> <Gold.PLP.PLP>
-38.9478

> <Gold.PLP.part.hbond>
-2.3088

> <Gold.PLP.part.metal>
0.0000

> <Gold.PLP.part.buried>
-5.4277

> <Gold.PLP.part.nonpolar>
-32.3805

> <Gold.PLP.part.repulsive>
2.2176

> <Gold.PLP.ligand.clash>
0.0000

> <Gold.PLP.ligand.torsion>
0.4837

> <Gold.PLP.Chemscore.Hbond>
1.1828

> <Gold.PLP.Chemscore.CHOScore>
0.0000

> <Gold.PLP.Chemscore.Metal>
0.0000

> <Gold.Chemscore.Hbonds>
donor molecule, donor type, donor heavy atom, donor atom, acceptor molecule, acceptor atom, score
      P1  H  7989  7998       L1    10  0.32
      P1  H  8011  8017       L1    10  0.78

> <Gold.PLP.Chemscore.Internal.Correction>
0.0164

> <Gold.Rescore>
     Score         DG    S(hbond)    S(metal)    S(lipo)     H(rot)  DE(clash)    DE(int)     intcor
     16.30     -17.63       1.12        0.00     104.50       1.49       0.84       0.49       ----

> <Gold.Chemscore.Fitness>
16.3012

> <Gold.Chemscore.DG>
-17.6296

> <Gold.Chemscore.ZeroCoef>
-5.4800

> <Gold.Chemscore.Hbond>
1.1158

> <Gold.Chemscore.Metal>
0.0000

> <Gold.Chemscore.Lipo>
104.5006

> <Gold.Chemscore.Internal_Hbond>
0.0000

> <Gold.Chemscore.DEClash>
0.8397

> <Gold.Chemscore.DEInternal>
0.4887

> <Gold.Chemscore.Rot>
1.4859

> <Gold.Chemscore.Internal.Correction>
   9.000000E+99

> <Gold.Chemscore.Hbonds>
donor molecule, donor type, donor heavy atom, donor atom, acceptor molecule, acceptor atom, score
      P1  H  7989  7998       L1    10  0.31
      P1  H  8011  8017       L1    10  0.73

> <Gold.Chemscore.Hbond.Weighted>
-3.7269

> <Gold.Chemscore.Metal.Weighted>
-0.0000

> <Gold.Chemscore.Lipo.Weighted>
-12.2266

> <Gold.Chemscore.Internal_Hbond.Weighted>
0.0000

> <Gold.Chemscore.DEClash.Weighted>
0.8397

> <Gold.Chemscore.DEInternal.Weighted>
0.4887

> <Gold.Chemscore.Rot.Weighted>
3.8039

> <Gold.Chemscore.Internal.Correction.Weighted>
   9.000000E+99

> <Gold.Protein.RotatedTorsions>
[ 6907 6896 6895 6894 ] final   21.85 input  -60.11 | X-H torsion
[ 7974 7965 7964 7962 ] final -100.53 input  175.53 | X-H torsion
[ 8008 7997 7996 7995 ] final  121.77 input   59.86 | X-H torsion
[ 10167 10162 10161 10158 ] final  -67.30 input  -65.29 | X-H torsion
[ 10718 10713 10712 10709 ] final  -15.01 input   66.30 | X-H torsion
[ 10763 10752 10751 10750 ] final  148.90 input  -60.55 | X-H torsion
[ 11005 11000 10999 10996 ] final   57.29 input  -57.11 | X-H torsion

> <Gold.Protein.ActiveResidues>
 VAL166  LYS551  ARG553  GLY616  TRP617  ASP618  TYR619  PRO620  LYS621  CYS622 
 ASP623  PHE694  ASN695  SER759  ASP760  ASP761  ALA762  ILE779  LEU786  VAL792 
 PHE793  MET794  SER795  GLU796  ALA797  LYS798  CYS799  TRP800  GLU811  SER814 

> <Gold.Protein.RotatedAtoms>
  151.9181  135.0310  160.0519 H   0  0  0  0  0  0  0  0  0  0  0  0  # atno 6907 bound_to 6896
  152.2223  133.4988  159.5178 H   0  0  0  0  0  0  0  0  0  0  0  0  # atno 6908 bound_to 6896
  150.7003  134.1243  159.4089 H   0  0  0  0  0  0  0  0  0  0  0  0  # atno 6909 bound_to 6896
  145.2933  140.9358  143.2865 H   0  0  0  0  0  0  0  0  0  0  0  0  # atno 7974 bound_to 7965
  156.2700  140.2801  156.1361 H   0  0  0  0  0  0  0  0  0  0  0  0  # atno 8008 bound_to 7997
  155.1002  140.0389  157.2712 H   0  0  0  0  0  0  0  0  0  0  0  0  # atno 8009 bound_to 7997
  154.6821  140.2611  155.6904 H   0  0  0  0  0  0  0  0  0  0  0  0  # atno 8010 bound_to 7997
  140.5593  143.2312  151.6759 H   0  0  0  0  0  0  0  0  0  0  0  0  # atno 10167 bound_to 10162
  156.6078  130.4841  149.6213 H   0  0  0  0  0  0  0  0  0  0  0  0  # atno 10718 bound_to 10713
  154.0624  135.2873  155.3322 H   0  0  0  0  0  0  0  0  0  0  0  0  # atno 10763 bound_to 10752
  154.6799  135.5267  153.8253 H   0  0  0  0  0  0  0  0  0  0  0  0  # atno 10764 bound_to 10752
  153.0517  135.6579  154.0812 H   0  0  0  0  0  0  0  0  0  0  0  0  # atno 10765 bound_to 10752
  140.0464  134.5800  155.9317 H   0  0  0  0  0  0  0  0  0  0  0  0  # atno 11005 bound_to 11000
  144.9154  139.4477  143.6567 LP  0  0  0  0  0  0  0  0  0  0  0  0  # atno 17320 bound_to 7965
  146.3177  139.7985  142.8970 LP  0  0  0  0  0  0  0  0  0  0  0  0  # atno 17321 bound_to 7965
  139.5062  144.3689  152.0490 LP  0  0  0  0  0  0  0  0  0  0  0  0  # atno 17342 bound_to 10162
  140.2813  144.3856  150.6118 LP  0  0  0  0  0  0  0  0  0  0  0  0  # atno 17343 bound_to 10162
  156.2415  130.6854  151.1560 LP  0  0  0  0  0  0  0  0  0  0  0  0  # atno 17370 bound_to 10713
  157.7262  131.0648  150.5919 LP  0  0  0  0  0  0  0  0  0  0  0  0  # atno 17371 bound_to 10713
  141.1909  133.6570  156.5432 LP  0  0  0  0  0  0  0  0  0  0  0  0  # atno 17394 bound_to 11000
  140.3987  134.7376  157.4766 LP  0  0  0  0  0  0  0  0  0  0  0  0  # atno 17395 bound_to 11000

$$$$
