#       Name:                AV-unprocessed.smi:1795
#       Creating user name   scv26
#       Creation time:       Fri Mar 27 08:49:21 2020


#       File generated by GOLD software.
#

@<TRIPOS>MOLECULE
AV-unprocessed.smi:1795
    54    55     1
SMALL
NO_CHARGES


@<TRIPOS>ATOM
      1 ****        -0.1603  -2.7672  -4.3501 C.3            1 S1                 0.0000
      2 ****        -1.0961  -1.7411  -3.7009 C.3            1 S1                 0.0000
      3 ****        -0.4756  -1.1157  -2.4376 C.3            1 S1                 0.0000
      4 ****        -1.4351  -0.1991  -1.7646 N.4            1 S1                 1.0000
      5 ****        -0.9127   0.5314  -0.5628 C.3            1 S1                 0.0000
      6 ****        -1.7412   1.8143  -0.3254 C.3            1 S1                 0.0000
      7 ****         0.6019   0.8763  -0.6408 C.3            1 S1                 0.0000
      8 ****         1.0925   1.5845   0.5385 N.am           1 S1                 0.0000
      9 ****         1.3476   1.0146   1.7262 C.2            1 S1                 0.0000
     10 ****         1.1627  -0.1824   1.9502 O.2            1 S1                 0.0000
     11 ****         1.8716   1.9499   2.8254 C.3            1 S1                 0.0000
     12 ****         2.6173   1.2447   3.8815 N.am           1 S1                 0.0000
     13 ****         1.9228   0.9501   5.0719 C.2            1 S1                 0.0000
     14 ****         2.5088   0.3093   6.0956 C.2            1 S1                 0.0000
     15 ****         3.8916  -0.0816   5.9547 C.2            1 S1                 0.0000
     16 ****         4.5642   0.1921   4.8191 C.2            1 S1                 0.0000
     17 ****         3.9271   0.8908   3.6968 C.2            1 S1                 0.0000
     18 ****         4.5324   1.1421   2.6543 O.2            1 S1                 0.0000
     19 ****        -2.6973  -0.9328  -1.4762 C.3            1 S1                 0.0000
     20 ****        -3.2865  -1.5793  -2.7437 C.3            1 S1                 0.0000
     21 ****        -3.9133  -0.5665  -3.7189 C.3            1 S1                 0.0000
     22 ****        -2.3085  -2.4075  -3.3675 O.3            1 S1                 0.0000
     23 ****         0.7861  -2.3093  -4.6386 H              1 S1                 0.0000
     24 ****        -0.6099  -3.1922  -5.2479 H              1 S1                 0.0000
     25 ****         0.0598  -3.5886  -3.6676 H              1 S1                 0.0000
     26 ****        -1.2963  -0.9598  -4.4344 H              1 S1                 0.0000
     27 ****        -0.1624  -1.8933  -1.7387 H              1 S1                 0.0000
     28 ****         0.4169  -0.5769  -2.7536 H              1 S1                 0.0000
     29 ****        -1.0469  -0.1259   0.2978 H              1 S1                 0.0000
     30 ****        -1.4207   2.3429   0.5722 H              1 S1                 0.0000
     31 ****        -2.8018   1.6103  -0.1893 H              1 S1                 0.0000
     32 ****        -1.6439   2.5038  -1.1647 H              1 S1                 0.0000
     33 ****         1.2106  -0.0222  -0.7513 H              1 S1                 0.0000
     34 ****         0.8008   1.5006  -1.5125 H              1 S1                 0.0000
     35 ****         1.2668   2.5744   0.4393 H              1 S1                 0.0000
     36 ****         2.5014   2.7212   2.3776 H              1 S1                 0.0000
     37 ****         1.0212   2.4864   3.2483 H              1 S1                 0.0000
     38 ****         0.8910   1.2699   5.0955 H              1 S1                 0.0000
     39 ****         1.9597   0.0890   6.9993 H              1 S1                 0.0000
     40 ****         4.3888  -0.5975   6.7630 H              1 S1                 0.0000
     41 ****         5.5978  -0.1094   4.7313 H              1 S1                 0.0000
     42 ****        -2.4920  -1.7108  -0.7389 H              1 S1                 0.0000
     43 ****        -3.4468  -0.2796  -1.0327 H              1 S1                 0.0000
     44 ****        -4.0881  -2.2490  -2.4306 H              1 S1                 0.0000
     45 ****        -4.7444  -0.0414  -3.2476 H              1 S1                 0.0000
     46 ****        -4.3028  -1.0697  -4.6042 H              1 S1                 0.0000
     47 ****        -3.2008   0.1887  -4.0490 H              1 S1                 0.0000
     48 ****        -1.6573   0.5109  -2.4478 H              1 S1                 0.0000
     49 ****         0.8067  -0.7768   1.2291 LP             1 S1                 0.0000
     50 ****         1.3686  -0.5597   2.8531 LP             1 S1                 0.0000
     51 ****         4.0673   1.6194   1.9087 LP             1 S1                 0.0000
     52 ****         5.4890   0.8689   2.5533 LP             1 S1                 0.0000
     53 ****        -2.0909  -3.1580  -2.7435 LP             1 S1                 0.0000
     54 ****        -2.7031  -2.7772  -4.2087 LP             1 S1                 0.0000
@<TRIPOS>BOND
    1    1    2 1     
    2    1   23 1     
    3    1   24 1     
    4    1   25 1     
    5    2   22 1     
    6    2    3 1     
    7    2   26 1     
    8    3    4 1     
    9    3   27 1     
   10    3   28 1     
   11    4    5 1     
   12    4   19 1     
   13    4   48 1     
   14    5    6 1     
   15    5    7 1     
   16    5   29 1     
   17    6   30 1     
   18    6   31 1     
   19    6   32 1     
   20    7    8 1     
   21    7   33 1     
   22    7   34 1     
   23    8    9 am    
   24    8   35 1     
   25    9   10 2     
   26    9   11 1     
   27   11   12 1     
   28   11   36 1     
   29   11   37 1     
   30   12   17 am    
   31   12   13 1     
   32   13   14 2     
   33   13   38 1     
   34   14   15 1     
   35   14   39 1     
   36   15   16 2     
   37   15   40 1     
   38   16   17 1     
   39   16   41 1     
   40   17   18 2     
   41   19   20 1     
   42   19   42 1     
   43   19   43 1     
   44   20   21 1     
   45   20   22 1     
   46   20   44 1     
   47   21   45 1     
   48   21   46 1     
   49   21   47 1     
   50   10   49 1     
   51   10   50 1     
   52   18   51 1     
   53   18   52 1     
   54   22   53 1     
   55   22   54 1     
@<TRIPOS>SUBSTRUCTURE
      1 S1             1
@<TRIPOS>SET
LONE_PAIRS      STATIC     ATOMS    <user>   **** ""
6 49 50 51 52 53 54
DONOR_HYDROGENS      STATIC     ATOMS    <user>   **** ""
2 48 35
ATOM$BLUE        STATIC     ATOMS    COLORGROUP SYSTEM
6 49 50 51 52 53 54
ATOM$RED        STATIC     ATOMS    COLORGROUP SYSTEM
2 48 35
