#       Name:                AV-unprocessed.smi:774
#       Creating user name   scv26
#       Creation time:       Fri Mar 27 01:11:15 2020


#       File generated by GOLD software.
#

@<TRIPOS>MOLECULE
AV-unprocessed.smi:774
    40    41     1
SMALL
NO_CHARGES


@<TRIPOS>ATOM
      1 ****        -5.6472   3.7341  -0.0106 C.3            1 S1                 0.0000
      2 ****        -4.1372   3.5576   0.1695 C.3            1 S1                 0.0000
      3 ****        -3.7183   1.8525   0.6244 S.3            1 S1                 0.0000
      4 ****        -1.9226   2.0053   0.8498 C.3            1 S1                 0.0000
      5 ****        -1.1651   2.2118  -0.4606 C.3            1 S1                 0.0000
      6 ****         0.2725   1.8113  -0.1282 C.3            1 S1                 0.0000
      7 ****         0.1718   0.7334   0.9698 C.3            1 S1                 0.0000
      8 ****         0.5521  -0.5839   0.4658 N.am           1 S1                 0.0000
      9 ****         1.8113  -1.0258   0.3385 C.2            1 S1                 0.0000
     10 ****         2.7994  -0.3521   0.6301 O.2            1 S1                 0.0000
     11 ****         1.8399  -2.2725  -0.1630 N.am           1 S1                 0.0000
     12 ****         2.9702  -3.0903  -0.4334 C.ar           1 S1                 0.0000
     13 ****         2.8132  -4.1553  -1.3443 C.ar           1 S1                 0.0000
     14 ****         3.9115  -4.9927  -1.6174 C.ar           1 S1                 0.0000
     15 ****         5.1288  -4.7366  -0.9573 C.ar           1 S1                 0.0000
     16 ****         5.2928  -3.7320  -0.0711 N.ar           1 S1                 0.0000
     17 ****         4.2356  -2.9312   0.1848 C.ar           1 S1                 0.0000
     18 ****        -1.2951   0.7389   1.4398 C.3            1 S1                 0.0000
     19 ****        -5.8884   4.7617  -0.2829 H              1 S1                 0.0000
     20 ****        -6.1829   3.4989   0.9094 H              1 S1                 0.0000
     21 ****        -6.0283   3.0826  -0.7975 H              1 S1                 0.0000
     22 ****        -3.6204   3.8192  -0.7539 H              1 S1                 0.0000
     23 ****        -3.7736   4.2314   0.9457 H              1 S1                 0.0000
     24 ****        -1.7198   2.8424   1.5193 H              1 S1                 0.0000
     25 ****        -1.5604   1.5478  -1.2307 H              1 S1                 0.0000
     26 ****        -1.2342   3.2341  -0.8332 H              1 S1                 0.0000
     27 ****         0.8172   1.4822  -1.0143 H              1 S1                 0.0000
     28 ****         0.8043   2.6771   0.2686 H              1 S1                 0.0000
     29 ****         0.8188   1.0067   1.8058 H              1 S1                 0.0000
     30 ****        -0.1995  -1.2014   0.1953 H              1 S1                 0.0000
     31 ****         0.9491  -2.6629  -0.4329 H              1 S1                 0.0000
     32 ****         1.8650  -4.3284  -1.8325 H              1 S1                 0.0000
     33 ****         3.8227  -5.8123  -2.3149 H              1 S1                 0.0000
     34 ****         5.9924  -5.3584  -1.1418 H              1 S1                 0.0000
     35 ****         4.4206  -2.1642   0.9205 H              1 S1                 0.0000
     36 ****        -1.3785   0.7115   2.5268 H              1 S1                 0.0000
     37 ****        -1.8191  -0.1387   1.0565 H              1 S1                 0.0000
     38 ****         2.6850   0.5766   0.9826 LP             1 S1                 0.0000
     39 ****         3.7166  -0.7336   0.5145 LP             1 S1                 0.0000
     40 ****         6.1716  -3.5848   0.3829 LP             1 S1                 0.0000
@<TRIPOS>BOND
    1    1    2 1     
    2    1   19 1     
    3    1   20 1     
    4    1   21 1     
    5    2    3 1     
    6    2   22 1     
    7    2   23 1     
    8    3    4 1     
    9    4   18 1     
   10    4    5 1     
   11    4   24 1     
   12    5    6 1     
   13    5   25 1     
   14    5   26 1     
   15    6    7 1     
   16    6   27 1     
   17    6   28 1     
   18    7    8 1     
   19    7   18 1     
   20    7   29 1     
   21    8    9 am    
   22    8   30 1     
   23    9   10 2     
   24    9   11 am    
   25   11   12 1     
   26   11   31 1     
   27   12   17 ar    
   28   12   13 ar    
   29   13   14 ar    
   30   13   32 1     
   31   14   15 ar    
   32   14   33 1     
   33   15   16 ar    
   34   15   34 1     
   35   16   17 ar    
   36   17   35 1     
   37   18   36 1     
   38   18   37 1     
   39   10   38 1     
   40   10   39 1     
   41   16   40 1     
@<TRIPOS>SUBSTRUCTURE
      1 S1             1
@<TRIPOS>SET
LONE_PAIRS      STATIC     ATOMS    <user>   **** ""
3 38 39 40
DONOR_HYDROGENS      STATIC     ATOMS    <user>   **** ""
2 30 31
ATOM$BLUE        STATIC     ATOMS    COLORGROUP SYSTEM
3 38 39 40
ATOM$RED        STATIC     ATOMS    COLORGROUP SYSTEM
2 30 31
