AV-unprocessed.smi:3329|AV-procd|sdf|12796|dock6
  -GOLD-   2272019153D 1   1.00000     0.00000
 Structure written by MMmdl.
 42 43  0  0  0  0  0  0  0  0  2 V2000
  154.0602  142.2064  163.4245 C   0  0  0  0  0  0  0  0  0  0  0  0
  153.3273  142.5983  162.1739 C   0  0  0  0  0  0  0  0  0  0  0  0
  152.4161  143.6783  161.9994 C   0  0  0  0  0  0  0  0  0  0  0  0
  151.9388  143.7531  160.7676 N   0  0  0  0  0  0  0  0  0  0  0  0
  152.5290  142.7308  160.1124 N   0  0  0  0  0  0  0  0  0  0  0  0
  152.2245  142.4937  158.7114 C   0  0  0  0  0  0  0  0  0  0  0  0
  151.1924  143.4868  158.1499 C   0  0  0  0  0  0  0  0  0  0  0  0
  150.3270  142.8480  157.1391 N   0  3  0  0  0  0  0  0  0  0  0  0
  151.0609  142.1526  156.0630 C   0  0  0  0  0  0  0  0  0  0  0  0
  150.1148  141.4668  155.0765 C   0  0  0  0  0  0  0  0  0  0  0  0
  150.5190  140.5467  154.3657 O   0  0  0  0  0  0  0  0  0  0  0  0
  148.8538  141.9321  155.0533 N   0  0  0  0  0  0  0  0  0  0  0  0
  147.7271  141.4770  154.2266 C   0  0  2  0  0  0  0  0  0  0  0  0
  147.0288  142.7504  153.7217 C   0  0  0  0  0  0  0  0  0  0  0  0
  146.7434  140.7112  155.0172 C   0  0  0  0  0  0  0  0  0  0  0  0
  145.9709  140.1122  155.6369 N   0  0  0  0  0  0  0  0  0  0  0  0
  148.1109  140.6230  153.0156 C   0  0  0  0  0  0  0  0  0  0  0  0
  147.1539  139.7094  152.2815 C   0  0  0  0  0  0  0  0  0  0  0  0
  148.2793  139.1229  153.1048 C   0  0  0  0  0  0  0  0  0  0  0  0
  153.3629  142.0100  160.9412 C   0  0  0  0  0  0  0  0  0  0  0  0
  153.4193  141.6477  164.1067 H   0  0  0  0  0  0  0  0  0  0  0  0
  154.4251  143.0786  163.9675 H   0  0  0  0  0  0  0  0  0  0  0  0
  154.9251  141.5787  163.2087 H   0  0  0  0  0  0  0  0  0  0  0  0
  152.0889  144.4056  162.7279 H   0  0  0  0  0  0  0  0  0  0  0  0
  153.1507  142.5491  158.1376 H   0  0  0  0  0  0  0  0  0  0  0  0
  151.8543  141.4726  158.6118 H   0  0  0  0  0  0  0  0  0  0  0  0
  150.5703  143.8676  158.9605 H   0  0  0  0  0  0  0  0  0  0  0  0
  151.6961  144.3476  157.7080 H   0  0  0  0  0  0  0  0  0  0  0  0
  149.7377  142.1729  157.6057 H   0  0  0  0  0  0  0  0  0  0  0  0
  151.6787  142.8692  155.5205 H   0  0  0  0  0  0  0  0  0  0  0  0
  151.7269  141.4093  156.5039 H   0  0  0  0  0  0  0  0  0  0  0  0
  148.6422  142.6914  155.6844 H   0  0  0  0  0  0  0  0  0  0  0  0
  146.1505  142.5098  153.1212 H   0  0  0  0  0  0  0  0  0  0  0  0
  147.6955  143.3518  153.1018 H   0  0  0  0  0  0  0  0  0  0  0  0
  146.6933  143.3753  154.5508 H   0  0  0  0  0  0  0  0  0  0  0  0
  148.8259  141.1277  152.3676 H   0  0  0  0  0  0  0  0  0  0  0  0
  146.1445  139.5794  152.6606 H   0  0  0  0  0  0  0  0  0  0  0  0
  147.2474  139.6569  151.1987 H   0  0  0  0  0  0  0  0  0  0  0  0
  149.1169  138.6812  152.5688 H   0  0  0  0  0  0  0  0  0  0  0  0
  148.0119  138.6272  154.0355 H   0  0  0  0  0  0  0  0  0  0  0  0
  153.9105  141.1481  160.5892 H   0  0  0  0  0  0  0  0  0  0  0  0
  149.7364  143.5528  156.7206 H   0  0  0  0  0  0  0  0  0  0  0  0
  1  2  1  0  0  0  0
  1 21  1  0  0  0  0
  1 22  1  0  0  0  0
  1 23  1  0  0  0  0
  2 20  2  0  0  0  0
  2  3  1  0  0  0  0
  3  4  2  0  0  0  0
  3 24  1  0  0  0  0
  4  5  1  0  0  0  0
  5  6  1  0  0  0  0
  5 20  1  0  0  0  0
  6  7  1  0  0  0  0
  6 25  1  0  0  0  0
  6 26  1  0  0  0  0
  7  8  1  0  0  0  0
  7 27  1  0  0  0  0
  7 28  1  0  0  0  0
  8  9  1  0  0  0  0
  8 29  1  0  0  0  0
  8 42  1  0  0  0  0
  9 10  1  0  0  0  0
  9 30  1  0  0  0  0
  9 31  1  0  0  0  0
 10 11  2  0  0  0  0
 10 12  1  0  0  0  0
 12 13  1  0  0  0  0
 12 32  1  0  0  0  0
 13 14  1  0  0  0  0
 13 15  1  0  0  0  0
 13 17  1  0  0  0  0
 14 33  1  0  0  0  0
 14 34  1  0  0  0  0
 14 35  1  0  0  0  0
 15 16  3  0  0  0  0
 17 19  1  0  0  0  0
 17 18  1  0  0  0  0
 17 36  1  0  0  0  0
 18 19  1  0  0  0  0
 18 37  1  0  0  0  0
 18 38  1  0  0  0  0
 19 39  1  0  0  0  0
 19 40  1  0  0  0  0
 20 41  1  0  0  0  0
M  CHG  1   8   1
M  END
> <s_m_source_file>
AV-unprocessed.smi

> <i_m_source_file_index>
3329

> <i_lp_mmshare_version>
43012

> <i_f3d_flags>
0

> <s_epik_input>
W0NIM11jMVtjSF1ubihbY0hdMSlbQ0gyXVtDSDJdW05IXVtDSDJdQyg9TylbTkhdW0NAQF0oW0NIM10pKEMjTilbQ0hdMltDSDJdW0NIMl0y

> <s_epik_cmdline>
J2VwaWtfcHl0aG9uJywgJy1waCcsICc3LjAnLCAnLXRuJywgJzgnLCAnLW1hJywgJzIwMCcsICctbWV0YWxfYmluZGluZycsICctaW1hZScsICc8aW5maWxlLm1hZT4nLCAnLW9tYWUnLCAnPG91dGZpbGUubWFlPic=

> <r_lp_tautomer_probability>
1

> <r_epik_Ionization_Penalty>
0.350291

> <r_epik_Ionization_Penalty_Charging>
0.350239

> <r_epik_Ionization_Penalty_Neutral>
5.12768e-05

> <r_epik_State_Penalty>
0.347656

> <r_epik_Charging_Adjusted_Penalty>
0.697895

> <i_epik_Tot_Q>
1

> <i_epik_Tot_abs_Q>
1

> <r_epik_Metal_State_Penalty>
0.371739

> <b_epik_Metal_Only>
0

> <s_lp_Force_Field>
OPLS_2005

> <r_lp_Energy>
13.221

> <b_lp_Chiralities_Consistent>
1

> <s_lp_Variant>
AV-unprocessed.smi:3329-2

> <Gold.Version>
5.8.1

> <Gold.Id.Protein>
6NUR|6NUR_protein|mol2

> <Gold.PLP.Fitness>
54.4129

> <Gold.PLP.PLP>
-44.8519

> <Gold.PLP.part.hbond>
-3.0000

> <Gold.PLP.part.metal>
0.0000

> <Gold.PLP.part.buried>
-1.6977

> <Gold.PLP.part.nonpolar>
-39.0541

> <Gold.PLP.part.repulsive>
0.4031

> <Gold.PLP.ligand.clash>
0.0000

> <Gold.PLP.ligand.torsion>
1.5848

> <Gold.PLP.Chemscore.Hbond>
3.7280

> <Gold.PLP.Chemscore.CHOScore>
0.0000

> <Gold.PLP.Chemscore.Metal>
0.0000

> <Gold.Chemscore.Hbonds>
donor molecule, donor type, donor heavy atom, donor atom, acceptor molecule, acceptor atom, score
      L1  H     8    42       P1  8028  2.00
      L1  H    12    32       P1  8028  0.70
      P1  H  7989  7998       L1    11  0.75

> <Gold.PLP.Chemscore.Internal.Correction>
1.5466

> <Gold.Rescore>
     Score         DG    S(hbond)    S(metal)    S(lipo)     H(rot)  DE(clash)    DE(int)     intcor
     14.34     -19.59       2.13        0.00     112.35       2.40       0.81       4.44       ----

> <Gold.Chemscore.Fitness>
14.3440

> <Gold.Chemscore.DG>
-19.5932

> <Gold.Chemscore.ZeroCoef>
-5.4800

> <Gold.Chemscore.Hbond>
2.1272

> <Gold.Chemscore.Metal>
0.0000

> <Gold.Chemscore.Lipo>
112.3531

> <Gold.Chemscore.Internal_Hbond>
0.0000

> <Gold.Chemscore.DEClash>
0.8100

> <Gold.Chemscore.DEInternal>
4.4392

> <Gold.Chemscore.Rot>
2.3972

> <Gold.Chemscore.Internal.Correction>
   9.000000E+99

> <Gold.Chemscore.Hbonds>
donor molecule, donor type, donor heavy atom, donor atom, acceptor molecule, acceptor atom, score
      L1  H     8    42       P1  8028  1.00
      L1  H    12    32       P1  8028  0.66
      P1  H  7989  7998       L1    11  0.64

> <Gold.Chemscore.Hbond.Weighted>
-7.1048

> <Gold.Chemscore.Metal.Weighted>
-0.0000

> <Gold.Chemscore.Lipo.Weighted>
-13.1453

> <Gold.Chemscore.Internal_Hbond.Weighted>
0.0000

> <Gold.Chemscore.DEClash.Weighted>
0.8100

> <Gold.Chemscore.DEInternal.Weighted>
4.4392

> <Gold.Chemscore.Rot.Weighted>
6.1369

> <Gold.Chemscore.Internal.Correction.Weighted>
   9.000000E+99

> <Gold.Protein.RotatedTorsions>
[ 6907 6896 6895 6894 ] final  124.33 input  -60.11 | X-H torsion
[ 7974 7965 7964 7962 ] final  -55.42 input  175.53 | X-H torsion
[ 8008 7997 7996 7995 ] final  -53.22 input   59.86 | X-H torsion
[ 10167 10162 10161 10158 ] final -138.05 input  -65.29 | X-H torsion
[ 10718 10713 10712 10709 ] final  109.90 input   66.30 | X-H torsion
[ 10763 10752 10751 10750 ] final  -91.14 input  -60.55 | X-H torsion
[ 11005 11000 10999 10996 ] final   75.64 input  -57.11 | X-H torsion

> <Gold.Protein.ActiveResidues>
 VAL166  LYS551  ARG553  GLY616  TRP617  ASP618  TYR619  PRO620  LYS621  CYS622 
 ASP623  PHE694  ASN695  SER759  ASP760  ASP761  ALA762  ILE779  LEU786  VAL792 
 PHE793  MET794  SER795  GLU796  ALA797  LYS798  CYS799  TRP800  GLU811  SER814 

> <Gold.Protein.RotatedAtoms>
  152.4087  133.6930  159.6378 H   0  0  0  0  0  0  0  0  0  0  0  0  # atno 6907 bound_to 6896
  150.7970  133.8662  159.3254 H   0  0  0  0  0  0  0  0  0  0  0  0  # atno 6908 bound_to 6896
  151.6410  135.1014  160.0193 H   0  0  0  0  0  0  0  0  0  0  0  0  # atno 6909 bound_to 6896
  145.8743  140.8192  142.9872 H   0  0  0  0  0  0  0  0  0  0  0  0  # atno 7974 bound_to 7965
  154.4127  140.1205  156.5118 H   0  0  0  0  0  0  0  0  0  0  0  0  # atno 8008 bound_to 7997
  155.6791  140.3496  155.4829 H   0  0  0  0  0  0  0  0  0  0  0  0  # atno 8009 bound_to 7997
  155.9567  140.1115  157.0921 H   0  0  0  0  0  0  0  0  0  0  0  0  # atno 8010 bound_to 7997
  139.8516  143.7191  152.2657 H   0  0  0  0  0  0  0  0  0  0  0  0  # atno 10167 bound_to 10162
  157.6520  131.0922  150.6522 H   0  0  0  0  0  0  0  0  0  0  0  0  # atno 10718 bound_to 10713
  154.6730  135.5278  153.8163 H   0  0  0  0  0  0  0  0  0  0  0  0  # atno 10763 bound_to 10752
  153.0514  135.6534  154.0694 H   0  0  0  0  0  0  0  0  0  0  0  0  # atno 10764 bound_to 10752
  154.0591  135.2963  155.3307 H   0  0  0  0  0  0  0  0  0  0  0  0  # atno 10765 bound_to 10752
  139.9334  134.7534  156.1296 H   0  0  0  0  0  0  0  0  0  0  0  0  # atno 11005 bound_to 11000
  144.6726  140.1287  143.7445 LP  0  0  0  0  0  0  0  0  0  0  0  0  # atno 17320 bound_to 7965
  145.9099  139.2481  143.1443 LP  0  0  0  0  0  0  0  0  0  0  0  0  # atno 17321 bound_to 7965
  139.7460  144.7547  151.0580 LP  0  0  0  0  0  0  0  0  0  0  0  0  # atno 17342 bound_to 10162
  140.7787  143.4916  150.9885 LP  0  0  0  0  0  0  0  0  0  0  0  0  # atno 17343 bound_to 10162
  156.6832  130.4573  149.5621 LP  0  0  0  0  0  0  0  0  0  0  0  0  # atno 17370 bound_to 10713
  156.1914  130.6562  151.1065 LP  0  0  0  0  0  0  0  0  0  0  0  0  # atno 17371 bound_to 10713
  141.0935  133.6704  156.2594 LP  0  0  0  0  0  0  0  0  0  0  0  0  # atno 17394 bound_to 11000
  140.6140  134.5430  157.5538 LP  0  0  0  0  0  0  0  0  0  0  0  0  # atno 17395 bound_to 11000

$$$$
