AV-unprocessed.smi:1527|AV-procd|sdf|6149|dock2
  -GOLD-   22720 6293D 1   1.00000     0.00000
 Structure written by MMmdl.
 31 31  0  0  0  0  0  0  0  0  1 V2000
  152.2433  144.7777  159.7733 C   0  0  0  0  0  0  0  0  0  0  0  0
  151.9415  143.5914  160.7011 C   0  0  0  0  0  0  0  0  0  0  0  0
  152.2904  142.2237  160.0851 C   0  0  2  0  0  0  0  0  0  0  0  0
  153.7713  141.8678  160.2843 C   0  0  0  0  0  0  0  0  0  0  0  0
  151.9671  142.2170  158.6603 N   0  0  0  0  0  0  0  0  0  0  0  0
  151.3387  141.2287  158.0055 C   0  0  0  0  0  0  0  0  0  0  0  0
  150.9894  140.1755  158.5401 O   0  0  0  0  0  0  0  0  0  0  0  0
  151.0862  141.4646  156.5098 C   0  0  0  0  0  0  0  0  0  0  0  0
  151.0918  140.2209  155.7271 N   0  0  0  0  0  0  0  0  0  0  0  0
  152.3145  139.5674  155.7068 N   0  0  0  0  0  0  0  0  0  0  0  0
  152.4410  138.4573  155.0618 C   0  0  0  0  0  0  0  0  0  0  0  0
  153.6684  137.8416  155.0717 O   0  0  0  0  0  0  0  0  0  0  0  0
  151.3265  137.8747  154.3474 C   0  0  0  0  0  0  0  0  0  0  0  0
  150.1401  138.5206  154.3700 C   0  0  0  0  0  0  0  0  0  0  0  0
  149.9610  139.7806  155.0935 C   0  0  0  0  0  0  0  0  0  0  0  0
  148.8923  140.3905  155.1311 O   0  0  0  0  0  0  0  0  0  0  0  0
  154.1836  138.3002  154.4259 H   0  0  0  0  0  0  0  0  0  0  0  0
  151.9401  145.7171  160.2357 H   0  0  0  0  0  0  0  0  0  0  0  0
  151.7067  144.6840  158.8288 H   0  0  0  0  0  0  0  0  0  0  0  0
  153.3074  144.8515  159.5471 H   0  0  0  0  0  0  0  0  0  0  0  0
  152.4791  143.7228  161.6411 H   0  0  0  0  0  0  0  0  0  0  0  0
  150.8809  143.6095  160.9542 H   0  0  0  0  0  0  0  0  0  0  0  0
  151.6916  141.4700  160.5998 H   0  0  0  0  0  0  0  0  0  0  0  0
  154.0306  141.8486  161.3432 H   0  0  0  0  0  0  0  0  0  0  0  0
  154.4241  142.5915  159.7950 H   0  0  0  0  0  0  0  0  0  0  0  0
  153.9978  140.8831  159.8739 H   0  0  0  0  0  0  0  0  0  0  0  0
  152.2218  143.0411  158.1351 H   0  0  0  0  0  0  0  0  0  0  0  0
  150.1377  141.9868  156.3684 H   0  0  0  0  0  0  0  0  0  0  0  0
  151.8540  142.1479  156.1430 H   0  0  0  0  0  0  0  0  0  0  0  0
  151.4498  136.9451  153.8114 H   0  0  0  0  0  0  0  0  0  0  0  0
  149.2993  138.0971  153.8407 H   0  0  0  0  0  0  0  0  0  0  0  0
  1  2  1  0  0  0  0
  1 18  1  0  0  0  0
  1 19  1  0  0  0  0
  1 20  1  0  0  0  0
  2  3  1  0  0  0  0
  2 21  1  0  0  0  0
  2 22  1  0  0  0  0
  3  4  1  0  0  0  0
  3  5  1  0  0  0  0
  3 23  1  0  0  0  0
  4 24  1  0  0  0  0
  4 25  1  0  0  0  0
  4 26  1  0  0  0  0
  5  6  1  0  0  0  0
  5 27  1  0  0  0  0
  6  7  2  0  0  0  0
  6  8  1  0  0  0  0
  8 28  1  0  0  0  0
  8 29  1  0  0  0  0
  8  9  1  0  0  0  0
  9 10  1  0  0  0  0
  9 15  1  0  0  0  0
 10 11  2  0  0  0  0
 11 12  1  0  0  0  0
 11 13  1  0  0  0  0
 12 17  1  0  0  0  0
 13 30  1  0  0  0  0
 13 14  2  0  0  0  0
 14 31  1  0  0  0  0
 14 15  1  0  0  0  0
 15 16  2  0  0  0  0
M  END
> <s_m_source_file>
AV-unprocessed.smi

> <i_m_source_file_index>
1527

> <i_lp_mmshare_version>
43012

> <i_f3d_flags>
0

> <s_epik_input>
W0NIM11bQ0gyXVtDQEhdKFtDSDNdKVtOSF1DKD1PKVtDSDJdbjFbbkhdYyg9TylbY0hdW2NIXWMxPU8=

> <s_epik_cmdline>
J2VwaWtfcHl0aG9uJywgJy1waCcsICc3LjAnLCAnLXRuJywgJzgnLCAnLW1hJywgJzIwMCcsICctbWV0YWxfYmluZGluZycsICctaW1hZScsICc8aW5maWxlLm1hZT4nLCAnLW9tYWUnLCAnPG91dGZpbGUubWFlPic=

> <r_lp_tautomer_probability>
0.9996

> <r_epik_Ionization_Penalty>
2.12171

> <r_epik_Ionization_Penalty_Charging>
3.79077e-08

> <r_epik_Ionization_Penalty_Neutral>
2.12171

> <r_epik_State_Penalty>
1.69857

> <r_epik_Charging_Adjusted_Penalty>
1.69857

> <i_epik_Tot_Q>
0

> <i_epik_Tot_abs_Q>
0

> <r_epik_Metal_State_Penalty>
1.69857

> <b_epik_Metal_Only>
0

> <s_lp_Force_Field>
OPLS_2005

> <r_lp_Energy>
14.661

> <b_lp_Chiralities_Consistent>
1

> <s_lp_Variant>
AV-unprocessed.smi:1527-3

> <Gold.Version>
5.8.1

> <Gold.Id.Protein>
6NUR|6NUR_protein|mol2

> <Gold.PLP.Fitness>
40.0480

> <Gold.PLP.PLP>
-38.7771

> <Gold.PLP.part.hbond>
-3.2658

> <Gold.PLP.part.metal>
0.0000

> <Gold.PLP.part.buried>
-5.0206

> <Gold.PLP.part.nonpolar>
-30.0638

> <Gold.PLP.part.repulsive>
0.1497

> <Gold.PLP.ligand.clash>
0.0000

> <Gold.PLP.ligand.torsion>
0.8715

> <Gold.PLP.Chemscore.Hbond>
1.0000

> <Gold.PLP.Chemscore.CHOScore>
0.0000

> <Gold.PLP.Chemscore.Metal>
0.0000

> <Gold.Chemscore.Hbonds>
donor molecule, donor type, donor heavy atom, donor atom, acceptor molecule, acceptor atom, score
      P1  H  7997  8009       L1    10  0.60

> <Gold.PLP.Chemscore.Internal.Correction>
0.0138

> <Gold.Rescore>
     Score         DG    S(hbond)    S(metal)    S(lipo)     H(rot)  DE(clash)    DE(int)     intcor
      8.38      -9.48       0.74        0.00      69.54       2.58       0.19       0.91       ----

> <Gold.Chemscore.Fitness>
8.3840

> <Gold.Chemscore.DG>
-9.4798

> <Gold.Chemscore.ZeroCoef>
-5.4800

> <Gold.Chemscore.Hbond>
0.7396

> <Gold.Chemscore.Metal>
0.0000

> <Gold.Chemscore.Lipo>
69.5361

> <Gold.Chemscore.Internal_Hbond>
0.0000

> <Gold.Chemscore.DEClash>
0.1904

> <Gold.Chemscore.DEInternal>
0.9054

> <Gold.Chemscore.Rot>
2.5806

> <Gold.Chemscore.Internal.Correction>
   9.000000E+99

> <Gold.Chemscore.Hbonds>
donor molecule, donor type, donor heavy atom, donor atom, acceptor molecule, acceptor atom, score
      P1  H  7997  8009       L1    10  0.20

> <Gold.Chemscore.Hbond.Weighted>
-2.4703

> <Gold.Chemscore.Metal.Weighted>
-0.0000

> <Gold.Chemscore.Lipo.Weighted>
-8.1357

> <Gold.Chemscore.Internal_Hbond.Weighted>
0.0000

> <Gold.Chemscore.DEClash.Weighted>
0.1904

> <Gold.Chemscore.DEInternal.Weighted>
0.9054

> <Gold.Chemscore.Rot.Weighted>
6.6063

> <Gold.Chemscore.Internal.Correction.Weighted>
   9.000000E+99

> <Gold.Protein.RotatedTorsions>
[ 6907 6896 6895 6894 ] final -141.68 input  -60.11 | X-H torsion
[ 7974 7965 7964 7962 ] final   26.61 input  175.53 | X-H torsion
[ 8008 7997 7996 7995 ] final -141.80 input   59.86 | X-H torsion
[ 10167 10162 10161 10158 ] final  176.69 input  -65.29 | X-H torsion
[ 10718 10713 10712 10709 ] final  -71.77 input   66.30 | X-H torsion
[ 10763 10752 10751 10750 ] final  -33.18 input  -60.55 | X-H torsion
[ 11005 11000 10999 10996 ] final -139.07 input  -57.11 | X-H torsion

> <Gold.Protein.ActiveResidues>
 VAL166  LYS551  ARG553  GLY616  TRP617  ASP618  TYR619  PRO620  LYS621  CYS622 
 ASP623  PHE694  ASN695  SER759  ASP760  ASP761  ALA762  ILE779  LEU786  VAL792 
 PHE793  MET794  SER795  GLU796  ALA797  LYS798  CYS799  TRP800  GLU811  SER814 

> <Gold.Protein.RotatedAtoms>
  151.0770  133.5420  159.2622 H   0  0  0  0  0  0  0  0  0  0  0  0  # atno 6907 bound_to 6896
  151.2337  135.0563  159.9008 H   0  0  0  0  0  0  0  0  0  0  0  0  # atno 6908 bound_to 6896
  152.5419  134.0556  159.8183 H   0  0  0  0  0  0  0  0  0  0  0  0  # atno 6909 bound_to 6896
  146.1828  139.7304  142.8888 H   0  0  0  0  0  0  0  0  0  0  0  0  # atno 7974 bound_to 7965
  155.4838  140.0562  157.2963 H   0  0  0  0  0  0  0  0  0  0  0  0  # atno 8008 bound_to 7997
  154.4650  140.2014  156.0095 H   0  0  0  0  0  0  0  0  0  0  0  0  # atno 8009 bound_to 7997
  156.0957  140.3226  155.7879 H   0  0  0  0  0  0  0  0  0  0  0  0  # atno 8010 bound_to 7997
  139.5224  144.2885  152.0484 H   0  0  0  0  0  0  0  0  0  0  0  0  # atno 10167 bound_to 10162
  156.0348  130.4358  150.2493 H   0  0  0  0  0  0  0  0  0  0  0  0  # atno 10718 bound_to 10713
  153.8260  135.6870  153.4821 H   0  0  0  0  0  0  0  0  0  0  0  0  # atno 10763 bound_to 10752
  153.1540  135.4606  154.9676 H   0  0  0  0  0  0  0  0  0  0  0  0  # atno 10764 bound_to 10752
  154.7907  135.3301  154.7727 H   0  0  0  0  0  0  0  0  0  0  0  0  # atno 10765 bound_to 10752
  140.8555  134.2233  157.4737 H   0  0  0  0  0  0  0  0  0  0  0  0  # atno 11005 bound_to 11000
  145.4026  141.0387  143.3062 LP  0  0  0  0  0  0  0  0  0  0  0  0  # atno 17320 bound_to 7965
  144.8345  139.5574  143.6929 LP  0  0  0  0  0  0  0  0  0  0  0  0  # atno 17321 bound_to 7965
  140.2337  144.4341  150.6289 LP  0  0  0  0  0  0  0  0  0  0  0  0  # atno 17342 bound_to 10162
  140.6338  143.2191  151.6440 LP  0  0  0  0  0  0  0  0  0  0  0  0  # atno 17343 bound_to 10162
  157.0593  131.0085  151.3228 LP  0  0  0  0  0  0  0  0  0  0  0  0  # atno 17370 bound_to 10713
  157.5082  130.7922  149.7677 LP  0  0  0  0  0  0  0  0  0  0  0  0  # atno 17371 bound_to 10713
  139.8705  134.9704  156.4701 LP  0  0  0  0  0  0  0  0  0  0  0  0  # atno 17394 bound_to 11000
  140.8742  133.7966  155.9396 LP  0  0  0  0  0  0  0  0  0  0  0  0  # atno 17395 bound_to 11000

$$$$
