AV-unprocessed.smi:2249|AV-procd|sdf|9098|dock2
  -GOLD-   2272012293D 1   1.00000     0.00000
 Structure written by MMmdl.
 38 39  0  0  0  0  0  0  0  0  1 V2000
  151.9129  145.2185  158.3795 C   0  0  0  0  0  0  0  0  0  0  0  0
  152.1453  143.7403  158.0154 C   0  0  2  0  0  0  0  0  0  0  0  0
  151.0767  143.3059  157.1160 N   0  0  0  0  0  0  0  0  0  0  0  0
  151.0004  142.1110  156.5119 C   0  0  0  0  0  0  0  0  0  0  0  0
  151.8479  141.2275  156.6429 O   0  0  0  0  0  0  0  0  0  0  0  0
  149.8912  142.0219  155.7572 N   0  0  0  0  0  0  0  0  0  0  0  0
  149.4559  140.9758  155.0057 C   0  0  0  0  0  0  0  0  0  0  0  0
  150.0177  139.7386  154.8451 C   0  0  0  0  0  0  0  0  0  0  0  0
  149.1082  139.1010  153.9535 C   0  0  0  0  0  0  0  0  0  0  0  0
  148.0895  139.8775  153.6061 N   0  0  0  0  0  0  0  0  0  0  0  0
  148.3004  141.0418  154.2578 N   0  0  0  0  0  0  0  0  0  0  0  0
  147.3649  142.1390  154.1045 C   0  0  0  0  0  0  0  0  0  0  0  0
  152.2129  142.8058  159.2517 C   0  0  0  0  0  0  0  0  0  0  0  0
  152.3392  143.5813  160.5789 C   0  0  0  0  0  0  0  0  0  0  0  0
  152.4838  142.6245  161.7736 C   0  0  0  0  0  0  0  0  0  0  0  0
  153.6064  141.7727  161.5835 O   0  0  0  0  0  0  0  0  0  0  0  0
  153.4751  140.9413  160.4374 C   0  0  0  0  0  0  0  0  0  0  0  0
  153.3858  141.8047  159.1690 C   0  0  0  0  0  0  0  0  0  0  0  0
  152.7491  145.6328  158.9417 H   0  0  0  0  0  0  0  0  0  0  0  0
  151.0100  145.3434  158.9781 H   0  0  0  0  0  0  0  0  0  0  0  0
  151.8034  145.8314  157.4841 H   0  0  0  0  0  0  0  0  0  0  0  0
  153.1002  143.6669  157.4914 H   0  0  0  0  0  0  0  0  0  0  0  0
  150.3347  143.9691  156.9461 H   0  0  0  0  0  0  0  0  0  0  0  0
  149.2973  142.8379  155.7426 H   0  0  0  0  0  0  0  0  0  0  0  0
  150.9210  139.3377  155.2796 H   0  0  0  0  0  0  0  0  0  0  0  0
  149.1570  138.1004  153.5499 H   0  0  0  0  0  0  0  0  0  0  0  0
  147.8532  142.9652  153.5877 H   0  0  0  0  0  0  0  0  0  0  0  0
  147.0322  142.4779  155.0858 H   0  0  0  0  0  0  0  0  0  0  0  0
  146.4946  141.8246  153.5264 H   0  0  0  0  0  0  0  0  0  0  0  0
  151.2870  142.2296  159.2901 H   0  0  0  0  0  0  0  0  0  0  0  0
  153.2045  144.2443  160.5401 H   0  0  0  0  0  0  0  0  0  0  0  0
  151.4673  144.2137  160.7424 H   0  0  0  0  0  0  0  0  0  0  0  0
  152.6263  143.1932  162.6927 H   0  0  0  0  0  0  0  0  0  0  0  0
  151.5793  142.0288  161.9064 H   0  0  0  0  0  0  0  0  0  0  0  0
  154.3421  140.2829  160.3809 H   0  0  0  0  0  0  0  0  0  0  0  0
  152.5964  140.3018  160.5356 H   0  0  0  0  0  0  0  0  0  0  0  0
  153.2795  141.1505  158.3035 H   0  0  0  0  0  0  0  0  0  0  0  0
  154.3233  142.3462  159.0351 H   0  0  0  0  0  0  0  0  0  0  0  0
  1  2  1  0  0  0  0
  1 19  1  0  0  0  0
  1 20  1  0  0  0  0
  1 21  1  0  0  0  0
  2  3  1  0  0  0  0
  2 13  1  0  0  0  0
  2 22  1  0  0  0  0
  3  4  1  0  0  0  0
  3 23  1  0  0  0  0
  4  5  2  0  0  0  0
  4  6  1  0  0  0  0
  6  7  1  0  0  0  0
  6 24  1  0  0  0  0
  7 11  1  0  0  0  0
  7  8  2  0  0  0  0
  8  9  1  0  0  0  0
  8 25  1  0  0  0  0
  9 10  2  0  0  0  0
  9 26  1  0  0  0  0
 10 11  1  0  0  0  0
 11 12  1  0  0  0  0
 12 27  1  0  0  0  0
 12 28  1  0  0  0  0
 12 29  1  0  0  0  0
 13 18  1  0  0  0  0
 13 14  1  0  0  0  0
 13 30  1  0  0  0  0
 14 15  1  0  0  0  0
 14 31  1  0  0  0  0
 14 32  1  0  0  0  0
 15 16  1  0  0  0  0
 15 33  1  0  0  0  0
 15 34  1  0  0  0  0
 16 17  1  0  0  0  0
 17 18  1  0  0  0  0
 17 35  1  0  0  0  0
 17 36  1  0  0  0  0
 18 37  1  0  0  0  0
 18 38  1  0  0  0  0
M  END
> <s_m_source_file>
AV-unprocessed.smi

> <i_m_source_file_index>
2249

> <i_lp_mmshare_version>
43012

> <i_f3d_flags>
0

> <s_epik_input>
W0NIMl0xW0NIMl1PW0NIMl1bQ0gyXVtDSF0xW0NASF0oW0NIM10pW05IXUMoPU8pW05IXWMyW2NIXVtjSF1ubjJbQ0gzXQ==

> <s_epik_cmdline>
J2VwaWtfcHl0aG9uJywgJy1waCcsICc3LjAnLCAnLXRuJywgJzgnLCAnLW1hJywgJzIwMCcsICctbWV0YWxfYmluZGluZycsICctaW1hZScsICc8aW5maWxlLm1hZT4nLCAnLW9tYWUnLCAnPG91dGZpbGUubWFlPic=

> <r_lp_tautomer_probability>
1

> <r_epik_Ionization_Penalty>
4.67687e-05

> <r_epik_Ionization_Penalty_Charging>
0

> <r_epik_Ionization_Penalty_Neutral>
4.67687e-05

> <r_epik_State_Penalty>
-0

> <r_epik_Charging_Adjusted_Penalty>
0

> <i_epik_Tot_Q>
0

> <i_epik_Tot_abs_Q>
0

> <r_epik_Metal_State_Penalty>
-0

> <b_epik_Metal_Only>
0

> <s_lp_Force_Field>
OPLS_2005

> <r_lp_Energy>
12.7763

> <b_lp_Chiralities_Consistent>
1

> <s_lp_Variant>
AV-unprocessed.smi:2249-1

> <Gold.Version>
5.8.1

> <Gold.Id.Protein>
6NUR|6NUR_protein|mol2

> <Gold.PLP.Fitness>
47.9279

> <Gold.PLP.PLP>
-41.7147

> <Gold.PLP.part.hbond>
-2.0000

> <Gold.PLP.part.metal>
0.0000

> <Gold.PLP.part.buried>
-4.6014

> <Gold.PLP.part.nonpolar>
-35.0037

> <Gold.PLP.part.repulsive>
0.8916

> <Gold.PLP.ligand.clash>
0.0000

> <Gold.PLP.ligand.torsion>
1.3039

> <Gold.PLP.Chemscore.Hbond>
1.9357

> <Gold.PLP.Chemscore.CHOScore>
0.9930

> <Gold.PLP.Chemscore.Metal>
0.0000

> <Gold.Chemscore.Hbonds>
donor molecule, donor type, donor heavy atom, donor atom, acceptor molecule, acceptor atom, score
      L1  H     3    23       P1  8028  0.92
      L1  H     6    24       P1  8028  1.00
      L1  C     9    26       P1  7948  1.00

> <Gold.PLP.Chemscore.Internal.Correction>
0.0348

> <Gold.Rescore>
     Score         DG    S(hbond)    S(metal)    S(lipo)     H(rot)  DE(clash)    DE(int)     intcor
     16.37     -20.10       1.86        0.00      99.32       1.26       1.17       2.57       ----

> <Gold.Chemscore.Fitness>
16.3654

> <Gold.Chemscore.DG>
-20.1006

> <Gold.Chemscore.ZeroCoef>
-5.4800

> <Gold.Chemscore.Hbond>
1.8632

> <Gold.Chemscore.Metal>
0.0000

> <Gold.Chemscore.Lipo>
99.3157

> <Gold.Chemscore.Internal_Hbond>
0.0000

> <Gold.Chemscore.DEClash>
1.1666

> <Gold.Chemscore.DEInternal>
2.5686

> <Gold.Chemscore.Rot>
1.2588

> <Gold.Chemscore.Internal.Correction>
   9.000000E+99

> <Gold.Chemscore.Hbonds>
donor molecule, donor type, donor heavy atom, donor atom, acceptor molecule, acceptor atom, score
      L1  H     3    23       P1  8028  0.83
      L1  H     6    24       P1  8028  0.98

> <Gold.Chemscore.Hbond.Weighted>
-6.2230

> <Gold.Chemscore.Metal.Weighted>
-0.0000

> <Gold.Chemscore.Lipo.Weighted>
-11.6199

> <Gold.Chemscore.Internal_Hbond.Weighted>
0.0000

> <Gold.Chemscore.DEClash.Weighted>
1.1666

> <Gold.Chemscore.DEInternal.Weighted>
2.5686

> <Gold.Chemscore.Rot.Weighted>
3.2224

> <Gold.Chemscore.Internal.Correction.Weighted>
   9.000000E+99

> <Gold.Protein.RotatedTorsions>
[ 6907 6896 6895 6894 ] final   51.68 input  -60.11 | X-H torsion
[ 7974 7965 7964 7962 ] final  108.58 input  175.53 | X-H torsion
[ 8008 7997 7996 7995 ] final  -89.98 input   59.86 | X-H torsion
[ 10167 10162 10161 10158 ] final -108.73 input  -65.29 | X-H torsion
[ 10718 10713 10712 10709 ] final  -70.26 input   66.30 | X-H torsion
[ 10763 10752 10751 10750 ] final  -35.52 input  -60.55 | X-H torsion
[ 11005 11000 10999 10996 ] final  -50.82 input  -57.11 | X-H torsion

> <Gold.Protein.ActiveResidues>
 VAL166  LYS551  ARG553  GLY616  TRP617  ASP618  TYR619  PRO620  LYS621  CYS622 
 ASP623  PHE694  ASN695  SER759  ASP760  ASP761  ALA762  ILE779  LEU786  VAL792 
 PHE793  MET794  SER795  GLU796  ALA797  LYS798  CYS799  TRP800  GLU811  SER814 

> <Gold.Protein.RotatedAtoms>
  152.3153  134.7447  160.0326 H   0  0  0  0  0  0  0  0  0  0  0  0  # atno 6907 bound_to 6896
  151.7914  133.3354  159.3508 H   0  0  0  0  0  0  0  0  0  0  0  0  # atno 6908 bound_to 6896
  150.7341  134.5769  159.5963 H   0  0  0  0  0  0  0  0  0  0  0  0  # atno 6909 bound_to 6896
  145.2788  139.2640  143.3927 H   0  0  0  0  0  0  0  0  0  0  0  0  # atno 7974 bound_to 7965
  154.6931  140.0535  157.0383 H   0  0  0  0  0  0  0  0  0  0  0  0  # atno 8008 bound_to 7997
  155.0789  140.3207  155.4589 H   0  0  0  0  0  0  0  0  0  0  0  0  # atno 8009 bound_to 7997
  156.2735  140.2068  156.5916 H   0  0  0  0  0  0  0  0  0  0  0  0  # atno 8010 bound_to 7997
  140.1630  143.4105  152.1411 H   0  0  0  0  0  0  0  0  0  0  0  0  # atno 10167 bound_to 10162
  156.0416  130.4328  150.2269 H   0  0  0  0  0  0  0  0  0  0  0  0  # atno 10718 bound_to 10713
  153.8646  135.6837  153.4780 H   0  0  0  0  0  0  0  0  0  0  0  0  # atno 10763 bound_to 10752
  153.1322  135.4693  154.9364 H   0  0  0  0  0  0  0  0  0  0  0  0  # atno 10764 bound_to 10752
  154.7743  135.3248  154.8075 H   0  0  0  0  0  0  0  0  0  0  0  0  # atno 10765 bound_to 10752
  141.0837  133.6647  156.3787 H   0  0  0  0  0  0  0  0  0  0  0  0  # atno 11005 bound_to 11000
  146.3223  140.3250  142.8636 LP  0  0  0  0  0  0  0  0  0  0  0  0  # atno 17320 bound_to 7965
  144.9271  140.7933  143.5712 LP  0  0  0  0  0  0  0  0  0  0  0  0  # atno 17321 bound_to 7965
  139.5372  144.7221  151.4853 LP  0  0  0  0  0  0  0  0  0  0  0  0  # atno 17342 bound_to 10162
  140.6631  143.8456  150.6910 LP  0  0  0  0  0  0  0  0  0  0  0  0  # atno 17343 bound_to 10162
  157.0363  131.0022  151.3297 LP  0  0  0  0  0  0  0  0  0  0  0  0  # atno 17370 bound_to 10713
  157.5241  130.8017  149.7842 LP  0  0  0  0  0  0  0  0  0  0  0  0  # atno 17371 bound_to 10713
  140.5411  134.6119  157.5380 LP  0  0  0  0  0  0  0  0  0  0  0  0  # atno 17394 bound_to 11000
  139.9653  134.7383  156.0151 LP  0  0  0  0  0  0  0  0  0  0  0  0  # atno 17395 bound_to 11000

$$$$
