#       Name:                AV-unprocessed.smi:3157
#       Creating user name   scv26
#       Creation time:       Fri Mar 27 17:46:14 2020


#       File generated by GOLD software.
#

@<TRIPOS>MOLECULE
AV-unprocessed.smi:3157
    41    42     1
SMALL
NO_CHARGES


@<TRIPOS>ATOM
      1 ****        -2.1343  -1.4913   2.3991 C.3            1 S1                 0.0000
      2 ****        -1.6889  -0.7411   1.1332 C.3            1 S1                 0.0000
      3 ****        -0.2102  -0.6452   1.1395 N.4            1 S1                 1.0000
      4 ****         0.3275   0.7236   0.9969 C.3            1 S1                 0.0000
      5 ****         1.8593   0.7105   0.8785 C.3            1 S1                 0.0000
      6 ****         2.4815   2.1094   0.8781 C.3            1 S1                 0.0000
      7 ****         3.8660   1.9376   0.2407 C.3            1 S1                 0.0000
      8 ****         3.8158   0.6242  -0.5543 C.3            1 S1                 0.0000
      9 ****         2.3803   0.1067  -0.4290 C.3            1 S1                 0.0000
     10 ****        -2.1838  -1.4206  -0.1719 C.3            1 S1                 0.0000
     11 ****        -3.7159  -1.5626  -0.2464 C.3            1 S1                 0.0000
     12 ****        -1.6954  -0.7147  -1.3516 N.pl3          1 S1                 0.0000
     13 ****        -2.1109   0.4950  -1.8730 C.2            1 S1                 0.0000
     14 ****        -1.3313   0.7601  -2.9620 C.2            1 S1                 0.0000
     15 ****        -0.4505  -0.3547  -3.0268 C.2            1 S1                 0.0000
     16 ****        -0.6633  -1.2289  -2.0566 N.2            1 S1                 0.0000
     17 ****        -3.2183  -1.4847   2.5121 H              1 S1                 0.0000
     18 ****        -1.7201  -1.0261   3.2943 H              1 S1                 0.0000
     19 ****        -1.8048  -2.5308   2.3824 H              1 S1                 0.0000
     20 ****        -2.1107   0.2643   1.1861 H              1 S1                 0.0000
     21 ****         0.1319  -1.0275   2.0094 H              1 S1                 0.0000
     22 ****        -0.1107   1.2087   0.1241 H              1 S1                 0.0000
     23 ****         0.0279   1.3062   1.8690 H              1 S1                 0.0000
     24 ****         2.2829   0.1525   1.7157 H              1 S1                 0.0000
     25 ****         1.8825   2.7818   0.2616 H              1 S1                 0.0000
     26 ****         2.5353   2.5425   1.8777 H              1 S1                 0.0000
     27 ****         4.1128   2.7874  -0.3968 H              1 S1                 0.0000
     28 ****         4.6351   1.8753   1.0115 H              1 S1                 0.0000
     29 ****         4.1032   0.7633  -1.5972 H              1 S1                 0.0000
     30 ****         4.5100  -0.0951  -0.1178 H              1 S1                 0.0000
     31 ****         2.3277  -0.9825  -0.4420 H              1 S1                 0.0000
     32 ****         1.7914   0.4757  -1.2697 H              1 S1                 0.0000
     33 ****        -1.7705  -2.4308  -0.2033 H              1 S1                 0.0000
     34 ****        -4.0949  -2.2414   0.5171 H              1 S1                 0.0000
     35 ****        -4.0227  -1.9692  -1.2109 H              1 S1                 0.0000
     36 ****        -4.2160  -0.6023  -0.1168 H              1 S1                 0.0000
     37 ****        -2.9160   1.0626  -1.4303 H              1 S1                 0.0000
     38 ****        -1.3810   1.6207  -3.6127 H              1 S1                 0.0000
     39 ****         0.3369  -0.5491  -3.7399 H              1 S1                 0.0000
     40 ****         0.1435  -1.2106   0.3804 H              1 S1                 0.0000
     41 ****        -0.1698  -2.0812  -1.8833 LP             1 S1                 0.0000
@<TRIPOS>BOND
    1    1    2 1     
    2    1   17 1     
    3    1   18 1     
    4    1   19 1     
    5    2    3 1     
    6    2   10 1     
    7    2   20 1     
    8    3    4 1     
    9    3   21 1     
   10    3   40 1     
   11    4    5 1     
   12    4   22 1     
   13    4   23 1     
   14    5    9 1     
   15    5    6 1     
   16    5   24 1     
   17    6    7 1     
   18    6   25 1     
   19    6   26 1     
   20    7    8 1     
   21    7   27 1     
   22    7   28 1     
   23    8    9 1     
   24    8   29 1     
   25    8   30 1     
   26    9   31 1     
   27    9   32 1     
   28   10   11 1     
   29   10   12 1     
   30   10   33 1     
   31   11   34 1     
   32   11   35 1     
   33   11   36 1     
   34   12   16 1     
   35   12   13 1     
   36   13   14 2     
   37   13   37 1     
   38   14   15 1     
   39   14   38 1     
   40   15   16 2     
   41   15   39 1     
   42   16   41 1     
@<TRIPOS>SUBSTRUCTURE
      1 S1             1
@<TRIPOS>SET
LONE_PAIRS      STATIC     ATOMS    <user>   **** ""
1 41
DONOR_HYDROGENS      STATIC     ATOMS    <user>   **** ""
2 21 40
ATOM$BLUE        STATIC     ATOMS    COLORGROUP SYSTEM
1 41
ATOM$RED        STATIC     ATOMS    COLORGROUP SYSTEM
2 21 40
