AV-unprocessed.smi:3335|AV-procd|sdf|12840|dock7
  -GOLD-   2272019223D 1   1.00000     0.00000
 Structure written by MMmdl.
 47 48  0  0  0  0  0  0  0  0  2 V2000
  151.6577  138.5283  154.6039 C   0  0  0  0  0  0  0  0  0  0  0  0
  150.1660  138.3729  154.5377 C   0  0  0  0  0  0  0  0  0  0  0  0
  149.3491  137.4513  155.2508 C   0  0  0  0  0  0  0  0  0  0  0  0
  148.0632  137.5842  154.9716 N   0  0  0  0  0  0  0  0  0  0  0  0
  148.0091  138.5827  154.0612 N   0  0  0  0  0  0  0  0  0  0  0  0
  146.7296  139.0550  153.5360 C   0  0  1  0  0  0  0  0  0  0  0  0
  146.6841  140.5916  153.4170 C   0  0  0  0  0  0  0  0  0  0  0  0
  146.3224  138.3347  152.2219 C   0  0  1  0  0  0  0  0  0  0  0  0
  146.9685  138.9376  150.9558 C   0  0  0  0  0  0  0  0  0  0  0  0
  146.6360  136.8890  152.3486 N   0  3  0  0  0  0  0  0  0  0  0  0
  145.9229  135.9343  151.4635 C   0  0  2  0  0  0  0  0  0  0  0  0
  144.4506  136.3419  151.2612 C   0  0  0  0  0  0  0  0  0  0  0  0
  145.9947  134.5182  152.0662 C   0  0  0  0  0  0  0  0  0  0  0  0
  146.5485  134.3643  153.1564 O   0  0  0  0  0  0  0  0  0  0  0  0
  145.4403  133.4827  151.3988 N   0  0  0  0  0  0  0  0  0  0  0  0
  144.7504  133.5466  150.1095 C   0  0  0  0  0  0  0  0  0  0  0  0
  144.0971  132.1774  149.9207 C   0  0  0  0  0  0  0  0  0  0  0  0
  144.9641  131.2372  150.7448 C   0  0  0  0  0  0  0  0  0  0  0  0
  145.4634  132.1080  151.8972 C   0  0  0  0  0  0  0  0  0  0  0  0
  149.2681  139.0782  153.7887 C   0  0  0  0  0  0  0  0  0  0  0  0
  152.0956  137.9113  155.3889 H   0  0  0  0  0  0  0  0  0  0  0  0
  151.9463  139.5593  154.8089 H   0  0  0  0  0  0  0  0  0  0  0  0
  152.1336  138.2410  153.6662 H   0  0  0  0  0  0  0  0  0  0  0  0
  149.6505  136.6992  155.9649 H   0  0  0  0  0  0  0  0  0  0  0  0
  145.9801  138.8013  154.2881 H   0  0  0  0  0  0  0  0  0  0  0  0
  145.6936  140.9304  153.1129 H   0  0  0  0  0  0  0  0  0  0  0  0
  147.3992  140.9745  152.6891 H   0  0  0  0  0  0  0  0  0  0  0  0
  146.9083  141.0618  154.3750 H   0  0  0  0  0  0  0  0  0  0  0  0
  145.2413  138.4346  152.1318 H   0  0  0  0  0  0  0  0  0  0  0  0
  146.8368  140.0184  150.9165 H   0  0  0  0  0  0  0  0  0  0  0  0
  146.5193  138.5413  150.0460 H   0  0  0  0  0  0  0  0  0  0  0  0
  148.0383  138.7324  150.9107 H   0  0  0  0  0  0  0  0  0  0  0  0
  147.6267  136.7788  152.1843 H   0  0  0  0  0  0  0  0  0  0  0  0
  146.4321  135.9253  150.5021 H   0  0  0  0  0  0  0  0  0  0  0  0
  143.8975  135.5836  150.7058 H   0  0  0  0  0  0  0  0  0  0  0  0
  144.3634  137.2684  150.6946 H   0  0  0  0  0  0  0  0  0  0  0  0
  143.9418  136.4842  152.2153 H   0  0  0  0  0  0  0  0  0  0  0  0
  144.0057  134.3421  150.0703 H   0  0  0  0  0  0  0  0  0  0  0  0
  145.4841  133.7256  149.3222 H   0  0  0  0  0  0  0  0  0  0  0  0
  143.0867  132.1942  150.3313 H   0  0  0  0  0  0  0  0  0  0  0  0
  144.0278  131.8809  148.8738 H   0  0  0  0  0  0  0  0  0  0  0  0
  144.4258  130.3519  151.0851 H   0  0  0  0  0  0  0  0  0  0  0  0
  145.8117  130.9033  150.1449 H   0  0  0  0  0  0  0  0  0  0  0  0
  146.4605  131.8029  152.2191 H   0  0  0  0  0  0  0  0  0  0  0  0
  144.7920  132.0300  152.7538 H   0  0  0  0  0  0  0  0  0  0  0  0
  149.4209  139.8903  153.0931 H   0  0  0  0  0  0  0  0  0  0  0  0
  146.4478  136.6098  153.3010 H   0  0  0  0  0  0  0  0  0  0  0  0
  1  2  1  0  0  0  0
  1 21  1  0  0  0  0
  1 22  1  0  0  0  0
  1 23  1  0  0  0  0
  2 20  2  0  0  0  0
  2  3  1  0  0  0  0
  3  4  2  0  0  0  0
  3 24  1  0  0  0  0
  4  5  1  0  0  0  0
  5  6  1  0  0  0  0
  5 20  1  0  0  0  0
  6  7  1  0  0  0  0
  6  8  1  0  0  0  0
  6 25  1  0  0  0  0
  7 26  1  0  0  0  0
  7 27  1  0  0  0  0
  7 28  1  0  0  0  0
  8  9  1  0  0  0  0
  8 10  1  0  0  0  0
  8 29  1  0  0  0  0
  9 30  1  0  0  0  0
  9 31  1  0  0  0  0
  9 32  1  0  0  0  0
 10 11  1  0  0  0  0
 10 33  1  0  0  0  0
 10 47  1  0  0  0  0
 11 12  1  0  0  0  0
 11 13  1  0  0  0  0
 11 34  1  0  0  0  0
 12 35  1  0  0  0  0
 12 36  1  0  0  0  0
 12 37  1  0  0  0  0
 13 14  2  0  0  0  0
 13 15  1  0  0  0  0
 15 19  1  0  0  0  0
 15 16  1  0  0  0  0
 16 17  1  0  0  0  0
 16 38  1  0  0  0  0
 16 39  1  0  0  0  0
 17 18  1  0  0  0  0
 17 40  1  0  0  0  0
 17 41  1  0  0  0  0
 18 19  1  0  0  0  0
 18 42  1  0  0  0  0
 18 43  1  0  0  0  0
 19 44  1  0  0  0  0
 19 45  1  0  0  0  0
 20 46  1  0  0  0  0
M  CHG  1  10   1
M  END
> <s_m_source_file>
AV-unprocessed.smi

> <i_m_source_file_index>
3335

> <i_lp_mmshare_version>
43012

> <i_f3d_flags>
0

> <s_epik_input>
W0NIM11jMVtjSF1ubihbY0hdMSlbQ0BIXShbQ0gzXSlbQ0BIXShbQ0gzXSlbTkhdW0NASF0oW0NIM10pQyg9TylOMltDSDJdW0NIMl1bQ0gyXVtDSDJdMg==

> <s_epik_cmdline>
J2VwaWtfcHl0aG9uJywgJy1waCcsICc3LjAnLCAnLXRuJywgJzgnLCAnLW1hJywgJzIwMCcsICctbWV0YWxfYmluZGluZycsICctaW1hZScsICc8aW5maWxlLm1hZT4nLCAnLW9tYWUnLCAnPG91dGZpbGUubWFlPic=

> <r_lp_tautomer_probability>
1

> <r_epik_Ionization_Penalty>
0.14175

> <r_epik_Ionization_Penalty_Charging>
0.141731

> <r_epik_Ionization_Penalty_Neutral>
1.91261e-05

> <r_epik_State_Penalty>
0.131043

> <r_epik_Charging_Adjusted_Penalty>
0.272773

> <i_epik_Tot_Q>
1

> <i_epik_Tot_abs_Q>
1

> <r_epik_Metal_State_Penalty>
0.131408

> <b_epik_Metal_Only>
0

> <s_lp_Force_Field>
OPLS_2005

> <r_lp_Energy>
37.3946

> <b_lp_Chiralities_Consistent>
1

> <s_lp_Variant>
AV-unprocessed.smi:3335-4

> <Gold.Version>
5.8.1

> <Gold.Id.Protein>
6NUR|6NUR_protein|mol2

> <Gold.PLP.Fitness>
42.0049

> <Gold.PLP.PLP>
-35.4157

> <Gold.PLP.part.hbond>
-0.9796

> <Gold.PLP.part.metal>
0.0000

> <Gold.PLP.part.buried>
-3.6002

> <Gold.PLP.part.nonpolar>
-31.5410

> <Gold.PLP.part.repulsive>
0.2050

> <Gold.PLP.ligand.clash>
0.0000

> <Gold.PLP.ligand.torsion>
1.3083

> <Gold.PLP.Chemscore.Hbond>
2.0000

> <Gold.PLP.Chemscore.CHOScore>
1.0000

> <Gold.PLP.Chemscore.Metal>
0.0000

> <Gold.Chemscore.Hbonds>
donor molecule, donor type, donor heavy atom, donor atom, acceptor molecule, acceptor atom, score
      L1  H    10    33       P1  7948  1.62
      L1  C    20    46       P1  7957  0.79

> <Gold.PLP.Chemscore.Internal.Correction>
0.2058

> <Gold.Rescore>
     Score         DG    S(hbond)    S(metal)    S(lipo)     H(rot)  DE(clash)    DE(int)     intcor
     14.06     -15.73       0.94        0.00      97.38       1.68       0.19       1.48       ----

> <Gold.Chemscore.Fitness>
14.0599

> <Gold.Chemscore.DG>
-15.7296

> <Gold.Chemscore.ZeroCoef>
-5.4800

> <Gold.Chemscore.Hbond>
0.9435

> <Gold.Chemscore.Metal>
0.0000

> <Gold.Chemscore.Lipo>
97.3797

> <Gold.Chemscore.Internal_Hbond>
0.0000

> <Gold.Chemscore.DEClash>
0.1883

> <Gold.Chemscore.DEInternal>
1.4814

> <Gold.Chemscore.Rot>
1.6778

> <Gold.Chemscore.Internal.Correction>
   9.000000E+99

> <Gold.Chemscore.Hbonds>
donor molecule, donor type, donor heavy atom, donor atom, acceptor molecule, acceptor atom, score
      L1  H    10    33       P1  7948  0.80

> <Gold.Chemscore.Hbond.Weighted>
-3.1513

> <Gold.Chemscore.Metal.Weighted>
-0.0000

> <Gold.Chemscore.Lipo.Weighted>
-11.3934

> <Gold.Chemscore.Internal_Hbond.Weighted>
0.0000

> <Gold.Chemscore.DEClash.Weighted>
0.1883

> <Gold.Chemscore.DEInternal.Weighted>
1.4814

> <Gold.Chemscore.Rot.Weighted>
4.2952

> <Gold.Chemscore.Internal.Correction.Weighted>
   9.000000E+99

> <Gold.Protein.RotatedTorsions>
[ 6907 6896 6895 6894 ] final   20.37 input  -60.11 | X-H torsion
[ 7974 7965 7964 7962 ] final   90.11 input  175.53 | X-H torsion
[ 8008 7997 7996 7995 ] final   78.12 input   59.86 | X-H torsion
[ 10167 10162 10161 10158 ] final -144.58 input  -65.29 | X-H torsion
[ 10718 10713 10712 10709 ] final  178.57 input   66.30 | X-H torsion
[ 10763 10752 10751 10750 ] final -111.69 input  -60.55 | X-H torsion
[ 11005 11000 10999 10996 ] final   36.81 input  -57.11 | X-H torsion

> <Gold.Protein.ActiveResidues>
 VAL166  LYS551  ARG553  GLY616  TRP617  ASP618  TYR619  PRO620  LYS621  CYS622 
 ASP623  PHE694  ASN695  SER759  ASP760  ASP761  ALA762  ILE779  LEU786  VAL792 
 PHE793  MET794  SER795  GLU796  ALA797  LYS798  CYS799  TRP800  GLU811  SER814 

> <Gold.Protein.RotatedAtoms>
  151.8953  135.0400  160.0501 H   0  0  0  0  0  0  0  0  0  0  0  0  # atno 6907 bound_to 6896
  152.2403  133.5125  159.5274 H   0  0  0  0  0  0  0  0  0  0  0  0  # atno 6908 bound_to 6896
  150.7051  134.1014  159.4010 H   0  0  0  0  0  0  0  0  0  0  0  0  # atno 6909 bound_to 6896
  145.5234  139.2280  143.2659 H   0  0  0  0  0  0  0  0  0  0  0  0  # atno 7974 bound_to 7965
  155.8513  140.3458  155.5695 H   0  0  0  0  0  0  0  0  0  0  0  0  # atno 8008 bound_to 7997
  155.8035  140.0888  157.1964 H   0  0  0  0  0  0  0  0  0  0  0  0  # atno 8009 bound_to 7997
  154.4008  140.1461  156.3289 H   0  0  0  0  0  0  0  0  0  0  0  0  # atno 8010 bound_to 7997
  139.7885  143.7999  152.2647 H   0  0  0  0  0  0  0  0  0  0  0  0  # atno 10167 bound_to 10162
  156.8887  130.9840  151.3052 H   0  0  0  0  0  0  0  0  0  0  0  0  # atno 10718 bound_to 10713
  154.8313  135.4518  154.1078 H   0  0  0  0  0  0  0  0  0  0  0  0  # atno 10763 bound_to 10752
  153.2349  135.6910  153.7854 H   0  0  0  0  0  0  0  0  0  0  0  0  # atno 10764 bound_to 10752
  153.7223  135.3340  155.3245 H   0  0  0  0  0  0  0  0  0  0  0  0  # atno 10765 bound_to 10752
  140.2288  134.3552  155.7973 H   0  0  0  0  0  0  0  0  0  0  0  0  # atno 11005 bound_to 11000
  146.2091  140.6047  142.9067 LP  0  0  0  0  0  0  0  0  0  0  0  0  # atno 17320 bound_to 7965
  144.7664  140.5540  143.6700 LP  0  0  0  0  0  0  0  0  0  0  0  0  # atno 17321 bound_to 7965
  139.8083  144.7346  150.9731 LP  0  0  0  0  0  0  0  0  0  0  0  0  # atno 17342 bound_to 10162
  140.7820  143.4276  151.0745 LP  0  0  0  0  0  0  0  0  0  0  0  0  # atno 17343 bound_to 10162
  157.6097  130.8573  149.8932 LP  0  0  0  0  0  0  0  0  0  0  0  0  # atno 17370 bound_to 10713
  156.0640  130.3695  150.0919 LP  0  0  0  0  0  0  0  0  0  0  0  0  # atno 17371 bound_to 10713
  141.2219  133.7234  156.8697 LP  0  0  0  0  0  0  0  0  0  0  0  0  # atno 17394 bound_to 11000
  140.1772  134.9058  157.2905 LP  0  0  0  0  0  0  0  0  0  0  0  0  # atno 17395 bound_to 11000

$$$$
