AV-unprocessed.smi:598|AV-procd|sdf|3023|dock2
  -GOLD-   2262023533D 1   1.00000     0.00000
 Structure written by MMmdl.
 43 44  0  0  0  0  0  0  0  0  3 V2000
  153.4843  142.6218  162.9121 C   0  0  0  0  0  0  0  0  0  0  0  0
  153.1450  143.2376  161.5419 C   0  0  2  0  0  0  0  0  0  0  0  0
  152.2416  144.4708  161.7411 C   0  0  0  0  0  0  0  0  0  0  0  0
  151.8999  145.1473  160.4096 C   0  0  0  0  0  0  0  0  0  0  0  0
  151.2226  144.1550  159.4604 C   0  0  0  0  0  0  0  0  0  0  0  0
  152.1025  142.9119  159.2241 C   0  0  2  0  0  0  0  0  0  0  0  0
  151.3913  141.9783  158.3518 N   0  0  0  0  0  0  0  0  0  0  0  0
  151.0234  142.2225  157.0848 C   0  0  0  0  0  0  0  0  0  0  0  0
  151.2621  143.2821  156.5040 O   0  0  0  0  0  0  0  0  0  0  0  0
  150.2877  141.0816  156.3676 C   0  0  0  0  0  0  0  0  0  0  0  0
  148.8812  141.3976  156.0672 N   0  0  0  0  0  0  0  0  0  0  0  0
  148.0102  141.5511  157.1642 C   0  0  0  0  0  0  0  0  0  0  0  0
  146.7023  141.8339  157.0057 C   0  0  0  0  0  0  0  0  0  0  0  0
  145.8211  141.9820  158.1431 N   0  3  0  0  0  0  0  0  0  0  0  0
  146.3090  141.9849  159.2688 O   0  0  0  0  0  0  0  0  0  0  0  0
  144.6145  142.0987  157.9505 O   0  5  0  0  0  0  0  0  0  0  0  0
  146.2037  141.9812  155.6520 C   0  0  0  0  0  0  0  0  0  0  0  0
  147.0307  141.8316  154.5986 C   0  0  0  0  0  0  0  0  0  0  0  0
  148.4527  141.5191  154.7734 C   0  0  0  0  0  0  0  0  0  0  0  0
  149.2123  141.3756  153.8151 O   0  0  0  0  0  0  0  0  0  0  0  0
  152.4986  142.2210  160.5576 C   0  0  1  0  0  0  0  0  0  0  0  0
  153.4150  141.0044  160.3005 C   0  0  0  0  0  0  0  0  0  0  0  0
  152.6062  142.1670  163.3719 H   0  0  0  0  0  0  0  0  0  0  0  0
  153.8613  143.3802  163.5988 H   0  0  0  0  0  0  0  0  0  0  0  0
  154.2583  141.8591  162.8348 H   0  0  0  0  0  0  0  0  0  0  0  0
  154.0805  143.5855  161.1005 H   0  0  0  0  0  0  0  0  0  0  0  0
  151.3207  144.1762  162.2465 H   0  0  0  0  0  0  0  0  0  0  0  0
  152.7331  145.1928  162.3943 H   0  0  0  0  0  0  0  0  0  0  0  0
  151.2456  146.0017  160.5833 H   0  0  0  0  0  0  0  0  0  0  0  0
  152.8076  145.5392  159.9495 H   0  0  0  0  0  0  0  0  0  0  0  0
  150.2602  143.8543  159.8771 H   0  0  0  0  0  0  0  0  0  0  0  0
  151.0066  144.6509  158.5131 H   0  0  0  0  0  0  0  0  0  0  0  0
  153.0217  143.2298  158.7276 H   0  0  0  0  0  0  0  0  0  0  0  0
  151.1586  141.0785  158.7463 H   0  0  0  0  0  0  0  0  0  0  0  0
  150.8334  140.8497  155.4520 H   0  0  0  0  0  0  0  0  0  0  0  0
  150.3479  140.1738  156.9712 H   0  0  0  0  0  0  0  0  0  0  0  0
  148.4765  141.4144  158.1292 H   0  0  0  0  0  0  0  0  0  0  0  0
  145.1638  142.2115  155.4728 H   0  0  0  0  0  0  0  0  0  0  0  0
  146.6374  141.9446  153.5989 H   0  0  0  0  0  0  0  0  0  0  0  0
  151.5835  141.8485  161.0212 H   0  0  0  0  0  0  0  0  0  0  0  0
  154.3750  141.3149  159.8869 H   0  0  0  0  0  0  0  0  0  0  0  0
  152.9689  140.2981  159.6007 H   0  0  0  0  0  0  0  0  0  0  0  0
  153.6094  140.4433  161.2134 H   0  0  0  0  0  0  0  0  0  0  0  0
  1  2  1  0  0  0  0
  1 23  1  0  0  0  0
  1 24  1  0  0  0  0
  1 25  1  0  0  0  0
  2 21  1  0  0  0  0
  2  3  1  0  0  0  0
  2 26  1  0  0  0  0
  3  4  1  0  0  0  0
  3 27  1  0  0  0  0
  3 28  1  0  0  0  0
  4  5  1  0  0  0  0
  4 29  1  0  0  0  0
  4 30  1  0  0  0  0
  5  6  1  0  0  0  0
  5 31  1  0  0  0  0
  5 32  1  0  0  0  0
  6  7  1  0  0  0  0
  6 21  1  0  0  0  0
  6 33  1  0  0  0  0
  7  8  1  0  0  0  0
  7 34  1  0  0  0  0
  8  9  2  0  0  0  0
  8 10  1  0  0  0  0
 10 11  1  0  0  0  0
 10 35  1  0  0  0  0
 10 36  1  0  0  0  0
 11 19  1  0  0  0  0
 11 12  1  0  0  0  0
 12 13  2  0  0  0  0
 12 37  1  0  0  0  0
 13 14  1  0  0  0  0
 13 17  1  0  0  0  0
 14 15  2  0  0  0  0
 14 16  1  0  0  0  0
 17 18  2  0  0  0  0
 17 38  1  0  0  0  0
 18 19  1  0  0  0  0
 18 39  1  0  0  0  0
 19 20  2  0  0  0  0
 21 22  1  0  0  0  0
 21 40  1  0  0  0  0
 22 41  1  0  0  0  0
 22 42  1  0  0  0  0
 22 43  1  0  0  0  0
M  CHG  1  14   1
M  CHG  1  16  -1
M  END
> <s_m_source_file>
AV-unprocessed.smi

> <i_m_source_file_index>
598

> <i_lp_mmshare_version>
43012

> <i_f3d_flags>
0

> <s_epik_input>
W0NIM11bQ0BASF0xW0NIMl1bQ0gyXVtDSDJdW0NASF0oW0NASF0xW0NIM10pW05IXUMoPU8pW0NIMl1uMltjSF1jKFtOK10oPU8pW08tXSlbY0hdW2NIXWMyPU8=

> <s_epik_cmdline>
J2VwaWtfcHl0aG9uJywgJy1waCcsICc3LjAnLCAnLXRuJywgJzgnLCAnLW1hJywgJzIwMCcsICctbWV0YWxfYmluZGluZycsICctaW1hZScsICc8aW5maWxlLm1hZT4nLCAnLW9tYWUnLCAnPG91dGZpbGUubWFlPic=

> <r_lp_tautomer_probability>
1

> <r_epik_Ionization_Penalty>
1.91291e-08

> <r_epik_Ionization_Penalty_Charging>
8.21931e-11

> <r_epik_Ionization_Penalty_Neutral>
1.90469e-08

> <r_epik_State_Penalty>
-0

> <r_epik_Charging_Adjusted_Penalty>
8.21931e-11

> <i_epik_Tot_Q>
0

> <i_epik_Tot_abs_Q>
2

> <r_epik_Metal_State_Penalty>
-0

> <b_epik_Metal_Only>
0

> <s_lp_Force_Field>
OPLS_2005

> <r_lp_Energy>
24.1223

> <b_lp_Chiralities_Consistent>
1

> <s_lp_Variant>
AV-unprocessed.smi:598-3

> <Gold.Version>
5.8.1

> <Gold.Id.Protein>
6NUR|6NUR_protein|mol2

> <Gold.PLP.Fitness>
47.5768

> <Gold.PLP.PLP>
-42.3590

> <Gold.PLP.part.hbond>
-3.0000

> <Gold.PLP.part.metal>
0.0000

> <Gold.PLP.part.buried>
-4.3910

> <Gold.PLP.part.nonpolar>
-37.2408

> <Gold.PLP.part.repulsive>
2.9194

> <Gold.PLP.ligand.clash>
0.0000

> <Gold.PLP.ligand.torsion>
0.1457

> <Gold.PLP.Chemscore.Hbond>
1.8215

> <Gold.PLP.Chemscore.CHOScore>
0.0000

> <Gold.PLP.Chemscore.Metal>
0.0000

> <Gold.Chemscore.Hbonds>
donor molecule, donor type, donor heavy atom, donor atom, acceptor molecule, acceptor atom, score
      P1  H  6934  6946       L1    15  1.00
      P1  H  8011  8017       L1    20  0.80

> <Gold.PLP.Chemscore.Internal.Correction>
0.0446

> <Gold.Rescore>
     Score         DG    S(hbond)    S(metal)    S(lipo)     H(rot)  DE(clash)    DE(int)     intcor
     17.08     -19.83       1.80        0.00     105.01       1.54       2.51       0.24       ----

> <Gold.Chemscore.Fitness>
17.0764

> <Gold.Chemscore.DG>
-19.8311

> <Gold.Chemscore.ZeroCoef>
-5.4800

> <Gold.Chemscore.Hbond>
1.7982

> <Gold.Chemscore.Metal>
0.0000

> <Gold.Chemscore.Lipo>
105.0065

> <Gold.Chemscore.Internal_Hbond>
0.0000

> <Gold.Chemscore.DEClash>
2.5116

> <Gold.Chemscore.DEInternal>
0.2431

> <Gold.Chemscore.Rot>
1.5393

> <Gold.Chemscore.Internal.Correction>
   9.000000E+99

> <Gold.Chemscore.Hbonds>
donor molecule, donor type, donor heavy atom, donor atom, acceptor molecule, acceptor atom, score
      P1  H  6934  6946       L1    15  0.94
      P1  H  7989  7998       L1    20  0.01
      P1  H  8011  8017       L1    20  0.79

> <Gold.Chemscore.Hbond.Weighted>
-6.0060

> <Gold.Chemscore.Metal.Weighted>
-0.0000

> <Gold.Chemscore.Lipo.Weighted>
-12.2858

> <Gold.Chemscore.Internal_Hbond.Weighted>
0.0000

> <Gold.Chemscore.DEClash.Weighted>
2.5116

> <Gold.Chemscore.DEInternal.Weighted>
0.2431

> <Gold.Chemscore.Rot.Weighted>
3.9407

> <Gold.Chemscore.Internal.Correction.Weighted>
   9.000000E+99

> <Gold.Protein.RotatedTorsions>
[ 6907 6896 6895 6894 ] final   69.01 input  -60.11 | X-H torsion
[ 7974 7965 7964 7962 ] final -109.64 input  175.53 | X-H torsion
[ 8008 7997 7996 7995 ] final  -77.28 input   59.86 | X-H torsion
[ 10167 10162 10161 10158 ] final   16.94 input  -65.29 | X-H torsion
[ 10718 10713 10712 10709 ] final  178.89 input   66.30 | X-H torsion
[ 10763 10752 10751 10750 ] final  -39.01 input  -60.55 | X-H torsion
[ 11005 11000 10999 10996 ] final   62.38 input  -57.11 | X-H torsion

> <Gold.Protein.ActiveResidues>
 VAL166  LYS551  ARG553  GLY616  TRP617  ASP618  TYR619  PRO620  LYS621  CYS622 
 ASP623  PHE694  ASN695  SER759  ASP760  ASP761  ALA762  ILE779  LEU786  VAL792 
 PHE793  MET794  SER795  GLU796  ALA797  LYS798  CYS799  TRP800  GLU811  SER814 

> <Gold.Protein.RotatedAtoms>
  152.4658  134.5078  159.9744 H   0  0  0  0  0  0  0  0  0  0  0  0  # atno 6907 bound_to 6896
  151.5116  133.3478  159.2894 H   0  0  0  0  0  0  0  0  0  0  0  0  # atno 6908 bound_to 6896
  150.8642  134.8030  159.7168 H   0  0  0  0  0  0  0  0  0  0  0  0  # atno 6909 bound_to 6896
  145.1781  140.8958  143.3496 H   0  0  0  0  0  0  0  0  0  0  0  0  # atno 7974 bound_to 7965
  154.5582  140.0713  156.8777 H   0  0  0  0  0  0  0  0  0  0  0  0  # atno 8008 bound_to 7997
  155.2862  140.3375  155.4237 H   0  0  0  0  0  0  0  0  0  0  0  0  # atno 8009 bound_to 7997
  156.2020  140.1725  156.7865 H   0  0  0  0  0  0  0  0  0  0  0  0  # atno 8010 bound_to 7997
  140.5761  143.9069  150.6752 H   0  0  0  0  0  0  0  0  0  0  0  0  # atno 10167 bound_to 10162
  156.8839  130.9825  151.3058 H   0  0  0  0  0  0  0  0  0  0  0  0  # atno 10718 bound_to 10713
  153.9223  135.6781  153.4747 H   0  0  0  0  0  0  0  0  0  0  0  0  # atno 10763 bound_to 10752
  153.1022  135.4822  154.8885 H   0  0  0  0  0  0  0  0  0  0  0  0  # atno 10764 bound_to 10752
  154.7471  135.3175  154.8581 H   0  0  0  0  0  0  0  0  0  0  0  0  # atno 10765 bound_to 10752
  140.0096  134.6316  155.9801 H   0  0  0  0  0  0  0  0  0  0  0  0  # atno 11005 bound_to 11000
  145.0164  139.3463  143.6094 LP  0  0  0  0  0  0  0  0  0  0  0  0  # atno 17320 bound_to 7965
  146.3458  139.9447  142.8736 LP  0  0  0  0  0  0  0  0  0  0  0  0  # atno 17321 bound_to 7965
  140.2556  143.3561  152.1367 LP  0  0  0  0  0  0  0  0  0  0  0  0  # atno 17342 bound_to 10162
  139.5144  144.6947  151.5664 LP  0  0  0  0  0  0  0  0  0  0  0  0  # atno 17343 bound_to 10162
  157.6124  130.8593  149.8973 LP  0  0  0  0  0  0  0  0  0  0  0  0  # atno 17370 bound_to 10713
  156.0663  130.3692  150.0872 LP  0  0  0  0  0  0  0  0  0  0  0  0  # atno 17371 bound_to 10713
  141.1702  133.6537  156.4623 LP  0  0  0  0  0  0  0  0  0  0  0  0  # atno 17394 bound_to 11000
  140.4578  134.6869  157.5071 LP  0  0  0  0  0  0  0  0  0  0  0  0  # atno 17395 bound_to 11000

$$$$
