AV-unprocessed.smi:1738|AV-procd|sdf|7003|dock3
  -GOLD-   22720 8213D 1   1.00000     0.00000
 Structure written by MMmdl.
 46 48  0  0  0  0  0  0  0  0  2 V2000
  150.7864  141.9473  156.0853 C   0  0  0  0  0  0  0  0  0  0  0  0
  150.8502  140.1414  155.7443 S   0  0  0  0  0  0  0  0  0  0  0  0
  151.9601  139.8853  154.8133 O   0  0  0  0  0  0  0  0  0  0  0  0
  150.8074  139.4363  157.0351 O   0  0  0  0  0  0  0  0  0  0  0  0
  149.3180  139.8211  154.8779 C   0  0  0  0  0  0  0  0  0  0  0  0
  148.7212  140.8266  154.0911 C   0  0  0  0  0  0  0  0  0  0  0  0
  147.5432  140.5081  153.3890 C   0  0  0  0  0  0  0  0  0  0  0  0
  147.0210  139.1948  153.4868 C   0  0  0  0  0  0  0  0  0  0  0  0
  145.8313  138.7591  152.8434 N   0  0  0  0  0  0  0  0  0  0  0  0
  145.2627  137.5419  152.8778 C   0  0  0  0  0  0  0  0  0  0  0  0
  145.6724  136.5819  153.5298 O   0  0  0  0  0  0  0  0  0  0  0  0
  144.1547  137.4987  152.1243 N   0  0  0  0  0  0  0  0  0  0  0  0
  143.3123  136.3167  151.9602 C   0  0  2  0  0  0  0  0  0  0  0  0
  142.9640  135.6288  153.2739 C   0  0  0  0  0  0  0  0  0  0  0  0
  142.5111  134.2361  152.8221 C   0  0  0  0  0  0  0  0  0  0  0  0
  143.1944  133.9581  151.5343 N   0  3  2  0  0  0  0  0  0  0  0  0
  143.9812  132.6954  151.5264 C   0  0  0  0  0  0  0  0  0  0  0  0
  144.9713  132.6714  150.3525 C   0  0  0  0  0  0  0  0  0  0  0  0
  145.9973  133.8156  150.4570 C   0  0  0  0  0  0  0  0  0  0  0  0
  145.4729  135.0037  151.2859 C   0  0  0  0  0  0  0  0  0  0  0  0
  143.9427  135.1825  151.1298 C   0  0  2  0  0  0  0  0  0  0  0  0
  147.7061  138.2714  154.3059 C   0  0  0  0  0  0  0  0  0  0  0  0
  148.8384  138.5633  154.9794 N   0  0  0  0  0  0  0  0  0  0  0  0
  151.6933  142.2509  156.6075 H   0  0  0  0  0  0  0  0  0  0  0  0
  149.9185  142.1693  156.7058 H   0  0  0  0  0  0  0  0  0  0  0  0
  150.7093  142.4925  155.1448 H   0  0  0  0  0  0  0  0  0  0  0  0
  149.1472  141.8168  154.0269 H   0  0  0  0  0  0  0  0  0  0  0  0
  147.0621  141.2755  152.8029 H   0  0  0  0  0  0  0  0  0  0  0  0
  145.3274  139.4731  152.3378 H   0  0  0  0  0  0  0  0  0  0  0  0
  143.8815  138.3328  151.6252 H   0  0  0  0  0  0  0  0  0  0  0  0
  142.3747  136.6171  151.4871 H   0  0  0  0  0  0  0  0  0  0  0  0
  143.8509  135.5426  153.9034 H   0  0  0  0  0  0  0  0  0  0  0  0
  142.1982  136.1579  153.8419 H   0  0  0  0  0  0  0  0  0  0  0  0
  142.7095  133.4833  153.5861 H   0  0  0  0  0  0  0  0  0  0  0  0
  141.4363  134.2337  152.6369 H   0  0  0  0  0  0  0  0  0  0  0  0
  144.5337  132.5889  152.4615 H   0  0  0  0  0  0  0  0  0  0  0  0
  143.2950  131.8500  151.4680 H   0  0  0  0  0  0  0  0  0  0  0  0
  145.4866  131.7116  150.3050 H   0  0  0  0  0  0  0  0  0  0  0  0
  144.4151  132.7642  149.4184 H   0  0  0  0  0  0  0  0  0  0  0  0
  146.9210  133.4510  150.9079 H   0  0  0  0  0  0  0  0  0  0  0  0
  146.2618  134.1477  149.4524 H   0  0  0  0  0  0  0  0  0  0  0  0
  145.7114  134.8414  152.3381 H   0  0  0  0  0  0  0  0  0  0  0  0
  146.0091  135.9057  150.9901 H   0  0  0  0  0  0  0  0  0  0  0  0
  143.7407  135.3671  150.0736 H   0  0  0  0  0  0  0  0  0  0  0  0
  147.3393  137.2614  154.4180 H   0  0  0  0  0  0  0  0  0  0  0  0
  142.4633  133.8458  150.8462 H   0  0  0  0  0  0  0  0  0  0  0  0
  1  2  1  0  0  0  0
  1 24  1  0  0  0  0
  1 25  1  0  0  0  0
  1 26  1  0  0  0  0
  2  3  2  0  0  0  0
  2  4  2  0  0  0  0
  2  5  1  0  0  0  0
  5 23  1  0  0  0  0
  5  6  2  0  0  0  0
  6  7  1  0  0  0  0
  6 27  1  0  0  0  0
  7  8  2  0  0  0  0
  7 28  1  0  0  0  0
  8  9  1  0  0  0  0
  8 22  1  0  0  0  0
  9 10  1  0  0  0  0
  9 29  1  0  0  0  0
 10 11  2  0  0  0  0
 10 12  1  0  0  0  0
 12 13  1  0  0  0  0
 12 30  1  0  0  0  0
 13 21  1  0  0  0  0
 13 14  1  0  0  0  0
 13 31  1  0  0  0  0
 14 15  1  0  0  0  0
 14 32  1  0  0  0  0
 14 33  1  0  0  0  0
 15 16  1  0  0  0  0
 15 34  1  0  0  0  0
 15 35  1  0  0  0  0
 16 21  1  0  0  0  0
 16 17  1  0  0  0  0
 16 46  1  0  0  0  0
 17 18  1  0  0  0  0
 17 36  1  0  0  0  0
 17 37  1  0  0  0  0
 18 19  1  0  0  0  0
 18 38  1  0  0  0  0
 18 39  1  0  0  0  0
 19 20  1  0  0  0  0
 19 40  1  0  0  0  0
 19 41  1  0  0  0  0
 20 21  1  0  0  0  0
 20 42  1  0  0  0  0
 20 43  1  0  0  0  0
 21 44  1  0  0  0  0
 22 23  2  0  0  0  0
 22 45  1  0  0  0  0
M  CHG  1  16   1
M  END
> <s_m_source_file>
AV-unprocessed.smi

> <i_m_source_file_index>
1738

> <i_lp_mmshare_version>
43012

> <i_f3d_flags>
0

> <s_epik_input>
W0NIM11TKD1PKSg9TyljMVtjSF1bY0hdYyhbY0hdbjEpW05IXUMoPU8pW05IXVtDQEhdKFtDSDJdW0NIMl0yKVtDQEBIXShOMjMpW0NIMl1bQ0gyXVtDSDJdW0NIMl0z

> <s_epik_cmdline>
J2VwaWtfcHl0aG9uJywgJy1waCcsICc3LjAnLCAnLXRuJywgJzgnLCAnLW1hJywgJzIwMCcsICctbWV0YWxfYmluZGluZycsICctaW1hZScsICc8aW5maWxlLm1hZT4nLCAnLW9tYWUnLCAnPG91dGZpbGUubWFlPic=

> <r_epik_Ionization_Penalty>
0.00100042

> <r_epik_Ionization_Penalty_Charging>
0.000974069

> <r_epik_Ionization_Penalty_Neutral>
2.63543e-05

> <r_epik_State_Penalty>
0.000633842

> <r_epik_Charging_Adjusted_Penalty>
0.00160791

> <i_epik_Tot_Q>
1

> <i_epik_Tot_abs_Q>
1

> <r_epik_Metal_State_Penalty>
-0

> <b_epik_Metal_Only>
0

> <s_lp_Force_Field>
OPLS_2005

> <r_lp_Energy>
44.1137

> <b_lp_Chiralities_Consistent>
1

> <s_lp_Variant>
AV-unprocessed.smi:1738-7

> <Gold.Version>
5.8.1

> <Gold.Id.Protein>
6NUR|6NUR_protein|mol2

> <Gold.PLP.Fitness>
48.4413

> <Gold.PLP.PLP>
-36.0824

> <Gold.PLP.part.hbond>
-5.0000

> <Gold.PLP.part.metal>
0.0000

> <Gold.PLP.part.buried>
-4.1508

> <Gold.PLP.part.nonpolar>
-28.3424

> <Gold.PLP.part.repulsive>
0.2946

> <Gold.PLP.ligand.clash>
0.0000

> <Gold.PLP.ligand.torsion>
1.3127

> <Gold.PLP.Chemscore.Hbond>
4.3200

> <Gold.PLP.Chemscore.CHOScore>
0.0000

> <Gold.PLP.Chemscore.Metal>
0.0000

> <Gold.Chemscore.Hbonds>
donor molecule, donor type, donor heavy atom, donor atom, acceptor molecule, acceptor atom, score
      L1  H     9    29       P1 10175  0.80
      L1  H    12    30       P1 10171  0.58
      L1  H    16    46       P1 10186  2.00
      P1  H  7989  7998       L1     3  0.90

> <Gold.PLP.Chemscore.Internal.Correction>
2.0241

> <Gold.Rescore>
     Score         DG    S(hbond)    S(metal)    S(lipo)     H(rot)  DE(clash)    DE(int)     intcor
     15.73     -22.74       3.17        0.00      78.99       1.00       0.40       6.61       ----

> <Gold.Chemscore.Fitness>
15.7309

> <Gold.Chemscore.DG>
-22.7370

> <Gold.Chemscore.ZeroCoef>
-5.4800

> <Gold.Chemscore.Hbond>
3.1664

> <Gold.Chemscore.Metal>
0.0000

> <Gold.Chemscore.Lipo>
78.9863

> <Gold.Chemscore.Internal_Hbond>
0.0000

> <Gold.Chemscore.DEClash>
0.3955

> <Gold.Chemscore.DEInternal>
6.6107

> <Gold.Chemscore.Rot>
1.0000

> <Gold.Chemscore.Internal.Correction>
   9.000000E+99

> <Gold.Chemscore.Hbonds>
donor molecule, donor type, donor heavy atom, donor atom, acceptor molecule, acceptor atom, score
      L1  H     9    29       P1 10175  0.79
      L1  H    12    30       P1 10171  0.55
      L1  H    16    46       P1 10186  0.65
      P1  H  7989  7998       L1     3  0.49

> <Gold.Chemscore.Hbond.Weighted>
-10.5756

> <Gold.Chemscore.Metal.Weighted>
-0.0000

> <Gold.Chemscore.Lipo.Weighted>
-9.2414

> <Gold.Chemscore.Internal_Hbond.Weighted>
0.0000

> <Gold.Chemscore.DEClash.Weighted>
0.3955

> <Gold.Chemscore.DEInternal.Weighted>
6.6107

> <Gold.Chemscore.Rot.Weighted>
2.5600

> <Gold.Chemscore.Internal.Correction.Weighted>
   9.000000E+99

> <Gold.Protein.RotatedTorsions>
[ 6907 6896 6895 6894 ] final -135.16 input  -60.11 | X-H torsion
[ 7974 7965 7964 7962 ] final -106.90 input  175.53 | X-H torsion
[ 8008 7997 7996 7995 ] final  -78.17 input   59.86 | X-H torsion
[ 10167 10162 10161 10158 ] final -132.26 input  -65.29 | X-H torsion
[ 10718 10713 10712 10709 ] final  148.78 input   66.30 | X-H torsion
[ 10763 10752 10751 10750 ] final  -72.65 input  -60.55 | X-H torsion
[ 11005 11000 10999 10996 ] final   79.12 input  -57.11 | X-H torsion

> <Gold.Protein.ActiveResidues>
 VAL166  LYS551  ARG553  GLY616  TRP617  ASP618  TYR619  PRO620  LYS621  CYS622 
 ASP623  PHE694  ASN695  SER759  ASP760  ASP761  ALA762  ILE779  LEU786  VAL792 
 PHE793  MET794  SER795  GLU796  ALA797  LYS798  CYS799  TRP800  GLU811  SER814 

> <Gold.Protein.RotatedAtoms>
  150.9945  133.6116  159.2703 H   0  0  0  0  0  0  0  0  0  0  0  0  # atno 6907 bound_to 6896
  151.3325  135.0844  159.9353 H   0  0  0  0  0  0  0  0  0  0  0  0  # atno 6908 bound_to 6896
  152.5256  133.9572  159.7754 H   0  0  0  0  0  0  0  0  0  0  0  0  # atno 6909 bound_to 6896
  145.2120  140.9100  143.3309 H   0  0  0  0  0  0  0  0  0  0  0  0  # atno 7974 bound_to 7965
  154.5664  140.0698  156.8898 H   0  0  0  0  0  0  0  0  0  0  0  0  # atno 8008 bound_to 7997
  155.2716  140.3365  155.4246 H   0  0  0  0  0  0  0  0  0  0  0  0  # atno 8009 bound_to 7997
  156.2084  140.1749  156.7736 H   0  0  0  0  0  0  0  0  0  0  0  0  # atno 8010 bound_to 7997
  139.9104  143.6500  152.2576 H   0  0  0  0  0  0  0  0  0  0  0  0  # atno 10167 bound_to 10162
  157.3043  131.0876  151.1366 H   0  0  0  0  0  0  0  0  0  0  0  0  # atno 10718 bound_to 10713
  154.4486  135.5923  153.6176 H   0  0  0  0  0  0  0  0  0  0  0  0  # atno 10763 bound_to 10752
  152.9811  135.6015  154.3633 H   0  0  0  0  0  0  0  0  0  0  0  0  # atno 10764 bound_to 10752
  154.3491  135.2841  155.2360 H   0  0  0  0  0  0  0  0  0  0  0  0  # atno 10765 bound_to 10752
  139.9185  134.7817  156.1737 H   0  0  0  0  0  0  0  0  0  0  0  0  # atno 11005 bound_to 11000
  144.9847  139.3749  143.6245 LP  0  0  0  0  0  0  0  0  0  0  0  0  # atno 17320 bound_to 7965
  146.3395  139.9003  142.8795 LP  0  0  0  0  0  0  0  0  0  0  0  0  # atno 17321 bound_to 7965
  139.6947  144.7643  151.1377 LP  0  0  0  0  0  0  0  0  0  0  0  0  # atno 17342 bound_to 10162
  140.7686  143.5540  150.9173 LP  0  0  0  0  0  0  0  0  0  0  0  0  # atno 17343 bound_to 10162
  157.2712  130.6705  149.6020 LP  0  0  0  0  0  0  0  0  0  0  0  0  # atno 17370 bound_to 10713
  155.9673  130.4478  150.5596 LP  0  0  0  0  0  0  0  0  0  0  0  0  # atno 17371 bound_to 10713
  141.0684  133.6808  156.2092 LP  0  0  0  0  0  0  0  0  0  0  0  0  # atno 17394 bound_to 11000
  140.6546  134.5031  157.5580 LP  0  0  0  0  0  0  0  0  0  0  0  0  # atno 17395 bound_to 11000

$$$$
