AV-unprocessed.smi:195|AV-procd|sdf|1525|dock8
  -GOLD-   2262019373D 1   1.00000     0.00000
 Structure written by MMmdl.
 45 48  0  0  0  0  0  0  0  0  1 V2000
  150.5709  136.2002  158.1902 N   0  0  0  0  0  0  0  0  0  0  0  0
  151.0833  137.2249  158.0280 C   0  0  0  0  0  0  0  0  0  0  0  0
  151.7352  138.5284  157.8225 C   0  0  0  0  0  0  0  0  0  0  0  0
  152.2956  138.7115  156.4093 C   0  0  0  0  0  0  0  0  0  0  0  0
  153.5688  138.1022  156.4667 O   0  0  0  0  0  0  0  0  0  0  0  0
  151.4198  138.2656  155.2352 C   0  0  0  0  0  0  0  0  0  0  0  0
  151.2878  139.6629  154.8365 N   0  0  0  0  0  0  0  0  0  0  0  0
  149.9740  140.1852  155.0080 C   0  0  0  0  0  0  0  0  0  0  0  0
  148.9917  139.9657  154.0922 N   0  0  0  0  0  0  0  0  0  0  0  0
  147.7649  140.4659  154.2671 C   0  0  0  0  0  0  0  0  0  0  0  0
  147.3030  141.2055  155.2761 N   0  0  0  0  0  0  0  0  0  0  0  0
  148.2774  141.4321  156.2017 C   0  0  0  0  0  0  0  0  0  0  0  0
  149.6215  140.9670  156.1413 C   0  0  0  0  0  0  0  0  0  0  0  0
  150.3233  141.4009  157.2593 N   0  0  0  0  0  0  0  0  0  0  0  0
  149.4434  142.0791  157.9447 C   0  0  0  0  0  0  0  0  0  0  0  0
  148.1894  142.1487  157.3819 N   0  0  0  0  0  0  0  0  0  0  0  0
  147.0306  142.8317  157.9306 C   0  0  0  0  0  0  0  0  0  0  0  0
  147.2442  143.2758  159.3905 C   0  0  1  0  0  0  0  0  0  0  0  0
  147.9519  144.5008  159.4075 O   0  0  0  0  0  0  0  0  0  0  0  0
  145.9125  143.4609  160.1405 C   0  0  2  0  0  0  0  0  0  0  0  0
  146.0238  144.2403  161.4534 C   0  0  0  0  0  0  0  0  0  0  0  0
  144.8676  143.7141  162.2914 C   0  0  0  0  0  0  0  0  0  0  0  0
  144.3825  142.4803  161.5270 C   0  0  0  0  0  0  0  0  0  0  0  0
  145.4100  142.2100  160.5851 O   0  0  0  0  0  0  0  0  0  0  0  0
  152.2833  140.1186  155.8028 C   0  0  0  0  0  0  0  0  0  0  0  0
  151.0095  139.3064  158.0628 H   0  0  0  0  0  0  0  0  0  0  0  0
  152.5212  138.6093  158.5714 H   0  0  0  0  0  0  0  0  0  0  0  0
  153.5537  137.3737  155.8646 H   0  0  0  0  0  0  0  0  0  0  0  0
  151.9566  137.6804  154.4874 H   0  0  0  0  0  0  0  0  0  0  0  0
  150.4847  137.7857  155.5290 H   0  0  0  0  0  0  0  0  0  0  0  0
  147.0524  140.2412  153.4870 H   0  0  0  0  0  0  0  0  0  0  0  0
  149.6857  142.5521  158.8855 H   0  0  0  0  0  0  0  0  0  0  0  0
  146.7950  143.6902  157.3000 H   0  0  0  0  0  0  0  0  0  0  0  0
  146.1784  142.1548  157.8626 H   0  0  0  0  0  0  0  0  0  0  0  0
  147.8497  142.5305  159.9082 H   0  0  0  0  0  0  0  0  0  0  0  0
  147.7845  144.9542  158.5956 H   0  0  0  0  0  0  0  0  0  0  0  0
  145.1689  143.9284  159.4914 H   0  0  0  0  0  0  0  0  0  0  0  0
  146.9667  144.0115  161.9517 H   0  0  0  0  0  0  0  0  0  0  0  0
  145.9796  145.3192  161.3021 H   0  0  0  0  0  0  0  0  0  0  0  0
  145.2079  143.4537  163.2942 H   0  0  0  0  0  0  0  0  0  0  0  0
  144.0685  144.4499  162.3877 H   0  0  0  0  0  0  0  0  0  0  0  0
  144.2069  141.6237  162.1782 H   0  0  0  0  0  0  0  0  0  0  0  0
  143.4562  142.6990  160.9937 H   0  0  0  0  0  0  0  0  0  0  0  0
  151.9482  140.9063  156.4788 H   0  0  0  0  0  0  0  0  0  0  0  0
  153.2213  140.3865  155.3150 H   0  0  0  0  0  0  0  0  0  0  0  0
  1  2  3  0  0  0  0
  2  3  1  0  0  0  0
  3  4  1  0  0  0  0
  3 26  1  0  0  0  0
  3 27  1  0  0  0  0
  4 25  1  0  0  0  0
  4  5  1  0  0  0  0
  4  6  1  0  0  0  0
  5 28  1  0  0  0  0
  6  7  1  0  0  0  0
  6 29  1  0  0  0  0
  6 30  1  0  0  0  0
  7  8  1  0  0  0  0
  7 25  1  0  0  0  0
  8 13  1  0  0  0  0
  8  9  2  0  0  0  0
  9 10  1  0  0  0  0
 10 11  2  0  0  0  0
 10 31  1  0  0  0  0
 11 12  1  0  0  0  0
 12 16  1  0  0  0  0
 12 13  2  0  0  0  0
 13 14  1  0  0  0  0
 14 15  2  0  0  0  0
 15 16  1  0  0  0  0
 15 32  1  0  0  0  0
 16 17  1  0  0  0  0
 17 18  1  0  0  0  0
 17 33  1  0  0  0  0
 17 34  1  0  0  0  0
 18 19  1  0  0  0  0
 18 20  1  0  0  0  0
 18 35  1  0  0  0  0
 19 36  1  0  0  0  0
 20 24  1  0  0  0  0
 20 21  1  0  0  0  0
 20 37  1  0  0  0  0
 21 22  1  0  0  0  0
 21 38  1  0  0  0  0
 21 39  1  0  0  0  0
 22 23  1  0  0  0  0
 22 40  1  0  0  0  0
 22 41  1  0  0  0  0
 23 24  1  0  0  0  0
 23 42  1  0  0  0  0
 23 43  1  0  0  0  0
 25 44  1  0  0  0  0
 25 45  1  0  0  0  0
M  END
> <s_m_source_file>
AV-unprocessed.smi

> <i_m_source_file_index>
195

> <i_lp_mmshare_version>
43012

> <i_f3d_flags>
0

> <s_epik_input>
TiNDW0NIMl1DMShbT0hdKVtDSDJdTihbQ0gyXTEpYyhuW2NIXW4yKWMoYzIzKW5bY0hdbjNbQ0gyXVtDQEhdKFtPSF0pW0NAQEhdNFtDSDJdW0NIMl1bQ0gyXU80

> <s_epik_cmdline>
J2VwaWtfcHl0aG9uJywgJy1waCcsICc3LjAnLCAnLXRuJywgJzgnLCAnLW1hJywgJzIwMCcsICctbWV0YWxfYmluZGluZycsICctaW1hZScsICc8aW5maWxlLm1hZT4nLCAnLW9tYWUnLCAnPG91dGZpbGUubWFlPic=

> <r_lp_tautomer_probability>
1

> <r_epik_Ionization_Penalty>
0.00307146

> <r_epik_Ionization_Penalty_Charging>
0

> <r_epik_Ionization_Penalty_Neutral>
0.00307146

> <r_epik_State_Penalty>
0.0020279

> <r_epik_Charging_Adjusted_Penalty>
0.0020279

> <i_epik_Tot_Q>
0

> <i_epik_Tot_abs_Q>
0

> <r_epik_Metal_State_Penalty>
-0

> <b_epik_Metal_Only>
0

> <s_lp_Force_Field>
OPLS_2005

> <r_lp_Energy>
44.0633

> <b_lp_Chiralities_Consistent>
1

> <s_lp_Variant>
AV-unprocessed.smi:195-2

> <Gold.Version>
5.8.1

> <Gold.Id.Protein>
6NUR|6NUR_protein|mol2

> <Gold.PLP.Fitness>
42.0119

> <Gold.PLP.PLP>
-33.8602

> <Gold.PLP.part.hbond>
-4.9599

> <Gold.PLP.part.metal>
0.0000

> <Gold.PLP.part.buried>
-5.3645

> <Gold.PLP.part.nonpolar>
-24.2683

> <Gold.PLP.part.repulsive>
1.0669

> <Gold.PLP.ligand.clash>
0.0000

> <Gold.PLP.ligand.torsion>
1.4564

> <Gold.PLP.Chemscore.Hbond>
3.5908

> <Gold.PLP.Chemscore.CHOScore>
0.0000

> <Gold.PLP.Chemscore.Metal>
0.0000

> <Gold.Chemscore.Hbonds>
donor molecule, donor type, donor heavy atom, donor atom, acceptor molecule, acceptor atom, score
      L1  H    19    36       P1  8029  1.00
      P1  H  6896  6909       L1     1  0.77
      P1  H  6934  6946       L1    24  1.00
      P1  H  7989  7998       L1     7  0.54
      P1  H  7997  8010       L1     5  0.25

> <Gold.PLP.Chemscore.Internal.Correction>
0.2920

> <Gold.Rescore>
     Score         DG    S(hbond)    S(metal)    S(lipo)     H(rot)  DE(clash)    DE(int)     intcor
      9.14     -12.29       2.90        0.00      56.89       3.72       0.40       2.75       ----

> <Gold.Chemscore.Fitness>
9.1372

> <Gold.Chemscore.DG>
-12.2856

> <Gold.Chemscore.ZeroCoef>
-5.4800

> <Gold.Chemscore.Hbond>
2.8968

> <Gold.Chemscore.Metal>
0.0000

> <Gold.Chemscore.Lipo>
56.8881

> <Gold.Chemscore.Internal_Hbond>
0.0000

> <Gold.Chemscore.DEClash>
0.4000

> <Gold.Chemscore.DEInternal>
2.7483

> <Gold.Chemscore.Rot>
3.7210

> <Gold.Chemscore.Internal.Correction>
   9.000000E+99

> <Gold.Chemscore.Hbonds>
donor molecule, donor type, donor heavy atom, donor atom, acceptor molecule, acceptor atom, score
      L1  H    19    36       P1  8029  1.00
      P1  H  6896  6909       L1     1  0.72
      P1  H  6934  6946       L1    24  0.75
      P1  H  7989  7998       L1     7  0.01
      P1  H  7997  8010       L1     5  0.01

> <Gold.Chemscore.Hbond.Weighted>
-9.6753

> <Gold.Chemscore.Metal.Weighted>
-0.0000

> <Gold.Chemscore.Lipo.Weighted>
-6.6559

> <Gold.Chemscore.Internal_Hbond.Weighted>
0.0000

> <Gold.Chemscore.DEClash.Weighted>
0.4000

> <Gold.Chemscore.DEInternal.Weighted>
2.7483

> <Gold.Chemscore.Rot.Weighted>
9.5256

> <Gold.Chemscore.Internal.Correction.Weighted>
   9.000000E+99

> <Gold.Protein.RotatedTorsions>
[ 6907 6896 6895 6894 ] final   72.62 input  -60.11 | X-H torsion
[ 7974 7965 7964 7962 ] final   53.02 input  175.53 | X-H torsion
[ 8008 7997 7996 7995 ] final   47.02 input   59.86 | X-H torsion
[ 10167 10162 10161 10158 ] final  130.96 input  -65.29 | X-H torsion
[ 10718 10713 10712 10709 ] final   63.80 input   66.30 | X-H torsion
[ 10763 10752 10751 10750 ] final  -64.27 input  -60.55 | X-H torsion
[ 11005 11000 10999 10996 ] final -152.05 input  -57.11 | X-H torsion

> <Gold.Protein.ActiveResidues>
 VAL166  LYS551  ARG553  GLY616  TRP617  ASP618  TYR619  PRO620  LYS621  CYS622 
 ASP623  PHE694  ASN695  SER759  ASP760  ASP761  ALA762  ILE779  LEU786  VAL792 
 PHE793  MET794  SER795  GLU796  ALA797  LYS798  CYS799  TRP800  GLU811  SER814 

> <Gold.Protein.RotatedAtoms>
  152.4878  134.4545  159.9584 H   0  0  0  0  0  0  0  0  0  0  0  0  # atno 6907 bound_to 6896
  151.4538  133.3604  159.2807 H   0  0  0  0  0  0  0  0  0  0  0  0  # atno 6908 bound_to 6896
  150.9003  134.8440  159.7416 H   0  0  0  0  0  0  0  0  0  0  0  0  # atno 6909 bound_to 6896
  145.9754  139.4190  143.0164 H   0  0  0  0  0  0  0  0  0  0  0  0  # atno 7974 bound_to 7965
  155.3622  140.3419  155.4241 H   0  0  0  0  0  0  0  0  0  0  0  0  # atno 8008 bound_to 7997
  156.1708  140.1631  156.8486 H   0  0  0  0  0  0  0  0  0  0  0  0  # atno 8009 bound_to 7997
  154.5231  140.0762  156.8191 H   0  0  0  0  0  0  0  0  0  0  0  0  # atno 8010 bound_to 7997
  139.5406  144.6726  151.4639 H   0  0  0  0  0  0  0  0  0  0  0  0  # atno 10167 bound_to 10162
  157.5996  130.9125  149.9763 H   0  0  0  0  0  0  0  0  0  0  0  0  # atno 10718 bound_to 10713
  154.3275  135.6183  153.5536 H   0  0  0  0  0  0  0  0  0  0  0  0  # atno 10763 bound_to 10752
  152.9814  135.5739  154.4999 H   0  0  0  0  0  0  0  0  0  0  0  0  # atno 10764 bound_to 10752
  154.4679  135.2858  155.1641 H   0  0  0  0  0  0  0  0  0  0  0  0  # atno 10765 bound_to 10752
  140.7230  134.3706  157.5180 H   0  0  0  0  0  0  0  0  0  0  0  0  # atno 11005 bound_to 11000
  145.7846  140.9841  143.1081 LP  0  0  0  0  0  0  0  0  0  0  0  0  # atno 17320 bound_to 7965
  144.6847  139.9607  143.7480 LP  0  0  0  0  0  0  0  0  0  0  0  0  # atno 17321 bound_to 7965
  140.6633  143.8451  150.6913 LP  0  0  0  0  0  0  0  0  0  0  0  0  # atno 17342 bound_to 10162
  140.1852  143.4081  152.1903 LP  0  0  0  0  0  0  0  0  0  0  0  0  # atno 17343 bound_to 10162
  156.1066  130.3652  150.0123 LP  0  0  0  0  0  0  0  0  0  0  0  0  # atno 17370 bound_to 10713
  156.8228  130.9365  151.3640 LP  0  0  0  0  0  0  0  0  0  0  0  0  # atno 17371 bound_to 10713
  139.8843  134.8968  156.2709 LP  0  0  0  0  0  0  0  0  0  0  0  0  # atno 17394 bound_to 11000
  140.9987  133.7165  156.0926 LP  0  0  0  0  0  0  0  0  0  0  0  0  # atno 17395 bound_to 11000

$$$$
