AV-unprocessed.smi:99|AV-procd|sdf|873|dock3
  -GOLD-   2262017333D 1   1.00000     0.00000
 Structure written by MMmdl.
 53 56  0  0  0  0  0  0  0  0  1 V2000
  146.1731  136.9150  158.5422 O   0  0  0  0  0  0  0  0  0  0  0  0
  146.4372  135.8107  159.0220 C   0  0  0  0  0  0  0  0  0  0  0  0
  146.4402  134.6688  158.3092 O   0  0  0  0  0  0  0  0  0  0  0  0
  146.6628  134.7014  156.9088 C   0  0  0  0  0  0  0  0  0  0  0  0
  148.1359  135.0421  156.6426 C   0  0  2  0  0  0  0  0  0  0  0  0
  148.2509  136.2650  155.9262 O   0  0  0  0  0  0  0  0  0  0  0  0
  149.4789  136.3130  155.2602 C   0  0  1  0  0  0  0  0  0  0  0  0
  150.4151  137.2774  155.9665 N   0  0  0  0  0  0  0  0  0  0  0  0
  150.1752  137.7524  157.2505 C   0  0  0  0  0  0  0  0  0  0  0  0
  151.0094  138.6061  157.8903 C   0  0  0  0  0  0  0  0  0  0  0  0
  152.2276  139.0790  157.2413 C   0  0  0  0  0  0  0  0  0  0  0  0
  153.0438  139.8500  157.7415 O   0  0  0  0  0  0  0  0  0  0  0  0
  152.4273  138.5817  155.9509 N   0  0  0  0  0  0  0  0  0  0  0  0
  151.5756  137.7019  155.2817 C   0  0  0  0  0  0  0  0  0  0  0  0
  151.8521  137.3209  154.1447 O   0  0  0  0  0  0  0  0  0  0  0  0
  150.0295  134.8656  155.1899 C   0  0  1  0  0  0  0  0  0  0  0  0
  151.2110  134.6367  155.9373 O   0  0  0  0  0  0  0  0  0  0  0  0
  148.8955  134.0352  155.7761 C   0  0  2  0  0  0  0  0  0  0  0  0
  148.0548  133.5287  154.7448 O   0  0  0  0  0  0  0  0  0  0  0  0
  148.3230  132.3486  154.1484 C   0  0  0  0  0  0  0  0  0  0  0  0
  149.3178  131.6658  154.3996 O   0  0  0  0  0  0  0  0  0  0  0  0
  147.2867  131.9592  153.1504 C   0  0  0  0  0  0  0  0  0  0  0  0
  146.8572  130.6133  153.0862 C   0  0  0  0  0  0  0  0  0  0  0  0
  145.8790  130.2165  152.1538 C   0  0  0  0  0  0  0  0  0  0  0  0
  145.3171  131.1614  151.2757 C   0  0  0  0  0  0  0  0  0  0  0  0
  145.7339  132.5042  151.3316 C   0  0  0  0  0  0  0  0  0  0  0  0
  146.7128  132.9028  152.2626 C   0  0  0  0  0  0  0  0  0  0  0  0
  146.7903  135.5973  160.4546 C   0  0  0  0  0  0  0  0  0  0  0  0
  146.7026  134.2970  161.0042 C   0  0  0  0  0  0  0  0  0  0  0  0
  147.0318  134.0653  162.3539 C   0  0  0  0  0  0  0  0  0  0  0  0
  147.4556  135.1307  163.1695 C   0  0  0  0  0  0  0  0  0  0  0  0
  147.5498  136.4284  162.6339 C   0  0  0  0  0  0  0  0  0  0  0  0
  147.2191  136.6626  161.2848 C   0  0  0  0  0  0  0  0  0  0  0  0
  153.2586  138.8819  155.4630 H   0  0  0  0  0  0  0  0  0  0  0  0
  146.4184  133.7346  156.4657 H   0  0  0  0  0  0  0  0  0  0  0  0
  146.0108  135.4444  156.4484 H   0  0  0  0  0  0  0  0  0  0  0  0
  148.6606  135.1418  157.5932 H   0  0  0  0  0  0  0  0  0  0  0  0
  149.2938  136.7502  154.2772 H   0  0  0  0  0  0  0  0  0  0  0  0
  149.2901  137.4470  157.7856 H   0  0  0  0  0  0  0  0  0  0  0  0
  150.7731  138.9429  158.8893 H   0  0  0  0  0  0  0  0  0  0  0  0
  150.2315  134.6065  154.1499 H   0  0  0  0  0  0  0  0  0  0  0  0
  151.9553  134.7699  155.3703 H   0  0  0  0  0  0  0  0  0  0  0  0
  149.2614  133.2148  156.3961 H   0  0  0  0  0  0  0  0  0  0  0  0
  147.2741  129.8699  153.7504 H   0  0  0  0  0  0  0  0  0  0  0  0
  145.5601  129.1853  152.1126 H   0  0  0  0  0  0  0  0  0  0  0  0
  144.5670  130.8567  150.5609 H   0  0  0  0  0  0  0  0  0  0  0  0
  145.3025  133.2308  150.6593 H   0  0  0  0  0  0  0  0  0  0  0  0
  147.0083  133.9419  152.2800 H   0  0  0  0  0  0  0  0  0  0  0  0
  146.3794  133.4634  160.3974 H   0  0  0  0  0  0  0  0  0  0  0  0
  146.9594  133.0683  162.7631 H   0  0  0  0  0  0  0  0  0  0  0  0
  147.7093  134.9522  164.2041 H   0  0  0  0  0  0  0  0  0  0  0  0
  147.8776  137.2463  163.2584 H   0  0  0  0  0  0  0  0  0  0  0  0
  147.3060  137.6699  160.9042 H   0  0  0  0  0  0  0  0  0  0  0  0
  1  2  2  0  0  0  0
  2  3  1  0  0  0  0
  2 28  1  0  0  0  0
  3  4  1  0  0  0  0
  4  5  1  0  0  0  0
  4 35  1  0  0  0  0
  4 36  1  0  0  0  0
  5 18  1  0  0  0  0
  5  6  1  0  0  0  0
  5 37  1  0  0  0  0
  6  7  1  0  0  0  0
  7  8  1  0  0  0  0
  7 16  1  0  0  0  0
  7 38  1  0  0  0  0
  8 14  1  0  0  0  0
  8  9  1  0  0  0  0
  9 10  2  0  0  0  0
  9 39  1  0  0  0  0
 10 11  1  0  0  0  0
 10 40  1  0  0  0  0
 11 12  2  0  0  0  0
 11 13  1  0  0  0  0
 13 34  1  0  0  0  0
 13 14  1  0  0  0  0
 14 15  2  0  0  0  0
 16 17  1  0  0  0  0
 16 18  1  0  0  0  0
 16 41  1  0  0  0  0
 17 42  1  0  0  0  0
 18 19  1  0  0  0  0
 18 43  1  0  0  0  0
 19 20  1  0  0  0  0
 20 21  2  0  0  0  0
 20 22  1  0  0  0  0
 22 27  1  0  0  0  0
 22 23  2  0  0  0  0
 23 24  1  0  0  0  0
 23 44  1  0  0  0  0
 24 25  2  0  0  0  0
 24 45  1  0  0  0  0
 25 26  1  0  0  0  0
 25 46  1  0  0  0  0
 26 27  2  0  0  0  0
 26 47  1  0  0  0  0
 27 48  1  0  0  0  0
 28 33  1  0  0  0  0
 28 29  2  0  0  0  0
 29 30  1  0  0  0  0
 29 49  1  0  0  0  0
 30 31  2  0  0  0  0
 30 50  1  0  0  0  0
 31 32  1  0  0  0  0
 31 51  1  0  0  0  0
 32 33  2  0  0  0  0
 32 52  1  0  0  0  0
 33 53  1  0  0  0  0
M  END
> <s_m_source_file>
AV-unprocessed.smi

> <i_m_source_file_index>
99

> <i_lp_mmshare_version>
43012

> <i_f3d_flags>
0

> <s_epik_input>
W2NIXTFbY0hdW2NIXVtjSF1bY0hdYzFDKD1PKU9bQ0gyXVtDQEBIXTJPW0NAQEhdKG4zW2NIXVtjSF1jKD1PKVtuSF1jMz1PKVtDQEBIXShbT0hdKVtDQEhdMk9DKD1PKWM0W2NIXVtjSF1bY0hdW2NIXVtjSF00

> <s_epik_cmdline>
J2VwaWtfcHl0aG9uJywgJy1waCcsICc3LjAnLCAnLXRuJywgJzgnLCAnLW1hJywgJzIwMCcsICctbWV0YWxfYmluZGluZycsICctaW1hZScsICc8aW5maWxlLm1hZT4nLCAnLW9tYWUnLCAnPG91dGZpbGUubWFlPic=

> <r_lp_tautomer_probability>
1

> <r_epik_Ionization_Penalty>
0.00454555

> <r_epik_Ionization_Penalty_Charging>
0.0045191

> <r_epik_Ionization_Penalty_Neutral>
2.64449e-05

> <r_epik_State_Penalty>
-0

> <r_epik_Charging_Adjusted_Penalty>
0.0045191

> <i_epik_Tot_Q>
0

> <i_epik_Tot_abs_Q>
0

> <r_epik_Metal_State_Penalty>
1.27877

> <b_epik_Metal_Only>
0

> <s_epik_Chemistry_Notes>
This compound has an ester and may undergo hydrolysis at high or low pH. This compound contains an acetal/aminal-like group ( X-CH(R)-Y where X, Y are N, S, or O) that may be acid/base labile, releasing an aldehyde.

> <s_lp_Force_Field>
OPLS_2005

> <r_lp_Energy>
38.1357

> <b_lp_Chiralities_Consistent>
1

> <s_lp_Variant>
AV-unprocessed.smi:99-9

> <Gold.Version>
5.8.1

> <Gold.Id.Protein>
6NUR|6NUR_protein|mol2

> <Gold.PLP.Fitness>
46.8771

> <Gold.PLP.PLP>
-45.6557

> <Gold.PLP.part.hbond>
-3.0000

> <Gold.PLP.part.metal>
0.0000

> <Gold.PLP.part.buried>
-6.4720

> <Gold.PLP.part.nonpolar>
-37.1439

> <Gold.PLP.part.repulsive>
0.5008

> <Gold.PLP.ligand.clash>
0.0000

> <Gold.PLP.ligand.torsion>
2.5770

> <Gold.PLP.Chemscore.Hbond>
1.9440

> <Gold.PLP.Chemscore.CHOScore>
0.0000

> <Gold.PLP.Chemscore.Metal>
0.0000

> <Gold.Chemscore.Hbonds>
donor molecule, donor type, donor heavy atom, donor atom, acceptor molecule, acceptor atom, score
      P1  H  7997  8008       L1    12  1.00
      P1  H 10752 10764       L1    15  1.00

> <Gold.PLP.Chemscore.Internal.Correction>
0.5434

> <Gold.Rescore>
     Score         DG    S(hbond)    S(metal)    S(lipo)     H(rot)  DE(clash)    DE(int)     intcor
     13.74     -16.20       1.90        0.00     107.24       3.19       0.01       2.44       ----

> <Gold.Chemscore.Fitness>
13.7383

> <Gold.Chemscore.DG>
-16.1967

> <Gold.Chemscore.ZeroCoef>
-5.4800

> <Gold.Chemscore.Hbond>
1.8973

> <Gold.Chemscore.Metal>
0.0000

> <Gold.Chemscore.Lipo>
107.2371

> <Gold.Chemscore.Internal_Hbond>
0.0000

> <Gold.Chemscore.DEClash>
0.0144

> <Gold.Chemscore.DEInternal>
2.4440

> <Gold.Chemscore.Rot>
3.1903

> <Gold.Chemscore.Internal.Correction>
   9.000000E+99

> <Gold.Chemscore.Hbonds>
donor molecule, donor type, donor heavy atom, donor atom, acceptor molecule, acceptor atom, score
      P1  H  7997  8008       L1    12  0.81
      P1  H 10752 10764       L1    15  0.74

> <Gold.Chemscore.Hbond.Weighted>
-6.3370

> <Gold.Chemscore.Metal.Weighted>
-0.0000

> <Gold.Chemscore.Lipo.Weighted>
-12.5467

> <Gold.Chemscore.Internal_Hbond.Weighted>
0.0000

> <Gold.Chemscore.DEClash.Weighted>
0.0144

> <Gold.Chemscore.DEInternal.Weighted>
2.4440

> <Gold.Chemscore.Rot.Weighted>
8.1671

> <Gold.Chemscore.Internal.Correction.Weighted>
   9.000000E+99

> <Gold.Protein.RotatedTorsions>
[ 6907 6896 6895 6894 ] final  -76.73 input  -60.11 | X-H torsion
[ 7974 7965 7964 7962 ] final   50.28 input  175.53 | X-H torsion
[ 8008 7997 7996 7995 ] final  -64.72 input   59.86 | X-H torsion
[ 10167 10162 10161 10158 ] final  148.14 input  -65.29 | X-H torsion
[ 10718 10713 10712 10709 ] final  110.88 input   66.30 | X-H torsion
[ 10763 10752 10751 10750 ] final  -82.70 input  -60.55 | X-H torsion
[ 11005 11000 10999 10996 ] final -164.05 input  -57.11 | X-H torsion

> <Gold.Protein.ActiveResidues>
 VAL166  LYS551  ARG553  GLY616  TRP617  ASP618  TYR619  PRO620  LYS621  CYS622 
 ASP623  PHE694  ASN695  SER759  ASP760  ASP761  ALA762  ILE779  LEU786  VAL792 
 PHE793  MET794  SER795  GLU796  ALA797  LYS798  CYS799  TRP800  GLU811  SER814 

> <Gold.Protein.RotatedAtoms>
  150.7019  134.4529  159.5344 H   0  0  0  0  0  0  0  0  0  0  0  0  # atno 6907 bound_to 6896
  152.2218  134.8403  160.0494 H   0  0  0  0  0  0  0  0  0  0  0  0  # atno 6908 bound_to 6896
  151.9251  133.3561  159.3947 H   0  0  0  0  0  0  0  0  0  0  0  0  # atno 6909 bound_to 6896
  146.0027  139.4457  143.0005 H   0  0  0  0  0  0  0  0  0  0  0  0  # atno 7974 bound_to 7965
  154.4628  140.0948  156.6940 H   0  0  0  0  0  0  0  0  0  0  0  0  # atno 8008 bound_to 7997
  155.4944  140.3471  155.4342 H   0  0  0  0  0  0  0  0  0  0  0  0  # atno 8009 bound_to 7997
  156.0902  140.1395  156.9590 H   0  0  0  0  0  0  0  0  0  0  0  0  # atno 8010 bound_to 7997
  139.4879  144.5702  151.7070 H   0  0  0  0  0  0  0  0  0  0  0  0  # atno 10167 bound_to 10162
  157.6472  131.0941  150.6667 H   0  0  0  0  0  0  0  0  0  0  0  0  # atno 10718 bound_to 10713
  154.5789  135.5582  153.7166 H   0  0  0  0  0  0  0  0  0  0  0  0  # atno 10763 bound_to 10752
  153.0074  135.6315  154.2010 H   0  0  0  0  0  0  0  0  0  0  0  0  # atno 10764 bound_to 10752
  154.1950  135.2880  155.2989 H   0  0  0  0  0  0  0  0  0  0  0  0  # atno 10765 bound_to 10752
  140.5913  134.5042  157.5193 H   0  0  0  0  0  0  0  0  0  0  0  0  # atno 11005 bound_to 11000
  145.7463  140.9989  143.1274 LP  0  0  0  0  0  0  0  0  0  0  0  0  # atno 17320 bound_to 7965
  144.6925  139.9160  143.7465 LP  0  0  0  0  0  0  0  0  0  0  0  0  # atno 17321 bound_to 7965
  140.5287  144.0764  150.6046 LP  0  0  0  0  0  0  0  0  0  0  0  0  # atno 17342 bound_to 10162
  140.3747  143.2835  152.0238 LP  0  0  0  0  0  0  0  0  0  0  0  0  # atno 17343 bound_to 10162
  156.6982  130.4615  149.5580 LP  0  0  0  0  0  0  0  0  0  0  0  0  # atno 17370 bound_to 10713
  156.1814  130.6501  151.0955 LP  0  0  0  0  0  0  0  0  0  0  0  0  # atno 17371 bound_to 10713
  139.9273  134.8031  156.1032 LP  0  0  0  0  0  0  0  0  0  0  0  0  # atno 17394 bound_to 11000
  141.0933  133.6705  156.2589 LP  0  0  0  0  0  0  0  0  0  0  0  0  # atno 17395 bound_to 11000

$$$$
