AV-unprocessed.smi:82|AV-procd|sdf|798|dock9
  -GOLD-   2262017183D 1   1.00000     0.00000
 Structure written by MMmdl.
 58 61  0  0  0  0  0  0  0  0  1 V2000
  151.7575  144.5214  159.1326 C   0  0  0  0  0  0  0  0  0  0  0  0
  151.8481  143.1535  158.7738 O   0  0  0  0  0  0  0  0  0  0  0  0
  150.9840  142.8139  157.7026 C   0  0  0  0  0  0  0  0  0  0  0  0
  151.0674  141.2959  157.4714 C   0  0  0  0  0  0  0  0  0  0  0  0
  150.3384  140.8069  156.2943 N   0  0  0  0  0  0  0  0  0  0  0  0
  148.8956  140.9152  156.5301 C   0  0  0  0  0  0  0  0  0  0  0  0
  148.0620  140.5005  155.3098 C   0  0  0  0  0  0  0  0  0  0  0  0
  148.3998  139.1350  154.9242 N   0  0  0  0  0  0  0  0  0  0  0  0
  147.5402  138.5620  154.0434 C   0  0  0  0  0  0  0  0  0  0  0  0
  147.0392  139.2899  153.0090 N   0  0  0  0  0  0  0  0  0  0  0  0
  146.1885  138.7342  152.1413 C   0  0  0  0  0  0  0  0  0  0  0  0
  145.7129  137.4878  152.1205 N   0  0  0  0  0  0  0  0  0  0  0  0
  146.2141  136.7497  153.1519 C   0  0  0  0  0  0  0  0  0  0  0  0
  147.1284  137.2028  154.1452 C   0  0  0  0  0  0  0  0  0  0  0  0
  147.4365  136.1613  155.0126 N   0  0  0  0  0  0  0  0  0  0  0  0
  146.7414  135.1534  154.5611 C   0  0  0  0  0  0  0  0  0  0  0  0
  145.9549  135.4261  153.4646 N   0  0  0  0  0  0  0  0  0  0  0  0
  145.1303  134.4967  152.7481 C   0  0  0  0  0  0  0  0  0  0  0  0
  145.4215  132.9933  152.7825 C   0  0  0  0  0  0  0  0  0  0  0  0
  144.9978  132.8630  151.3021 C   0  0  0  0  0  0  0  0  0  0  0  0
  145.9606  132.0322  150.4393 C   0  0  0  0  0  0  0  0  0  0  0  0
  146.2467  130.7844  151.0384 O   0  0  0  0  0  0  0  0  0  0  0  0
  143.5736  132.3234  151.0430 C   0  0  0  0  0  0  0  0  0  0  0  0
  143.1896  132.3876  149.6845 O   0  0  0  0  0  0  0  0  0  0  0  0
  145.1978  134.3927  151.2211 C   0  0  0  0  0  0  0  0  0  0  0  0
  149.8339  138.9436  154.7119 C   0  0  0  0  0  0  0  0  0  0  0  0
  150.6448  139.4012  155.9467 C   0  0  1  0  0  0  0  0  0  0  0  0
  152.1295  139.1008  155.6776 C   0  0  0  0  0  0  0  0  0  0  0  0
  152.4384  144.7297  159.9577 H   0  0  0  0  0  0  0  0  0  0  0  0
  150.7479  144.7783  159.4562 H   0  0  0  0  0  0  0  0  0  0  0  0
  152.0328  145.1671  158.2978 H   0  0  0  0  0  0  0  0  0  0  0  0
  149.9588  143.0899  157.9548 H   0  0  0  0  0  0  0  0  0  0  0  0
  151.2624  143.3838  156.8189 H   0  0  0  0  0  0  0  0  0  0  0  0
  152.1082  140.9718  157.4328 H   0  0  0  0  0  0  0  0  0  0  0  0
  150.6573  140.8349  158.3712 H   0  0  0  0  0  0  0  0  0  0  0  0
  148.6121  140.3065  157.3905 H   0  0  0  0  0  0  0  0  0  0  0  0
  148.6399  141.9449  156.7824 H   0  0  0  0  0  0  0  0  0  0  0  0
  147.0034  140.5993  155.5469 H   0  0  0  0  0  0  0  0  0  0  0  0
  148.2630  141.1698  154.4722 H   0  0  0  0  0  0  0  0  0  0  0  0
  145.8363  139.3822  151.3522 H   0  0  0  0  0  0  0  0  0  0  0  0
  146.7820  134.1778  155.0235 H   0  0  0  0  0  0  0  0  0  0  0  0
  144.1089  134.6969  153.0736 H   0  0  0  0  0  0  0  0  0  0  0  0
  146.4801  132.7830  152.9438 H   0  0  0  0  0  0  0  0  0  0  0  0
  144.8055  132.4345  153.4879 H   0  0  0  0  0  0  0  0  0  0  0  0
  145.5316  131.8364  149.4562 H   0  0  0  0  0  0  0  0  0  0  0  0
  146.8964  132.5649  150.2664 H   0  0  0  0  0  0  0  0  0  0  0  0
  147.1630  130.5921  150.9086 H   0  0  0  0  0  0  0  0  0  0  0  0
  143.4878  131.2823  151.3546 H   0  0  0  0  0  0  0  0  0  0  0  0
  142.8376  132.8834  151.6211 H   0  0  0  0  0  0  0  0  0  0  0  0
  142.3448  132.8078  149.6310 H   0  0  0  0  0  0  0  0  0  0  0  0
  144.4057  134.9299  150.6985 H   0  0  0  0  0  0  0  0  0  0  0  0
  146.1782  134.6669  150.8278 H   0  0  0  0  0  0  0  0  0  0  0  0
  150.0302  137.8887  154.5152 H   0  0  0  0  0  0  0  0  0  0  0  0
  150.1490  139.5018  153.8287 H   0  0  0  0  0  0  0  0  0  0  0  0
  150.3428  138.7677  156.7828 H   0  0  0  0  0  0  0  0  0  0  0  0
  152.2627  138.0830  155.3096 H   0  0  0  0  0  0  0  0  0  0  0  0
  152.7249  139.1768  156.5869 H   0  0  0  0  0  0  0  0  0  0  0  0
  152.5450  139.7771  154.9298 H   0  0  0  0  0  0  0  0  0  0  0  0
  1  2  1  0  0  0  0
  1 29  1  0  0  0  0
  1 30  1  0  0  0  0
  1 31  1  0  0  0  0
  2  3  1  0  0  0  0
  3  4  1  0  0  0  0
  3 32  1  0  0  0  0
  3 33  1  0  0  0  0
  4  5  1  0  0  0  0
  4 34  1  0  0  0  0
  4 35  1  0  0  0  0
  5 27  1  0  0  0  0
  5  6  1  0  0  0  0
  6  7  1  0  0  0  0
  6 36  1  0  0  0  0
  6 37  1  0  0  0  0
  7  8  1  0  0  0  0
  7 38  1  0  0  0  0
  7 39  1  0  0  0  0
  8  9  1  0  0  0  0
  8 26  1  0  0  0  0
  9 14  1  0  0  0  0
  9 10  2  0  0  0  0
 10 11  1  0  0  0  0
 11 12  2  0  0  0  0
 11 40  1  0  0  0  0
 12 13  1  0  0  0  0
 13 17  1  0  0  0  0
 13 14  2  0  0  0  0
 14 15  1  0  0  0  0
 15 16  2  0  0  0  0
 16 17  1  0  0  0  0
 16 41  1  0  0  0  0
 17 18  1  0  0  0  0
 18 25  1  0  0  0  0
 18 19  1  0  0  0  0
 18 42  1  0  0  0  0
 19 20  1  0  0  0  0
 19 43  1  0  0  0  0
 19 44  1  0  0  0  0
 20 21  1  0  0  0  0
 20 23  1  0  0  0  0
 20 25  1  0  0  0  0
 21 22  1  0  0  0  0
 21 45  1  0  0  0  0
 21 46  1  0  0  0  0
 22 47  1  0  0  0  0
 23 24  1  0  0  0  0
 23 48  1  0  0  0  0
 23 49  1  0  0  0  0
 24 50  1  0  0  0  0
 25 51  1  0  0  0  0
 25 52  1  0  0  0  0
 26 27  1  0  0  0  0
 26 53  1  0  0  0  0
 26 54  1  0  0  0  0
 27 28  1  0  0  0  0
 27 55  1  0  0  0  0
 28 56  1  0  0  0  0
 28 57  1  0  0  0  0
 28 58  1  0  0  0  0
M  END
> <s_m_source_file>
AV-unprocessed.smi

> <i_m_source_file_index>
82

> <i_lp_mmshare_version>
43012

> <i_f3d_flags>
0

> <s_epik_input>
W0NIM11PW0NIMl1bQ0gyXU4xW0NIMl1bQ0gyXU4oW0NIMl1bQ0BIXTFbQ0gzXSljKG5bY0hdbjIpYyhjMjMpbltjSF1uM1tDSF0oW0NIMl00KVtDSDJdQzQoW0NIMl1bT0hdKVtDSDJdW09IXQ==

> <s_epik_cmdline>
J2VwaWtfcHl0aG9uJywgJy1waCcsICc3LjAnLCAnLXRuJywgJzgnLCAnLW1hJywgJzIwMCcsICctbWV0YWxfYmluZGluZycsICctaW1hZScsICc8aW5maWxlLm1hZT4nLCAnLW9tYWUnLCAnPG91dGZpbGUubWFlPic=

> <r_lp_tautomer_probability>
1

> <r_epik_Ionization_Penalty>
0.549054

> <r_epik_Ionization_Penalty_Charging>
0

> <r_epik_Ionization_Penalty_Neutral>
0.549054

> <r_epik_State_Penalty>
0.552556

> <r_epik_Charging_Adjusted_Penalty>
0.552556

> <i_epik_Tot_Q>
0

> <i_epik_Tot_abs_Q>
0

> <r_epik_Metal_State_Penalty>
0.545162

> <b_epik_Metal_Only>
0

> <s_lp_Force_Field>
OPLS_2005

> <r_lp_Energy>
72.4409

> <b_lp_Chiralities_Consistent>
1

> <s_lp_Variant>
AV-unprocessed.smi:82-5

> <Gold.Version>
5.8.1

> <Gold.Id.Protein>
6NUR|6NUR_protein|mol2

> <Gold.PLP.Fitness>
46.2887

> <Gold.PLP.PLP>
-38.5555

> <Gold.PLP.part.hbond>
-2.7946

> <Gold.PLP.part.metal>
0.0000

> <Gold.PLP.part.buried>
-2.7444

> <Gold.PLP.part.nonpolar>
-35.3938

> <Gold.PLP.part.repulsive>
1.0195

> <Gold.PLP.ligand.clash>
0.0000

> <Gold.PLP.ligand.torsion>
1.5657

> <Gold.PLP.Chemscore.Hbond>
2.0000

> <Gold.PLP.Chemscore.CHOScore>
1.3641

> <Gold.PLP.Chemscore.Metal>
0.0000

> <Gold.Chemscore.Hbonds>
donor molecule, donor type, donor heavy atom, donor atom, acceptor molecule, acceptor atom, score
      L1  H    22    47       P1 10747  1.00
      L1  H    24    50       P1 10186  0.84
      L1  C    11    40       P1 10171  0.68
      L1  C    11    40       P1 10175  0.33

> <Gold.PLP.Chemscore.Internal.Correction>
0.7725

> <Gold.Rescore>
     Score         DG    S(hbond)    S(metal)    S(lipo)     H(rot)  DE(clash)    DE(int)     intcor
     11.10     -13.05       1.98        0.00      92.36       3.84       0.57       1.39       ----

> <Gold.Chemscore.Fitness>
11.0973

> <Gold.Chemscore.DG>
-13.0544

> <Gold.Chemscore.ZeroCoef>
-5.4800

> <Gold.Chemscore.Hbond>
1.9782

> <Gold.Chemscore.Metal>
0.0000

> <Gold.Chemscore.Lipo>
92.3608

> <Gold.Chemscore.Internal_Hbond>
0.0000

> <Gold.Chemscore.DEClash>
0.5712

> <Gold.Chemscore.DEInternal>
1.3859

> <Gold.Chemscore.Rot>
3.8434

> <Gold.Chemscore.Internal.Correction>
   9.000000E+99

> <Gold.Chemscore.Hbonds>
donor molecule, donor type, donor heavy atom, donor atom, acceptor molecule, acceptor atom, score
      L1  H    22    47       P1 10747  0.99
      L1  H    24    50       P1 10186  0.83
      P1  H 10785 10796       L1    24  0.04

> <Gold.Chemscore.Hbond.Weighted>
-6.6072

> <Gold.Chemscore.Metal.Weighted>
-0.0000

> <Gold.Chemscore.Lipo.Weighted>
-10.8062

> <Gold.Chemscore.Internal_Hbond.Weighted>
0.0000

> <Gold.Chemscore.DEClash.Weighted>
0.5712

> <Gold.Chemscore.DEInternal.Weighted>
1.3859

> <Gold.Chemscore.Rot.Weighted>
9.8391

> <Gold.Chemscore.Internal.Correction.Weighted>
   9.000000E+99

> <Gold.Protein.RotatedTorsions>
[ 6907 6896 6895 6894 ] final -170.92 input  -60.11 | X-H torsion
[ 7974 7965 7964 7962 ] final  153.77 input  175.53 | X-H torsion
[ 8008 7997 7996 7995 ] final -122.68 input   59.86 | X-H torsion
[ 10167 10162 10161 10158 ] final   13.60 input  -65.29 | X-H torsion
[ 10718 10713 10712 10709 ] final -127.96 input   66.30 | X-H torsion
[ 10763 10752 10751 10750 ] final   99.14 input  -60.55 | X-H torsion
[ 11005 11000 10999 10996 ] final  -72.63 input  -57.11 | X-H torsion

> <Gold.Protein.ActiveResidues>
 VAL166  LYS551  ARG553  GLY616  TRP617  ASP618  TYR619  PRO620  LYS621  CYS622 
 ASP623  PHE694  ASN695  SER759  ASP760  ASP761  ALA762  ILE779  LEU786  VAL792 
 PHE793  MET794  SER795  GLU796  ALA797  LYS798  CYS799  TRP800  GLU811  SER814 

> <Gold.Protein.RotatedAtoms>
  151.5155  133.3476  159.2891 H   0  0  0  0  0  0  0  0  0  0  0  0  # atno 6907 bound_to 6896
  150.8685  134.8056  159.7148 H   0  0  0  0  0  0  0  0  0  0  0  0  # atno 6908 bound_to 6896
  152.4682  134.5035  159.9784 H   0  0  0  0  0  0  0  0  0  0  0  0  # atno 6909 bound_to 6896
  144.8132  139.6845  143.6132 H   0  0  0  0  0  0  0  0  0  0  0  0  # atno 7974 bound_to 7965
  155.1682  140.0407  157.2857 H   0  0  0  0  0  0  0  0  0  0  0  0  # atno 8008 bound_to 7997
  154.6288  140.2519  155.7432 H   0  0  0  0  0  0  0  0  0  0  0  0  # atno 8009 bound_to 7997
  156.2473  140.2879  156.0630 H   0  0  0  0  0  0  0  0  0  0  0  0  # atno 8010 bound_to 7997
  140.5992  143.8640  150.6948 H   0  0  0  0  0  0  0  0  0  0  0  0  # atno 10167 bound_to 10162
  156.1906  130.6792  151.0419 H   0  0  0  0  0  0  0  0  0  0  0  0  # atno 10718 bound_to 10713
  153.2977  135.4124  155.1224 H   0  0  0  0  0  0  0  0  0  0  0  0  # atno 10763 bound_to 10752
  154.8540  135.3534  154.5894 H   0  0  0  0  0  0  0  0  0  0  0  0  # atno 10764 bound_to 10752
  153.6319  135.7060  153.5331 H   0  0  0  0  0  0  0  0  0  0  0  0  # atno 10765 bound_to 10752
  141.1611  133.6853  156.7089 H   0  0  0  0  0  0  0  0  0  0  0  0  # atno 11005 bound_to 11000
  146.2433  139.6046  142.9477 LP  0  0  0  0  0  0  0  0  0  0  0  0  # atno 17320 bound_to 7965
  145.5275  141.0429  143.2401 LP  0  0  0  0  0  0  0  0  0  0  0  0  # atno 17321 bound_to 7965
  140.2181  143.3830  152.1664 LP  0  0  0  0  0  0  0  0  0  0  0  0  # atno 17342 bound_to 10162
  139.5279  144.7124  151.5162 LP  0  0  0  0  0  0  0  0  0  0  0  0  # atno 17343 bound_to 10162
  157.6926  131.0805  150.7062 LP  0  0  0  0  0  0  0  0  0  0  0  0  # atno 17370 bound_to 10713
  156.7118  130.4654  149.5545 LP  0  0  0  0  0  0  0  0  0  0  0  0  # atno 17371 bound_to 10713
  140.2902  134.8246  157.4010 LP  0  0  0  0  0  0  0  0  0  0  0  0  # atno 17394 bound_to 11000
  140.1353  134.5042  155.8073 LP  0  0  0  0  0  0  0  0  0  0  0  0  # atno 17395 bound_to 11000

$$$$
