AV-unprocessed.smi:561|AV-procd|sdf|2943|dock7
  -GOLD-   2262023443D 1   1.00000     0.00000
 Structure written by MMmdl.
 35 36  0  0  0  0  0  0  0  0  2 V2000
  151.8234  137.9513  154.6690 C   0  0  0  0  0  0  0  0  0  0  0  0
  150.8898  139.1682  154.7365 C   0  0  1  0  0  0  0  0  0  0  0  0
  149.4502  138.8002  154.3002 C   0  0  0  0  0  0  0  0  0  0  0  0
  148.5717  139.9501  154.1117 N   0  0  0  0  0  0  0  0  0  0  0  0
  147.2690  139.9413  153.6231 C   0  0  0  0  0  0  0  0  0  0  0  0
  146.8439  141.2502  153.6036 C   0  0  0  0  0  0  0  0  0  0  0  0
  147.8632  142.0815  154.0613 N   0  0  0  0  0  0  0  0  0  0  0  0
  148.8527  141.2425  154.3415 C   0  0  0  0  0  0  0  0  0  0  0  0
  150.8704  139.6765  156.1124 N   0  5  0  0  0  0  0  0  0  0  0  0
  151.9680  139.8889  156.8960 C   0  0  0  0  0  0  0  0  0  0  0  0
  153.0153  139.2282  156.8848 O   0  0  0  0  0  0  0  0  0  0  0  0
  151.9198  141.0274  157.8596 C   0  0  0  0  0  0  0  0  0  0  0  0
  152.7674  141.0532  158.8401 N   0  0  0  0  0  0  0  0  0  0  0  0
  152.7775  142.0602  159.7834 N   0  0  0  0  0  0  0  0  0  0  0  0
  153.6066  141.7598  160.9504 C   0  0  0  0  0  0  0  0  0  0  0  0
  152.1118  143.2366  159.6572 C   0  0  0  0  0  0  0  0  0  0  0  0
  152.1085  144.1244  160.5103 O   0  0  0  0  0  0  0  0  0  0  0  0
  151.3529  143.4527  158.3452 C   0  0  0  0  0  0  0  0  0  0  0  0
  150.8816  142.1275  157.7168 C   0  0  0  0  0  0  0  0  0  0  0  0
  151.8659  137.5471  153.6574 H   0  0  0  0  0  0  0  0  0  0  0  0
  151.4881  137.1526  155.3318 H   0  0  0  0  0  0  0  0  0  0  0  0
  152.8405  138.2197  154.9565 H   0  0  0  0  0  0  0  0  0  0  0  0
  151.2677  139.9079  154.0286 H   0  0  0  0  0  0  0  0  0  0  0  0
  149.4815  138.2497  153.3590 H   0  0  0  0  0  0  0  0  0  0  0  0
  148.9903  138.1305  155.0286 H   0  0  0  0  0  0  0  0  0  0  0  0
  146.7675  139.0260  153.3459 H   0  0  0  0  0  0  0  0  0  0  0  0
  145.8914  141.6543  153.2939 H   0  0  0  0  0  0  0  0  0  0  0  0
  149.8066  141.5746  154.7239 H   0  0  0  0  0  0  0  0  0  0  0  0
  153.6608  142.5730  161.6752 H   0  0  0  0  0  0  0  0  0  0  0  0
  154.6272  141.5358  160.6376 H   0  0  0  0  0  0  0  0  0  0  0  0
  153.2161  140.8842  161.4702 H   0  0  0  0  0  0  0  0  0  0  0  0
  150.5047  144.1190  158.5056 H   0  0  0  0  0  0  0  0  0  0  0  0
  152.0279  143.9633  157.6572 H   0  0  0  0  0  0  0  0  0  0  0  0
  150.6574  142.3176  156.6665 H   0  0  0  0  0  0  0  0  0  0  0  0
  149.9479  141.8038  158.1781 H   0  0  0  0  0  0  0  0  0  0  0  0
  1  2  1  0  0  0  0
  1 20  1  0  0  0  0
  1 21  1  0  0  0  0
  1 22  1  0  0  0  0
  2  3  1  0  0  0  0
  2  9  1  0  0  0  0
  2 23  1  0  0  0  0
  3  4  1  0  0  0  0
  3 24  1  0  0  0  0
  3 25  1  0  0  0  0
  4  8  1  0  0  0  0
  4  5  1  0  0  0  0
  5  6  2  0  0  0  0
  5 26  1  0  0  0  0
  6  7  1  0  0  0  0
  6 27  1  0  0  0  0
  7  8  2  0  0  0  0
  8 28  1  0  0  0  0
  9 10  1  0  0  0  0
 10 11  2  0  0  0  0
 10 12  1  0  0  0  0
 12 19  1  0  0  0  0
 12 13  2  0  0  0  0
 13 14  1  0  0  0  0
 14 15  1  0  0  0  0
 14 16  1  0  0  0  0
 15 29  1  0  0  0  0
 15 30  1  0  0  0  0
 15 31  1  0  0  0  0
 16 17  2  0  0  0  0
 16 18  1  0  0  0  0
 18 19  1  0  0  0  0
 18 32  1  0  0  0  0
 18 33  1  0  0  0  0
 19 34  1  0  0  0  0
 19 35  1  0  0  0  0
M  CHG  1   9  -1
M  END
> <s_m_source_file>
AV-unprocessed.smi

> <i_m_source_file_index>
561

> <i_lp_mmshare_version>
43012

> <i_f3d_flags>
0

> <s_epik_input>
W2NIXTFuW2NIXVtjSF1uMVtDSDJdW0NAQEhdKFtDSDNdKVtOSF1DKD1PKUMyPU5OKFtDSDNdKUMoPU8pW0NIMl1bQ0gyXTI=

> <s_epik_cmdline>
J2VwaWtfcHl0aG9uJywgJy1waCcsICc3LjAnLCAnLXRuJywgJzgnLCAnLW1hJywgJzIwMCcsICctbWV0YWxfYmluZGluZycsICctaW1hZScsICc8aW5maWxlLm1hZT4nLCAnLW9tYWUnLCAnPG91dGZpbGUubWFlPic=

> <r_lp_tautomer_probability>
1

> <r_epik_Ionization_Penalty>
6.06239

> <r_epik_Ionization_Penalty_Charging>
6.06239

> <r_epik_Ionization_Penalty_Neutral>
3.91387e-09

> <r_epik_State_Penalty>
5.76729

> <r_epik_Charging_Adjusted_Penalty>
11.8297

> <i_epik_Tot_Q>
-1

> <i_epik_Tot_abs_Q>
1

> <r_epik_Metal_State_Penalty>
2.02369

> <b_epik_Metal_Only>
1

> <s_epik_Chemistry_Notes>
This compound has an imine and may undergo hydrolysis.

> <s_lp_Force_Field>
OPLS_2005

> <r_lp_Energy>
27.3289

> <b_lp_Chiralities_Consistent>
1

> <s_lp_Variant>
AV-unprocessed.smi:561-8

> <Gold.Version>
5.8.1

> <Gold.Id.Protein>
6NUR|6NUR_protein|mol2

> <Gold.PLP.Fitness>
43.6838

> <Gold.PLP.PLP>
-39.5860

> <Gold.PLP.part.hbond>
-0.9168

> <Gold.PLP.part.metal>
0.0000

> <Gold.PLP.part.buried>
-4.7783

> <Gold.PLP.part.nonpolar>
-35.9337

> <Gold.PLP.part.repulsive>
0.2464

> <Gold.PLP.ligand.clash>
0.0000

> <Gold.PLP.ligand.torsion>
0.5705

> <Gold.PLP.Chemscore.Hbond>
0.9913

> <Gold.PLP.Chemscore.CHOScore>
0.7406

> <Gold.PLP.Chemscore.Metal>
0.0000

> <Gold.Chemscore.Hbonds>
donor molecule, donor type, donor heavy atom, donor atom, acceptor molecule, acceptor atom, score
      P1  H  7997  8010       L1    11  1.00
      L1  C     6    27       P1 10175  0.52

> <Gold.PLP.Chemscore.Internal.Correction>
0.0434

> <Gold.Rescore>
     Score         DG    S(hbond)    S(metal)    S(lipo)     H(rot)  DE(clash)    DE(int)     intcor
     10.72     -12.76       0.96        0.00      71.53       1.68       0.01       2.02       ----

> <Gold.Chemscore.Fitness>
10.7249

> <Gold.Chemscore.DG>
-12.7567

> <Gold.Chemscore.ZeroCoef>
-5.4800

> <Gold.Chemscore.Hbond>
0.9603

> <Gold.Chemscore.Metal>
0.0000

> <Gold.Chemscore.Lipo>
71.5299

> <Gold.Chemscore.Internal_Hbond>
0.0000

> <Gold.Chemscore.DEClash>
0.0105

> <Gold.Chemscore.DEInternal>
2.0213

> <Gold.Chemscore.Rot>
1.6796

> <Gold.Chemscore.Internal.Correction>
   9.000000E+99

> <Gold.Chemscore.Hbonds>
donor molecule, donor type, donor heavy atom, donor atom, acceptor molecule, acceptor atom, score
      P1  H  7997  8010       L1    11  0.95

> <Gold.Chemscore.Hbond.Weighted>
-3.2074

> <Gold.Chemscore.Metal.Weighted>
-0.0000

> <Gold.Chemscore.Lipo.Weighted>
-8.3690

> <Gold.Chemscore.Internal_Hbond.Weighted>
0.0000

> <Gold.Chemscore.DEClash.Weighted>
0.0105

> <Gold.Chemscore.DEInternal.Weighted>
2.0213

> <Gold.Chemscore.Rot.Weighted>
4.2997

> <Gold.Chemscore.Internal.Correction.Weighted>
   9.000000E+99

> <Gold.Protein.RotatedTorsions>
[ 6907 6896 6895 6894 ] final -166.46 input  -60.11 | X-H torsion
[ 7974 7965 7964 7962 ] final   85.28 input  175.53 | X-H torsion
[ 8008 7997 7996 7995 ] final   50.21 input   59.86 | X-H torsion
[ 10167 10162 10161 10158 ] final    1.50 input  -65.29 | X-H torsion
[ 10718 10713 10712 10709 ] final  -46.62 input   66.30 | X-H torsion
[ 10763 10752 10751 10750 ] final  102.74 input  -60.55 | X-H torsion
[ 11005 11000 10999 10996 ] final  -61.35 input  -57.11 | X-H torsion

> <Gold.Protein.ActiveResidues>
 VAL166  LYS551  ARG553  GLY616  TRP617  ASP618  TYR619  PRO620  LYS621  CYS622 
 ASP623  PHE694  ASN695  SER759  ASP760  ASP761  ALA762  ILE779  LEU786  VAL792 
 PHE793  MET794  SER795  GLU796  ALA797  LYS798  CYS799  TRP800  GLU811  SER814 

> <Gold.Protein.RotatedAtoms>
  151.4439  133.3635  159.2785 H   0  0  0  0  0  0  0  0  0  0  0  0  # atno 6907 bound_to 6896
  150.9138  134.8557  159.7454 H   0  0  0  0  0  0  0  0  0  0  0  0  # atno 6908 bound_to 6896
  152.4946  134.4371  159.9583 H   0  0  0  0  0  0  0  0  0  0  0  0  # atno 6909 bound_to 6896
  145.5876  139.2333  143.2317 H   0  0  0  0  0  0  0  0  0  0  0  0  # atno 7974 bound_to 7965
  155.4150  140.3444  155.4266 H   0  0  0  0  0  0  0  0  0  0  0  0  # atno 8008 bound_to 7997
  156.1426  140.1547  156.8928 H   0  0  0  0  0  0  0  0  0  0  0  0  # atno 8009 bound_to 7997
  154.4984  140.0821  156.7726 H   0  0  0  0  0  0  0  0  0  0  0  0  # atno 8010 bound_to 7997
  140.6680  143.7128  150.7865 H   0  0  0  0  0  0  0  0  0  0  0  0  # atno 10167 bound_to 10162
  156.2165  130.4163  149.9047 H   0  0  0  0  0  0  0  0  0  0  0  0  # atno 10718 bound_to 10713
  153.3435  135.4000  155.1590 H   0  0  0  0  0  0  0  0  0  0  0  0  # atno 10763 bound_to 10752
  154.8648  135.3639  154.5315 H   0  0  0  0  0  0  0  0  0  0  0  0  # atno 10764 bound_to 10752
  153.5762  135.7078  153.5543 H   0  0  0  0  0  0  0  0  0  0  0  0  # atno 10765 bound_to 10752
  141.1321  133.6629  156.5362 H   0  0  0  0  0  0  0  0  0  0  0  0  # atno 11005 bound_to 11000
  146.1671  140.6702  142.9250 LP  0  0  0  0  0  0  0  0  0  0  0  0  # atno 17320 bound_to 7965
  144.7366  140.4825  143.6899 LP  0  0  0  0  0  0  0  0  0  0  0  0  # atno 17321 bound_to 7965
  140.0808  143.4970  152.2531 LP  0  0  0  0  0  0  0  0  0  0  0  0  # atno 17342 bound_to 10162
  139.5936  144.7559  151.3341 LP  0  0  0  0  0  0  0  0  0  0  0  0  # atno 17343 bound_to 10162
  156.6708  130.8819  151.3562 LP  0  0  0  0  0  0  0  0  0  0  0  0  # atno 17370 bound_to 10713
  157.7066  130.9392  150.0950 LP  0  0  0  0  0  0  0  0  0  0  0  0  # atno 17371 bound_to 10713
  140.4176  134.7216  157.4872 LP  0  0  0  0  0  0  0  0  0  0  0  0  # atno 17394 bound_to 11000
  140.0382  134.6305  155.9015 LP  0  0  0  0  0  0  0  0  0  0  0  0  # atno 17395 bound_to 11000

$$$$
