AV-unprocessed.smi:1815|AV-procd|sdf|7357|dock3
  -GOLD-   22720 9 13D 1   1.00000     0.00000
 Structure written by MMmdl.
 38 39  0  0  0  0  0  0  0  0  2 V2000
  151.6475  138.2881  154.6761 C   0  0  0  0  0  0  0  0  0  0  0  0
  150.3792  139.1004  154.9584 C   0  0  2  0  0  0  0  0  0  0  0  0
  149.2466  138.7666  153.9712 C   0  0  0  0  0  0  0  0  0  0  0  0
  148.0714  139.5986  154.1898 N   0  0  0  0  0  0  0  0  0  0  0  0
  146.9900  139.2328  153.2743 C   0  0  0  0  0  0  0  0  0  0  0  0
  146.1681  137.9933  153.6806 C   0  0  0  0  0  0  0  0  0  0  0  0
  146.4356  136.8504  152.8125 N   0  0  0  0  0  0  0  0  0  0  0  0
  145.5201  136.1654  152.1128 C   0  0  0  0  0  0  0  0  0  0  0  0
  144.3301  136.4824  152.1811 O   0  0  0  0  0  0  0  0  0  0  0  0
  146.0396  135.1566  151.3764 N   0  5  0  0  0  0  0  0  0  0  0  0
  145.2546  134.1411  150.9821 C   0  0  0  0  0  0  0  0  0  0  0  0
  145.6385  133.2311  150.0795 N   0  0  0  0  0  0  0  0  0  0  0  0
  144.6651  132.2660  149.8151 C   0  0  0  0  0  0  0  0  0  0  0  0
  143.5090  132.4509  150.5258 C   0  0  0  0  0  0  0  0  0  0  0  0
  143.6090  133.8513  151.5546 S   0  0  0  0  0  0  0  0  0  0  0  0
  148.4530  141.0039  154.0764 C   0  0  0  0  0  0  0  0  0  0  0  0
  149.6098  141.3843  155.0220 C   0  0  1  0  0  0  0  0  0  0  0  0
  149.1796  141.4900  156.4949 C   0  0  0  0  0  0  0  0  0  0  0  0
  150.7068  140.4847  154.8523 O   0  0  0  0  0  0  0  0  0  0  0  0
  151.4548  137.2183  154.7585 H   0  0  0  0  0  0  0  0  0  0  0  0
  152.4362  138.5390  155.3856 H   0  0  0  0  0  0  0  0  0  0  0  0
  152.0264  138.4844  153.6728 H   0  0  0  0  0  0  0  0  0  0  0  0
  150.0518  138.8822  155.9755 H   0  0  0  0  0  0  0  0  0  0  0  0
  149.6033  138.8938  152.9477 H   0  0  0  0  0  0  0  0  0  0  0  0
  148.9772  137.7152  154.0786 H   0  0  0  0  0  0  0  0  0  0  0  0
  146.3168  140.0816  153.1465 H   0  0  0  0  0  0  0  0  0  0  0  0
  147.4125  139.0426  152.2867 H   0  0  0  0  0  0  0  0  0  0  0  0
  146.3794  137.7038  154.7093 H   0  0  0  0  0  0  0  0  0  0  0  0
  145.1039  138.2321  153.6549 H   0  0  0  0  0  0  0  0  0  0  0  0
  147.3983  136.5604  152.7239 H   0  0  0  0  0  0  0  0  0  0  0  0
  144.8805  131.4827  149.1038 H   0  0  0  0  0  0  0  0  0  0  0  0
  142.6100  131.8538  150.5069 H   0  0  0  0  0  0  0  0  0  0  0  0
  148.7535  141.2141  153.0488 H   0  0  0  0  0  0  0  0  0  0  0  0
  147.6008  141.6493  154.2864 H   0  0  0  0  0  0  0  0  0  0  0  0
  149.9730  142.3688  154.7263 H   0  0  0  0  0  0  0  0  0  0  0  0
  148.4196  142.2613  156.6210 H   0  0  0  0  0  0  0  0  0  0  0  0
  150.0258  141.7526  157.1298 H   0  0  0  0  0  0  0  0  0  0  0  0
  148.7582  140.5564  156.8673 H   0  0  0  0  0  0  0  0  0  0  0  0
  1  2  1  0  0  0  0
  1 20  1  0  0  0  0
  1 21  1  0  0  0  0
  1 22  1  0  0  0  0
  2 19  1  0  0  0  0
  2  3  1  0  0  0  0
  2 23  1  0  0  0  0
  3  4  1  0  0  0  0
  3 24  1  0  0  0  0
  3 25  1  0  0  0  0
  4  5  1  0  0  0  0
  4 16  1  0  0  0  0
  5  6  1  0  0  0  0
  5 26  1  0  0  0  0
  5 27  1  0  0  0  0
  6  7  1  0  0  0  0
  6 28  1  0  0  0  0
  6 29  1  0  0  0  0
  7  8  1  0  0  0  0
  7 30  1  0  0  0  0
  8  9  2  0  0  0  0
  8 10  1  0  0  0  0
 10 11  1  0  0  0  0
 11 15  1  0  0  0  0
 11 12  2  0  0  0  0
 12 13  1  0  0  0  0
 13 14  2  0  0  0  0
 13 31  1  0  0  0  0
 14 15  1  0  0  0  0
 14 32  1  0  0  0  0
 16 17  1  0  0  0  0
 16 33  1  0  0  0  0
 16 34  1  0  0  0  0
 17 18  1  0  0  0  0
 17 19  1  0  0  0  0
 17 35  1  0  0  0  0
 18 36  1  0  0  0  0
 18 37  1  0  0  0  0
 18 38  1  0  0  0  0
M  CHG  1  10  -1
M  END
> <s_m_source_file>
AV-unprocessed.smi

> <i_m_source_file_index>
1815

> <i_lp_mmshare_version>
43012

> <i_f3d_flags>
0

> <s_epik_input>
W0NIM11bQ0BASF0xW0NIMl1OKFtDSDJdW0NASF0oTzEpW0NIM10pW0NIMl1bQ0gyXVtOSF1DKD1PKVtOSF1jMm5bY0hdW2NIXXMy

> <s_epik_cmdline>
J2VwaWtfcHl0aG9uJywgJy1waCcsICc3LjAnLCAnLXRuJywgJzgnLCAnLW1hJywgJzIwMCcsICctbWV0YWxfYmluZGluZycsICctaW1hZScsICc8aW5maWxlLm1hZT4nLCAnLW9tYWUnLCAnPG91dGZpbGUubWFlPic=

> <r_lp_tautomer_probability>
0.999

> <r_epik_Ionization_Penalty>
7.22374

> <r_epik_Ionization_Penalty_Charging>
5.82415

> <r_epik_Ionization_Penalty_Neutral>
1.39959

> <r_epik_State_Penalty>
6.03347

> <r_epik_Charging_Adjusted_Penalty>
11.8576

> <i_epik_Tot_Q>
-1

> <i_epik_Tot_abs_Q>
1

> <r_epik_Metal_State_Penalty>
2.01024

> <b_epik_Metal_Only>
1

> <s_lp_Force_Field>
OPLS_2005

> <r_lp_Energy>
21.2187

> <b_lp_Chiralities_Consistent>
1

> <s_lp_Variant>
AV-unprocessed.smi:1815-8

> <Gold.Version>
5.8.1

> <Gold.Id.Protein>
6NUR|6NUR_protein|mol2

> <Gold.PLP.Fitness>
41.2204

> <Gold.PLP.PLP>
-33.5222

> <Gold.PLP.part.hbond>
-2.0000

> <Gold.PLP.part.metal>
0.0000

> <Gold.PLP.part.buried>
-5.5103

> <Gold.PLP.part.nonpolar>
-27.6296

> <Gold.PLP.part.repulsive>
1.1514

> <Gold.PLP.ligand.clash>
0.0000

> <Gold.PLP.ligand.torsion>
0.6930

> <Gold.PLP.Chemscore.Hbond>
2.0000

> <Gold.PLP.Chemscore.CHOScore>
0.9992

> <Gold.PLP.Chemscore.Metal>
0.0000

> <Gold.Chemscore.Hbonds>
donor molecule, donor type, donor heavy atom, donor atom, acceptor molecule, acceptor atom, score
      L1  H     7    30       P1  7948  1.00
      P1  H  7989  7998       L1    19  1.00
      L1  C    14    32       P1 10952  1.00

> <Gold.PLP.Chemscore.Internal.Correction>
0.0865

> <Gold.Rescore>
     Score         DG    S(hbond)    S(metal)    S(lipo)     H(rot)  DE(clash)    DE(int)     intcor
     14.76     -16.85       1.86        0.00      78.31       1.57       0.03       2.05       ----

> <Gold.Chemscore.Fitness>
14.7627

> <Gold.Chemscore.DG>
-16.8453

> <Gold.Chemscore.ZeroCoef>
-5.4800

> <Gold.Chemscore.Hbond>
1.8611

> <Gold.Chemscore.Metal>
0.0000

> <Gold.Chemscore.Lipo>
78.3102

> <Gold.Chemscore.Internal_Hbond>
0.0000

> <Gold.Chemscore.DEClash>
0.0297

> <Gold.Chemscore.DEInternal>
2.0529

> <Gold.Chemscore.Rot>
1.5676

> <Gold.Chemscore.Internal.Correction>
   9.000000E+99

> <Gold.Chemscore.Hbonds>
donor molecule, donor type, donor heavy atom, donor atom, acceptor molecule, acceptor atom, score
      L1  H     7    30       P1  7948  0.98
      P1  H  7989  7998       L1    19  0.69

> <Gold.Chemscore.Hbond.Weighted>
-6.2160

> <Gold.Chemscore.Metal.Weighted>
-0.0000

> <Gold.Chemscore.Lipo.Weighted>
-9.1623

> <Gold.Chemscore.Internal_Hbond.Weighted>
0.0000

> <Gold.Chemscore.DEClash.Weighted>
0.0297

> <Gold.Chemscore.DEInternal.Weighted>
2.0529

> <Gold.Chemscore.Rot.Weighted>
4.0130

> <Gold.Chemscore.Internal.Correction.Weighted>
   9.000000E+99

> <Gold.Protein.RotatedTorsions>
[ 6907 6896 6895 6894 ] final   68.27 input  -60.11 | X-H torsion
[ 7974 7965 7964 7962 ] final   61.69 input  175.53 | X-H torsion
[ 8008 7997 7996 7995 ] final  173.16 input   59.86 | X-H torsion
[ 10167 10162 10161 10158 ] final  141.10 input  -65.29 | X-H torsion
[ 10718 10713 10712 10709 ] final -171.98 input   66.30 | X-H torsion
[ 10763 10752 10751 10750 ] final  -36.16 input  -60.55 | X-H torsion
[ 11005 11000 10999 10996 ] final   37.09 input  -57.11 | X-H torsion

> <Gold.Protein.ActiveResidues>
 VAL166  LYS551  ARG553  GLY616  TRP617  ASP618  TYR619  PRO620  LYS621  CYS622 
 ASP623  PHE694  ASN695  SER759  ASP760  ASP761  ALA762  ILE779  LEU786  VAL792 
 PHE793  MET794  SER795  GLU796  ALA797  LYS798  CYS799  TRP800  GLU811  SER814 

> <Gold.Protein.RotatedAtoms>
  152.4609  134.5186  159.9775 H   0  0  0  0  0  0  0  0  0  0  0  0  # atno 6907 bound_to 6896
  151.5235  133.3456  159.2913 H   0  0  0  0  0  0  0  0  0  0  0  0  # atno 6908 bound_to 6896
  150.8572  134.7943  159.7117 H   0  0  0  0  0  0  0  0  0  0  0  0  # atno 6909 bound_to 6896
  145.8818  139.3449  143.0701 H   0  0  0  0  0  0  0  0  0  0  0  0  # atno 7974 bound_to 7965
  156.1103  140.1467  156.9348 H   0  0  0  0  0  0  0  0  0  0  0  0  # atno 8008 bound_to 7997
  154.4762  140.0893  156.7311 H   0  0  0  0  0  0  0  0  0  0  0  0  # atno 8009 bound_to 7997
  155.4608  140.3438  155.4314 H   0  0  0  0  0  0  0  0  0  0  0  0  # atno 8010 bound_to 7997
  139.5030  144.6192  151.6090 H   0  0  0  0  0  0  0  0  0  0  0  0  # atno 10167 bound_to 10162
  156.7488  130.9370  151.3113 H   0  0  0  0  0  0  0  0  0  0  0  0  # atno 10718 bound_to 10713
  153.8751  135.6827  153.4771 H   0  0  0  0  0  0  0  0  0  0  0  0  # atno 10763 bound_to 10752
  153.1265  135.4716  154.9278 H   0  0  0  0  0  0  0  0  0  0  0  0  # atno 10764 bound_to 10752
  154.7696  135.3234  154.8168 H   0  0  0  0  0  0  0  0  0  0  0  0  # atno 10765 bound_to 10752
  140.2260  134.3584  155.7984 H   0  0  0  0  0  0  0  0  0  0  0  0  # atno 11005 bound_to 11000
  145.9014  140.9240  143.0501 LP  0  0  0  0  0  0  0  0  0  0  0  0  # atno 17320 bound_to 7965
  144.6727  140.1038  143.7459 LP  0  0  0  0  0  0  0  0  0  0  0  0  # atno 17321 bound_to 7965
  140.5890  143.9814  150.6313 LP  0  0  0  0  0  0  0  0  0  0  0  0  # atno 17342 bound_to 10162
  140.2988  143.3274  152.0992 LP  0  0  0  0  0  0  0  0  0  0  0  0  # atno 17343 bound_to 10162
  157.6786  130.9118  150.0212 LP  0  0  0  0  0  0  0  0  0  0  0  0  # atno 17370 bound_to 10713
  156.1415  130.3642  149.9575 LP  0  0  0  0  0  0  0  0  0  0  0  0  # atno 17371 bound_to 10713
  141.2220  133.7219  156.8654 LP  0  0  0  0  0  0  0  0  0  0  0  0  # atno 17394 bound_to 11000
  140.1800  134.9040  157.2937 LP  0  0  0  0  0  0  0  0  0  0  0  0  # atno 17395 bound_to 11000

$$$$
