AV-unprocessed.smi:1704|AV-procd|sdf|6881|dock3
  -GOLD-   22720 8 83D 1   1.00000     0.00000
 Structure written by MMmdl.
 41 43  0  0  0  0  0  0  0  0  1 V2000
  154.2336  139.5752  160.3631 C   0  0  0  0  0  0  0  0  0  0  0  0
  153.4898  140.8332  160.1619 N   0  0  0  0  0  0  0  0  0  0  0  0
  152.8740  141.0357  158.9546 C   0  0  0  0  0  0  0  0  0  0  0  0
  152.9133  140.2519  158.0056 O   0  0  0  0  0  0  0  0  0  0  0  0
  152.1378  142.3017  158.8685 C   0  0  0  0  0  0  0  0  0  0  0  0
  152.1080  143.2048  159.8785 C   0  0  0  0  0  0  0  0  0  0  0  0
  151.3569  144.3235  159.5381 N   0  0  0  0  0  0  0  0  0  0  0  0
  150.9580  144.0224  158.3021 C   0  0  0  0  0  0  0  0  0  0  0  0
  151.3686  142.8271  157.8296 N   0  0  0  0  0  0  0  0  0  0  0  0
  151.0605  142.2695  156.5175 C   0  0  0  0  0  0  0  0  0  0  0  0
  149.6431  141.6495  156.3986 C   0  0  0  0  0  0  0  0  0  0  0  0
  148.7127  142.5741  156.9324 O   0  0  0  0  0  0  0  0  0  0  0  0
  149.2429  141.3660  154.9285 C   0  0  0  0  0  0  0  0  0  0  0  0
  147.9074  140.6107  154.8001 C   0  0  0  0  0  0  0  0  0  0  0  0
  147.9093  139.3182  155.6274 C   0  0  0  0  0  0  0  0  0  0  0  0
  148.2312  139.6109  157.0989 C   0  0  0  0  0  0  0  0  0  0  0  0
  149.5713  140.3541  157.2414 C   0  0  0  0  0  0  0  0  0  0  0  0
  152.8043  142.9098  161.0768 N   0  0  0  0  0  0  0  0  0  0  0  0
  152.7574  143.9153  162.1427 C   0  0  0  0  0  0  0  0  0  0  0  0
  153.4756  141.7203  161.2253 C   0  0  0  0  0  0  0  0  0  0  0  0
  154.0532  141.4511  162.2821 O   0  0  0  0  0  0  0  0  0  0  0  0
  154.2376  138.9006  159.5062 H   0  0  0  0  0  0  0  0  0  0  0  0
  153.8091  139.0131  161.1964 H   0  0  0  0  0  0  0  0  0  0  0  0
  155.2790  139.7833  160.5967 H   0  0  0  0  0  0  0  0  0  0  0  0
  150.3379  144.6901  157.7222 H   0  0  0  0  0  0  0  0  0  0  0  0
  151.1658  143.0720  155.7861 H   0  0  0  0  0  0  0  0  0  0  0  0
  151.8251  141.5392  156.2545 H   0  0  0  0  0  0  0  0  0  0  0  0
  148.5656  143.2537  156.2927 H   0  0  0  0  0  0  0  0  0  0  0  0
  149.1781  142.2950  154.3611 H   0  0  0  0  0  0  0  0  0  0  0  0
  150.0260  140.7741  154.4529 H   0  0  0  0  0  0  0  0  0  0  0  0
  147.0873  141.2517  155.1255 H   0  0  0  0  0  0  0  0  0  0  0  0
  147.7148  140.3782  153.7524 H   0  0  0  0  0  0  0  0  0  0  0  0
  146.9399  138.8250  155.5495 H   0  0  0  0  0  0  0  0  0  0  0  0
  148.6447  138.6228  155.2211 H   0  0  0  0  0  0  0  0  0  0  0  0
  147.4289  140.2040  157.5391 H   0  0  0  0  0  0  0  0  0  0  0  0
  148.2656  138.6779  157.6621 H   0  0  0  0  0  0  0  0  0  0  0  0
  150.3733  139.6813  156.9338 H   0  0  0  0  0  0  0  0  0  0  0  0
  149.7549  140.5789  158.2929 H   0  0  0  0  0  0  0  0  0  0  0  0
  153.3608  143.6728  163.0179 H   0  0  0  0  0  0  0  0  0  0  0  0
  151.7295  144.0502  162.4808 H   0  0  0  0  0  0  0  0  0  0  0  0
  153.1131  144.8746  161.7649 H   0  0  0  0  0  0  0  0  0  0  0  0
  1  2  1  0  0  0  0
  1 22  1  0  0  0  0
  1 23  1  0  0  0  0
  1 24  1  0  0  0  0
  2 20  1  0  0  0  0
  2  3  1  0  0  0  0
  3  4  2  0  0  0  0
  3  5  1  0  0  0  0
  5  9  1  0  0  0  0
  5  6  2  0  0  0  0
  6  7  1  0  0  0  0
  6 18  1  0  0  0  0
  7  8  2  0  0  0  0
  8  9  1  0  0  0  0
  8 25  1  0  0  0  0
  9 10  1  0  0  0  0
 10 11  1  0  0  0  0
 10 26  1  0  0  0  0
 10 27  1  0  0  0  0
 11 17  1  0  0  0  0
 11 12  1  0  0  0  0
 11 13  1  0  0  0  0
 12 28  1  0  0  0  0
 13 14  1  0  0  0  0
 13 29  1  0  0  0  0
 13 30  1  0  0  0  0
 14 15  1  0  0  0  0
 14 31  1  0  0  0  0
 14 32  1  0  0  0  0
 15 16  1  0  0  0  0
 15 33  1  0  0  0  0
 15 34  1  0  0  0  0
 16 17  1  0  0  0  0
 16 35  1  0  0  0  0
 16 36  1  0  0  0  0
 17 37  1  0  0  0  0
 17 38  1  0  0  0  0
 18 19  1  0  0  0  0
 18 20  1  0  0  0  0
 19 39  1  0  0  0  0
 19 40  1  0  0  0  0
 19 41  1  0  0  0  0
 20 21  2  0  0  0  0
M  END
> <s_m_source_file>
AV-unprocessed.smi

> <i_m_source_file_index>
1704

> <i_lp_mmshare_version>
43012

> <i_f3d_flags>
0

> <s_epik_input>
Tz1jMW4oW0NIM10pYyg9TyluKFtDSDNdKWMoYzEyKW5bY0hdbjJbQ0gyXUMzKFtPSF0pW0NIMl1bQ0gyXVtDSDJdW0NIMl1bQ0gyXTM=

> <s_epik_cmdline>
J2VwaWtfcHl0aG9uJywgJy1waCcsICc3LjAnLCAnLXRuJywgJzgnLCAnLW1hJywgJzIwMCcsICctbWV0YWxfYmluZGluZycsICctaW1hZScsICc8aW5maWxlLm1hZT4nLCAnLW9tYWUnLCAnPG91dGZpbGUubWFlPic=

> <r_lp_tautomer_probability>
1

> <r_epik_Ionization_Penalty>
6.70257e-06

> <r_epik_Ionization_Penalty_Charging>
6.65152e-09

> <r_epik_Ionization_Penalty_Neutral>
6.69592e-06

> <r_epik_State_Penalty>
-0

> <r_epik_Charging_Adjusted_Penalty>
6.65152e-09

> <i_epik_Tot_Q>
0

> <i_epik_Tot_abs_Q>
0

> <r_epik_Metal_State_Penalty>
-0

> <b_epik_Metal_Only>
0

> <s_lp_Force_Field>
OPLS_2005

> <r_lp_Energy>
39.0788

> <b_lp_Chiralities_Consistent>
1

> <s_lp_Variant>
AV-unprocessed.smi:1704-1

> <Gold.Version>
5.8.1

> <Gold.Id.Protein>
6NUR|6NUR_protein|mol2

> <Gold.PLP.Fitness>
48.5268

> <Gold.PLP.PLP>
-40.3409

> <Gold.PLP.part.hbond>
-2.5568

> <Gold.PLP.part.metal>
0.0000

> <Gold.PLP.part.buried>
-4.8122

> <Gold.PLP.part.nonpolar>
-31.7161

> <Gold.PLP.part.repulsive>
0.0732

> <Gold.PLP.ligand.clash>
0.0000

> <Gold.PLP.ligand.torsion>
0.3561

> <Gold.PLP.Chemscore.Hbond>
1.9440

> <Gold.PLP.Chemscore.CHOScore>
1.0207

> <Gold.PLP.Chemscore.Metal>
0.0000

> <Gold.Chemscore.Hbonds>
donor molecule, donor type, donor heavy atom, donor atom, acceptor molecule, acceptor atom, score
      L1  H    12    28       P1  8028  1.00
      P1  H  7997  8010       L1     4  0.96
      L1  C     8    25       P1  8028  0.92
      L1  C     8    25       P1  8029  0.12

> <Gold.PLP.Chemscore.Internal.Correction>
0.0041

> <Gold.Rescore>
     Score         DG    S(hbond)    S(metal)    S(lipo)     H(rot)  DE(clash)    DE(int)     intcor
     13.78     -14.41       1.90        0.00      62.45       1.84       0.27       0.36       ----

> <Gold.Chemscore.Fitness>
13.7785

> <Gold.Chemscore.DG>
-14.4098

> <Gold.Chemscore.ZeroCoef>
-5.4800

> <Gold.Chemscore.Hbond>
1.8956

> <Gold.Chemscore.Metal>
0.0000

> <Gold.Chemscore.Lipo>
62.4457

> <Gold.Chemscore.Internal_Hbond>
0.0000

> <Gold.Chemscore.DEClash>
0.2712

> <Gold.Chemscore.DEInternal>
0.3600

> <Gold.Chemscore.Rot>
1.8389

> <Gold.Chemscore.Internal.Correction>
   9.000000E+99

> <Gold.Chemscore.Hbonds>
donor molecule, donor type, donor heavy atom, donor atom, acceptor molecule, acceptor atom, score
      L1  H    12    28       P1  8028  0.84
      P1  H  7997  8010       L1     4  0.90

> <Gold.Chemscore.Hbond.Weighted>
-6.3312

> <Gold.Chemscore.Metal.Weighted>
-0.0000

> <Gold.Chemscore.Lipo.Weighted>
-7.3061

> <Gold.Chemscore.Internal_Hbond.Weighted>
0.0000

> <Gold.Chemscore.DEClash.Weighted>
0.2712

> <Gold.Chemscore.DEInternal.Weighted>
0.3600

> <Gold.Chemscore.Rot.Weighted>
4.7076

> <Gold.Chemscore.Internal.Correction.Weighted>
   9.000000E+99

> <Gold.Protein.RotatedTorsions>
[ 6907 6896 6895 6894 ] final   88.14 input  -60.11 | X-H torsion
[ 7974 7965 7964 7962 ] final    6.28 input  175.53 | X-H torsion
[ 8008 7997 7996 7995 ] final   41.81 input   59.86 | X-H torsion
[ 10167 10162 10161 10158 ] final   51.59 input  -65.29 | X-H torsion
[ 10718 10713 10712 10709 ] final  -94.31 input   66.30 | X-H torsion
[ 10763 10752 10751 10750 ] final    5.51 input  -60.55 | X-H torsion
[ 11005 11000 10999 10996 ] final  -39.05 input  -57.11 | X-H torsion

> <Gold.Protein.ActiveResidues>
 VAL166  LYS551  ARG553  GLY616  TRP617  ASP618  TYR619  PRO620  LYS621  CYS622 
 ASP623  PHE694  ASN695  SER759  ASP760  ASP761  ALA762  ILE779  LEU786  VAL792 
 PHE793  MET794  SER795  GLU796  ALA797  LYS798  CYS799  TRP800  GLU811  SER814 

> <Gold.Protein.RotatedAtoms>
  152.5421  134.2167  159.8771 H   0  0  0  0  0  0  0  0  0  0  0  0  # atno 6907 bound_to 6896
  151.2146  133.4530  159.2606 H   0  0  0  0  0  0  0  0  0  0  0  0  # atno 6908 bound_to 6896
  151.0864  134.9902  159.8437 H   0  0  0  0  0  0  0  0  0  0  0  0  # atno 6909 bound_to 6896
  146.2435  140.0256  142.8394 H   0  0  0  0  0  0  0  0  0  0  0  0  # atno 7974 bound_to 7965
  155.2758  140.3369  155.4262 H   0  0  0  0  0  0  0  0  0  0  0  0  # atno 8008 bound_to 7997
  156.2112  140.1770  156.7732 H   0  0  0  0  0  0  0  0  0  0  0  0  # atno 8009 bound_to 7997
  154.5689  140.0673  156.8918 H   0  0  0  0  0  0  0  0  0  0  0  0  # atno 8010 bound_to 7997
  140.2603  144.3380  150.6320 H   0  0  0  0  0  0  0  0  0  0  0  0  # atno 10167 bound_to 10162
  156.0025  130.5062  150.5908 H   0  0  0  0  0  0  0  0  0  0  0  0  # atno 10718 bound_to 10713
  153.2585  135.6921  153.7603 H   0  0  0  0  0  0  0  0  0  0  0  0  # atno 10763 bound_to 10752
  153.6671  135.3350  155.3144 H   0  0  0  0  0  0  0  0  0  0  0  0  # atno 10764 bound_to 10752
  154.8421  135.4491  154.1568 H   0  0  0  0  0  0  0  0  0  0  0  0  # atno 10765 bound_to 10752
  141.0073  133.6925  156.2135 H   0  0  0  0  0  0  0  0  0  0  0  0  # atno 11005 bound_to 11000
  145.1201  140.9457  143.4605 LP  0  0  0  0  0  0  0  0  0  0  0  0  # atno 17320 bound_to 7965
  145.0490  139.3197  143.5938 LP  0  0  0  0  0  0  0  0  0  0  0  0  # atno 17321 bound_to 7965
  140.5971  143.2167  151.7144 LP  0  0  0  0  0  0  0  0  0  0  0  0  # atno 17342 bound_to 10162
  139.5019  144.3851  152.0337 LP  0  0  0  0  0  0  0  0  0  0  0  0  # atno 17343 bound_to 10162
  157.3773  131.0775  151.1507 LP  0  0  0  0  0  0  0  0  0  0  0  0  # atno 17370 bound_to 10713
  157.2241  130.6495  149.5823 LP  0  0  0  0  0  0  0  0  0  0  0  0  # atno 17371 bound_to 10713
  140.6792  134.4786  157.5589 LP  0  0  0  0  0  0  0  0  0  0  0  0  # atno 17394 bound_to 11000
  139.9070  134.8427  156.1668 LP  0  0  0  0  0  0  0  0  0  0  0  0  # atno 17395 bound_to 11000

$$$$
