AV-unprocessed.smi:787|AV-procd|sdf|3725|dock5
  -GOLD-   22720 1153D 1   1.00000     0.00000
 Structure written by MMmdl.
 47 49  0  0  0  0  0  0  0  0  2 V2000
  148.4101  136.3162  155.5976 C   0  0  0  0  0  0  0  0  0  0  0  0
  149.0027  136.9637  154.4377 N   0  0  0  0  0  0  0  0  0  0  0  0
  149.7856  138.1163  154.5942 C   0  0  0  0  0  0  0  0  0  0  0  0
  151.0929  138.0015  154.9241 N   0  0  0  0  0  0  0  0  0  0  0  0
  151.8017  139.1268  155.0812 C   0  0  0  0  0  0  0  0  0  0  0  0
  151.4003  140.4016  154.9612 N   0  0  0  0  0  0  0  0  0  0  0  0
  150.1079  140.5263  154.6319 C   0  0  0  0  0  0  0  0  0  0  0  0
  149.4300  141.7191  154.4505 N   0  0  0  0  0  0  0  0  0  0  0  0
  148.2089  141.2914  154.1438 C   0  0  0  0  0  0  0  0  0  0  0  0
  148.0104  139.9592  154.0806 N   0  0  0  0  0  0  0  0  0  0  0  0
  146.7678  139.2879  153.7235 C   0  0  0  0  0  0  0  0  0  0  0  0
  146.8765  138.4182  152.4486 C   0  0  2  0  0  0  0  0  0  0  0  0
  147.1152  139.2503  151.3298 O   0  0  0  0  0  0  0  0  0  0  0  0
  145.6081  137.5873  152.1637 C   0  0  0  0  0  0  0  0  0  0  0  0
  145.9189  136.1507  151.9419 N   0  3  1  0  0  0  0  0  0  0  0  0
  145.7204  135.3286  153.1572 C   0  0  0  0  0  0  0  0  0  0  0  0
  145.2353  135.5725  150.7575 C   0  0  0  0  0  0  0  0  0  0  0  0
  145.2958  134.0537  150.7582 C   0  0  0  0  0  0  0  0  0  0  0  0
  144.1275  133.2897  150.5475 C   0  0  0  0  0  0  0  0  0  0  0  0
  144.1952  131.8832  150.5262 C   0  0  0  0  0  0  0  0  0  0  0  0
  145.4295  131.2343  150.7226 C   0  0  0  0  0  0  0  0  0  0  0  0
  146.5961  131.9925  150.9412 C   0  0  0  0  0  0  0  0  0  0  0  0
  146.5295  133.3992  150.9596 C   0  0  0  0  0  0  0  0  0  0  0  0
  149.2448  139.4075  154.4247 C   0  0  0  0  0  0  0  0  0  0  0  0
  147.8060  135.4659  155.2814 H   0  0  0  0  0  0  0  0  0  0  0  0
  147.7662  137.0091  156.1402 H   0  0  0  0  0  0  0  0  0  0  0  0
  149.1833  135.9526  156.2755 H   0  0  0  0  0  0  0  0  0  0  0  0
  148.6884  136.6953  153.5170 H   0  0  0  0  0  0  0  0  0  0  0  0
  152.8397  138.9891  155.3453 H   0  0  0  0  0  0  0  0  0  0  0  0
  147.4137  141.9908  153.9311 H   0  0  0  0  0  0  0  0  0  0  0  0
  146.4331  138.6884  154.5699 H   0  0  0  0  0  0  0  0  0  0  0  0
  146.0016  140.0508  153.5790 H   0  0  0  0  0  0  0  0  0  0  0  0
  147.7358  137.7570  152.5599 H   0  0  0  0  0  0  0  0  0  0  0  0
  147.9195  139.7273  151.4695 H   0  0  0  0  0  0  0  0  0  0  0  0
  144.8914  137.6865  152.9804 H   0  0  0  0  0  0  0  0  0  0  0  0
  145.1130  138.0010  151.2873 H   0  0  0  0  0  0  0  0  0  0  0  0
  144.6664  135.2931  153.4364 H   0  0  0  0  0  0  0  0  0  0  0  0
  146.2836  135.7297  153.9999 H   0  0  0  0  0  0  0  0  0  0  0  0
  146.0638  134.3068  152.9918 H   0  0  0  0  0  0  0  0  0  0  0  0
  144.1829  135.8606  150.7595 H   0  0  0  0  0  0  0  0  0  0  0  0
  145.6674  135.9762  149.8404 H   0  0  0  0  0  0  0  0  0  0  0  0
  143.1767  133.7785  150.3916 H   0  0  0  0  0  0  0  0  0  0  0  0
  143.3005  131.3014  150.3582 H   0  0  0  0  0  0  0  0  0  0  0  0
  145.4812  130.1554  150.7066 H   0  0  0  0  0  0  0  0  0  0  0  0
  147.5425  131.4948  151.0924 H   0  0  0  0  0  0  0  0  0  0  0  0
  147.4296  133.9739  151.1226 H   0  0  0  0  0  0  0  0  0  0  0  0
  146.9053  136.1110  151.7262 H   0  0  0  0  0  0  0  0  0  0  0  0
  1  2  1  0  0  0  0
  1 25  1  0  0  0  0
  1 26  1  0  0  0  0
  1 27  1  0  0  0  0
  2  3  1  0  0  0  0
  2 28  1  0  0  0  0
  3 24  1  0  0  0  0
  3  4  2  0  0  0  0
  4  5  1  0  0  0  0
  5  6  2  0  0  0  0
  5 29  1  0  0  0  0
  6  7  1  0  0  0  0
  7 24  2  0  0  0  0
  7  8  1  0  0  0  0
  8  9  2  0  0  0  0
  9 10  1  0  0  0  0
  9 30  1  0  0  0  0
 10 11  1  0  0  0  0
 10 24  1  0  0  0  0
 11 12  1  0  0  0  0
 11 31  1  0  0  0  0
 11 32  1  0  0  0  0
 12 13  1  0  0  0  0
 12 14  1  0  0  0  0
 12 33  1  0  0  0  0
 13 34  1  0  0  0  0
 14 15  1  0  0  0  0
 14 35  1  0  0  0  0
 14 36  1  0  0  0  0
 15 16  1  0  0  0  0
 15 17  1  0  0  0  0
 15 47  1  0  0  0  0
 16 37  1  0  0  0  0
 16 38  1  0  0  0  0
 16 39  1  0  0  0  0
 17 18  1  0  0  0  0
 17 40  1  0  0  0  0
 17 41  1  0  0  0  0
 18 23  1  0  0  0  0
 18 19  2  0  0  0  0
 19 20  1  0  0  0  0
 19 42  1  0  0  0  0
 20 21  2  0  0  0  0
 20 43  1  0  0  0  0
 21 22  1  0  0  0  0
 21 44  1  0  0  0  0
 22 23  2  0  0  0  0
 22 45  1  0  0  0  0
 23 46  1  0  0  0  0
M  CHG  1  15   1
M  END
> <s_m_source_file>
AV-unprocessed.smi

> <i_m_source_file_index>
787

> <i_lp_mmshare_version>
43012

> <i_f3d_flags>
0

> <s_epik_input>
bjFbY0hdbmMoW05IXVtDSDNdKWMoYzEyKW4oW2NIXW4yKVtDSDJdW0NASF0oW09IXSlbQ0gyXU4oW0NIM10pW0NIMl1jM1tjSF1bY0hdW2NIXVtjSF1bY0hdMw==

> <s_epik_cmdline>
J2VwaWtfcHl0aG9uJywgJy1waCcsICc3LjAnLCAnLXRuJywgJzgnLCAnLW1hJywgJzIwMCcsICctbWV0YWxfYmluZGluZycsICctaW1hZScsICc8aW5maWxlLm1hZT4nLCAnLW9tYWUnLCAnPG91dGZpbGUubWFlPic=

> <r_lp_tautomer_probability>
0.999987

> <r_epik_Ionization_Penalty>
0.0526284

> <r_epik_Ionization_Penalty_Charging>
0.0475377

> <r_epik_Ionization_Penalty_Neutral>
0.00509065

> <r_epik_State_Penalty>
0.0404888

> <r_epik_Charging_Adjusted_Penalty>
0.0880265

> <i_epik_Tot_Q>
1

> <i_epik_Tot_abs_Q>
1

> <r_epik_Metal_State_Penalty>
0.040507

> <b_epik_Metal_Only>
0

> <s_lp_Force_Field>
OPLS_2005

> <r_lp_Energy>
14.0859

> <b_lp_Chiralities_Consistent>
1

> <s_lp_Variant>
AV-unprocessed.smi:787-1

> <Gold.Version>
5.8.1

> <Gold.Id.Protein>
6NUR|6NUR_protein|mol2

> <Gold.PLP.Fitness>
52.2268

> <Gold.PLP.PLP>
-43.0969

> <Gold.PLP.part.hbond>
-6.9088

> <Gold.PLP.part.metal>
0.0000

> <Gold.PLP.part.buried>
1.8260

> <Gold.PLP.part.nonpolar>
-39.0955

> <Gold.PLP.part.repulsive>
0.3810

> <Gold.PLP.ligand.clash>
0.0131

> <Gold.PLP.ligand.torsion>
2.3276

> <Gold.PLP.Chemscore.Hbond>
4.4885

> <Gold.PLP.Chemscore.CHOScore>
0.0000

> <Gold.PLP.Chemscore.Metal>
0.0000

> <Gold.Chemscore.Hbonds>
donor molecule, donor type, donor heavy atom, donor atom, acceptor molecule, acceptor atom, score
      L1  H     2    28       P1  7948  1.00
      L1  H    13    34       P1  7957  1.00
      L1  H    15    47       P1  7948  2.00
      P1  H  7954  7966       L1    13  0.19
      P1  H  7989  7998       L1     6  0.20
      P1  H  8011  8017       L1     8  0.13

> <Gold.PLP.Chemscore.Internal.Correction>
0.3326

> <Gold.Rescore>
     Score         DG    S(hbond)    S(metal)    S(lipo)     H(rot)  DE(clash)    DE(int)     intcor
     13.69     -17.42       2.93        0.00      88.20       3.19       1.40       2.33       ----

> <Gold.Chemscore.Fitness>
13.6915

> <Gold.Chemscore.DG>
-17.4190

> <Gold.Chemscore.ZeroCoef>
-5.4800

> <Gold.Chemscore.Hbond>
2.9321

> <Gold.Chemscore.Metal>
0.0000

> <Gold.Chemscore.Lipo>
88.1987

> <Gold.Chemscore.Internal_Hbond>
0.0000

> <Gold.Chemscore.DEClash>
1.4021

> <Gold.Chemscore.DEInternal>
2.3254

> <Gold.Chemscore.Rot>
3.1928

> <Gold.Chemscore.Internal.Correction>
   9.000000E+99

> <Gold.Chemscore.Hbonds>
donor molecule, donor type, donor heavy atom, donor atom, acceptor molecule, acceptor atom, score
      L1  H     2    28       P1  7948  0.96
      L1  H    13    34       P1  7957  0.95
      L1  H    15    47       P1  7948  0.93
      P1  H  8011  8017       L1     8  0.01

> <Gold.Chemscore.Hbond.Weighted>
-9.7934

> <Gold.Chemscore.Metal.Weighted>
-0.0000

> <Gold.Chemscore.Lipo.Weighted>
-10.3192

> <Gold.Chemscore.Internal_Hbond.Weighted>
0.0000

> <Gold.Chemscore.DEClash.Weighted>
1.4021

> <Gold.Chemscore.DEInternal.Weighted>
2.3254

> <Gold.Chemscore.Rot.Weighted>
8.1736

> <Gold.Chemscore.Internal.Correction.Weighted>
   9.000000E+99

> <Gold.Protein.RotatedTorsions>
[ 6907 6896 6895 6894 ] final   96.31 input  -60.11 | X-H torsion
[ 7974 7965 7964 7962 ] final  -34.95 input  175.53 | X-H torsion
[ 8008 7997 7996 7995 ] final   69.76 input   59.86 | X-H torsion
[ 10167 10162 10161 10158 ] final -144.60 input  -65.29 | X-H torsion
[ 10718 10713 10712 10709 ] final -112.81 input   66.30 | X-H torsion
[ 10763 10752 10751 10750 ] final  -20.66 input  -60.55 | X-H torsion
[ 11005 11000 10999 10996 ] final -126.66 input  -57.11 | X-H torsion

> <Gold.Protein.ActiveResidues>
 VAL166  LYS551  ARG553  GLY616  TRP617  ASP618  TYR619  PRO620  LYS621  CYS622 
 ASP623  PHE694  ASN695  SER759  ASP760  ASP761  ALA762  ILE779  LEU786  VAL792 
 PHE793  MET794  SER795  GLU796  ALA797  LYS798  CYS799  TRP800  GLU811  SER814 

> <Gold.Protein.RotatedAtoms>
  152.5436  134.0907  159.8275 H   0  0  0  0  0  0  0  0  0  0  0  0  # atno 6907 bound_to 6896
  151.0996  133.5246  159.2618 H   0  0  0  0  0  0  0  0  0  0  0  0  # atno 6908 bound_to 6896
  151.2006  135.0450  159.8925 H   0  0  0  0  0  0  0  0  0  0  0  0  # atno 6909 bound_to 6896
  146.0787  140.6100  142.8918 H   0  0  0  0  0  0  0  0  0  0  0  0  # atno 7974 bound_to 7965
  155.7285  140.3492  155.5048 H   0  0  0  0  0  0  0  0  0  0  0  0  # atno 8008 bound_to 7997
  155.9204  140.1066  157.1233 H   0  0  0  0  0  0  0  0  0  0  0  0  # atno 8009 bound_to 7997
  154.4069  140.1250  156.4659 H   0  0  0  0  0  0  0  0  0  0  0  0  # atno 8010 bound_to 7997
  139.7884  143.8001  152.2647 H   0  0  0  0  0  0  0  0  0  0  0  0  # atno 10167 bound_to 10162
  156.0728  130.5939  150.8558 H   0  0  0  0  0  0  0  0  0  0  0  0  # atno 10718 bound_to 10713
  153.6238  135.6991  153.5300 H   0  0  0  0  0  0  0  0  0  0  0  0  # atno 10763 bound_to 10752
  153.2915  135.4155  155.1171 H   0  0  0  0  0  0  0  0  0  0  0  0  # atno 10764 bound_to 10752
  154.8537  135.3626  154.5780 H   0  0  0  0  0  0  0  0  0  0  0  0  # atno 10765 bound_to 10752
  140.9663  134.0867  157.3916 H   0  0  0  0  0  0  0  0  0  0  0  0  # atno 11005 bound_to 11000
  144.7279  140.4581  143.6960 LP  0  0  0  0  0  0  0  0  0  0  0  0  # atno 17320 bound_to 7965
  145.6258  139.1530  143.2997 LP  0  0  0  0  0  0  0  0  0  0  0  0  # atno 17321 bound_to 7965
  139.8085  144.7345  150.9729 LP  0  0  0  0  0  0  0  0  0  0  0  0  # atno 17342 bound_to 10162
  140.7820  143.4274  151.0746 LP  0  0  0  0  0  0  0  0  0  0  0  0  # atno 17343 bound_to 10162
  157.5808  131.0946  150.9274 LP  0  0  0  0  0  0  0  0  0  0  0  0  # atno 17370 bound_to 10713
  156.9470  130.5406  149.5281 LP  0  0  0  0  0  0  0  0  0  0  0  0  # atno 17371 bound_to 10713
  139.8896  135.0106  156.6687 LP  0  0  0  0  0  0  0  0  0  0  0  0  # atno 17394 bound_to 11000
  140.7394  133.8991  155.8267 LP  0  0  0  0  0  0  0  0  0  0  0  0  # atno 17395 bound_to 11000

$$$$
