AV-unprocessed.smi:44|AV-procd|sdf|405|dock1
  -GOLD-   2262016263D 1   1.00000     0.00000
 Structure written by MMmdl.
 28 30  0  0  0  0  0  0  0  0  2 V2000
  153.5620  139.0036  155.8314 O   0  0  0  0  0  0  0  0  0  0  0  0
  152.4354  138.7746  155.3956 C   0  0  0  0  0  0  0  0  0  0  0  0
  152.0564  137.6275  154.7465 N   0  5  0  0  0  0  0  0  0  0  0  0
  150.7438  137.4910  154.2987 C   0  0  0  0  0  0  0  0  0  0  0  0
  149.7786  138.3386  154.4157 N   0  0  0  0  0  0  0  0  0  0  0  0
  150.1343  139.5018  155.0668 C   0  0  0  0  0  0  0  0  0  0  0  0
  151.3713  139.8039  155.5688 C   0  0  0  0  0  0  0  0  0  0  0  0
  151.3798  141.0612  156.1605 N   0  0  0  0  0  0  0  0  0  0  0  0
  150.1208  141.4633  155.9823 C   0  0  0  0  0  0  0  0  0  0  0  0
  149.3141  140.5879  155.3445 N   0  0  0  0  0  0  0  0  0  0  0  0
  147.8673  140.7361  154.9886 C   0  0  1  0  0  0  0  0  0  0  0  0
  147.6808  141.9375  154.0491 C   0  0  0  0  0  0  0  0  0  0  0  0
  146.9473  141.3204  152.8746 C   0  0  0  0  0  0  0  0  0  0  0  0
  147.4632  139.8843  152.8909 C   0  0  2  0  0  0  0  0  0  0  0  0
  146.5590  138.9003  152.1347 C   0  0  0  0  0  0  0  0  0  0  0  0
  147.3320  138.1046  151.2617 O   0  0  0  0  0  0  0  0  0  0  0  0
  147.4526  139.6012  154.2852 O   0  0  0  0  0  0  0  0  0  0  0  0
  147.3512  140.8241  155.9452 H   0  0  0  0  0  0  0  0  0  0  0  0
  148.4841  139.8605  152.5042 H   0  0  0  0  0  0  0  0  0  0  0  0
  150.5834  136.5319  153.7998 H   0  0  0  0  0  0  0  0  0  0  0  0
  149.7785  142.4269  156.3294 H   0  0  0  0  0  0  0  0  0  0  0  0
  147.1150  142.7307  154.5383 H   0  0  0  0  0  0  0  0  0  0  0  0
  148.6489  142.3333  153.7365 H   0  0  0  0  0  0  0  0  0  0  0  0
  145.8716  141.3402  153.0554 H   0  0  0  0  0  0  0  0  0  0  0  0
  147.1454  141.8339  151.9333 H   0  0  0  0  0  0  0  0  0  0  0  0
  145.9929  138.2717  152.8228 H   0  0  0  0  0  0  0  0  0  0  0  0
  145.8376  139.4468  151.5266 H   0  0  0  0  0  0  0  0  0  0  0  0
  147.7242  137.4053  151.7611 H   0  0  0  0  0  0  0  0  0  0  0  0
  1  2  2  0  0  0  0
  2  7  1  0  0  0  0
  2  3  1  0  0  0  0
  3  4  1  0  0  0  0
  4  5  2  0  0  0  0
  4 20  1  0  0  0  0
  5  6  1  0  0  0  0
  6 10  1  0  0  0  0
  6  7  2  0  0  0  0
  7  8  1  0  0  0  0
  8  9  2  0  0  0  0
  9 10  1  0  0  0  0
  9 21  1  0  0  0  0
 10 11  1  0  0  0  0
 11 18  1  0  0  0  0
 11 17  1  0  0  0  0
 11 12  1  0  0  0  0
 12 13  1  0  0  0  0
 12 22  1  0  0  0  0
 12 23  1  0  0  0  0
 13 14  1  0  0  0  0
 13 24  1  0  0  0  0
 13 25  1  0  0  0  0
 14 19  1  0  0  0  0
 14 15  1  0  0  0  0
 14 17  1  0  0  0  0
 15 16  1  0  0  0  0
 15 26  1  0  0  0  0
 15 27  1  0  0  0  0
 16 28  1  0  0  0  0
M  CHG  1   3  -1
M  END
> <s_m_source_file>
AV-unprocessed.smi

> <i_m_source_file_index>
44

> <i_lp_mmshare_version>
43012

> <i_f3d_flags>
0

> <s_epik_input>
bjFbY0hdW25IXWMoPU8pYyhjMTIpbltjSF1uMltDQEhdM1tDSDJdW0NIMl1bQ0BIXShPMylbQ0gyXVtPSF0=

> <s_epik_cmdline>
J2VwaWtfcHl0aG9uJywgJy1waCcsICc3LjAnLCAnLXRuJywgJzgnLCAnLW1hJywgJzIwMCcsICctbWV0YWxfYmluZGluZycsICctaW1hZScsICc8aW5maWxlLm1hZT4nLCAnLW9tYWUnLCAnPG91dGZpbGUubWFlPic=

> <r_lp_tautomer_probability>
0.85571

> <r_epik_Ionization_Penalty>
2.55863

> <r_epik_Ionization_Penalty_Charging>
1.36424e-10

> <r_epik_Ionization_Penalty_Neutral>
2.55863

> <r_epik_State_Penalty>
2.63326

> <r_epik_Charging_Adjusted_Penalty>
2.63326

> <i_epik_Tot_Q>
-1

> <i_epik_Tot_abs_Q>
1

> <r_epik_Metal_State_Penalty>
0.475154

> <b_epik_Metal_Only>
1

> <s_epik_Chemistry_Notes>
This compound contains an acetal/aminal-like group ( X-CH(R)-Y where X, Y are N, S, or O) that may be acid/base labile, releasing an aldehyde.

> <s_lp_Force_Field>
OPLS_2005

> <r_lp_Energy>
48.3687

> <b_lp_Chiralities_Consistent>
1

> <s_lp_Variant>
AV-unprocessed.smi:44-11

> <Gold.Version>
5.8.1

> <Gold.Id.Protein>
6NUR|6NUR_protein|mol2

> <Gold.PLP.Fitness>
43.9560

> <Gold.PLP.PLP>
-29.0592

> <Gold.PLP.part.hbond>
-4.1918

> <Gold.PLP.part.metal>
0.0000

> <Gold.PLP.part.buried>
-2.8088

> <Gold.PLP.part.nonpolar>
-24.3516

> <Gold.PLP.part.repulsive>
0.4405

> <Gold.PLP.ligand.clash>
0.0000

> <Gold.PLP.ligand.torsion>
0.7173

> <Gold.PLP.Chemscore.Hbond>
3.6277

> <Gold.PLP.Chemscore.CHOScore>
1.8081

> <Gold.PLP.Chemscore.Metal>
0.0000

> <Gold.Chemscore.Hbonds>
donor molecule, donor type, donor heavy atom, donor atom, acceptor molecule, acceptor atom, score
      L1  H    16    28       P1  7948  0.91
      P1  H  7954  7966       L1    16  0.85
      P1  H  7997  8008       L1     1  0.70
      P1  H 10752 10765       L1     3  0.99
      L1  C     4    20       P1  7948  0.36
      L1  C     4    20       P1  7949  0.50
      L1  C     9    21       P1  8028  0.95

> <Gold.PLP.Chemscore.Internal.Correction>
0.0238

> <Gold.Rescore>
     Score         DG    S(hbond)    S(metal)    S(lipo)     H(rot)  DE(clash)    DE(int)     intcor
     11.55     -14.14       3.01        0.00      37.59       2.26       0.37       2.22       ----

> <Gold.Chemscore.Fitness>
11.5515

> <Gold.Chemscore.DG>
-14.1397

> <Gold.Chemscore.ZeroCoef>
-5.4800

> <Gold.Chemscore.Hbond>
3.0074

> <Gold.Chemscore.Metal>
0.0000

> <Gold.Chemscore.Lipo>
37.5857

> <Gold.Chemscore.Internal_Hbond>
0.0000

> <Gold.Chemscore.DEClash>
0.3672

> <Gold.Chemscore.DEInternal>
2.2210

> <Gold.Chemscore.Rot>
2.2588

> <Gold.Chemscore.Internal.Correction>
   9.000000E+99

> <Gold.Chemscore.Hbonds>
donor molecule, donor type, donor heavy atom, donor atom, acceptor molecule, acceptor atom, score
      L1  H    16    28       P1  7948  0.88
      P1  H  7954  7966       L1    16  0.15
      P1  H  7997  8008       L1     1  0.67
      P1  H 10752 10765       L1     3  0.22

> <Gold.Chemscore.Hbond.Weighted>
-10.0447

> <Gold.Chemscore.Metal.Weighted>
-0.0000

> <Gold.Chemscore.Lipo.Weighted>
-4.3975

> <Gold.Chemscore.Internal_Hbond.Weighted>
0.0000

> <Gold.Chemscore.DEClash.Weighted>
0.3672

> <Gold.Chemscore.DEInternal.Weighted>
2.2210

> <Gold.Chemscore.Rot.Weighted>
5.7825

> <Gold.Chemscore.Internal.Correction.Weighted>
   9.000000E+99

> <Gold.Protein.RotatedTorsions>
[ 6907 6896 6895 6894 ] final -170.91 input  -60.11 | X-H torsion
[ 7974 7965 7964 7962 ] final  -49.70 input  175.53 | X-H torsion
[ 8008 7997 7996 7995 ] final  -42.28 input   59.86 | X-H torsion
[ 10167 10162 10161 10158 ] final  157.92 input  -65.29 | X-H torsion
[ 10718 10713 10712 10709 ] final -133.90 input   66.30 | X-H torsion
[ 10763 10752 10751 10750 ] final  166.89 input  -60.55 | X-H torsion
[ 11005 11000 10999 10996 ] final  -76.51 input  -57.11 | X-H torsion

> <Gold.Protein.ActiveResidues>
 VAL166  LYS551  ARG553  GLY616  TRP617  ASP618  TYR619  PRO620  LYS621  CYS622 
 ASP623  PHE694  ASN695  SER759  ASP760  ASP761  ALA762  ILE779  LEU786  VAL792 
 PHE793  MET794  SER795  GLU796  ALA797  LYS798  CYS799  TRP800  GLU811  SER814 

> <Gold.Protein.RotatedAtoms>
  151.5153  133.3477  159.2891 H   0  0  0  0  0  0  0  0  0  0  0  0  # atno 6907 bound_to 6896
  150.8686  134.8058  159.7149 H   0  0  0  0  0  0  0  0  0  0  0  0  # atno 6908 bound_to 6896
  152.4682  134.5033  159.9783 H   0  0  0  0  0  0  0  0  0  0  0  0  # atno 6909 bound_to 6896
  145.9378  140.7691  142.9567 H   0  0  0  0  0  0  0  0  0  0  0  0  # atno 7974 bound_to 7965
  154.4000  140.1477  156.3328 H   0  0  0  0  0  0  0  0  0  0  0  0  # atno 8008 bound_to 7997
  155.8427  140.3461  155.5621 H   0  0  0  0  0  0  0  0  0  0  0  0  # atno 8009 bound_to 7997
  155.8069  140.0878  157.1916 H   0  0  0  0  0  0  0  0  0  0  0  0  # atno 8010 bound_to 7997
  139.4825  144.4872  151.8360 H   0  0  0  0  0  0  0  0  0  0  0  0  # atno 10167 bound_to 10162
  156.2498  130.7146  151.1041 H   0  0  0  0  0  0  0  0  0  0  0  0  # atno 10718 bound_to 10713
  154.3457  135.2753  155.2399 H   0  0  0  0  0  0  0  0  0  0  0  0  # atno 10763 bound_to 10752
  154.4650  135.5897  153.6285 H   0  0  0  0  0  0  0  0  0  0  0  0  # atno 10764 bound_to 10752
  152.9854  135.6074  154.3663 H   0  0  0  0  0  0  0  0  0  0  0  0  # atno 10765 bound_to 10752
  141.1654  133.6986  156.7680 H   0  0  0  0  0  0  0  0  0  0  0  0  # atno 11005 bound_to 11000
  144.6774  140.2230  143.7364 LP  0  0  0  0  0  0  0  0  0  0  0  0  # atno 17320 bound_to 7965
  145.8341  139.2099  143.1866 LP  0  0  0  0  0  0  0  0  0  0  0  0  # atno 17321 bound_to 7965
  140.4353  144.2060  150.5889 LP  0  0  0  0  0  0  0  0  0  0  0  0  # atno 17342 bound_to 10162
  140.4738  143.2403  151.9052 LP  0  0  0  0  0  0  0  0  0  0  0  0  # atno 17343 bound_to 10162
  157.7210  131.0681  150.6136 LP  0  0  0  0  0  0  0  0  0  0  0  0  # atno 17370 bound_to 10713
  156.6215  130.4407  149.5820 LP  0  0  0  0  0  0  0  0  0  0  0  0  # atno 17371 bound_to 10713
  140.2485  134.8559  157.3644 LP  0  0  0  0  0  0  0  0  0  0  0  0  # atno 17394 bound_to 11000
  140.1726  134.4590  155.7822 LP  0  0  0  0  0  0  0  0  0  0  0  0  # atno 17395 bound_to 11000

$$$$
