#       Name:                AV-unprocessed.smi:2444
#       Creating user name   scv26
#       Creation time:       Fri Mar 27 13:26:39 2020


#       File generated by GOLD software.
#

@<TRIPOS>MOLECULE
AV-unprocessed.smi:2444
    22    22     1
SMALL
NO_CHARGES


@<TRIPOS>ATOM
      1 ****        -1.8033   2.4492   0.4159 N.4            1 S1                 1.0000
      2 ****        -1.3026   1.0650   0.3704 C.3            1 S1                 0.0000
      3 ****         0.2313   1.0231   0.3831 C.3            1 S1                 0.0000
      4 ****         0.7629  -0.3706   0.3450 C.2            1 S1                 0.0000
      5 ****         1.0445  -1.1581   1.3892 N.2            1 S1                 0.0000
      6 ****         1.4540  -2.3625   0.8564 N.2            1 S1                 0.0000
      7 ****         1.3679  -2.2024  -0.4632 C.2            1 S1                 0.0000
      8 ****         1.6534  -3.0941  -1.4826 N.pl3          1 S1                 0.0000
      9 ****         0.9302  -0.9819  -0.8577 O.3            1 S1                 0.0000
     10 ****        -2.8135   2.4430   0.4195 H              1 S1                 0.0000
     11 ****        -1.4737   2.9552  -0.3939 H              1 S1                 0.0000
     12 ****        -1.7032   0.5211   1.2266 H              1 S1                 0.0000
     13 ****        -1.6884   0.5817  -0.5279 H              1 S1                 0.0000
     14 ****         0.6309   1.5702  -0.4718 H              1 S1                 0.0000
     15 ****         0.6151   1.5154   1.2777 H              1 S1                 0.0000
     16 ****         1.9819  -4.0287  -1.2861 H              1 S1                 0.0000
     17 ****         1.5814  -2.8277  -2.4539 H              1 S1                 0.0000
     18 ****        -1.4683   2.9017   1.2546 H              1 S1                 0.0000
     19 ****         0.9727  -0.9217   2.3582 LP             1 S1                 0.0000
     20 ****         1.7509  -3.1783   1.3526 LP             1 S1                 0.0000
     21 ****         1.6106  -0.5105  -1.4187 LP             1 S1                 0.0000
     22 ****         0.0687  -1.0450  -1.3616 LP             1 S1                 0.0000
@<TRIPOS>BOND
    1    1    2 1     
    2    1   10 1     
    3    1   11 1     
    4    1   18 1     
    5    2    3 1     
    6    2   12 1     
    7    2   13 1     
    8    3    4 1     
    9    3   14 1     
   10    3   15 1     
   11    4    9 1     
   12    4    5 2     
   13    5    6 1     
   14    6    7 2     
   15    7    8 1     
   16    7    9 1     
   17    8   16 1     
   18    8   17 1     
   19    5   19 1     
   20    6   20 1     
   21    9   21 1     
   22    9   22 1     
@<TRIPOS>SUBSTRUCTURE
      1 S1             1
@<TRIPOS>SET
LONE_PAIRS      STATIC     ATOMS    <user>   **** ""
4 19 20 21 22
DONOR_HYDROGENS      STATIC     ATOMS    <user>   **** ""
5 10 11 18 16 17
ATOM$BLUE        STATIC     ATOMS    COLORGROUP SYSTEM
4 19 20 21 22
ATOM$RED        STATIC     ATOMS    COLORGROUP SYSTEM
5 10 11 18 16 17
