AV-unprocessed.smi:227|AV-procd|sdf|1733|dock4
  -GOLD-   2262020223D 1   1.00000     0.00000
 Structure written by MMmdl.
 54 58  0  0  0  0  0  0  0  0  1 V2000
  150.2190  142.5103  156.3843 O   0  0  0  0  0  0  0  0  0  0  0  0
  150.1887  141.3893  157.2448 C   0  0  0  0  0  0  0  0  0  0  0  0
  151.6125  140.9208  157.6255 C   0  0  2  0  0  0  0  0  0  0  0  0
  151.8146  139.4567  157.1567 C   0  0  0  0  0  0  0  0  0  0  0  0
  151.2635  138.4593  158.0574 N   0  0  0  0  0  0  0  0  0  0  0  0
  151.9653  137.6790  158.9471 C   0  0  0  0  0  0  0  0  0  0  0  0
  151.2427  136.8483  159.6464 N   0  0  0  0  0  0  0  0  0  0  0  0
  149.9450  137.0504  159.1898 C   0  0  0  0  0  0  0  0  0  0  0  0
  148.6750  136.4898  159.5121 C   0  0  0  0  0  0  0  0  0  0  0  0
  148.4938  135.5219  160.4519 N   0  0  0  0  0  0  0  0  0  0  0  0
  147.7940  135.8047  161.6988 C   0  0  1  0  0  0  0  0  0  0  0  0
  146.3087  135.8908  161.2883 C   0  0  0  0  0  0  0  0  0  0  0  0
  146.2555  134.8657  160.1462 C   0  0  0  0  0  0  0  0  0  0  0  0
  147.7071  134.3372  160.1430 C   0  0  2  0  0  0  0  0  0  0  0  0
  147.9995  133.4530  161.3779 C   0  0  2  0  0  0  0  0  0  0  0  0
  147.0668  132.2529  161.6269 C   0  0  0  0  0  0  0  0  0  0  0  0
  145.9940  132.6328  162.4621 O   0  0  0  0  0  0  0  0  0  0  0  0
  148.0072  134.5080  162.4996 C   0  0  0  0  0  0  0  0  0  0  0  0
  147.5926  136.9844  158.8538 N   0  0  0  0  0  0  0  0  0  0  0  0
  147.7372  137.9346  157.9267 C   0  0  0  0  0  0  0  0  0  0  0  0
  148.8551  138.5340  157.5151 N   0  0  0  0  0  0  0  0  0  0  0  0
  149.9440  138.0609  158.1852 C   0  0  0  0  0  0  0  0  0  0  0  0
  151.9320  141.1581  159.1307 C   0  0  2  0  0  0  0  0  0  0  0  0
  151.9409  142.6187  159.5551 C   0  0  0  0  0  0  0  0  0  0  0  0
  152.7068  142.5663  160.8683 C   0  0  0  0  0  0  0  0  0  0  0  0
  153.7275  141.6073  160.6405 O   0  0  0  0  0  0  0  0  0  0  0  0
  153.3290  140.7189  159.5999 C   0  0  0  0  0  0  0  0  0  0  0  0
  149.4115  142.9906  156.4862 H   0  0  0  0  0  0  0  0  0  0  0  0
  149.6232  141.6533  158.1389 H   0  0  0  0  0  0  0  0  0  0  0  0
  149.6283  140.5900  156.7601 H   0  0  0  0  0  0  0  0  0  0  0  0
  152.2932  141.5464  157.0467 H   0  0  0  0  0  0  0  0  0  0  0  0
  151.3829  139.3151  156.1655 H   0  0  0  0  0  0  0  0  0  0  0  0
  152.8791  139.2409  157.0576 H   0  0  0  0  0  0  0  0  0  0  0  0
  153.0362  137.7532  159.0694 H   0  0  0  0  0  0  0  0  0  0  0  0
  148.1478  136.6865  162.2341 H   0  0  0  0  0  0  0  0  0  0  0  0
  145.6314  135.6474  162.1076 H   0  0  0  0  0  0  0  0  0  0  0  0
  146.0516  136.8861  160.9243 H   0  0  0  0  0  0  0  0  0  0  0  0
  145.5018  134.0937  160.2919 H   0  0  0  0  0  0  0  0  0  0  0  0
  146.0297  135.3641  159.2026 H   0  0  0  0  0  0  0  0  0  0  0  0
  147.9710  133.8330  159.2152 H   0  0  0  0  0  0  0  0  0  0  0  0
  149.0156  133.0669  161.2749 H   0  0  0  0  0  0  0  0  0  0  0  0
  146.6564  131.9021  160.6797 H   0  0  0  0  0  0  0  0  0  0  0  0
  147.5940  131.4074  162.0672 H   0  0  0  0  0  0  0  0  0  0  0  0
  146.0176  133.5708  162.5743 H   0  0  0  0  0  0  0  0  0  0  0  0
  148.9715  134.5156  163.0092 H   0  0  0  0  0  0  0  0  0  0  0  0
  147.2320  134.3503  163.2504 H   0  0  0  0  0  0  0  0  0  0  0  0
  146.8263  138.2625  157.4481 H   0  0  0  0  0  0  0  0  0  0  0  0
  151.1900  140.6392  159.7402 H   0  0  0  0  0  0  0  0  0  0  0  0
  152.4841  143.2269  158.8301 H   0  0  0  0  0  0  0  0  0  0  0  0
  150.9417  143.0384  159.6762 H   0  0  0  0  0  0  0  0  0  0  0  0
  153.1199  143.5332  161.1564 H   0  0  0  0  0  0  0  0  0  0  0  0
  152.0613  142.2144  161.6742 H   0  0  0  0  0  0  0  0  0  0  0  0
  153.3311  139.6930  159.9664 H   0  0  0  0  0  0  0  0  0  0  0  0
  154.0620  140.7939  158.7961 H   0  0  0  0  0  0  0  0  0  0  0  0
  1  2  1  0  0  0  0
  1 28  1  0  0  0  0
  2  3  1  0  0  0  0
  2 29  1  0  0  0  0
  2 30  1  0  0  0  0
  3  4  1  0  0  0  0
  3 23  1  0  0  0  0
  3 31  1  0  0  0  0
  4  5  1  0  0  0  0
  4 32  1  0  0  0  0
  4 33  1  0  0  0  0
  5 22  1  0  0  0  0
  5  6  1  0  0  0  0
  6  7  2  0  0  0  0
  6 34  1  0  0  0  0
  7  8  1  0  0  0  0
  8 22  2  0  0  0  0
  8  9  1  0  0  0  0
  9 10  1  0  0  0  0
  9 19  2  0  0  0  0
 10 14  1  0  0  0  0
 10 11  1  0  0  0  0
 11 18  1  0  0  0  0
 11 12  1  0  0  0  0
 11 35  1  0  0  0  0
 12 13  1  0  0  0  0
 12 36  1  0  0  0  0
 12 37  1  0  0  0  0
 13 14  1  0  0  0  0
 13 38  1  0  0  0  0
 13 39  1  0  0  0  0
 14 15  1  0  0  0  0
 14 40  1  0  0  0  0
 15 16  1  0  0  0  0
 15 18  1  0  0  0  0
 15 41  1  0  0  0  0
 16 17  1  0  0  0  0
 16 42  1  0  0  0  0
 16 43  1  0  0  0  0
 17 44  1  0  0  0  0
 18 45  1  0  0  0  0
 18 46  1  0  0  0  0
 19 20  1  0  0  0  0
 20 21  2  0  0  0  0
 20 47  1  0  0  0  0
 21 22  1  0  0  0  0
 23 27  1  0  0  0  0
 23 24  1  0  0  0  0
 23 48  1  0  0  0  0
 24 25  1  0  0  0  0
 24 49  1  0  0  0  0
 24 50  1  0  0  0  0
 25 26  1  0  0  0  0
 25 51  1  0  0  0  0
 25 52  1  0  0  0  0
 26 27  1  0  0  0  0
 27 53  1  0  0  0  0
 27 54  1  0  0  0  0
M  END
> <s_m_source_file>
AV-unprocessed.smi

> <i_m_source_file_index>
227

> <i_lp_mmshare_version>
43012

> <i_f3d_flags>
0

> <s_epik_input>
W0NIMl0xT1tDSDJdW0NIMl1bQ0BIXTFbQ0BIXShbQ0gyXVtPSF0pW0NIMl1uKFtjSF1uMiljKGMyMyluW2NIXW5jM04oW0NASF00NSlbQ0BASF0oW0NIMl1bQ0gyXTQpW0NASF0oW0NIMl01KVtDSDJdW09IXQ==

> <s_epik_cmdline>
J2VwaWtfcHl0aG9uJywgJy1waCcsICc3LjAnLCAnLXRuJywgJzgnLCAnLW1hJywgJzIwMCcsICctbWV0YWxfYmluZGluZycsICctaW1hZScsICc8aW5maWxlLm1hZT4nLCAnLW9tYWUnLCAnPG91dGZpbGUubWFlPic=

> <r_lp_tautomer_probability>
1

> <r_epik_Ionization_Penalty>
0.0055791

> <r_epik_Ionization_Penalty_Charging>
0

> <r_epik_Ionization_Penalty_Neutral>
0.0055791

> <r_epik_State_Penalty>
0.00401299

> <r_epik_Charging_Adjusted_Penalty>
0.00401299

> <i_epik_Tot_Q>
0

> <i_epik_Tot_abs_Q>
0

> <r_epik_Metal_State_Penalty>
-0

> <b_epik_Metal_Only>
0

> <s_lp_Force_Field>
OPLS_2005

> <r_lp_Energy>
89.6515

> <b_lp_Chiralities_Consistent>
1

> <s_lp_Variant>
AV-unprocessed.smi:227-7

> <Gold.Version>
5.8.1

> <Gold.Id.Protein>
6NUR|6NUR_protein|mol2

> <Gold.PLP.Fitness>
48.7816

> <Gold.PLP.PLP>
-46.1190

> <Gold.PLP.part.hbond>
-3.2232

> <Gold.PLP.part.metal>
0.0000

> <Gold.PLP.part.buried>
-7.0054

> <Gold.PLP.part.nonpolar>
-36.4287

> <Gold.PLP.part.repulsive>
0.0000

> <Gold.PLP.ligand.clash>
0.0000

> <Gold.PLP.ligand.torsion>
1.7551

> <Gold.PLP.Chemscore.Hbond>
2.0203

> <Gold.PLP.Chemscore.CHOScore>
0.0000

> <Gold.PLP.Chemscore.Metal>
0.0000

> <Gold.Chemscore.Hbonds>
donor molecule, donor type, donor heavy atom, donor atom, acceptor molecule, acceptor atom, score
      L1  H     1    28       P1  8028  0.58
      P1  H  6896  6908       L1     7  0.90

> <Gold.PLP.Chemscore.Internal.Correction>
0.1118

> <Gold.Rescore>
     Score         DG    S(hbond)    S(metal)    S(lipo)     H(rot)  DE(clash)    DE(int)     intcor
     11.21     -15.53       1.95        0.00     109.10       3.61       0.06       4.26       ----

> <Gold.Chemscore.Fitness>
11.2113

> <Gold.Chemscore.DG>
-15.5330

> <Gold.Chemscore.ZeroCoef>
-5.4800

> <Gold.Chemscore.Hbond>
1.9527

> <Gold.Chemscore.Metal>
0.0000

> <Gold.Chemscore.Lipo>
109.1030

> <Gold.Chemscore.Internal_Hbond>
0.0000

> <Gold.Chemscore.DEClash>
0.0589

> <Gold.Chemscore.DEInternal>
4.2629

> <Gold.Chemscore.Rot>
3.6071

> <Gold.Chemscore.Internal.Correction>
   9.000000E+99

> <Gold.Chemscore.Hbonds>
donor molecule, donor type, donor heavy atom, donor atom, acceptor molecule, acceptor atom, score
      L1  H     1    28       P1  8028  0.56
      P1  H  6896  6908       L1     7  0.18

> <Gold.Chemscore.Hbond.Weighted>
-6.5222

> <Gold.Chemscore.Metal.Weighted>
-0.0000

> <Gold.Chemscore.Lipo.Weighted>
-12.7651

> <Gold.Chemscore.Internal_Hbond.Weighted>
0.0000

> <Gold.Chemscore.DEClash.Weighted>
0.0589

> <Gold.Chemscore.DEInternal.Weighted>
4.2629

> <Gold.Chemscore.Rot.Weighted>
9.2342

> <Gold.Chemscore.Internal.Correction.Weighted>
   9.000000E+99

> <Gold.Protein.RotatedTorsions>
[ 6907 6896 6895 6894 ] final -147.10 input  -60.11 | X-H torsion
[ 7974 7965 7964 7962 ] final  -94.15 input  175.53 | X-H torsion
[ 8008 7997 7996 7995 ] final -168.54 input   59.86 | X-H torsion
[ 10167 10162 10161 10158 ] final    0.13 input  -65.29 | X-H torsion
[ 10718 10713 10712 10709 ] final   55.72 input   66.30 | X-H torsion
[ 10763 10752 10751 10750 ] final  -75.51 input  -60.55 | X-H torsion
[ 11005 11000 10999 10996 ] final  -50.75 input  -57.11 | X-H torsion

> <Gold.Protein.ActiveResidues>
 VAL166  LYS551  ARG553  GLY616  TRP617  ASP618  TYR619  PRO620  LYS621  CYS622 
 ASP623  PHE694  ASN695  SER759  ASP760  ASP761  ALA762  ILE779  LEU786  VAL792 
 PHE793  MET794  SER795  GLU796  ALA797  LYS798  CYS799  TRP800  GLU811  SER814 

> <Gold.Protein.RotatedAtoms>
  151.1509  133.4908  159.2595 H   0  0  0  0  0  0  0  0  0  0  0  0  # atno 6907 bound_to 6896
  151.1555  135.0248  159.8697 H   0  0  0  0  0  0  0  0  0  0  0  0  # atno 6908 bound_to 6896
  152.5463  134.1388  159.8523 H   0  0  0  0  0  0  0  0  0  0  0  0  # atno 6909 bound_to 6896
  145.3771  140.9513  143.2414 H   0  0  0  0  0  0  0  0  0  0  0  0  # atno 7974 bound_to 7965
  155.8928  140.1027  157.1406 H   0  0  0  0  0  0  0  0  0  0  0  0  # atno 8008 bound_to 7997
  154.4017  140.1307  156.4401 H   0  0  0  0  0  0  0  0  0  0  0  0  # atno 8009 bound_to 7997
  155.7514  140.3465  155.5154 H   0  0  0  0  0  0  0  0  0  0  0  0  # atno 8010 bound_to 7997
  140.6742  143.6963  150.7987 H   0  0  0  0  0  0  0  0  0  0  0  0  # atno 10167 bound_to 10162
  157.5369  130.8670  149.8767 H   0  0  0  0  0  0  0  0  0  0  0  0  # atno 10718 bound_to 10713
  154.4875  135.5829  153.6434 H   0  0  0  0  0  0  0  0  0  0  0  0  # atno 10763 bound_to 10752
  152.9857  135.6104  154.3168 H   0  0  0  0  0  0  0  0  0  0  0  0  # atno 10764 bound_to 10752
  154.3064  135.2846  155.2566 H   0  0  0  0  0  0  0  0  0  0  0  0  # atno 10765 bound_to 10752
  141.0833  133.6648  156.3777 H   0  0  0  0  0  0  0  0  0  0  0  0  # atno 11005 bound_to 11000
  144.8534  139.5287  143.6846 LP  0  0  0  0  0  0  0  0  0  0  0  0  # atno 17320 bound_to 7965
  146.2859  139.7002  142.9196 LP  0  0  0  0  0  0  0  0  0  0  0  0  # atno 17321 bound_to 7965
  140.0653  143.5114  152.2607 LP  0  0  0  0  0  0  0  0  0  0  0  0  # atno 17342 bound_to 10162
  139.6026  144.7587  151.3137 LP  0  0  0  0  0  0  0  0  0  0  0  0  # atno 17343 bound_to 10162
  156.0466  130.3726  150.1303 LP  0  0  0  0  0  0  0  0  0  0  0  0  # atno 17370 bound_to 10713
  156.9484  130.9767  151.3503 LP  0  0  0  0  0  0  0  0  0  0  0  0  # atno 17371 bound_to 10713
  140.5419  134.6112  157.5382 LP  0  0  0  0  0  0  0  0  0  0  0  0  # atno 17394 bound_to 11000
  139.9649  134.7390  156.0159 LP  0  0  0  0  0  0  0  0  0  0  0  0  # atno 17395 bound_to 11000

$$$$
