AV-unprocessed.smi:2664|AV-procd|sdf|10329|dock9
  -GOLD-   2272014343D 1   1.00000     0.00000
 Structure written by MMmdl.
 44 45  0  0  0  0  0  0  0  0  2 V2000
  146.6341  132.1913  153.8065 O   0  0  0  0  0  0  0  0  0  0  0  0
  147.3201  131.8063  152.8604 C   0  0  0  0  0  0  0  0  0  0  0  0
  146.9943  131.9388  151.5630 N   0  0  0  0  0  0  0  0  0  0  0  0
  145.8089  132.4823  150.9968 C   0  0  0  0  0  0  0  0  0  0  0  0
  145.1945  133.5575  151.6766 C   0  0  0  0  0  0  0  0  0  0  0  0
  144.0269  134.1415  151.1444 C   0  0  0  0  0  0  0  0  0  0  0  0
  143.5099  133.6764  149.9871 N   0  3  0  0  0  0  0  0  0  0  0  0
  144.0682  132.6606  149.2945 C   0  0  0  0  0  0  0  0  0  0  0  0
  145.2375  132.0379  149.7768 C   0  0  0  0  0  0  0  0  0  0  0  0
  148.5141  131.2098  152.9993 N   0  0  0  0  0  0  0  0  0  0  0  0
  149.1799  130.8964  154.2672 C   0  0  1  0  0  0  0  0  0  0  0  0
  149.9048  129.5332  154.1302 C   0  0  0  0  0  0  0  0  0  0  0  0
  149.1757  128.4872  153.2652 C   0  0  0  0  0  0  0  0  0  0  0  0
  149.9768  127.3371  153.0960 O   0  0  0  0  0  0  0  0  0  0  0  0
  150.1244  132.0639  154.6771 C   0  0  0  0  0  0  0  0  0  0  0  0
  150.7525  131.8543  156.0775 C   0  0  0  0  0  0  0  0  0  0  0  0
  151.6755  133.0136  156.4866 C   0  0  0  0  0  0  0  0  0  0  0  0
  150.9412  134.3588  156.4396 C   0  0  0  0  0  0  0  0  0  0  0  0
  150.3370  134.5948  155.0503 C   0  0  0  0  0  0  0  0  0  0  0  0
  149.4089  133.4397  154.6415 C   0  0  0  0  0  0  0  0  0  0  0  0
  147.7004  131.6547  150.8997 H   0  0  0  0  0  0  0  0  0  0  0  0
  145.6086  133.9312  152.6020 H   0  0  0  0  0  0  0  0  0  0  0  0
  143.4962  134.9617  151.6057 H   0  0  0  0  0  0  0  0  0  0  0  0
  143.5704  132.3817  148.3772 H   0  0  0  0  0  0  0  0  0  0  0  0
  145.6771  131.2423  149.1952 H   0  0  0  0  0  0  0  0  0  0  0  0
  149.0052  130.9385  152.1601 H   0  0  0  0  0  0  0  0  0  0  0  0
  148.4341  130.7929  155.0571 H   0  0  0  0  0  0  0  0  0  0  0  0
  150.8981  129.6996  153.7117 H   0  0  0  0  0  0  0  0  0  0  0  0
  150.0644  129.0887  155.1114 H   0  0  0  0  0  0  0  0  0  0  0  0
  148.2155  128.2039  153.6962 H   0  0  0  0  0  0  0  0  0  0  0  0
  148.9658  128.9046  152.2801 H   0  0  0  0  0  0  0  0  0  0  0  0
  150.8546  127.6100  152.8764 H   0  0  0  0  0  0  0  0  0  0  0  0
  150.9392  132.1007  153.9522 H   0  0  0  0  0  0  0  0  0  0  0  0
  149.9627  131.7386  156.8212 H   0  0  0  0  0  0  0  0  0  0  0  0
  151.3411  130.9390  156.1066 H   0  0  0  0  0  0  0  0  0  0  0  0
  152.0665  132.8399  157.4895 H   0  0  0  0  0  0  0  0  0  0  0  0
  152.5384  133.0449  155.8203 H   0  0  0  0  0  0  0  0  0  0  0  0
  150.1524  134.3752  157.1928 H   0  0  0  0  0  0  0  0  0  0  0  0
  151.6282  135.1676  156.6901 H   0  0  0  0  0  0  0  0  0  0  0  0
  149.7855  135.5353  155.0410 H   0  0  0  0  0  0  0  0  0  0  0  0
  151.1368  134.6982  154.3159 H   0  0  0  0  0  0  0  0  0  0  0  0
  149.0252  133.6527  153.6441 H   0  0  0  0  0  0  0  0  0  0  0  0
  148.5425  133.4186  155.3042 H   0  0  0  0  0  0  0  0  0  0  0  0
  142.6650  134.1136  149.6179 H   0  0  0  0  0  0  0  0  0  0  0  0
  1  2  2  0  0  0  0
  2  3  1  0  0  0  0
  2 10  1  0  0  0  0
  3  4  1  0  0  0  0
  3 21  1  0  0  0  0
  4  9  1  0  0  0  0
  4  5  2  0  0  0  0
  5  6  1  0  0  0  0
  5 22  1  0  0  0  0
  6  7  2  0  0  0  0
  6 23  1  0  0  0  0
  7  8  1  0  0  0  0
  7 44  1  0  0  0  0
  8  9  2  0  0  0  0
  8 24  1  0  0  0  0
  9 25  1  0  0  0  0
 10 11  1  0  0  0  0
 10 26  1  0  0  0  0
 11 12  1  0  0  0  0
 11 15  1  0  0  0  0
 11 27  1  0  0  0  0
 12 13  1  0  0  0  0
 12 28  1  0  0  0  0
 12 29  1  0  0  0  0
 13 14  1  0  0  0  0
 13 30  1  0  0  0  0
 13 31  1  0  0  0  0
 14 32  1  0  0  0  0
 15 20  1  0  0  0  0
 15 16  1  0  0  0  0
 15 33  1  0  0  0  0
 16 17  1  0  0  0  0
 16 34  1  0  0  0  0
 16 35  1  0  0  0  0
 17 18  1  0  0  0  0
 17 36  1  0  0  0  0
 17 37  1  0  0  0  0
 18 19  1  0  0  0  0
 18 38  1  0  0  0  0
 18 39  1  0  0  0  0
 19 20  1  0  0  0  0
 19 40  1  0  0  0  0
 19 41  1  0  0  0  0
 20 42  1  0  0  0  0
 20 43  1  0  0  0  0
M  CHG  1   7   1
M  END
> <s_m_source_file>
AV-unprocessed.smi

> <i_m_source_file_index>
2664

> <i_lp_mmshare_version>
43012

> <i_f3d_flags>
0

> <s_epik_input>
W2NIXTFbY0hdbltjSF1bY0hdYzFbTkhdQyg9TylbTkhdW0NASF0oW0NIMl1bQ0gyXVtPSF0pW0NIXTJbQ0gyXVtDSDJdW0NIMl1bQ0gyXVtDSDJdMg==

> <s_epik_cmdline>
J2VwaWtfcHl0aG9uJywgJy1waCcsICc3LjAnLCAnLXRuJywgJzgnLCAnLW1hJywgJzIwMCcsICctbWV0YWxfYmluZGluZycsICctaW1hZScsICc8aW5maWxlLm1hZT4nLCAnLW9tYWUnLCAnPG91dGZpbGUubWFlPic=

> <r_epik_Ionization_Penalty>
1.0085

> <r_epik_Ionization_Penalty_Charging>
1.00848

> <r_epik_Ionization_Penalty_Neutral>
2.14516e-05

> <r_epik_State_Penalty>
1.05769

> <r_epik_Charging_Adjusted_Penalty>
2.06617

> <i_epik_Tot_Q>
1

> <i_epik_Tot_abs_Q>
1

> <r_epik_Metal_State_Penalty>
1.15842

> <b_epik_Metal_Only>
0

> <s_lp_Force_Field>
OPLS_2005

> <r_lp_Energy>
27.8621

> <b_lp_Chiralities_Consistent>
1

> <s_lp_Variant>
AV-unprocessed.smi:2664-4

> <Gold.Version>
5.8.1

> <Gold.Id.Protein>
6NUR|6NUR_protein|mol2

> <Gold.PLP.Fitness>
51.7532

> <Gold.PLP.PLP>
-38.4822

> <Gold.PLP.part.hbond>
-4.0000

> <Gold.PLP.part.metal>
0.0000

> <Gold.PLP.part.buried>
-6.2430

> <Gold.PLP.part.nonpolar>
-27.7901

> <Gold.PLP.part.repulsive>
0.1844

> <Gold.PLP.ligand.clash>
0.0000

> <Gold.PLP.ligand.torsion>
0.8551

> <Gold.PLP.Chemscore.Hbond>
4.9760

> <Gold.PLP.Chemscore.CHOScore>
0.0000

> <Gold.PLP.Chemscore.Metal>
0.0000

> <Gold.Chemscore.Hbonds>
donor molecule, donor type, donor heavy atom, donor atom, acceptor molecule, acceptor atom, score
      L1  H     3    21       P1 10747  1.00
      L1  H     7    44       P1 10186  2.00
      L1  H    10    26       P1 10747  0.98
      L1  H    14    32       P1 10737  0.96

> <Gold.PLP.Chemscore.Internal.Correction>
0.0532

> <Gold.Rescore>
     Score         DG    S(hbond)    S(metal)    S(lipo)     H(rot)  DE(clash)    DE(int)     intcor
     20.18     -22.21       3.56        0.00      90.99       2.27       0.05       1.98       ----

> <Gold.Chemscore.Fitness>
20.1780

> <Gold.Chemscore.DG>
-22.2132

> <Gold.Chemscore.ZeroCoef>
-5.4800

> <Gold.Chemscore.Hbond>
3.5648

> <Gold.Chemscore.Metal>
0.0000

> <Gold.Chemscore.Lipo>
90.9906

> <Gold.Chemscore.Internal_Hbond>
0.0000

> <Gold.Chemscore.DEClash>
0.0521

> <Gold.Chemscore.DEInternal>
1.9831

> <Gold.Chemscore.Rot>
2.2731

> <Gold.Chemscore.Internal.Correction>
   9.000000E+99

> <Gold.Chemscore.Hbonds>
donor molecule, donor type, donor heavy atom, donor atom, acceptor molecule, acceptor atom, score
      L1  H     3    21       P1 10747  0.99
      L1  H     7    44       P1 10186  0.98
      L1  H    10    26       P1 10747  0.41
      L1  H    14    32       P1 10737  0.92

> <Gold.Chemscore.Hbond.Weighted>
-11.9065

> <Gold.Chemscore.Metal.Weighted>
-0.0000

> <Gold.Chemscore.Lipo.Weighted>
-10.6459

> <Gold.Chemscore.Internal_Hbond.Weighted>
0.0000

> <Gold.Chemscore.DEClash.Weighted>
0.0521

> <Gold.Chemscore.DEInternal.Weighted>
1.9831

> <Gold.Chemscore.Rot.Weighted>
5.8192

> <Gold.Chemscore.Internal.Correction.Weighted>
   9.000000E+99

> <Gold.Protein.RotatedTorsions>
[ 6907 6896 6895 6894 ] final    5.46 input  -60.11 | X-H torsion
[ 7974 7965 7964 7962 ] final  -93.66 input  175.53 | X-H torsion
[ 8008 7997 7996 7995 ] final  114.86 input   59.86 | X-H torsion
[ 10167 10162 10161 10158 ] final  144.36 input  -65.29 | X-H torsion
[ 10718 10713 10712 10709 ] final  174.21 input   66.30 | X-H torsion
[ 10763 10752 10751 10750 ] final -149.46 input  -60.55 | X-H torsion
[ 11005 11000 10999 10996 ] final  -83.25 input  -57.11 | X-H torsion

> <Gold.Protein.ActiveResidues>
 VAL166  LYS551  ARG553  GLY616  TRP617  ASP618  TYR619  PRO620  LYS621  CYS622 
 ASP623  PHE694  ASN695  SER759  ASP760  ASP761  ALA762  ILE779  LEU786  VAL792 
 PHE793  MET794  SER795  GLU796  ALA797  LYS798  CYS799  TRP800  GLU811  SER814 

> <Gold.Protein.RotatedAtoms>
  151.6579  135.0993  160.0173 H   0  0  0  0  0  0  0  0  0  0  0  0  # atno 6907 bound_to 6896
  152.3963  133.6748  159.6288 H   0  0  0  0  0  0  0  0  0  0  0  0  # atno 6908 bound_to 6896
  150.7870  133.8784  159.3320 H   0  0  0  0  0  0  0  0  0  0  0  0  # atno 6909 bound_to 6896
  145.3836  140.9520  143.2380 H   0  0  0  0  0  0  0  0  0  0  0  0  # atno 7974 bound_to 7965
  156.2347  140.2950  156.0280 H   0  0  0  0  0  0  0  0  0  0  0  0  # atno 8008 bound_to 7997
  155.2126  140.0413  157.2953 H   0  0  0  0  0  0  0  0  0  0  0  0  # atno 8009 bound_to 7997
  154.6057  140.2438  155.7741 H   0  0  0  0  0  0  0  0  0  0  0  0  # atno 8010 bound_to 7997
  139.4949  144.5977  151.6547 H   0  0  0  0  0  0  0  0  0  0  0  0  # atno 10167 bound_to 10162
  156.9529  131.0036  151.2945 H   0  0  0  0  0  0  0  0  0  0  0  0  # atno 10718 bound_to 10713
  154.8176  135.3308  154.7132 H   0  0  0  0  0  0  0  0  0  0  0  0  # atno 10763 bound_to 10752
  153.7770  135.6921  153.4900 H   0  0  0  0  0  0  0  0  0  0  0  0  # atno 10764 bound_to 10752
  153.2006  135.4517  155.0209 H   0  0  0  0  0  0  0  0  0  0  0  0  # atno 10765 bound_to 10752
  141.1659  133.7285  156.8692 H   0  0  0  0  0  0  0  0  0  0  0  0  # atno 11005 bound_to 11000
  144.8490  139.5351  143.6865 LP  0  0  0  0  0  0  0  0  0  0  0  0  # atno 17320 bound_to 7965
  146.2831  139.6929  142.9215 LP  0  0  0  0  0  0  0  0  0  0  0  0  # atno 17321 bound_to 7965
  140.5619  144.0254  150.6174 LP  0  0  0  0  0  0  0  0  0  0  0  0  # atno 17342 bound_to 10162
  140.3343  143.3058  152.0655 LP  0  0  0  0  0  0  0  0  0  0  0  0  # atno 17343 bound_to 10162
  157.5710  130.8310  149.8391 LP  0  0  0  0  0  0  0  0  0  0  0  0  # atno 17370 bound_to 10713
  156.0355  130.3752  150.1572 LP  0  0  0  0  0  0  0  0  0  0  0  0  # atno 17371 bound_to 10713
  140.1794  134.9044  157.2930 LP  0  0  0  0  0  0  0  0  0  0  0  0  # atno 17394 bound_to 11000
  140.2412  134.3793  155.7480 LP  0  0  0  0  0  0  0  0  0  0  0  0  # atno 17395 bound_to 11000

$$$$
