#       Name:                AV-unprocessed.smi:2640
#       Creating user name   scv26
#       Creation time:       Fri Mar 27 14:28:16 2020


#       File generated by GOLD software.
#

@<TRIPOS>MOLECULE
AV-unprocessed.smi:2640
    47    48     1
SMALL
NO_CHARGES


@<TRIPOS>ATOM
      1 ****        -1.8949   0.0699   1.5796 O.2            1 S1                 0.0000
      2 ****        -1.4264  -0.4999   0.5946 C.2            1 S1                 0.0000
      3 ****        -0.9786  -1.9561   0.6950 C.3            1 S1                 0.0000
      4 ****         0.4771  -2.0774   0.5812 N.3            1 S1                 0.0000
      5 ****         0.8845  -3.4732   0.6520 C.3            1 S1                 0.0000
      6 ****         2.4169  -3.5886   0.5892 C.3            1 S1                 0.0000
      7 ****         3.0598  -3.0476   1.7738 N.pl3          1 S1                 0.0000
      8 ****         3.2147  -3.6404   3.0093 C.2            1 S1                 0.0000
      9 ****         3.8725  -2.7494   3.8079 C.2            1 S1                 0.0000
     10 ****         4.0824  -1.6263   2.9596 C.2            1 S1                 0.0000
     11 ****         3.5951  -1.8079   1.7430 N.2            1 S1                 0.0000
     12 ****        -1.2777   0.0902  -0.6028 N.am           1 S1                 0.0000
     13 ****        -1.6134   1.4816  -0.9124 C.3            1 S1                 0.0000
     14 ****        -1.9174   1.5624  -2.4259 C.3            1 S1                 0.0000
     15 ****        -2.7817   2.7725  -2.8203 C.3            1 S1                 0.0000
     16 ****        -2.1187   4.1410  -2.6023 C.3            1 S1                 0.0000
     17 ****        -1.7912   4.4425  -1.1300 C.3            1 S1                 0.0000
     18 ****        -0.5951   3.7429  -0.6795 N.am           1 S1                 0.0000
     19 ****        -0.4254   2.4155  -0.5812 C.2            1 S1                 0.0000
     20 ****         0.6620   1.9530  -0.2360 O.2            1 S1                 0.0000
     21 ****        -1.3108  -2.3704   1.6483 H              1 S1                 0.0000
     22 ****        -1.4637  -2.5308  -0.0956 H              1 S1                 0.0000
     23 ****         0.9470  -1.5590   1.3105 H              1 S1                 0.0000
     24 ****         0.5131  -3.9301   1.5708 H              1 S1                 0.0000
     25 ****         0.4426  -4.0196  -0.1821 H              1 S1                 0.0000
     26 ****         2.7025  -4.6376   0.5035 H              1 S1                 0.0000
     27 ****         2.8076  -3.0877  -0.2982 H              1 S1                 0.0000
     28 ****         2.8449  -4.6342   3.2150 H              1 S1                 0.0000
     29 ****         4.1596  -2.8795   4.8407 H              1 S1                 0.0000
     30 ****         4.5708  -0.6910   3.1899 H              1 S1                 0.0000
     31 ****        -0.8698  -0.4554  -1.3478 H              1 S1                 0.0000
     32 ****        -2.4929   1.7749  -0.3364 H              1 S1                 0.0000
     33 ****        -0.9967   1.5482  -3.0122 H              1 S1                 0.0000
     34 ****        -2.4668   0.6683  -2.7258 H              1 S1                 0.0000
     35 ****        -3.0462   2.6811  -3.8741 H              1 S1                 0.0000
     36 ****        -3.7256   2.7359  -2.2746 H              1 S1                 0.0000
     37 ****        -1.2189   4.2254  -3.2134 H              1 S1                 0.0000
     38 ****        -2.8007   4.9090  -2.9685 H              1 S1                 0.0000
     39 ****        -1.5989   5.5096  -1.0177 H              1 S1                 0.0000
     40 ****        -2.6373   4.2136  -0.4803 H              1 S1                 0.0000
     41 ****         0.1973   4.3232  -0.4448 H              1 S1                 0.0000
     42 ****        -1.9826  -0.4208   2.4464 LP             1 S1                 0.0000
     43 ****        -2.1880   1.0237   1.5131 LP             1 S1                 0.0000
     44 ****         0.7374  -1.6973  -0.3064 LP             1 S1                 0.0000
     45 ****         3.6179  -1.1701   0.9730 LP             1 S1                 0.0000
     46 ****         0.7850   0.9630  -0.1670 LP             1 S1                 0.0000
     47 ****         1.4222   2.5673  -0.0246 LP             1 S1                 0.0000
@<TRIPOS>BOND
    1    1    2 2     
    2    2    3 1     
    3    2   12 am    
    4    3    4 1     
    5    3   21 1     
    6    3   22 1     
    7    4    5 1     
    8    4   23 1     
    9    5    6 1     
   10    5   24 1     
   11    5   25 1     
   12    6    7 1     
   13    6   26 1     
   14    6   27 1     
   15    7   11 1     
   16    7    8 1     
   17    8    9 2     
   18    8   28 1     
   19    9   10 1     
   20    9   29 1     
   21   10   11 2     
   22   10   30 1     
   23   12   13 1     
   24   12   31 1     
   25   13   19 1     
   26   13   14 1     
   27   13   32 1     
   28   14   15 1     
   29   14   33 1     
   30   14   34 1     
   31   15   16 1     
   32   15   35 1     
   33   15   36 1     
   34   16   17 1     
   35   16   37 1     
   36   16   38 1     
   37   17   18 1     
   38   17   39 1     
   39   17   40 1     
   40   18   19 am    
   41   18   41 1     
   42   19   20 2     
   43    1   42 1     
   44    1   43 1     
   45    4   44 1     
   46   11   45 1     
   47   20   46 1     
   48   20   47 1     
@<TRIPOS>SUBSTRUCTURE
      1 S1             1
@<TRIPOS>SET
LONE_PAIRS      STATIC     ATOMS    <user>   **** ""
6 42 43 44 45 46 47
DONOR_HYDROGENS      STATIC     ATOMS    <user>   **** ""
3 23 31 41
ATOM$BLUE        STATIC     ATOMS    COLORGROUP SYSTEM
6 42 43 44 45 46 47
ATOM$RED        STATIC     ATOMS    COLORGROUP SYSTEM
3 23 31 41
