AV-unprocessed.smi:787|AV-procd|sdf|3725|dock1
  -GOLD-   22720 1153D 1   1.00000     0.00000
 Structure written by MMmdl.
 47 49  0  0  0  0  0  0  0  0  2 V2000
  151.1657  138.9474  154.1011 C   0  0  0  0  0  0  0  0  0  0  0  0
  150.0333  139.8466  153.9438 N   0  0  0  0  0  0  0  0  0  0  0  0
  149.5117  140.5278  155.0527 C   0  0  0  0  0  0  0  0  0  0  0  0
  150.3400  140.9356  156.0420 N   0  0  0  0  0  0  0  0  0  0  0  0
  149.8001  141.5675  157.0921 C   0  0  0  0  0  0  0  0  0  0  0  0
  148.5136  141.8679  157.3271 N   0  0  0  0  0  0  0  0  0  0  0  0
  147.6853  141.4709  156.3520 C   0  0  0  0  0  0  0  0  0  0  0  0
  146.3123  141.6433  156.3359 N   0  0  0  0  0  0  0  0  0  0  0  0
  145.9838  141.0839  155.1753 C   0  0  0  0  0  0  0  0  0  0  0  0
  146.9810  140.5845  154.4173 N   0  0  0  0  0  0  0  0  0  0  0  0
  146.8419  139.9718  153.1030 C   0  0  0  0  0  0  0  0  0  0  0  0
  146.6615  138.4359  153.1504 C   0  0  2  0  0  0  0  0  0  0  0  0
  147.9014  137.8252  153.4515 O   0  0  0  0  0  0  0  0  0  0  0  0
  146.1444  137.8386  151.8252 C   0  0  0  0  0  0  0  0  0  0  0  0
  146.0240  136.3583  151.8884 N   0  3  1  0  0  0  0  0  0  0  0  0
  145.6215  135.8743  153.2284 C   0  0  0  0  0  0  0  0  0  0  0  0
  145.1794  135.7859  150.8098 C   0  0  0  0  0  0  0  0  0  0  0  0
  145.3725  134.2837  150.6809 C   0  0  0  0  0  0  0  0  0  0  0  0
  146.4139  133.6325  151.3771 C   0  0  0  0  0  0  0  0  0  0  0  0
  146.5723  132.2371  151.2713 C   0  0  0  0  0  0  0  0  0  0  0  0
  145.6952  131.4878  150.4635 C   0  0  0  0  0  0  0  0  0  0  0  0
  144.6600  132.1346  149.7610 C   0  0  0  0  0  0  0  0  0  0  0  0
  144.4992  133.5296  149.8688 C   0  0  0  0  0  0  0  0  0  0  0  0
  148.1330  140.7972  155.1751 C   0  0  0  0  0  0  0  0  0  0  0  0
  151.4049  138.4792  153.1463 H   0  0  0  0  0  0  0  0  0  0  0  0
  150.9368  138.1595  154.8194 H   0  0  0  0  0  0  0  0  0  0  0  0
  152.0466  139.4903  154.4455 H   0  0  0  0  0  0  0  0  0  0  0  0
  149.5107  139.8248  153.0807 H   0  0  0  0  0  0  0  0  0  0  0  0
  150.4966  141.8742  157.8582 H   0  0  0  0  0  0  0  0  0  0  0  0
  144.9556  141.0539  154.8455 H   0  0  0  0  0  0  0  0  0  0  0  0
  146.0083  140.4403  152.5801 H   0  0  0  0  0  0  0  0  0  0  0  0
  147.7318  140.2155  152.5211 H   0  0  0  0  0  0  0  0  0  0  0  0
  145.9699  138.1993  153.9588 H   0  0  0  0  0  0  0  0  0  0  0  0
  148.3488  137.6263  152.6426 H   0  0  0  0  0  0  0  0  0  0  0  0
  145.1810  138.2746  151.5563 H   0  0  0  0  0  0  0  0  0  0  0  0
  146.8278  138.1231  151.0274 H   0  0  0  0  0  0  0  0  0  0  0  0
  144.6076  136.1957  153.4712 H   0  0  0  0  0  0  0  0  0  0  0  0
  146.2929  136.2499  154.0006 H   0  0  0  0  0  0  0  0  0  0  0  0
  145.6528  134.7849  153.2703 H   0  0  0  0  0  0  0  0  0  0  0  0
  144.1258  135.9653  151.0291 H   0  0  0  0  0  0  0  0  0  0  0  0
  145.3903  136.2854  149.8628 H   0  0  0  0  0  0  0  0  0  0  0  0
  147.0891  134.1982  152.0025 H   0  0  0  0  0  0  0  0  0  0  0  0
  147.3661  131.7408  151.8104 H   0  0  0  0  0  0  0  0  0  0  0  0
  145.8171  130.4176  150.3822 H   0  0  0  0  0  0  0  0  0  0  0  0
  143.9878  131.5599  149.1410 H   0  0  0  0  0  0  0  0  0  0  0  0
  143.6995  134.0176  149.3309 H   0  0  0  0  0  0  0  0  0  0  0  0
  146.9527  135.9977  151.7197 H   0  0  0  0  0  0  0  0  0  0  0  0
  1  2  1  0  0  0  0
  1 25  1  0  0  0  0
  1 26  1  0  0  0  0
  1 27  1  0  0  0  0
  2  3  1  0  0  0  0
  2 28  1  0  0  0  0
  3 24  1  0  0  0  0
  3  4  2  0  0  0  0
  4  5  1  0  0  0  0
  5  6  2  0  0  0  0
  5 29  1  0  0  0  0
  6  7  1  0  0  0  0
  7 24  2  0  0  0  0
  7  8  1  0  0  0  0
  8  9  2  0  0  0  0
  9 10  1  0  0  0  0
  9 30  1  0  0  0  0
 10 11  1  0  0  0  0
 10 24  1  0  0  0  0
 11 12  1  0  0  0  0
 11 31  1  0  0  0  0
 11 32  1  0  0  0  0
 12 13  1  0  0  0  0
 12 14  1  0  0  0  0
 12 33  1  0  0  0  0
 13 34  1  0  0  0  0
 14 15  1  0  0  0  0
 14 35  1  0  0  0  0
 14 36  1  0  0  0  0
 15 16  1  0  0  0  0
 15 17  1  0  0  0  0
 15 47  1  0  0  0  0
 16 37  1  0  0  0  0
 16 38  1  0  0  0  0
 16 39  1  0  0  0  0
 17 18  1  0  0  0  0
 17 40  1  0  0  0  0
 17 41  1  0  0  0  0
 18 23  1  0  0  0  0
 18 19  2  0  0  0  0
 19 20  1  0  0  0  0
 19 42  1  0  0  0  0
 20 21  2  0  0  0  0
 20 43  1  0  0  0  0
 21 22  1  0  0  0  0
 21 44  1  0  0  0  0
 22 23  2  0  0  0  0
 22 45  1  0  0  0  0
 23 46  1  0  0  0  0
M  CHG  1  15   1
M  END
> <s_m_source_file>
AV-unprocessed.smi

> <i_m_source_file_index>
787

> <i_lp_mmshare_version>
43012

> <i_f3d_flags>
0

> <s_epik_input>
bjFbY0hdbmMoW05IXVtDSDNdKWMoYzEyKW4oW2NIXW4yKVtDSDJdW0NASF0oW09IXSlbQ0gyXU4oW0NIM10pW0NIMl1jM1tjSF1bY0hdW2NIXVtjSF1bY0hdMw==

> <s_epik_cmdline>
J2VwaWtfcHl0aG9uJywgJy1waCcsICc3LjAnLCAnLXRuJywgJzgnLCAnLW1hJywgJzIwMCcsICctbWV0YWxfYmluZGluZycsICctaW1hZScsICc8aW5maWxlLm1hZT4nLCAnLW9tYWUnLCAnPG91dGZpbGUubWFlPic=

> <r_lp_tautomer_probability>
0.999987

> <r_epik_Ionization_Penalty>
0.0526284

> <r_epik_Ionization_Penalty_Charging>
0.0475377

> <r_epik_Ionization_Penalty_Neutral>
0.00509065

> <r_epik_State_Penalty>
0.0404888

> <r_epik_Charging_Adjusted_Penalty>
0.0880265

> <i_epik_Tot_Q>
1

> <i_epik_Tot_abs_Q>
1

> <r_epik_Metal_State_Penalty>
0.040507

> <b_epik_Metal_Only>
0

> <s_lp_Force_Field>
OPLS_2005

> <r_lp_Energy>
14.0859

> <b_lp_Chiralities_Consistent>
1

> <s_lp_Variant>
AV-unprocessed.smi:787-1

> <Gold.Version>
5.8.1

> <Gold.Id.Protein>
6NUR|6NUR_protein|mol2

> <Gold.PLP.Fitness>
52.9483

> <Gold.PLP.PLP>
-40.7785

> <Gold.PLP.part.hbond>
-2.8335

> <Gold.PLP.part.metal>
0.0000

> <Gold.PLP.part.buried>
-4.4605

> <Gold.PLP.part.nonpolar>
-36.2106

> <Gold.PLP.part.repulsive>
2.3496

> <Gold.PLP.ligand.clash>
0.0000

> <Gold.PLP.ligand.torsion>
1.1002

> <Gold.PLP.Chemscore.Hbond>
3.7350

> <Gold.PLP.Chemscore.CHOScore>
0.9442

> <Gold.PLP.Chemscore.Metal>
0.0000

> <Gold.Chemscore.Hbonds>
donor molecule, donor type, donor heavy atom, donor atom, acceptor molecule, acceptor atom, score
      L1  H     2    28       P1  7957  0.90
      L1  H    13    34       P1  7948  0.77
      L1  H    15    47       P1  7948  2.00
      L1  C     9    30       P1 10175  0.49

> <Gold.PLP.Chemscore.Internal.Correction>
0.3326

> <Gold.Rescore>
     Score         DG    S(hbond)    S(metal)    S(lipo)     H(rot)  DE(clash)    DE(int)     intcor
     12.46     -16.12       2.40        0.00      92.38       3.19       1.74       1.92       ----

> <Gold.Chemscore.Fitness>
12.4602

> <Gold.Chemscore.DG>
-16.1203

> <Gold.Chemscore.ZeroCoef>
-5.4800

> <Gold.Chemscore.Hbond>
2.3970

> <Gold.Chemscore.Metal>
0.0000

> <Gold.Chemscore.Lipo>
92.3760

> <Gold.Chemscore.Internal_Hbond>
0.0000

> <Gold.Chemscore.DEClash>
1.7423

> <Gold.Chemscore.DEInternal>
1.9178

> <Gold.Chemscore.Rot>
3.1928

> <Gold.Chemscore.Internal.Correction>
   9.000000E+99

> <Gold.Chemscore.Hbonds>
donor molecule, donor type, donor heavy atom, donor atom, acceptor molecule, acceptor atom, score
      L1  H     2    28       P1  7957  0.88
      L1  H    13    34       P1  7948  0.76
      L1  H    15    47       P1  7948  0.92

> <Gold.Chemscore.Hbond.Weighted>
-8.0059

> <Gold.Chemscore.Metal.Weighted>
-0.0000

> <Gold.Chemscore.Lipo.Weighted>
-10.8080

> <Gold.Chemscore.Internal_Hbond.Weighted>
0.0000

> <Gold.Chemscore.DEClash.Weighted>
1.7423

> <Gold.Chemscore.DEInternal.Weighted>
1.9178

> <Gold.Chemscore.Rot.Weighted>
8.1736

> <Gold.Chemscore.Internal.Correction.Weighted>
   9.000000E+99

> <Gold.Protein.RotatedTorsions>
[ 6907 6896 6895 6894 ] final  175.11 input  -60.11 | X-H torsion
[ 7974 7965 7964 7962 ] final  -88.07 input  175.53 | X-H torsion
[ 8008 7997 7996 7995 ] final  -62.98 input   59.86 | X-H torsion
[ 10167 10162 10161 10158 ] final  -57.19 input  -65.29 | X-H torsion
[ 10718 10713 10712 10709 ] final   54.89 input   66.30 | X-H torsion
[ 10763 10752 10751 10750 ] final  168.96 input  -60.55 | X-H torsion
[ 11005 11000 10999 10996 ] final -136.64 input  -57.11 | X-H torsion

> <Gold.Protein.ActiveResidues>
 VAL166  LYS551  ARG553  GLY616  TRP617  ASP618  TYR619  PRO620  LYS621  CYS622 
 ASP623  PHE694  ASN695  SER759  ASP760  ASP761  ALA762  ILE779  LEU786  VAL792 
 PHE793  MET794  SER795  GLU796  ALA797  LYS798  CYS799  TRP800  GLU811  SER814 

> <Gold.Protein.RotatedAtoms>
  151.7416  133.3322  159.3366 H   0  0  0  0  0  0  0  0  0  0  0  0  # atno 6907 bound_to 6896
  150.7571  134.6273  159.6177 H   0  0  0  0  0  0  0  0  0  0  0  0  # atno 6908 bound_to 6896
  152.3527  134.6985  160.0283 H   0  0  0  0  0  0  0  0  0  0  0  0  # atno 6909 bound_to 6896
  145.4581  140.9561  143.1985 H   0  0  0  0  0  0  0  0  0  0  0  0  # atno 7974 bound_to 7965
  154.4529  140.0984  156.6672 H   0  0  0  0  0  0  0  0  0  0  0  0  # atno 8008 bound_to 7997
  155.5228  140.3479  155.4392 H   0  0  0  0  0  0  0  0  0  0  0  0  # atno 8009 bound_to 7997
  156.0718  140.1351  156.9808 H   0  0  0  0  0  0  0  0  0  0  0  0  # atno 8010 bound_to 7997
  140.6272  143.2443  151.5332 H   0  0  0  0  0  0  0  0  0  0  0  0  # atno 10167 bound_to 10162
  157.5297  130.8622  149.8670 H   0  0  0  0  0  0  0  0  0  0  0  0  # atno 10718 bound_to 10713
  154.3762  135.2753  155.2238 H   0  0  0  0  0  0  0  0  0  0  0  0  # atno 10763 bound_to 10752
  154.4364  135.5965  153.6105 H   0  0  0  0  0  0  0  0  0  0  0  0  # atno 10764 bound_to 10752
  152.9836  135.6008  154.3999 H   0  0  0  0  0  0  0  0  0  0  0  0  # atno 10765 bound_to 10752
  140.8786  134.1960  157.4606 H   0  0  0  0  0  0  0  0  0  0  0  0  # atno 11005 bound_to 11000
  144.8020  139.6123  143.7067 LP  0  0  0  0  0  0  0  0  0  0  0  0  # atno 17320 bound_to 7965
  146.2467  139.6112  142.9455 LP  0  0  0  0  0  0  0  0  0  0  0  0  # atno 17321 bound_to 7965
  139.5491  144.2442  152.1498 LP  0  0  0  0  0  0  0  0  0  0  0  0  # atno 17342 bound_to 10162
  140.1677  144.4966  150.6597 LP  0  0  0  0  0  0  0  0  0  0  0  0  # atno 17343 bound_to 10162
  156.0413  130.3738  150.1428 LP  0  0  0  0  0  0  0  0  0  0  0  0  # atno 17370 bound_to 10713
  156.9613  130.9806  151.3478 LP  0  0  0  0  0  0  0  0  0  0  0  0  # atno 17371 bound_to 10713
  139.8717  134.9807  156.5086 LP  0  0  0  0  0  0  0  0  0  0  0  0  # atno 17394 bound_to 11000
  140.8488  133.8148  155.9148 LP  0  0  0  0  0  0  0  0  0  0  0  0  # atno 17395 bound_to 11000

$$$$
