AV-unprocessed.smi:3031|AV-procd|sdf|11549|dock4
  -GOLD-   2272016503D 1   1.00000     0.00000
 Structure written by MMmdl.
 48 49  0  0  0  0  0  0  0  0  3 V2000
  145.0548  144.1346  153.9221 C   0  0  0  0  0  0  0  0  0  0  0  0
  146.0557  143.0683  154.2629 C   0  0  0  0  0  0  0  0  0  0  0  0
  146.0764  142.2249  155.4094 C   0  0  0  0  0  0  0  0  0  0  0  0
  147.1016  141.3886  155.4128 N   0  0  0  0  0  0  0  0  0  0  0  0
  147.7660  141.6613  154.2693 N   0  0  0  0  0  0  0  0  0  0  0  0
  148.9824  140.9352  153.9411 C   0  0  0  0  0  0  0  0  0  0  0  0
  148.7878  139.4048  153.9180 C   0  0  2  0  0  0  0  0  0  0  0  0
  150.1283  138.6799  154.1196 C   0  0  0  0  0  0  0  0  0  0  0  0
  148.1473  138.9927  152.6480 N   0  3  0  0  0  0  0  0  0  0  0  0
  146.6692  139.0378  152.6424 C   0  0  0  0  0  0  0  0  0  0  0  0
  146.0708  137.6595  152.3113 C   0  0  2  0  0  0  0  0  0  0  0  0
  144.6599  137.7716  152.3195 O   0  0  0  0  0  0  0  0  0  0  0  0
  146.4824  136.5905  153.3456 C   0  0  0  0  0  0  0  0  0  0  0  0
  146.8109  135.2812  152.7236 N   0  3  0  0  0  0  0  0  0  0  0  0
  147.1438  134.2193  153.7066 C   0  0  0  0  0  0  0  0  0  0  0  0
  147.5042  132.9099  152.9834 C   0  0  0  0  0  0  0  0  0  0  0  0
  146.4270  132.5167  152.1430 O   0  0  0  0  0  0  0  0  0  0  0  0
  146.1562  133.4853  151.1380 C   0  0  0  0  0  0  0  0  0  0  0  0
  145.7502  134.8136  151.7990 C   0  0  0  0  0  0  0  0  0  0  0  0
  147.1625  142.6802  153.5625 C   0  0  0  0  0  0  0  0  0  0  0  0
  145.3388  145.0998  154.3419 H   0  0  0  0  0  0  0  0  0  0  0  0
  144.0632  143.8956  154.3071 H   0  0  0  0  0  0  0  0  0  0  0  0
  144.9560  144.2686  152.8446 H   0  0  0  0  0  0  0  0  0  0  0  0
  145.3816  142.1977  156.2359 H   0  0  0  0  0  0  0  0  0  0  0  0
  149.3436  141.2852  152.9728 H   0  0  0  0  0  0  0  0  0  0  0  0
  149.7427  141.2075  154.6744 H   0  0  0  0  0  0  0  0  0  0  0  0
  148.1276  139.1338  154.7432 H   0  0  0  0  0  0  0  0  0  0  0  0
  150.6076  138.9996  155.0454 H   0  0  0  0  0  0  0  0  0  0  0  0
  150.8193  138.8868  153.3017 H   0  0  0  0  0  0  0  0  0  0  0  0
  149.9986  137.5995  154.1826 H   0  0  0  0  0  0  0  0  0  0  0  0
  148.4620  139.6344  151.9337 H   0  0  0  0  0  0  0  0  0  0  0  0
  146.3249  139.3581  153.6259 H   0  0  0  0  0  0  0  0  0  0  0  0
  146.3223  139.7829  151.9246 H   0  0  0  0  0  0  0  0  0  0  0  0
  146.3944  137.3667  151.3126 H   0  0  0  0  0  0  0  0  0  0  0  0
  144.4245  138.6859  152.3773 H   0  0  0  0  0  0  0  0  0  0  0  0
  147.3388  136.9314  153.9297 H   0  0  0  0  0  0  0  0  0  0  0  0
  145.6642  136.4628  154.0568 H   0  0  0  0  0  0  0  0  0  0  0  0
  147.9813  134.5239  154.3330 H   0  0  0  0  0  0  0  0  0  0  0  0
  146.2931  134.0530  154.3695 H   0  0  0  0  0  0  0  0  0  0  0  0
  148.4169  133.0256  152.3966 H   0  0  0  0  0  0  0  0  0  0  0  0
  147.6911  132.1191  153.7101 H   0  0  0  0  0  0  0  0  0  0  0  0
  147.0300  133.6188  150.4980 H   0  0  0  0  0  0  0  0  0  0  0  0
  145.3493  133.1196  150.5025 H   0  0  0  0  0  0  0  0  0  0  0  0
  144.8149  134.6883  152.3473 H   0  0  0  0  0  0  0  0  0  0  0  0
  145.5727  135.5644  151.0277 H   0  0  0  0  0  0  0  0  0  0  0  0
  147.5647  143.0419  152.6274 H   0  0  0  0  0  0  0  0  0  0  0  0
  148.4616  138.0647  152.4032 H   0  0  0  0  0  0  0  0  0  0  0  0
  147.6335  135.4298  152.1558 H   0  0  0  0  0  0  0  0  0  0  0  0
  1  2  1  0  0  0  0
  1 21  1  0  0  0  0
  1 22  1  0  0  0  0
  1 23  1  0  0  0  0
  2 20  2  0  0  0  0
  2  3  1  0  0  0  0
  3  4  2  0  0  0  0
  3 24  1  0  0  0  0
  4  5  1  0  0  0  0
  5  6  1  0  0  0  0
  5 20  1  0  0  0  0
  6  7  1  0  0  0  0
  6 25  1  0  0  0  0
  6 26  1  0  0  0  0
  7  8  1  0  0  0  0
  7  9  1  0  0  0  0
  7 27  1  0  0  0  0
  8 28  1  0  0  0  0
  8 29  1  0  0  0  0
  8 30  1  0  0  0  0
  9 10  1  0  0  0  0
  9 31  1  0  0  0  0
  9 47  1  0  0  0  0
 10 11  1  0  0  0  0
 10 32  1  0  0  0  0
 10 33  1  0  0  0  0
 11 12  1  0  0  0  0
 11 13  1  0  0  0  0
 11 34  1  0  0  0  0
 12 35  1  0  0  0  0
 13 14  1  0  0  0  0
 13 36  1  0  0  0  0
 13 37  1  0  0  0  0
 14 19  1  0  0  0  0
 14 15  1  0  0  0  0
 14 48  1  0  0  0  0
 15 16  1  0  0  0  0
 15 38  1  0  0  0  0
 15 39  1  0  0  0  0
 16 17  1  0  0  0  0
 16 40  1  0  0  0  0
 16 41  1  0  0  0  0
 17 18  1  0  0  0  0
 18 19  1  0  0  0  0
 18 42  1  0  0  0  0
 18 43  1  0  0  0  0
 19 44  1  0  0  0  0
 19 45  1  0  0  0  0
 20 46  1  0  0  0  0
M  CHG  1   9   1
M  CHG  1  14   1
M  END
> <s_m_source_file>
AV-unprocessed.smi

> <i_m_source_file_index>
3031

> <i_lp_mmshare_version>
43012

> <i_f3d_flags>
0

> <s_epik_input>
W0NIM11jMVtjSF1ubihbY0hdMSlbQ0gyXVtDQEhdKFtDSDNdKVtOSF1bQ0gyXVtDQEhdKFtPSF0pW0NIMl1OMltDSDJdW0NIMl1PW0NIMl1bQ0gyXTI=

> <s_epik_cmdline>
J2VwaWtfcHl0aG9uJywgJy1waCcsICc3LjAnLCAnLXRuJywgJzgnLCAnLW1hJywgJzIwMCcsICctbWV0YWxfYmluZGluZycsICctaW1hZScsICc8aW5maWxlLm1hZT4nLCAnLW9tYWUnLCAnPG91dGZpbGUubWFlPic=

> <r_lp_tautomer_probability>
1

> <r_epik_Ionization_Penalty>
1.76542

> <r_epik_Ionization_Penalty_Charging>
1.76348

> <r_epik_Ionization_Penalty_Neutral>
0.00194017

> <r_epik_State_Penalty>
1.49348

> <r_epik_Charging_Adjusted_Penalty>
3.25696

> <i_epik_Tot_Q>
2

> <i_epik_Tot_abs_Q>
2

> <r_epik_Metal_State_Penalty>
1.49349

> <b_epik_Metal_Only>
0

> <s_lp_Force_Field>
OPLS_2005

> <r_lp_Energy>
27.3319

> <b_lp_Chiralities_Consistent>
1

> <s_lp_Variant>
AV-unprocessed.smi:3031-9

> <Gold.Version>
5.8.1

> <Gold.Id.Protein>
6NUR|6NUR_protein|mol2

> <Gold.PLP.Fitness>
53.7900

> <Gold.PLP.PLP>
-38.5644

> <Gold.PLP.part.hbond>
-4.4715

> <Gold.PLP.part.metal>
0.0000

> <Gold.PLP.part.buried>
-4.4368

> <Gold.PLP.part.nonpolar>
-31.0657

> <Gold.PLP.part.repulsive>
0.2850

> <Gold.PLP.ligand.clash>
0.0000

> <Gold.PLP.ligand.torsion>
1.5376

> <Gold.PLP.Chemscore.Hbond>
6.0000

> <Gold.PLP.Chemscore.CHOScore>
0.0000

> <Gold.PLP.Chemscore.Metal>
0.0000

> <Gold.Chemscore.Hbonds>
donor molecule, donor type, donor heavy atom, donor atom, acceptor molecule, acceptor atom, score
      L1  H     9    31       P1  7957  0.66
      L1  H     9    47       P1  7948  2.00
      L1  H    12    35       P1 10175  1.00
      L1  H    14    48       P1  7948  2.00

> <Gold.PLP.Chemscore.Internal.Correction>
0.3009

> <Gold.Rescore>
     Score         DG    S(hbond)    S(metal)    S(lipo)     H(rot)  DE(clash)    DE(int)     intcor
     19.00     -20.70       3.95        0.00      77.18       2.74       0.24       1.46       ----

> <Gold.Chemscore.Fitness>
18.9965

> <Gold.Chemscore.DG>
-20.6955

> <Gold.Chemscore.ZeroCoef>
-5.4800

> <Gold.Chemscore.Hbond>
3.9546

> <Gold.Chemscore.Metal>
0.0000

> <Gold.Chemscore.Lipo>
77.1806

> <Gold.Chemscore.Internal_Hbond>
0.0000

> <Gold.Chemscore.DEClash>
0.2395

> <Gold.Chemscore.DEInternal>
1.4595

> <Gold.Chemscore.Rot>
2.7434

> <Gold.Chemscore.Internal.Correction>
   9.000000E+99

> <Gold.Chemscore.Hbonds>
donor molecule, donor type, donor heavy atom, donor atom, acceptor molecule, acceptor atom, score
      L1  H     9    31       P1  7957  0.64
      L1  H     9    47       P1  7948  0.99
      L1  H    12    35       P1 10175  1.00
      L1  H    14    48       P1  7948  0.91

> <Gold.Chemscore.Hbond.Weighted>
-13.2084

> <Gold.Chemscore.Metal.Weighted>
-0.0000

> <Gold.Chemscore.Lipo.Weighted>
-9.0301

> <Gold.Chemscore.Internal_Hbond.Weighted>
0.0000

> <Gold.Chemscore.DEClash.Weighted>
0.2395

> <Gold.Chemscore.DEInternal.Weighted>
1.4595

> <Gold.Chemscore.Rot.Weighted>
7.0231

> <Gold.Chemscore.Internal.Correction.Weighted>
   9.000000E+99

> <Gold.Protein.RotatedTorsions>
[ 6907 6896 6895 6894 ] final  172.90 input  -60.11 | X-H torsion
[ 7974 7965 7964 7962 ] final   93.48 input  175.53 | X-H torsion
[ 8008 7997 7996 7995 ] final -152.84 input   59.86 | X-H torsion
[ 10167 10162 10161 10158 ] final   -2.71 input  -65.29 | X-H torsion
[ 10718 10713 10712 10709 ] final  -17.34 input   66.30 | X-H torsion
[ 10763 10752 10751 10750 ] final  -33.05 input  -60.55 | X-H torsion
[ 11005 11000 10999 10996 ] final  -60.44 input  -57.11 | X-H torsion

> <Gold.Protein.ActiveResidues>
 VAL166  LYS551  ARG553  GLY616  TRP617  ASP618  TYR619  PRO620  LYS621  CYS622 
 ASP623  PHE694  ASN695  SER759  ASP760  ASP761  ALA762  ILE779  LEU786  VAL792 
 PHE793  MET794  SER795  GLU796  ALA797  LYS798  CYS799  TRP800  GLU811  SER814 

> <Gold.Protein.RotatedAtoms>
  151.7769  133.3346  159.3460 H   0  0  0  0  0  0  0  0  0  0  0  0  # atno 6907 bound_to 6896
  150.7440  134.5967  159.6025 H   0  0  0  0  0  0  0  0  0  0  0  0  # atno 6908 bound_to 6896
  152.3303  134.7270  160.0342 H   0  0  0  0  0  0  0  0  0  0  0  0  # atno 6909 bound_to 6896
  145.4783  139.2279  143.2897 H   0  0  0  0  0  0  0  0  0  0  0  0  # atno 7974 bound_to 7965
  155.6615  140.0723  157.2552 H   0  0  0  0  0  0  0  0  0  0  0  0  # atno 8008 bound_to 7997
  154.4141  140.1715  156.1832 H   0  0  0  0  0  0  0  0  0  0  0  0  # atno 8009 bound_to 7997
  155.9693  140.3363  155.6564 H   0  0  0  0  0  0  0  0  0  0  0  0  # atno 8010 bound_to 7997
  140.6862  143.6625  150.8255 H   0  0  0  0  0  0  0  0  0  0  0  0  # atno 10167 bound_to 10162
  156.5749  130.4759  149.6346 H   0  0  0  0  0  0  0  0  0  0  0  0  # atno 10718 bound_to 10713
  153.8238  135.6872  153.4823 H   0  0  0  0  0  0  0  0  0  0  0  0  # atno 10763 bound_to 10752
  153.1553  135.4601  154.9693 H   0  0  0  0  0  0  0  0  0  0  0  0  # atno 10764 bound_to 10752
  154.7916  135.3304  154.7708 H   0  0  0  0  0  0  0  0  0  0  0  0  # atno 10765 bound_to 10752
  141.1287  133.6622  156.5224 H   0  0  0  0  0  0  0  0  0  0  0  0  # atno 11005 bound_to 11000
  146.2356  140.5567  142.8956 LP  0  0  0  0  0  0  0  0  0  0  0  0  # atno 17320 bound_to 7965
  144.7904  140.6020  143.6545 LP  0  0  0  0  0  0  0  0  0  0  0  0  # atno 17321 bound_to 7965
  140.0332  143.5422  152.2751 LP  0  0  0  0  0  0  0  0  0  0  0  0  # atno 17342 bound_to 10162
  139.6222  144.7631  151.2715 LP  0  0  0  0  0  0  0  0  0  0  0  0  # atno 17343 bound_to 10162
  156.2682  130.7001  151.1791 LP  0  0  0  0  0  0  0  0  0  0  0  0  # atno 17370 bound_to 10713
  157.7340  131.0586  150.5549 LP  0  0  0  0  0  0  0  0  0  0  0  0  # atno 17371 bound_to 10713
  140.4281  134.7126  157.4927 LP  0  0  0  0  0  0  0  0  0  0  0  0  # atno 17394 bound_to 11000
  140.0312  134.6403  155.9103 LP  0  0  0  0  0  0  0  0  0  0  0  0  # atno 17395 bound_to 11000

$$$$
