AV-unprocessed.smi:3072|AV-procd|sdf|11718|dock10
  -GOLD-   2272017123D 1   1.00000     0.00000
 Structure written by MMmdl.
 25 26  0  0  0  0  0  0  0  0  2 V2000
  151.4182  137.6130  155.8186 C   0  0  0  0  0  0  0  0  0  0  0  0
  151.5618  136.8013  154.7834 N   0  0  0  0  0  0  0  0  0  0  0  0
  151.1358  137.5365  153.7404 N   0  0  0  0  0  0  0  0  0  0  0  0
  150.7274  138.7972  154.1064 C   0  0  0  0  0  0  0  0  0  0  0  0
  150.8928  138.8904  155.4614 C   0  0  0  0  0  0  0  0  0  0  0  0
  150.5971  140.0486  156.3797 C   0  0  1  0  0  0  0  0  0  0  0  0
  151.8250  140.4173  157.2348 C   0  0  0  0  0  0  0  0  0  0  0  0
  151.5149  141.6267  158.1309 C   0  0  0  0  0  0  0  0  0  0  0  0
  151.0039  142.8130  157.2968 C   0  0  0  0  0  0  0  0  0  0  0  0
  149.8303  142.4165  156.4889 N   0  3  0  0  0  0  0  0  0  0  0  0
  150.1094  141.2784  155.5859 C   0  0  0  0  0  0  0  0  0  0  0  0
  151.1302  137.1696  152.7990 H   0  0  0  0  0  0  0  0  0  0  0  0
  151.6961  137.2530  156.7983 H   0  0  0  0  0  0  0  0  0  0  0  0
  150.3582  139.5103  153.3841 H   0  0  0  0  0  0  0  0  0  0  0  0
  149.7965  139.7635  157.0644 H   0  0  0  0  0  0  0  0  0  0  0  0
  152.1260  139.5678  157.8491 H   0  0  0  0  0  0  0  0  0  0  0  0
  152.6739  140.6526  156.5912 H   0  0  0  0  0  0  0  0  0  0  0  0
  150.7646  141.3501  158.8729 H   0  0  0  0  0  0  0  0  0  0  0  0
  152.4067  141.9175  158.6867 H   0  0  0  0  0  0  0  0  0  0  0  0
  150.7251  143.6418  157.9479 H   0  0  0  0  0  0  0  0  0  0  0  0
  151.7899  143.1782  156.6341 H   0  0  0  0  0  0  0  0  0  0  0  0
  149.0831  142.1535  157.1155 H   0  0  0  0  0  0  0  0  0  0  0  0
  150.8553  141.5846  154.8510 H   0  0  0  0  0  0  0  0  0  0  0  0
  149.1997  141.0380  155.0348 H   0  0  0  0  0  0  0  0  0  0  0  0
  149.5296  143.2071  155.9369 H   0  0  0  0  0  0  0  0  0  0  0  0
  1  5  1  0  0  0  0
  1  2  2  0  0  0  0
  1 13  1  0  0  0  0
  2  3  1  0  0  0  0
  3 12  1  0  0  0  0
  3  4  1  0  0  0  0
  4  5  2  0  0  0  0
  4 14  1  0  0  0  0
  5  6  1  0  0  0  0
  6 11  1  0  0  0  0
  6  7  1  0  0  0  0
  6 15  1  0  0  0  0
  7  8  1  0  0  0  0
  7 16  1  0  0  0  0
  7 17  1  0  0  0  0
  8  9  1  0  0  0  0
  8 18  1  0  0  0  0
  8 19  1  0  0  0  0
  9 10  1  0  0  0  0
  9 20  1  0  0  0  0
  9 21  1  0  0  0  0
 10 11  1  0  0  0  0
 10 22  1  0  0  0  0
 10 25  1  0  0  0  0
 11 23  1  0  0  0  0
 11 24  1  0  0  0  0
M  CHG  1  10   1
M  END
> <s_m_source_file>
AV-unprocessed.smi

> <i_m_source_file_index>
3072

> <i_lp_mmshare_version>
43012

> <i_f3d_flags>
0

> <s_epik_input>
W2NIXTFbbkhdbltjSF1jMVtDQEBIXTJbQ0gyXVtDSDJdW0NIMl1bTkhdW0NIMl0y

> <s_epik_cmdline>
J2VwaWtfcHl0aG9uJywgJy1waCcsICc3LjAnLCAnLXRuJywgJzgnLCAnLW1hJywgJzIwMCcsICctbWV0YWxfYmluZGluZycsICctaW1hZScsICc8aW5maWxlLm1hZT4nLCAnLW9tYWUnLCAnPG91dGZpbGUubWFlPic=

> <r_lp_tautomer_probability>
1

> <r_epik_Ionization_Penalty>
0.000160186

> <r_epik_Ionization_Penalty_Charging>
0.000157527

> <r_epik_Ionization_Penalty_Neutral>
2.65916e-06

> <r_epik_State_Penalty>
-0

> <r_epik_Charging_Adjusted_Penalty>
0.000157527

> <i_epik_Tot_Q>
1

> <i_epik_Tot_abs_Q>
1

> <r_epik_Metal_State_Penalty>
-0

> <b_epik_Metal_Only>
0

> <s_lp_Force_Field>
OPLS_2005

> <r_lp_Energy>
12.3326

> <b_lp_Chiralities_Consistent>
1

> <s_lp_Variant>
AV-unprocessed.smi:3072-2

> <Gold.Version>
5.8.1

> <Gold.Id.Protein>
6NUR|6NUR_protein|mol2

> <Gold.PLP.Fitness>
35.5174

> <Gold.PLP.PLP>
-20.6094

> <Gold.PLP.part.hbond>
-3.7520

> <Gold.PLP.part.metal>
0.0000

> <Gold.PLP.part.buried>
-3.6617

> <Gold.PLP.part.nonpolar>
-13.8825

> <Gold.PLP.part.repulsive>
0.3097

> <Gold.PLP.ligand.clash>
0.0000

> <Gold.PLP.ligand.torsion>
0.0522

> <Gold.PLP.Chemscore.Hbond>
4.0000

> <Gold.PLP.Chemscore.CHOScore>
1.0000

> <Gold.PLP.Chemscore.Metal>
0.0000

> <Gold.Chemscore.Hbonds>
donor molecule, donor type, donor heavy atom, donor atom, acceptor molecule, acceptor atom, score
      L1  H     3    12       P1  7949  1.00
      L1  H    10    25       P1  8028  2.00
      P1  H 10752 10765       L1     2  1.00
      L1  C     4    14       P1  7957  1.00

> <Gold.PLP.Chemscore.Internal.Correction>
0.0123

> <Gold.Rescore>
     Score         DG    S(hbond)    S(metal)    S(lipo)     H(rot)  DE(clash)    DE(int)     intcor
     18.54     -18.65       2.80        0.00      54.36       1.00       0.10       0.01       ----

> <Gold.Chemscore.Fitness>
18.5382

> <Gold.Chemscore.DG>
-18.6492

> <Gold.Chemscore.ZeroCoef>
-5.4800

> <Gold.Chemscore.Hbond>
2.8050

> <Gold.Chemscore.Metal>
0.0000

> <Gold.Chemscore.Lipo>
54.3638

> <Gold.Chemscore.Internal_Hbond>
0.0000

> <Gold.Chemscore.DEClash>
0.1035

> <Gold.Chemscore.DEInternal>
0.0075

> <Gold.Chemscore.Rot>
1.0000

> <Gold.Chemscore.Internal.Correction>
   9.000000E+99

> <Gold.Chemscore.Hbonds>
donor molecule, donor type, donor heavy atom, donor atom, acceptor molecule, acceptor atom, score
      L1  H     3    12       P1  7949  0.45
      L1  H    10    25       P1  8028  0.99
      P1  H 10752 10765       L1     2  0.73

> <Gold.Chemscore.Hbond.Weighted>
-9.3687

> <Gold.Chemscore.Metal.Weighted>
-0.0000

> <Gold.Chemscore.Lipo.Weighted>
-6.3606

> <Gold.Chemscore.Internal_Hbond.Weighted>
0.0000

> <Gold.Chemscore.DEClash.Weighted>
0.1035

> <Gold.Chemscore.DEInternal.Weighted>
0.0075

> <Gold.Chemscore.Rot.Weighted>
2.5600

> <Gold.Chemscore.Internal.Correction.Weighted>
   9.000000E+99

> <Gold.Protein.RotatedTorsions>
[ 6907 6896 6895 6894 ] final  100.79 input  -60.11 | X-H torsion
[ 7974 7965 7964 7962 ] final -164.51 input  175.53 | X-H torsion
[ 8008 7997 7996 7995 ] final  -73.46 input   59.86 | X-H torsion
[ 10167 10162 10161 10158 ] final   58.65 input  -65.29 | X-H torsion
[ 10718 10713 10712 10709 ] final  151.57 input   66.30 | X-H torsion
[ 10763 10752 10751 10750 ] final  158.57 input  -60.55 | X-H torsion
[ 11005 11000 10999 10996 ] final  -20.53 input  -57.11 | X-H torsion

> <Gold.Protein.ActiveResidues>
 VAL166  LYS551  ARG553  GLY616  TRP617  ASP618  TYR619  PRO620  LYS621  CYS622 
 ASP623  PHE694  ASN695  SER759  ASP760  ASP761  ALA762  ILE779  LEU786  VAL792 
 PHE793  MET794  SER795  GLU796  ALA797  LYS798  CYS799  TRP800  GLU811  SER814 

> <Gold.Protein.RotatedAtoms>
  152.5364  134.0224  159.7987 H   0  0  0  0  0  0  0  0  0  0  0  0  # atno 6907 bound_to 6896
  151.0408  133.5700  159.2658 H   0  0  0  0  0  0  0  0  0  0  0  0  # atno 6908 bound_to 6896
  151.2670  135.0680  159.9173 H   0  0  0  0  0  0  0  0  0  0  0  0  # atno 6909 bound_to 6896
  144.7295  140.2949  143.6214 H   0  0  0  0  0  0  0  0  0  0  0  0  # atno 7974 bound_to 7965
  154.5249  140.0779  156.8240 H   0  0  0  0  0  0  0  0  0  0  0  0  # atno 8008 bound_to 7997
  155.3497  140.3412  155.4221 H   0  0  0  0  0  0  0  0  0  0  0  0  # atno 8009 bound_to 7997
  156.1721  140.1623  156.8415 H   0  0  0  0  0  0  0  0  0  0  0  0  # atno 8010 bound_to 7997
  140.1850  144.4144  150.6597 H   0  0  0  0  0  0  0  0  0  0  0  0  # atno 10167 bound_to 10162
  157.2689  131.0813  151.1613 H   0  0  0  0  0  0  0  0  0  0  0  0  # atno 10718 bound_to 10713
  154.2182  135.2783  155.2934 H   0  0  0  0  0  0  0  0  0  0  0  0  # atno 10763 bound_to 10752
  154.5723  135.5614  153.7110 H   0  0  0  0  0  0  0  0  0  0  0  0  # atno 10764 bound_to 10752
  153.0048  135.6324  154.2322 H   0  0  0  0  0  0  0  0  0  0  0  0  # atno 10765 bound_to 10752
  140.8474  133.7882  155.9927 H   0  0  0  0  0  0  0  0  0  0  0  0  # atno 11005 bound_to 11000
  145.7818  139.1894  143.2153 LP  0  0  0  0  0  0  0  0  0  0  0  0  # atno 17320 bound_to 7965
  146.0828  140.7745  142.9633 LP  0  0  0  0  0  0  0  0  0  0  0  0  # atno 17321 bound_to 7965
  140.6494  143.2221  151.6111 LP  0  0  0  0  0  0  0  0  0  0  0  0  # atno 17342 bound_to 10162
  139.5280  144.3001  152.1081 LP  0  0  0  0  0  0  0  0  0  0  0  0  # atno 17343 bound_to 10162
  157.3093  130.6881  149.6207 LP  0  0  0  0  0  0  0  0  0  0  0  0  # atno 17370 bound_to 10713
  155.9663  130.4368  150.5150 LP  0  0  0  0  0  0  0  0  0  0  0  0  # atno 17371 bound_to 10713
  140.8828  134.2590  157.5135 LP  0  0  0  0  0  0  0  0  0  0  0  0  # atno 17394 bound_to 11000
  139.8703  134.9623  156.4426 LP  0  0  0  0  0  0  0  0  0  0  0  0  # atno 17395 bound_to 11000

$$$$
