AV-unprocessed.smi:218|AV-procd|sdf|1674|dock9
  -GOLD-   2262020 93D 1   1.00000     0.00000
 Structure written by MMmdl.
 54 57  0  0  0  0  0  0  0  0  1 V2000
  153.4745  142.8657  159.6947 C   0  0  0  0  0  0  0  0  0  0  0  0
  153.1305  141.5477  160.3990 C   0  0  0  0  0  0  0  0  0  0  0  0
  154.2988  141.0648  161.2759 C   0  0  0  0  0  0  0  0  0  0  0  0
  152.8498  140.5907  159.3753 O   0  0  0  0  0  0  0  0  0  0  0  0
  151.7240  140.7281  158.5858 C   0  0  0  0  0  0  0  0  0  0  0  0
  150.7677  139.6921  158.5992 C   0  0  0  0  0  0  0  0  0  0  0  0
  149.6165  139.8157  157.7938 C   0  0  0  0  0  0  0  0  0  0  0  0
  148.5591  138.7256  157.7757 C   0  0  0  0  0  0  0  0  0  0  0  0
  147.4124  139.0043  156.9180 N   0  0  0  0  0  0  0  0  0  0  0  0
  146.4977  138.0441  156.6561 C   0  0  0  0  0  0  0  0  0  0  0  0
  145.6819  137.5653  157.6318 N   0  0  0  0  0  0  0  0  0  0  0  0
  144.7835  136.6183  157.3465 C   0  0  0  0  0  0  0  0  0  0  0  0
  144.5377  136.0288  156.1748 N   0  0  0  0  0  0  0  0  0  0  0  0
  145.3502  136.5091  155.1894 C   0  0  0  0  0  0  0  0  0  0  0  0
  146.3468  137.5120  155.3495 C   0  0  0  0  0  0  0  0  0  0  0  0
  146.9735  137.7523  154.1337 N   0  0  0  0  0  0  0  0  0  0  0  0
  146.3793  136.9357  153.3060 C   0  0  0  0  0  0  0  0  0  0  0  0
  145.3956  136.1452  153.8582 N   0  0  0  0  0  0  0  0  0  0  0  0
  144.5612  135.1130  153.1646 C   0  0  2  0  0  0  0  0  0  0  0  0
  145.4081  134.1742  152.5803 O   0  0  0  0  0  0  0  0  0  0  0  0
  144.8280  133.7224  151.3623 C   0  0  2  0  0  0  0  0  0  0  0  0
  145.8806  133.0505  150.4632 C   0  0  0  0  0  0  0  0  0  0  0  0
  146.3637  131.8764  151.0797 O   0  0  0  0  0  0  0  0  0  0  0  0
  144.1793  134.9926  150.7918 C   0  0  2  0  0  0  0  0  0  0  0  0
  145.1210  135.7660  150.0679 O   0  0  0  0  0  0  0  0  0  0  0  0
  143.6734  135.7011  152.0470 C   0  0  2  0  0  0  0  0  0  0  0  0
  143.6685  137.1160  151.9395 O   0  0  0  0  0  0  0  0  0  0  0  0
  149.4688  140.9715  157.0019 C   0  0  0  0  0  0  0  0  0  0  0  0
  150.4762  141.9537  157.0561 C   0  0  0  0  0  0  0  0  0  0  0  0
  151.5807  141.8411  157.8238 N   0  0  0  0  0  0  0  0  0  0  0  0
  143.9790  134.6485  153.9616 H   0  0  0  0  0  0  0  0  0  0  0  0
  144.0323  133.0141  151.6018 H   0  0  0  0  0  0  0  0  0  0  0  0
  143.3587  134.7526  150.1150 H   0  0  0  0  0  0  0  0  0  0  0  0
  142.6531  135.3746  152.2521 H   0  0  0  0  0  0  0  0  0  0  0  0
  153.7032  143.6498  160.4172 H   0  0  0  0  0  0  0  0  0  0  0  0
  152.6392  143.2108  159.0848 H   0  0  0  0  0  0  0  0  0  0  0  0
  154.3391  142.7503  159.0402 H   0  0  0  0  0  0  0  0  0  0  0  0
  152.2514  141.7334  161.0180 H   0  0  0  0  0  0  0  0  0  0  0  0
  154.5447  141.8035  162.0392 H   0  0  0  0  0  0  0  0  0  0  0  0
  155.1941  140.8934  160.6778 H   0  0  0  0  0  0  0  0  0  0  0  0
  154.0621  140.1331  161.7890 H   0  0  0  0  0  0  0  0  0  0  0  0
  150.9167  138.8195  159.2181 H   0  0  0  0  0  0  0  0  0  0  0  0
  149.0079  137.7743  157.4871 H   0  0  0  0  0  0  0  0  0  0  0  0
  148.1932  138.5923  158.7939 H   0  0  0  0  0  0  0  0  0  0  0  0
  147.4332  139.8887  156.4312 H   0  0  0  0  0  0  0  0  0  0  0  0
  144.1744  136.2857  158.1739 H   0  0  0  0  0  0  0  0  0  0  0  0
  146.6497  136.8825  152.2615 H   0  0  0  0  0  0  0  0  0  0  0  0
  145.4322  132.7582  149.5133 H   0  0  0  0  0  0  0  0  0  0  0  0
  146.7058  133.7278  150.2402 H   0  0  0  0  0  0  0  0  0  0  0  0
  147.2927  131.8158  150.9172 H   0  0  0  0  0  0  0  0  0  0  0  0
  145.1644  135.4315  149.1848 H   0  0  0  0  0  0  0  0  0  0  0  0
  143.7173  137.3475  151.0245 H   0  0  0  0  0  0  0  0  0  0  0  0
  148.6021  141.1079  156.3720 H   0  0  0  0  0  0  0  0  0  0  0  0
  150.3932  142.8537  156.4652 H   0  0  0  0  0  0  0  0  0  0  0  0
  1  2  1  0  0  0  0
  1 35  1  0  0  0  0
  1 36  1  0  0  0  0
  1 37  1  0  0  0  0
  2  3  1  0  0  0  0
  2  4  1  0  0  0  0
  2 38  1  0  0  0  0
  3 39  1  0  0  0  0
  3 40  1  0  0  0  0
  3 41  1  0  0  0  0
  4  5  1  0  0  0  0
  5 30  1  0  0  0  0
  5  6  2  0  0  0  0
  6  7  1  0  0  0  0
  6 42  1  0  0  0  0
  7  8  1  0  0  0  0
  7 28  2  0  0  0  0
  8  9  1  0  0  0  0
  8 43  1  0  0  0  0
  8 44  1  0  0  0  0
  9 10  1  0  0  0  0
  9 45  1  0  0  0  0
 10 15  1  0  0  0  0
 10 11  2  0  0  0  0
 11 12  1  0  0  0  0
 12 13  2  0  0  0  0
 12 46  1  0  0  0  0
 13 14  1  0  0  0  0
 14 18  1  0  0  0  0
 14 15  2  0  0  0  0
 15 16  1  0  0  0  0
 16 17  2  0  0  0  0
 17 18  1  0  0  0  0
 17 47  1  0  0  0  0
 18 19  1  0  0  0  0
 19 31  1  0  0  0  0
 19 26  1  0  0  0  0
 19 20  1  0  0  0  0
 20 21  1  0  0  0  0
 21 32  1  0  0  0  0
 21 22  1  0  0  0  0
 21 24  1  0  0  0  0
 22 23  1  0  0  0  0
 22 48  1  0  0  0  0
 22 49  1  0  0  0  0
 23 50  1  0  0  0  0
 24 33  1  0  0  0  0
 24 25  1  0  0  0  0
 24 26  1  0  0  0  0
 25 51  1  0  0  0  0
 26 34  1  0  0  0  0
 26 27  1  0  0  0  0
 27 52  1  0  0  0  0
 28 29  1  0  0  0  0
 28 53  1  0  0  0  0
 29 30  2  0  0  0  0
 29 54  1  0  0  0  0
M  END
> <s_m_source_file>
AV-unprocessed.smi

> <i_m_source_file_index>
218

> <i_lp_mmshare_version>
43012

> <i_f3d_flags>
0

> <s_epik_input>
W0NIM11bQ0hdKFtDSDNdKU9jMVtjSF1jKFtjSF1bY0hdbjEpW0NIMl1bTkhdYyhuW2NIXW4yKWMoYzIzKW5bY0hdbjNbQ0BASF00T1tDQEhdKFtDSDJdW09IXSlbQ0BASF0oW09IXSlbQ0BIXTRbT0hd

> <s_epik_cmdline>
J2VwaWtfcHl0aG9uJywgJy1waCcsICc3LjAnLCAnLXRuJywgJzgnLCAnLW1hJywgJzIwMCcsICctbWV0YWxfYmluZGluZycsICctaW1hZScsICc8aW5maWxlLm1hZT4nLCAnLW9tYWUnLCAnPG91dGZpbGUubWFlPic=

> <r_lp_tautomer_probability>
1

> <r_epik_Ionization_Penalty>
0.00457014

> <r_epik_Ionization_Penalty_Charging>
0

> <r_epik_Ionization_Penalty_Neutral>
0.00457014

> <r_epik_State_Penalty>
-0

> <r_epik_Charging_Adjusted_Penalty>
0

> <i_epik_Tot_Q>
0

> <i_epik_Tot_abs_Q>
0

> <r_epik_Metal_State_Penalty>
-0

> <b_epik_Metal_Only>
0

> <s_epik_Chemistry_Notes>
This compound contains an acetal/aminal-like group ( X-CH(R)-Y where X, Y are N, S, or O) that may be acid/base labile, releasing an aldehyde.

> <s_lp_Force_Field>
OPLS_2005

> <r_lp_Energy>
51.9748

> <b_lp_Chiralities_Consistent>
1

> <s_lp_Variant>
AV-unprocessed.smi:218-13

> <Gold.Version>
5.8.1

> <Gold.Id.Protein>
6NUR|6NUR_protein|mol2

> <Gold.PLP.Fitness>
47.1114

> <Gold.PLP.PLP>
-34.4371

> <Gold.PLP.part.hbond>
-4.0000

> <Gold.PLP.part.metal>
0.0000

> <Gold.PLP.part.buried>
-6.6303

> <Gold.PLP.part.nonpolar>
-25.2363

> <Gold.PLP.part.repulsive>
0.2812

> <Gold.PLP.ligand.clash>
0.0000

> <Gold.PLP.ligand.torsion>
0.7413

> <Gold.PLP.Chemscore.Hbond>
3.0000

> <Gold.PLP.Chemscore.CHOScore>
1.6812

> <Gold.PLP.Chemscore.Metal>
0.0000

> <Gold.Chemscore.Hbonds>
donor molecule, donor type, donor heavy atom, donor atom, acceptor molecule, acceptor atom, score
      L1  H    23    50       P1 10747  0.98
      L1  H    25    51       P1  7921  1.00
      L1  H    27    52       P1 10171  0.98
      L1  C    17    47       P1  7948  0.70
      L1  C    29    54       P1  8028  1.00

> <Gold.PLP.Chemscore.Internal.Correction>
0.1133

> <Gold.Rescore>
     Score         DG    S(hbond)    S(metal)    S(lipo)     H(rot)  DE(clash)    DE(int)     intcor
      8.07     -11.07       2.87        0.00      73.21       4.90       0.04       2.95       ----

> <Gold.Chemscore.Fitness>
8.0747

> <Gold.Chemscore.DG>
-11.0662

> <Gold.Chemscore.ZeroCoef>
-5.4800

> <Gold.Chemscore.Hbond>
2.8658

> <Gold.Chemscore.Metal>
0.0000

> <Gold.Chemscore.Lipo>
73.2138

> <Gold.Chemscore.Internal_Hbond>
0.0000

> <Gold.Chemscore.DEClash>
0.0440

> <Gold.Chemscore.DEInternal>
2.9475

> <Gold.Chemscore.Rot>
4.9029

> <Gold.Chemscore.Internal.Correction>
   9.000000E+99

> <Gold.Chemscore.Hbonds>
donor molecule, donor type, donor heavy atom, donor atom, acceptor molecule, acceptor atom, score
      L1  H    23    50       P1 10747  0.89
      L1  H    25    51       P1  7921  0.96
      L1  H    27    52       P1 10171  0.93

> <Gold.Chemscore.Hbond.Weighted>
-9.5717

> <Gold.Chemscore.Metal.Weighted>
-0.0000

> <Gold.Chemscore.Lipo.Weighted>
-8.5660

> <Gold.Chemscore.Internal_Hbond.Weighted>
0.0000

> <Gold.Chemscore.DEClash.Weighted>
0.0440

> <Gold.Chemscore.DEInternal.Weighted>
2.9475

> <Gold.Chemscore.Rot.Weighted>
12.5515

> <Gold.Chemscore.Internal.Correction.Weighted>
   9.000000E+99

> <Gold.Protein.RotatedTorsions>
[ 6907 6896 6895 6894 ] final   69.36 input  -60.11 | X-H torsion
[ 7974 7965 7964 7962 ] final -142.84 input  175.53 | X-H torsion
[ 8008 7997 7996 7995 ] final  157.07 input   59.86 | X-H torsion
[ 10167 10162 10161 10158 ] final   -8.83 input  -65.29 | X-H torsion
[ 10718 10713 10712 10709 ] final  127.30 input   66.30 | X-H torsion
[ 10763 10752 10751 10750 ] final    2.63 input  -60.55 | X-H torsion
[ 11005 11000 10999 10996 ] final  -40.01 input  -57.11 | X-H torsion

> <Gold.Protein.ActiveResidues>
 VAL166  LYS551  ARG553  GLY616  TRP617  ASP618  TYR619  PRO620  LYS621  CYS622 
 ASP623  PHE694  ASN695  SER759  ASP760  ASP761  ALA762  ILE779  LEU786  VAL792 
 PHE793  MET794  SER795  GLU796  ALA797  LYS798  CYS799  TRP800  GLU811  SER814 

> <Gold.Protein.RotatedAtoms>
  152.4681  134.5026  159.9729 H   0  0  0  0  0  0  0  0  0  0  0  0  # atno 6907 bound_to 6896
  151.5059  133.3489  159.2884 H   0  0  0  0  0  0  0  0  0  0  0  0  # atno 6908 bound_to 6896
  150.8676  134.8071  159.7192 H   0  0  0  0  0  0  0  0  0  0  0  0  # atno 6909 bound_to 6896
  144.8414  140.5909  143.5450 H   0  0  0  0  0  0  0  0  0  0  0  0  # atno 7974 bound_to 7965
  156.2386  140.1895  156.7052 H   0  0  0  0  0  0  0  0  0  0  0  0  # atno 8008 bound_to 7997
  154.6153  140.0616  156.9573 H   0  0  0  0  0  0  0  0  0  0  0  0  # atno 8009 bound_to 7997
  155.1950  140.3287  155.4355 H   0  0  0  0  0  0  0  0  0  0  0  0  # atno 8010 bound_to 7997
  140.7070  143.5925  150.8879 H   0  0  0  0  0  0  0  0  0  0  0  0  # atno 10167 bound_to 10162
  157.5345  131.1098  150.8957 H   0  0  0  0  0  0  0  0  0  0  0  0  # atno 10718 bound_to 10713
  153.2932  135.6950  153.7273 H   0  0  0  0  0  0  0  0  0  0  0  0  # atno 10763 bound_to 10752
  153.6215  135.3426  155.3013 H   0  0  0  0  0  0  0  0  0  0  0  0  # atno 10764 bound_to 10752
  154.8530  135.4387  154.2021 H   0  0  0  0  0  0  0  0  0  0  0  0  # atno 10765 bound_to 10752
  141.0143  133.6892  156.2263 H   0  0  0  0  0  0  0  0  0  0  0  0  # atno 11005 bound_to 11000
  145.4687  139.1505  143.3826 LP  0  0  0  0  0  0  0  0  0  0  0  0  # atno 17320 bound_to 7965
  146.2705  140.4820  142.8816 LP  0  0  0  0  0  0  0  0  0  0  0  0  # atno 17321 bound_to 7965
  139.9651  143.6120  152.2991 LP  0  0  0  0  0  0  0  0  0  0  0  0  # atno 17342 bound_to 10162
  139.6687  144.7661  151.1825 LP  0  0  0  0  0  0  0  0  0  0  0  0  # atno 17343 bound_to 10162
  156.9528  130.5426  149.5283 LP  0  0  0  0  0  0  0  0  0  0  0  0  # atno 17370 bound_to 10713
  156.0448  130.5526  150.8855 LP  0  0  0  0  0  0  0  0  0  0  0  0  # atno 17371 bound_to 10713
  140.6680  134.4897  157.5586 LP  0  0  0  0  0  0  0  0  0  0  0  0  # atno 17394 bound_to 11000
  139.9108  134.8349  156.1536 LP  0  0  0  0  0  0  0  0  0  0  0  0  # atno 17395 bound_to 11000

$$$$
