#       Name:                AV-unprocessed.smi:1271
#       Creating user name   scv26
#       Creation time:       Fri Mar 27 04:46:21 2020


#       File generated by GOLD software.
#

@<TRIPOS>MOLECULE
AV-unprocessed.smi:1271
    38    39     1
SMALL
NO_CHARGES


@<TRIPOS>ATOM
      1 ****         0.0356  -3.3736   1.4580 C.3            1 S1                 0.0000
      2 ****         0.3016  -2.3079   0.3866 C.3            1 S1                 0.0000
      3 ****         1.8092  -2.0238   0.2286 C.3            1 S1                 0.0000
      4 ****         2.0893  -1.0511  -0.8136 N.pl3          1 S1                 0.0000
      5 ****         2.5519   0.2406  -0.6760 C.2            1 S1                 0.0000
      6 ****         2.6495   0.7730  -1.9293 C.2            1 S1                 0.0000
      7 ****         2.2273  -0.2865  -2.7798 C.2            1 S1                 0.0000
      8 ****         1.8970  -1.3784  -2.1095 N.2            1 S1                 0.0000
      9 ****        -0.4065  -1.0787   0.7421 N.am           1 S1                 0.0000
     10 ****        -1.3395  -0.4580  -0.0013 C.2            1 S1                 0.0000
     11 ****        -1.7649  -0.9297  -1.0565 O.2            1 S1                 0.0000
     12 ****        -1.7871   0.7133   0.5181 N.am           1 S1                 0.0000
     13 ****        -1.1406   1.4773   1.5979 C.3            1 S1                 0.0000
     14 ****        -0.2168   2.5388   0.9774 C.3            1 S1                 0.0000
     15 ****        -1.1667   3.7303  -0.0178 S.3            1 S1                 0.0000
     16 ****        -2.1395   2.5760  -1.0353 C.3            1 S1                 0.0000
     17 ****        -2.8178   1.5071  -0.1614 C.3            1 S1                 0.0000
     18 ****         0.5375  -4.3099   1.2121 H              1 S1                 0.0000
     19 ****        -1.0308  -3.5852   1.5438 H              1 S1                 0.0000
     20 ****         0.3920  -3.0521   2.4372 H              1 S1                 0.0000
     21 ****        -0.0709  -2.7019  -0.5605 H              1 S1                 0.0000
     22 ****         2.2283  -1.6579   1.1670 H              1 S1                 0.0000
     23 ****         2.3432  -2.9436  -0.0137 H              1 S1                 0.0000
     24 ****         2.7631   0.6712   0.2918 H              1 S1                 0.0000
     25 ****         2.9731   1.7675  -2.1978 H              1 S1                 0.0000
     26 ****         2.1524  -0.2946  -3.8572 H              1 S1                 0.0000
     27 ****        -0.1315  -0.6357   1.6064 H              1 S1                 0.0000
     28 ****        -1.8981   1.9603   2.2166 H              1 S1                 0.0000
     29 ****        -0.5763   0.8494   2.2874 H              1 S1                 0.0000
     30 ****         0.3184   3.0817   1.7564 H              1 S1                 0.0000
     31 ****         0.5335   2.0669   0.3432 H              1 S1                 0.0000
     32 ****        -2.8865   3.1429  -1.5909 H              1 S1                 0.0000
     33 ****        -1.4832   2.1074  -1.7696 H              1 S1                 0.0000
     34 ****        -3.4715   0.8833  -0.7729 H              1 S1                 0.0000
     35 ****        -3.4735   1.9799   0.5711 H              1 S1                 0.0000
     36 ****         1.5767  -2.2504  -2.4795 LP             1 S1                 0.0000
     37 ****        -1.4158  -1.8057  -1.3892 LP             1 S1                 0.0000
     38 ****        -2.4595  -0.4366  -1.5805 LP             1 S1                 0.0000
@<TRIPOS>BOND
    1    1    2 1     
    2    1   18 1     
    3    1   19 1     
    4    1   20 1     
    5    2    3 1     
    6    2    9 1     
    7    2   21 1     
    8    3    4 1     
    9    3   22 1     
   10    3   23 1     
   11    4    8 1     
   12    4    5 1     
   13    5    6 2     
   14    5   24 1     
   15    6    7 1     
   16    6   25 1     
   17    7    8 2     
   18    7   26 1     
   19    9   10 am    
   20    9   27 1     
   21   10   11 2     
   22   10   12 am    
   23   12   17 1     
   24   12   13 1     
   25   13   14 1     
   26   13   28 1     
   27   13   29 1     
   28   14   15 1     
   29   14   30 1     
   30   14   31 1     
   31   15   16 1     
   32   16   17 1     
   33   16   32 1     
   34   16   33 1     
   35   17   34 1     
   36   17   35 1     
   37    8   36 1     
   38   11   37 1     
   39   11   38 1     
@<TRIPOS>SUBSTRUCTURE
      1 S1             1
@<TRIPOS>SET
LONE_PAIRS      STATIC     ATOMS    <user>   **** ""
3 36 37 38
DONOR_HYDROGENS      STATIC     ATOMS    <user>   **** ""
1 27
ATOM$BLUE        STATIC     ATOMS    COLORGROUP SYSTEM
3 36 37 38
ATOM$RED        STATIC     ATOMS    COLORGROUP SYSTEM
1 27
