AV-unprocessed.smi:2836|AV-procd|sdf|10919|dock3
  -GOLD-   2272015363D 1   1.00000     0.00000
 Structure written by MMmdl.
 30 31  0  0  0  0  0  0  0  0  1 V2000
  150.6641  135.8123  154.1291 N   0  0  0  0  0  0  0  0  0  0  0  0
  151.3394  136.5029  155.0522 C   0  0  0  0  0  0  0  0  0  0  0  0
  152.0434  135.9657  155.9042 O   0  0  0  0  0  0  0  0  0  0  0  0
  151.1434  137.9867  155.0312 C   0  0  0  0  0  0  0  0  0  0  0  0
  150.5568  138.7432  153.9830 C   0  0  0  0  0  0  0  0  0  0  0  0
  150.5095  140.0292  154.2987 N   0  0  0  0  0  0  0  0  0  0  0  0
  151.0405  140.1076  155.5457 N   0  0  0  0  0  0  0  0  0  0  0  0
  151.1234  141.3942  156.2119 C   0  0  0  0  0  0  0  0  0  0  0  0
  151.5693  141.2577  157.6747 C   0  0  0  0  0  0  0  0  0  0  0  0
  151.3430  142.4877  158.3499 O   0  0  0  0  0  0  0  0  0  0  0  0
  151.8458  142.6452  159.6237 C   0  0  0  0  0  0  0  0  0  0  0  0
  152.7004  141.7079  160.2579 C   0  0  0  0  0  0  0  0  0  0  0  0
  153.1760  141.9441  161.5623 C   0  0  0  0  0  0  0  0  0  0  0  0
  152.8053  143.1148  162.2483 C   0  0  0  0  0  0  0  0  0  0  0  0
  153.2641  143.3408  163.5020 F   0  0  0  0  0  0  0  0  0  0  0  0
  151.9570  144.0504  161.6286 C   0  0  0  0  0  0  0  0  0  0  0  0
  151.4802  143.8167  160.3239 C   0  0  0  0  0  0  0  0  0  0  0  0
  150.4371  144.9791  159.5856 Cl  0  0  0  0  0  0  0  0  0  0  0  0
  151.4316  138.8735  156.0268 C   0  0  0  0  0  0  0  0  0  0  0  0
  150.7506  134.8070  154.0945 H   0  0  0  0  0  0  0  0  0  0  0  0
  150.0672  136.2949  153.4735 H   0  0  0  0  0  0  0  0  0  0  0  0
  150.1755  138.4128  153.0279 H   0  0  0  0  0  0  0  0  0  0  0  0
  151.8237  142.0239  155.6622 H   0  0  0  0  0  0  0  0  0  0  0  0
  150.1501  141.8844  156.1582 H   0  0  0  0  0  0  0  0  0  0  0  0
  151.0073  140.4549  158.1550 H   0  0  0  0  0  0  0  0  0  0  0  0
  152.6279  140.9966  157.7080 H   0  0  0  0  0  0  0  0  0  0  0  0
  153.0088  140.7995  159.7637 H   0  0  0  0  0  0  0  0  0  0  0  0
  153.8278  141.2253  162.0366 H   0  0  0  0  0  0  0  0  0  0  0  0
  151.6719  144.9493  162.1553 H   0  0  0  0  0  0  0  0  0  0  0  0
  151.8647  138.7420  157.0075 H   0  0  0  0  0  0  0  0  0  0  0  0
  1  2  1  0  0  0  0
  1 20  1  0  0  0  0
  1 21  1  0  0  0  0
  2  3  2  0  0  0  0
  2  4  1  0  0  0  0
  4 19  2  0  0  0  0
  4  5  1  0  0  0  0
  5  6  2  0  0  0  0
  5 22  1  0  0  0  0
  6  7  1  0  0  0  0
  7  8  1  0  0  0  0
  7 19  1  0  0  0  0
  8  9  1  0  0  0  0
  8 23  1  0  0  0  0
  8 24  1  0  0  0  0
  9 10  1  0  0  0  0
  9 25  1  0  0  0  0
  9 26  1  0  0  0  0
 10 11  1  0  0  0  0
 11 17  1  0  0  0  0
 11 12  2  0  0  0  0
 12 13  1  0  0  0  0
 12 27  1  0  0  0  0
 13 14  2  0  0  0  0
 13 28  1  0  0  0  0
 14 15  1  0  0  0  0
 14 16  1  0  0  0  0
 16 17  2  0  0  0  0
 16 29  1  0  0  0  0
 17 18  1  0  0  0  0
 19 30  1  0  0  0  0
M  END
> <s_m_source_file>
AV-unprocessed.smi

> <i_m_source_file_index>
2836

> <i_lp_mmshare_version>
43012

> <i_f3d_flags>
0

> <s_epik_input>
W05IMl1DKD1PKWMxW2NIXW5uKFtjSF0xKVtDSDJdW0NIMl1PYzJbY0hdW2NIXWMoRilbY0hdYzJDbA==

> <s_epik_cmdline>
J2VwaWtfcHl0aG9uJywgJy1waCcsICc3LjAnLCAnLXRuJywgJzgnLCAnLW1hJywgJzIwMCcsICctbWV0YWxfYmluZGluZycsICctaW1hZScsICc8aW5maWxlLm1hZT4nLCAnLW9tYWUnLCAnPG91dGZpbGUubWFlPic=

> <r_lp_tautomer_probability>
1

> <r_epik_Ionization_Penalty>
2.53738e-06

> <r_epik_Ionization_Penalty_Charging>
0

> <r_epik_Ionization_Penalty_Neutral>
2.53738e-06

> <r_epik_State_Penalty>
-0

> <r_epik_Charging_Adjusted_Penalty>
0

> <i_epik_Tot_Q>
0

> <i_epik_Tot_abs_Q>
0

> <r_epik_Metal_State_Penalty>
-0

> <b_epik_Metal_Only>
0

> <s_lp_Force_Field>
OPLS_2005

> <r_lp_Energy>
11.0812

> <b_lp_Chiralities_Consistent>
1

> <s_lp_Variant>
AV-unprocessed.smi:2836-1

> <Gold.Version>
5.8.1

> <Gold.Id.Protein>
6NUR|6NUR_protein|mol2

> <Gold.PLP.Fitness>
60.3543

> <Gold.PLP.PLP>
-47.6470

> <Gold.PLP.part.hbond>
-4.0000

> <Gold.PLP.part.metal>
0.0000

> <Gold.PLP.part.buried>
-4.3939

> <Gold.PLP.part.nonpolar>
-37.9223

> <Gold.PLP.part.repulsive>
0.2487

> <Gold.PLP.ligand.clash>
0.0000

> <Gold.PLP.ligand.torsion>
0.2574

> <Gold.PLP.Chemscore.Hbond>
2.8480

> <Gold.PLP.Chemscore.CHOScore>
1.5241

> <Gold.PLP.Chemscore.Metal>
0.0000

> <Gold.Chemscore.Hbonds>
donor molecule, donor type, donor heavy atom, donor atom, acceptor molecule, acceptor atom, score
      L1  H     1    21       P1  7948  0.58
      P1  H  7989  7998       L1     6  1.00
      P1  H 10752 10765       L1     3  0.86
      L1  C     5    22       P1  7948  0.56
      L1  C     5    22       P1  7957  0.86

> <Gold.PLP.Chemscore.Internal.Correction>
0.1058

> <Gold.Rescore>
     Score         DG    S(hbond)    S(metal)    S(lipo)     H(rot)  DE(clash)    DE(int)     intcor
     18.49     -19.11       1.64        0.00     110.93       1.89       0.16       0.45       ----

> <Gold.Chemscore.Fitness>
18.4913

> <Gold.Chemscore.DG>
-19.1053

> <Gold.Chemscore.ZeroCoef>
-5.4800

> <Gold.Chemscore.Hbond>
1.6391

> <Gold.Chemscore.Metal>
0.0000

> <Gold.Chemscore.Lipo>
110.9257

> <Gold.Chemscore.Internal_Hbond>
0.0000

> <Gold.Chemscore.DEClash>
0.1601

> <Gold.Chemscore.DEInternal>
0.4539

> <Gold.Chemscore.Rot>
1.8857

> <Gold.Chemscore.Internal.Correction>
   9.000000E+99

> <Gold.Chemscore.Hbonds>
donor molecule, donor type, donor heavy atom, donor atom, acceptor molecule, acceptor atom, score
      L1  H     1    21       P1  7948  0.04
      P1  H  7989  7998       L1     6  0.20
      P1  H 10752 10765       L1     3  0.25

> <Gold.Chemscore.Hbond.Weighted>
-5.4745

> <Gold.Chemscore.Metal.Weighted>
-0.0000

> <Gold.Chemscore.Lipo.Weighted>
-12.9783

> <Gold.Chemscore.Internal_Hbond.Weighted>
0.0000

> <Gold.Chemscore.DEClash.Weighted>
0.1601

> <Gold.Chemscore.DEInternal.Weighted>
0.4539

> <Gold.Chemscore.Rot.Weighted>
4.8275

> <Gold.Chemscore.Internal.Correction.Weighted>
   9.000000E+99

> <Gold.Protein.RotatedTorsions>
[ 6907 6896 6895 6894 ] final -144.71 input  -60.11 | X-H torsion
[ 7974 7965 7964 7962 ] final   42.50 input  175.53 | X-H torsion
[ 8008 7997 7996 7995 ] final -145.73 input   59.86 | X-H torsion
[ 10167 10162 10161 10158 ] final  -42.42 input  -65.29 | X-H torsion
[ 10718 10713 10712 10709 ] final -172.24 input   66.30 | X-H torsion
[ 10763 10752 10751 10750 ] final -148.80 input  -60.55 | X-H torsion
[ 11005 11000 10999 10996 ] final  126.15 input  -57.11 | X-H torsion

> <Gold.Protein.ActiveResidues>
 VAL166  LYS551  ARG553  GLY616  TRP617  ASP618  TYR619  PRO620  LYS621  CYS622 
 ASP623  PHE694  ASN695  SER759  ASP760  ASP761  ALA762  ILE779  LEU786  VAL792 
 PHE793  MET794  SER795  GLU796  ALA797  LYS798  CYS799  TRP800  GLU811  SER814 

> <Gold.Protein.RotatedAtoms>
  151.1178  133.5126  159.2602 H   0  0  0  0  0  0  0  0  0  0  0  0  # atno 6907 bound_to 6896
  151.1895  135.0396  159.8836 H   0  0  0  0  0  0  0  0  0  0  0  0  # atno 6908 bound_to 6896
  152.5454  134.1020  159.8375 H   0  0  0  0  0  0  0  0  0  0  0  0  # atno 6909 bound_to 6896
  146.0735  139.5294  142.9582 H   0  0  0  0  0  0  0  0  0  0  0  0  # atno 7974 bound_to 7965
  155.5479  140.0614  157.2856 H   0  0  0  0  0  0  0  0  0  0  0  0  # atno 8008 bound_to 7997
  154.4430  140.1907  156.0701 H   0  0  0  0  0  0  0  0  0  0  0  0  # atno 8009 bound_to 7997
  156.0537  140.3281  155.7385 H   0  0  0  0  0  0  0  0  0  0  0  0  # atno 8010 bound_to 7997
  140.6970  143.3039  151.3206 H   0  0  0  0  0  0  0  0  0  0  0  0  # atno 10167 bound_to 10162
  156.7527  130.9384  151.3115 H   0  0  0  0  0  0  0  0  0  0  0  0  # atno 10718 bound_to 10713
  154.8213  135.3325  154.7031 H   0  0  0  0  0  0  0  0  0  0  0  0  # atno 10763 bound_to 10752
  153.7663  135.6929  153.4920 H   0  0  0  0  0  0  0  0  0  0  0  0  # atno 10764 bound_to 10752
  153.2075  135.4494  155.0289 H   0  0  0  0  0  0  0  0  0  0  0  0  # atno 10765 bound_to 10752
  139.9442  134.9632  156.8665 H   0  0  0  0  0  0  0  0  0  0  0  0  # atno 11005 bound_to 11000
  145.6348  141.0297  143.1844 LP  0  0  0  0  0  0  0  0  0  0  0  0  # atno 17320 bound_to 7965
  144.7247  139.7915  143.7369 LP  0  0  0  0  0  0  0  0  0  0  0  0  # atno 17321 bound_to 7965
  139.6437  144.0491  152.2574 LP  0  0  0  0  0  0  0  0  0  0  0  0  # atno 17342 bound_to 10162
  140.0005  144.6297  150.7734 LP  0  0  0  0  0  0  0  0  0  0  0  0  # atno 17343 bound_to 10162
  157.6770  130.9103  150.0174 LP  0  0  0  0  0  0  0  0  0  0  0  0  # atno 17370 bound_to 10713
  156.1390  130.3642  149.9611 LP  0  0  0  0  0  0  0  0  0  0  0  0  # atno 17371 bound_to 10713
  140.5876  134.0292  155.7487 LP  0  0  0  0  0  0  0  0  0  0  0  0  # atno 17394 bound_to 11000
  141.1087  133.9652  157.2950 LP  0  0  0  0  0  0  0  0  0  0  0  0  # atno 17395 bound_to 11000

$$$$
