AV-unprocessed.smi:464|AV-procd|sdf|2638|dock3
  -GOLD-   2262023 43D 1   1.00000     0.00000
 Structure written by MMmdl.
 24 25  0  0  0  0  0  0  0  0  2 V2000
  150.1932  140.5092  154.8802 O   0  0  0  0  0  0  0  0  0  0  0  0
  150.7407  141.0333  155.8476 C   0  0  0  0  0  0  0  0  0  0  0  0
  150.3741  142.2944  156.1640 N   0  0  0  0  0  0  0  0  0  0  0  0
  150.9403  142.9748  157.2437 C   0  0  0  0  0  0  0  0  0  0  0  0
  151.8815  142.3983  158.0198 C   0  0  0  0  0  0  0  0  0  0  0  0
  152.4650  143.0489  159.0967 N   0  0  0  0  0  0  0  0  0  0  0  0
  152.8651  142.3663  160.3191 C   0  0  0  0  0  0  0  0  0  0  0  0
  152.0753  142.9203  161.5182 C   0  0  0  0  0  0  0  0  0  0  0  0
  152.2515  144.3326  161.5946 O   0  0  0  0  0  0  0  0  0  0  0  0
  151.7775  144.9959  160.4257 C   0  0  0  0  0  0  0  0  0  0  0  0
  152.5596  144.4984  159.1969 C   0  0  0  0  0  0  0  0  0  0  0  0
  152.2897  141.0236  157.6900 C   0  0  0  0  0  0  0  0  0  0  0  0
  153.1425  140.4535  158.3709 O   0  0  0  0  0  0  0  0  0  0  0  0
  151.6919  140.4207  156.6174 N   0  5  0  0  0  0  0  0  0  0  0  0
  149.6750  142.7712  155.6133 H   0  0  0  0  0  0  0  0  0  0  0  0
  150.5614  143.9758  157.3864 H   0  0  0  0  0  0  0  0  0  0  0  0
  152.6998  141.2923  160.2242 H   0  0  0  0  0  0  0  0  0  0  0  0
  153.9352  142.5102  160.4722 H   0  0  0  0  0  0  0  0  0  0  0  0
  151.0147  142.6796  161.4324 H   0  0  0  0  0  0  0  0  0  0  0  0
  152.4299  142.4671  162.4440 H   0  0  0  0  0  0  0  0  0  0  0  0
  150.7073  144.8212  160.3041 H   0  0  0  0  0  0  0  0  0  0  0  0
  151.9123  146.0707  160.5478 H   0  0  0  0  0  0  0  0  0  0  0  0
  153.6097  144.7816  159.2767 H   0  0  0  0  0  0  0  0  0  0  0  0
  152.1726  144.9665  158.2908 H   0  0  0  0  0  0  0  0  0  0  0  0
  1  2  2  0  0  0  0
  2 14  1  0  0  0  0
  2  3  1  0  0  0  0
  3 15  1  0  0  0  0
  3  4  1  0  0  0  0
  4  5  2  0  0  0  0
  4 16  1  0  0  0  0
  5  6  1  0  0  0  0
  5 12  1  0  0  0  0
  6 11  1  0  0  0  0
  6  7  1  0  0  0  0
  7  8  1  0  0  0  0
  7 17  1  0  0  0  0
  7 18  1  0  0  0  0
  8  9  1  0  0  0  0
  8 19  1  0  0  0  0
  8 20  1  0  0  0  0
  9 10  1  0  0  0  0
 10 11  1  0  0  0  0
 10 21  1  0  0  0  0
 10 22  1  0  0  0  0
 11 23  1  0  0  0  0
 11 24  1  0  0  0  0
 12 13  2  0  0  0  0
 12 14  1  0  0  0  0
M  CHG  1  14  -1
M  END
> <s_m_source_file>
AV-unprocessed.smi

> <i_m_source_file_index>
464

> <i_lp_mmshare_version>
43012

> <i_f3d_flags>
0

> <s_epik_input>
Tz1jMVtuSF1bY0hdYyhjKD1PKVtuSF0xKU4yW0NIMl1bQ0gyXU9bQ0gyXVtDSDJdMg==

> <s_epik_cmdline>
J2VwaWtfcHl0aG9uJywgJy1waCcsICc3LjAnLCAnLXRuJywgJzgnLCAnLW1hJywgJzIwMCcsICctbWV0YWxfYmluZGluZycsICctaW1hZScsICc8aW5maWxlLm1hZT4nLCAnLW9tYWUnLCAnPG91dGZpbGUubWFlPic=

> <r_lp_tautomer_probability>
0.999801

> <r_epik_Ionization_Penalty>
3.03283

> <r_epik_Ionization_Penalty_Charging>
1.33068e-05

> <r_epik_Ionization_Penalty_Neutral>
3.03282

> <r_epik_State_Penalty>
3.03418

> <r_epik_Charging_Adjusted_Penalty>
3.03419

> <i_epik_Tot_Q>
-1

> <i_epik_Tot_abs_Q>
1

> <r_epik_Metal_State_Penalty>
0.478531

> <b_epik_Metal_Only>
1

> <s_lp_Force_Field>
OPLS_2005

> <r_lp_Energy>
27.0677

> <b_lp_Chiralities_Consistent>
1

> <s_lp_Variant>
AV-unprocessed.smi:464-3

> <Gold.Version>
5.8.1

> <Gold.Id.Protein>
6NUR|6NUR_protein|mol2

> <Gold.PLP.Fitness>
38.4133

> <Gold.PLP.PLP>
-29.5682

> <Gold.PLP.part.hbond>
-3.0000

> <Gold.PLP.part.metal>
0.0000

> <Gold.PLP.part.buried>
-1.3186

> <Gold.PLP.part.nonpolar>
-24.1096

> <Gold.PLP.part.repulsive>
0.3757

> <Gold.PLP.ligand.clash>
0.2103

> <Gold.PLP.ligand.torsion>
0.3797

> <Gold.PLP.Chemscore.Hbond>
2.2936

> <Gold.PLP.Chemscore.CHOScore>
0.7158

> <Gold.PLP.Chemscore.Metal>
0.0000

> <Gold.Chemscore.Hbonds>
donor molecule, donor type, donor heavy atom, donor atom, acceptor molecule, acceptor atom, score
      L1  H     3    15       P1  8028  0.56
      P1  H  7989  7998       L1     1  0.86
      P1  H  7997  8009       L1    13  0.82
      L1  C     4    16       P1  8028  0.72

> <Gold.PLP.Chemscore.Internal.Correction>
0.7863

> <Gold.Rescore>
     Score         DG    S(hbond)    S(metal)    S(lipo)     H(rot)  DE(clash)    DE(int)     intcor
     16.52     -19.14       1.67        0.00      69.10       0.00       0.76       1.85       ----

> <Gold.Chemscore.Fitness>
16.5239

> <Gold.Chemscore.DG>
-19.1392

> <Gold.Chemscore.ZeroCoef>
-5.4800

> <Gold.Chemscore.Hbond>
1.6689

> <Gold.Chemscore.Metal>
0.0000

> <Gold.Chemscore.Lipo>
69.1044

> <Gold.Chemscore.Internal_Hbond>
0.0000

> <Gold.Chemscore.DEClash>
0.7630

> <Gold.Chemscore.DEInternal>
1.8524

> <Gold.Chemscore.Rot>
0.0000

> <Gold.Chemscore.Internal.Correction>
   9.000000E+99

> <Gold.Chemscore.Hbonds>
donor molecule, donor type, donor heavy atom, donor atom, acceptor molecule, acceptor atom, score
      L1  H     3    15       P1  8028  0.55
      P1  H  7989  7998       L1     1  0.16
      P1  H  7997  8009       L1    13  0.35

> <Gold.Chemscore.Hbond.Weighted>
-5.5740

> <Gold.Chemscore.Metal.Weighted>
-0.0000

> <Gold.Chemscore.Lipo.Weighted>
-8.0852

> <Gold.Chemscore.Internal_Hbond.Weighted>
0.0000

> <Gold.Chemscore.DEClash.Weighted>
0.7630

> <Gold.Chemscore.DEInternal.Weighted>
1.8524

> <Gold.Chemscore.Rot.Weighted>
0.0000

> <Gold.Chemscore.Internal.Correction.Weighted>
   9.000000E+99

> <Gold.Protein.RotatedTorsions>
[ 6907 6896 6895 6894 ] final  -10.47 input  -60.11 | X-H torsion
[ 7974 7965 7964 7962 ] final  -93.33 input  175.53 | X-H torsion
[ 8008 7997 7996 7995 ] final  150.53 input   59.86 | X-H torsion
[ 10167 10162 10161 10158 ] final    3.24 input  -65.29 | X-H torsion
[ 10718 10713 10712 10709 ] final  172.34 input   66.30 | X-H torsion
[ 10763 10752 10751 10750 ] final   48.97 input  -60.55 | X-H torsion
[ 11005 11000 10999 10996 ] final  -21.37 input  -57.11 | X-H torsion

> <Gold.Protein.ActiveResidues>
 VAL166  LYS551  ARG553  GLY616  TRP617  ASP618  TYR619  PRO620  LYS621  CYS622 
 ASP623  PHE694  ASN695  SER759  ASP760  ASP761  ALA762  ILE779  LEU786  VAL792 
 PHE793  MET794  SER795  GLU796  ALA797  LYS798  CYS799  TRP800  GLU811  SER814 

> <Gold.Protein.RotatedAtoms>
  151.4015  135.0971  159.9556 H   0  0  0  0  0  0  0  0  0  0  0  0  # atno 6907 bound_to 6896
  152.5049  133.8884  159.7392 H   0  0  0  0  0  0  0  0  0  0  0  0  # atno 6908 bound_to 6896
  150.9359  133.6656  159.2829 H   0  0  0  0  0  0  0  0  0  0  0  0  # atno 6909 bound_to 6896
  145.3880  140.9525  143.2356 H   0  0  0  0  0  0  0  0  0  0  0  0  # atno 7974 bound_to 7965
  156.2712  140.2072  156.6032 H   0  0  0  0  0  0  0  0  0  0  0  0  # atno 8008 bound_to 7997
  154.6890  140.0532  157.0367 H   0  0  0  0  0  0  0  0  0  0  0  0  # atno 8009 bound_to 7997
  155.0893  140.3195  155.4581 H   0  0  0  0  0  0  0  0  0  0  0  0  # atno 8010 bound_to 7997
  140.6595  143.7340  150.7714 H   0  0  0  0  0  0  0  0  0  0  0  0  # atno 10167 bound_to 10162
  156.9804  131.0117  151.2883 H   0  0  0  0  0  0  0  0  0  0  0  0  # atno 10718 bound_to 10713
  152.9789  135.5927  154.4013 H   0  0  0  0  0  0  0  0  0  0  0  0  # atno 10763 bound_to 10752
  154.3658  135.2767  155.2296 H   0  0  0  0  0  0  0  0  0  0  0  0  # atno 10764 bound_to 10752
  154.4273  135.6044  153.6102 H   0  0  0  0  0  0  0  0  0  0  0  0  # atno 10765 bound_to 10752
  140.8554  133.7826  156.0014 H   0  0  0  0  0  0  0  0  0  0  0  0  # atno 11005 bound_to 11000
  144.8460  139.5396  143.6878 LP  0  0  0  0  0  0  0  0  0  0  0  0  # atno 17320 bound_to 7965
  146.2811  139.6880  142.9228 LP  0  0  0  0  0  0  0  0  0  0  0  0  # atno 17321 bound_to 7965
  140.1006  143.4791  152.2427 LP  0  0  0  0  0  0  0  0  0  0  0  0  # atno 17342 bound_to 10162
  139.5826  144.7517  151.3602 LP  0  0  0  0  0  0  0  0  0  0  0  0  # atno 17343 bound_to 10162
  157.5530  130.8195  149.8169 LP  0  0  0  0  0  0  0  0  0  0  0  0  # atno 17370 bound_to 10713
  156.0247  130.3783  150.1859 LP  0  0  0  0  0  0  0  0  0  0  0  0  # atno 17371 bound_to 10713
  140.8743  134.2689  157.5176 LP  0  0  0  0  0  0  0  0  0  0  0  0  # atno 17394 bound_to 11000
  139.8705  134.9583  156.4295 LP  0  0  0  0  0  0  0  0  0  0  0  0  # atno 17395 bound_to 11000

$$$$
