#       Name:                AV-unprocessed.smi:2892
#       Creating user name   scv26
#       Creation time:       Fri Mar 27 15:58:50 2020


#       File generated by GOLD software.
#

@<TRIPOS>MOLECULE
AV-unprocessed.smi:2892
    49    49     1
SMALL
NO_CHARGES


@<TRIPOS>ATOM
      1 ****        -2.9196  -2.7413   3.8132 C.3            1 S1                 0.0000
      2 ****        -2.7067  -2.0125   2.4778 C.3            1 S1                 0.0000
      3 ****        -3.1352  -0.5220   2.4860 C.3            1 S1                 0.0000
      4 ****        -4.6725  -0.4157   2.6221 C.3            1 S1                 0.0000
      5 ****        -2.5974   0.2336   1.2302 C.3            1 S1                 0.0000
      6 ****        -1.1338   0.1816   1.2219 N.am           1 S1                 0.0000
      7 ****        -0.3511   0.2392   0.1327 C.2            1 S1                 0.0000
      8 ****        -0.7954   0.3185  -1.0138 O.2            1 S1                 0.0000
      9 ****         1.1587   0.2028   0.4004 C.3            1 S1                 0.0000
     10 ****         1.9485  -0.1085  -0.8451 C.2            1 S1                 0.0000
     11 ****         2.1448  -1.3733  -1.4702 C.2            1 S1                 0.0000
     12 ****         2.9232  -1.0880  -2.5548 C.2            1 S1                 0.0000
     13 ****         3.1647   0.2695  -2.5437 N.pl3          1 S1                 0.0000
     14 ****         3.9363   1.0548  -3.4956 C.3            1 S1                 0.0000
     15 ****         5.1388   1.7291  -2.8155 C.3            1 S1                 0.0000
     16 ****         3.0450   2.0729  -4.2249 C.3            1 S1                 0.0000
     17 ****         2.5702   0.8690  -1.4884 N.2            1 S1                 0.0000
     18 ****        -3.0166   1.7160   1.2618 C.2            1 S1                 0.0000
     19 ****        -3.7506   2.1178   0.3327 O.co2          1 S1                 0.0000
     20 ****        -2.6029   2.4182   2.2122 O.co2          1 S1                -1.0000
     21 ****        -2.5111  -3.7509   3.7664 H              1 S1                 0.0000
     22 ****        -3.9751  -2.8329   4.0670 H              1 S1                 0.0000
     23 ****        -2.4186  -2.2208   4.6299 H              1 S1                 0.0000
     24 ****        -1.6472  -2.1007   2.2395 H              1 S1                 0.0000
     25 ****        -3.2317  -2.5433   1.6825 H              1 S1                 0.0000
     26 ****        -2.6943  -0.0588   3.3708 H              1 S1                 0.0000
     27 ****        -5.1739  -0.8542   1.7589 H              1 S1                 0.0000
     28 ****        -5.0108   0.6164   2.7114 H              1 S1                 0.0000
     29 ****        -5.0370  -0.9274   3.5117 H              1 S1                 0.0000
     30 ****        -2.9959  -0.2370   0.3289 H              1 S1                 0.0000
     31 ****        -0.6838   0.1352   2.1241 H              1 S1                 0.0000
     32 ****         1.4591   1.1644   0.8195 H              1 S1                 0.0000
     33 ****         1.3664  -0.5466   1.1651 H              1 S1                 0.0000
     34 ****         1.7643  -2.3386  -1.1715 H              1 S1                 0.0000
     35 ****         3.3194  -1.7322  -3.3258 H              1 S1                 0.0000
     36 ****         4.3246   0.3607  -4.2423 H              1 S1                 0.0000
     37 ****         5.7579   2.2516  -3.5451 H              1 S1                 0.0000
     38 ****         5.7694   0.9936  -2.3152 H              1 S1                 0.0000
     39 ****         4.8210   2.4583  -2.0693 H              1 S1                 0.0000
     40 ****         3.6075   2.6077  -4.9904 H              1 S1                 0.0000
     41 ****         2.6367   2.8138  -3.5366 H              1 S1                 0.0000
     42 ****         2.2066   1.5788  -4.7167 H              1 S1                 0.0000
     43 ****        -1.7834   0.3428  -1.1667 LP             1 S1                 0.0000
     44 ****        -0.1681   0.3586  -1.7915 LP             1 S1                 0.0000
     45 ****         2.5942   1.8389  -1.2459 LP             1 S1                 0.0000
     46 ****        -4.0534   3.0706   0.3110 LP             1 S1                 0.0000
     47 ****        -4.0349   1.4864  -0.3888 LP             1 S1                 0.0000
     48 ****        -2.8580   3.3835   2.2687 LP             1 S1                 0.0000
     49 ****        -2.0174   2.0138   2.9147 LP             1 S1                 0.0000
@<TRIPOS>BOND
    1    1    2 1     
    2    1   21 1     
    3    1   22 1     
    4    1   23 1     
    5    2    3 1     
    6    2   24 1     
    7    2   25 1     
    8    3    4 1     
    9    3    5 1     
   10    3   26 1     
   11    4   27 1     
   12    4   28 1     
   13    4   29 1     
   14    5    6 1     
   15    5   18 1     
   16    5   30 1     
   17    6    7 am    
   18    6   31 1     
   19    7    8 2     
   20    7    9 1     
   21    9   10 1     
   22    9   32 1     
   23    9   33 1     
   24   10   17 2     
   25   10   11 1     
   26   11   12 2     
   27   11   34 1     
   28   12   13 1     
   29   12   35 1     
   30   13   14 1     
   31   13   17 1     
   32   14   15 1     
   33   14   16 1     
   34   14   36 1     
   35   15   37 1     
   36   15   38 1     
   37   15   39 1     
   38   16   40 1     
   39   16   41 1     
   40   16   42 1     
   41   18   19 ar    
   42   18   20 ar    
   43    8   43 1     
   44    8   44 1     
   45   17   45 1     
   46   19   46 1     
   47   19   47 1     
   48   20   48 1     
   49   20   49 1     
@<TRIPOS>SUBSTRUCTURE
      1 S1             1
@<TRIPOS>SET
LONE_PAIRS      STATIC     ATOMS    <user>   **** ""
7 43 44 45 46 47 48 49
DONOR_HYDROGENS      STATIC     ATOMS    <user>   **** ""
1 31
ATOM$BLUE        STATIC     ATOMS    COLORGROUP SYSTEM
7 43 44 45 46 47 48 49
ATOM$RED        STATIC     ATOMS    COLORGROUP SYSTEM
1 31
