AV-unprocessed.smi:1225|AV-procd|sdf|5142|dock1
  -GOLD-   22720 4213D 1   1.00000     0.00000
 Structure written by MMmdl.
 49 51  0  0  0  0  0  0  0  0  2 V2000
  144.4913  133.6719  152.9228 C   0  0  0  0  0  0  0  0  0  0  0  0
  144.7634  135.1297  152.7730 C   0  0  0  0  0  0  0  0  0  0  0  0
  143.8062  136.0512  152.6463 N   0  0  0  0  0  0  0  0  0  0  0  0
  144.3215  137.3424  152.5176 C   0  0  0  0  0  0  0  0  0  0  0  0
  145.6929  137.3993  152.5586 C   0  0  0  0  0  0  0  0  0  0  0  0
  146.5530  138.6167  152.4519 C   0  0  0  0  0  0  0  0  0  0  0  0
  146.3094  139.5738  153.5616 N   0  3  1  0  0  0  0  0  0  0  0  0
  146.0945  138.8945  154.8609 C   0  0  0  0  0  0  0  0  0  0  0  0
  147.3416  140.6373  153.6533 C   0  0  0  0  0  0  0  0  0  0  0  0
  148.5828  140.1800  154.4528 C   0  0  1  0  0  0  0  0  0  0  0  0
  149.2209  139.1341  153.7483 O   0  0  0  0  0  0  0  0  0  0  0  0
  149.6207  141.2968  154.6771 C   0  0  0  0  0  0  0  0  0  0  0  0
  150.6301  140.9310  155.6536 N   0  0  0  0  0  0  0  0  0  0  0  0
  151.4698  139.8795  155.5944 C   0  0  0  0  0  0  0  0  0  0  0  0
  152.3182  139.7206  156.6057 N   0  0  0  0  0  0  0  0  0  0  0  0
  151.9980  140.7996  157.4117 C   0  0  0  0  0  0  0  0  0  0  0  0
  152.5363  141.2103  158.6507 C   0  0  0  0  0  0  0  0  0  0  0  0
  152.0476  142.3622  159.3072 C   0  0  0  0  0  0  0  0  0  0  0  0
  152.6572  142.7683  160.6375 C   0  0  0  0  0  0  0  0  0  0  0  0
  151.0029  143.1232  158.7238 C   0  0  0  0  0  0  0  0  0  0  0  0
  150.4644  144.3663  159.4097 C   0  0  0  0  0  0  0  0  0  0  0  0
  150.4519  142.7256  157.4878 C   0  0  0  0  0  0  0  0  0  0  0  0
  150.9475  141.5780  156.8435 C   0  0  0  0  0  0  0  0  0  0  0  0
  146.3864  135.8083  152.7425 S   0  0  0  0  0  0  0  0  0  0  0  0
  143.4260  133.4921  153.0722 H   0  0  0  0  0  0  0  0  0  0  0  0
  145.0348  133.2770  153.7812 H   0  0  0  0  0  0  0  0  0  0  0  0
  144.8142  133.1395  152.0282 H   0  0  0  0  0  0  0  0  0  0  0  0
  143.6362  138.1696  152.4053 H   0  0  0  0  0  0  0  0  0  0  0  0
  147.6082  138.3403  152.4309 H   0  0  0  0  0  0  0  0  0  0  0  0
  146.3520  139.0900  151.4916 H   0  0  0  0  0  0  0  0  0  0  0  0
  146.9920  138.3600  155.1746 H   0  0  0  0  0  0  0  0  0  0  0  0
  145.2737  138.1798  154.8030 H   0  0  0  0  0  0  0  0  0  0  0  0
  145.8377  139.6163  155.6368 H   0  0  0  0  0  0  0  0  0  0  0  0
  147.6666  140.9322  152.6541 H   0  0  0  0  0  0  0  0  0  0  0  0
  146.8869  141.5243  154.0965 H   0  0  0  0  0  0  0  0  0  0  0  0
  148.2851  139.7893  155.4254 H   0  0  0  0  0  0  0  0  0  0  0  0
  149.2946  139.3807  152.8385 H   0  0  0  0  0  0  0  0  0  0  0  0
  150.1257  141.5380  153.7404 H   0  0  0  0  0  0  0  0  0  0  0  0
  149.1306  142.2125  155.0100 H   0  0  0  0  0  0  0  0  0  0  0  0
  151.4536  139.1886  154.7638 H   0  0  0  0  0  0  0  0  0  0  0  0
  153.3330  140.6313  159.0944 H   0  0  0  0  0  0  0  0  0  0  0  0
  153.1079  143.7583  160.5650 H   0  0  0  0  0  0  0  0  0  0  0  0
  153.4337  142.0696  160.9500 H   0  0  0  0  0  0  0  0  0  0  0  0
  151.8951  142.7903  161.4170 H   0  0  0  0  0  0  0  0  0  0  0  0
  149.6808  144.8402  158.8181 H   0  0  0  0  0  0  0  0  0  0  0  0
  151.2599  145.0972  159.5561 H   0  0  0  0  0  0  0  0  0  0  0  0
  150.0432  144.1134  160.3827 H   0  0  0  0  0  0  0  0  0  0  0  0
  149.6557  143.2972  157.0345 H   0  0  0  0  0  0  0  0  0  0  0  0
  145.4455  140.0522  153.3480 H   0  0  0  0  0  0  0  0  0  0  0  0
  1  2  1  0  0  0  0
  1 25  1  0  0  0  0
  1 26  1  0  0  0  0
  1 27  1  0  0  0  0
  2 24  1  0  0  0  0
  2  3  2  0  0  0  0
  3  4  1  0  0  0  0
  4  5  2  0  0  0  0
  4 28  1  0  0  0  0
  5  6  1  0  0  0  0
  5 24  1  0  0  0  0
  6  7  1  0  0  0  0
  6 29  1  0  0  0  0
  6 30  1  0  0  0  0
  7  8  1  0  0  0  0
  7  9  1  0  0  0  0
  7 49  1  0  0  0  0
  8 31  1  0  0  0  0
  8 32  1  0  0  0  0
  8 33  1  0  0  0  0
  9 10  1  0  0  0  0
  9 34  1  0  0  0  0
  9 35  1  0  0  0  0
 10 11  1  0  0  0  0
 10 12  1  0  0  0  0
 10 36  1  0  0  0  0
 11 37  1  0  0  0  0
 12 13  1  0  0  0  0
 12 38  1  0  0  0  0
 12 39  1  0  0  0  0
 13 23  1  0  0  0  0
 13 14  1  0  0  0  0
 14 15  2  0  0  0  0
 14 40  1  0  0  0  0
 15 16  1  0  0  0  0
 16 23  2  0  0  0  0
 16 17  1  0  0  0  0
 17 18  2  0  0  0  0
 17 41  1  0  0  0  0
 18 19  1  0  0  0  0
 18 20  1  0  0  0  0
 19 42  1  0  0  0  0
 19 43  1  0  0  0  0
 19 44  1  0  0  0  0
 20 21  1  0  0  0  0
 20 22  2  0  0  0  0
 21 45  1  0  0  0  0
 21 46  1  0  0  0  0
 21 47  1  0  0  0  0
 22 23  1  0  0  0  0
 22 48  1  0  0  0  0
M  CHG  1   7   1
M  END
> <s_m_source_file>
AV-unprocessed.smi

> <i_m_source_file_index>
1225

> <i_lp_mmshare_version>
43012

> <i_f3d_flags>
0

> <s_epik_input>
W0NIM11jMW5bY0hdYyhzMSlbQ0gyXU4oW0NIM10pW0NIMl1bQ0BIXShbT0hdKVtDSDJdbihbY0hdbjIpYyhjMjMpW2NIXWMoW0NIM10pYyhbY0hdMylbQ0gzXQ==

> <s_epik_cmdline>
J2VwaWtfcHl0aG9uJywgJy1waCcsICc3LjAnLCAnLXRuJywgJzgnLCAnLW1hJywgJzIwMCcsICctbWV0YWxfYmluZGluZycsICctaW1hZScsICc8aW5maWxlLm1hZT4nLCAnLW9tYWUnLCAnPG91dGZpbGUubWFlPic=

> <r_epik_Ionization_Penalty>
1.62543

> <r_epik_Ionization_Penalty_Charging>
1.53932

> <r_epik_Ionization_Penalty_Neutral>
0.0861152

> <r_epik_State_Penalty>
1.73127

> <r_epik_Charging_Adjusted_Penalty>
3.27059

> <i_epik_Tot_Q>
1

> <i_epik_Tot_abs_Q>
1

> <r_epik_Metal_State_Penalty>
1.71387

> <b_epik_Metal_Only>
0

> <s_lp_Force_Field>
OPLS_2005

> <r_lp_Energy>
12.5973

> <b_lp_Chiralities_Consistent>
1

> <s_lp_Variant>
AV-unprocessed.smi:1225-7

> <Gold.Version>
5.8.1

> <Gold.Id.Protein>
6NUR|6NUR_protein|mol2

> <Gold.PLP.Fitness>
55.3338

> <Gold.PLP.PLP>
-39.1627

> <Gold.PLP.part.hbond>
-3.0000

> <Gold.PLP.part.metal>
0.0000

> <Gold.PLP.part.buried>
3.8192

> <Gold.PLP.part.nonpolar>
-39.0825

> <Gold.PLP.part.repulsive>
0.1258

> <Gold.PLP.ligand.clash>
0.0000

> <Gold.PLP.ligand.torsion>
0.4201

> <Gold.PLP.Chemscore.Hbond>
3.9913

> <Gold.PLP.Chemscore.CHOScore>
1.4200

> <Gold.PLP.Chemscore.Metal>
0.0000

> <Gold.Chemscore.Hbonds>
donor molecule, donor type, donor heavy atom, donor atom, acceptor molecule, acceptor atom, score
      L1  H     7    49       P1 10175  2.00
      L1  H    11    37       P1  7957  1.00
      P1  H  7997  8010       L1    15  0.80
      L1  C     4    28       P1 10171  0.32
      L1  C     4    28       P1 10175  1.00

> <Gold.PLP.Chemscore.Internal.Correction>
0.7776

> <Gold.Rescore>
     Score         DG    S(hbond)    S(metal)    S(lipo)     H(rot)  DE(clash)    DE(int)     intcor
     16.41     -19.61       1.94        0.00     117.35       2.37       1.50       1.70       ----

> <Gold.Chemscore.Fitness>
16.4108

> <Gold.Chemscore.DG>
-19.6059

> <Gold.Chemscore.ZeroCoef>
-5.4800

> <Gold.Chemscore.Hbond>
1.9387

> <Gold.Chemscore.Metal>
0.0000

> <Gold.Chemscore.Lipo>
117.3545

> <Gold.Chemscore.Internal_Hbond>
0.0000

> <Gold.Chemscore.DEClash>
1.4983

> <Gold.Chemscore.DEInternal>
1.6967

> <Gold.Chemscore.Rot>
2.3750

> <Gold.Chemscore.Internal.Correction>
   9.000000E+99

> <Gold.Chemscore.Hbonds>
donor molecule, donor type, donor heavy atom, donor atom, acceptor molecule, acceptor atom, score
      L1  H     7    49       P1 10175  0.95
      L1  H    11    37       P1  7957  1.00
      P1  H  7997  8010       L1    15  0.17

> <Gold.Chemscore.Hbond.Weighted>
-6.4754

> <Gold.Chemscore.Metal.Weighted>
-0.0000

> <Gold.Chemscore.Lipo.Weighted>
-13.7305

> <Gold.Chemscore.Internal_Hbond.Weighted>
0.0000

> <Gold.Chemscore.DEClash.Weighted>
1.4983

> <Gold.Chemscore.DEInternal.Weighted>
1.6967

> <Gold.Chemscore.Rot.Weighted>
6.0800

> <Gold.Chemscore.Internal.Correction.Weighted>
   9.000000E+99

> <Gold.Protein.RotatedTorsions>
[ 6907 6896 6895 6894 ] final  110.40 input  -60.11 | X-H torsion
[ 7974 7965 7964 7962 ] final  -12.35 input  175.53 | X-H torsion
[ 8008 7997 7996 7995 ] final   82.60 input   59.86 | X-H torsion
[ 10167 10162 10161 10158 ] final   43.40 input  -65.29 | X-H torsion
[ 10718 10713 10712 10709 ] final   89.87 input   66.30 | X-H torsion
[ 10763 10752 10751 10750 ] final -103.69 input  -60.55 | X-H torsion
[ 11005 11000 10999 10996 ] final -100.99 input  -57.11 | X-H torsion

> <Gold.Protein.ActiveResidues>
 VAL166  LYS551  ARG553  GLY616  TRP617  ASP618  TYR619  PRO620  LYS621  CYS622 
 ASP623  PHE694  ASN695  SER759  ASP760  ASP761  ALA762  ILE779  LEU786  VAL792 
 PHE793  MET794  SER795  GLU796  ALA797  LYS798  CYS799  TRP800  GLU811  SER814 

> <Gold.Protein.RotatedAtoms>
  152.5021  133.8805  159.7343 H   0  0  0  0  0  0  0  0  0  0  0  0  # atno 6907 bound_to 6896
  150.9269  133.6804  159.2826 H   0  0  0  0  0  0  0  0  0  0  0  0  # atno 6908 bound_to 6896
  151.4162  135.0996  159.9653 H   0  0  0  0  0  0  0  0  0  0  0  0  # atno 6909 bound_to 6896
  146.2155  140.3044  142.8377 H   0  0  0  0  0  0  0  0  0  0  0  0  # atno 7974 bound_to 7965
  155.9128  140.3426  155.6112 H   0  0  0  0  0  0  0  0  0  0  0  0  # atno 8008 bound_to 7997
  155.7367  140.0802  157.2283 H   0  0  0  0  0  0  0  0  0  0  0  0  # atno 8009 bound_to 7997
  154.4058  140.1578  156.2557 H   0  0  0  0  0  0  0  0  0  0  0  0  # atno 8010 bound_to 7997
  140.3447  144.2425  150.6151 H   0  0  0  0  0  0  0  0  0  0  0  0  # atno 10167 bound_to 10162
  157.6957  131.0349  150.3491 H   0  0  0  0  0  0  0  0  0  0  0  0  # atno 10718 bound_to 10713
  154.7826  135.4814  153.9876 H   0  0  0  0  0  0  0  0  0  0  0  0  # atno 10763 bound_to 10752
  153.1514  135.6792  153.8883 H   0  0  0  0  0  0  0  0  0  0  0  0  # atno 10764 bound_to 10752
  153.8526  135.3165  155.3411 H   0  0  0  0  0  0  0  0  0  0  0  0  # atno 10765 bound_to 10752
  141.1249  133.8442  157.1174 H   0  0  0  0  0  0  0  0  0  0  0  0  # atno 11005 bound_to 11000
  144.9034  140.7670  143.5853 LP  0  0  0  0  0  0  0  0  0  0  0  0  # atno 17320 bound_to 7965
  145.2971  139.1863  143.4709 LP  0  0  0  0  0  0  0  0  0  0  0  0  # atno 17321 bound_to 7965
  140.5275  143.2251  151.8291 LP  0  0  0  0  0  0  0  0  0  0  0  0  # atno 17342 bound_to 10162
  139.4835  144.4761  151.9365 LP  0  0  0  0  0  0  0  0  0  0  0  0  # atno 17343 bound_to 10162
  156.3942  130.3903  149.7007 LP  0  0  0  0  0  0  0  0  0  0  0  0  # atno 17370 bound_to 10713
  156.4347  130.7832  151.2852 LP  0  0  0  0  0  0  0  0  0  0  0  0  # atno 17371 bound_to 10713
  140.0238  134.9933  157.0645 LP  0  0  0  0  0  0  0  0  0  0  0  0  # atno 17394 bound_to 11000
  140.4396  134.1695  155.7173 LP  0  0  0  0  0  0  0  0  0  0  0  0  # atno 17395 bound_to 11000

$$$$
