AV-unprocessed.smi:2922|AV-procd|sdf|11200|dock7
  -GOLD-   2272016 93D 1   1.00000     0.00000
 Structure written by MMmdl.
 30 31  0  0  0  0  0  0  0  0  1 V2000
  148.0358  134.2269  153.3146 N   0  0  0  0  0  0  0  0  0  0  0  0
  148.0442  133.6476  154.5186 C   0  0  0  0  0  0  0  0  0  0  0  0
  147.3958  132.6293  154.7520 O   0  0  0  0  0  0  0  0  0  0  0  0
  148.9190  134.2846  155.6093 C   0  0  2  0  0  0  0  0  0  0  0  0
  148.1304  134.9590  156.7483 C   0  0  0  0  0  0  0  0  0  0  0  0
  148.5886  136.4056  156.7041 C   0  0  0  0  0  0  0  0  0  0  0  0
  149.9581  136.3027  156.0390 C   0  0  2  0  0  0  0  0  0  0  0  0
  150.4505  137.6036  155.3916 C   0  0  0  0  0  0  0  0  0  0  0  0
  149.5835  138.0244  154.3014 N   0  0  0  0  0  0  0  0  0  0  0  0
  148.8954  139.2224  154.2755 C   0  0  0  0  0  0  0  0  0  0  0  0
  149.2879  140.1969  155.1059 N   0  0  0  0  0  0  0  0  0  0  0  0
  148.5976  141.3575  155.0613 C   0  0  0  0  0  0  0  0  0  0  0  0
  147.5117  141.5354  154.1810 C   0  0  0  0  0  0  0  0  0  0  0  0
  146.6247  143.0138  154.1199 Cl  0  0  0  0  0  0  0  0  0  0  0  0
  147.1879  140.4420  153.3529 C   0  0  0  0  0  0  0  0  0  0  0  0
  147.8849  139.2851  153.4038 N   0  0  0  0  0  0  0  0  0  0  0  0
  149.7258  135.3186  155.0454 O   0  0  0  0  0  0  0  0  0  0  0  0
  147.4706  133.8397  152.5731 H   0  0  0  0  0  0  0  0  0  0  0  0
  148.5939  135.0532  153.1543 H   0  0  0  0  0  0  0  0  0  0  0  0
  149.5771  133.5186  156.0221 H   0  0  0  0  0  0  0  0  0  0  0  0
  147.0465  134.8877  156.6476 H   0  0  0  0  0  0  0  0  0  0  0  0
  148.4002  134.5049  157.7028 H   0  0  0  0  0  0  0  0  0  0  0  0
  147.9089  136.9877  156.0800 H   0  0  0  0  0  0  0  0  0  0  0  0
  148.6268  136.8705  157.6896 H   0  0  0  0  0  0  0  0  0  0  0  0
  150.6977  135.9185  156.7445 H   0  0  0  0  0  0  0  0  0  0  0  0
  150.4757  138.3971  156.1392 H   0  0  0  0  0  0  0  0  0  0  0  0
  151.4694  137.4796  155.0227 H   0  0  0  0  0  0  0  0  0  0  0  0
  149.4556  137.3983  153.5198 H   0  0  0  0  0  0  0  0  0  0  0  0
  148.9133  142.1440  155.7307 H   0  0  0  0  0  0  0  0  0  0  0  0
  146.3701  140.4934  152.6494 H   0  0  0  0  0  0  0  0  0  0  0  0
  1  2  1  0  0  0  0
  1 18  1  0  0  0  0
  1 19  1  0  0  0  0
  2  3  2  0  0  0  0
  2  4  1  0  0  0  0
  4 17  1  0  0  0  0
  4  5  1  0  0  0  0
  4 20  1  0  0  0  0
  5  6  1  0  0  0  0
  5 21  1  0  0  0  0
  5 22  1  0  0  0  0
  6  7  1  0  0  0  0
  6 23  1  0  0  0  0
  6 24  1  0  0  0  0
  7  8  1  0  0  0  0
  7 17  1  0  0  0  0
  7 25  1  0  0  0  0
  8  9  1  0  0  0  0
  8 26  1  0  0  0  0
  8 27  1  0  0  0  0
  9 10  1  0  0  0  0
  9 28  1  0  0  0  0
 10 16  1  0  0  0  0
 10 11  2  0  0  0  0
 11 12  1  0  0  0  0
 12 13  2  0  0  0  0
 12 29  1  0  0  0  0
 13 14  1  0  0  0  0
 13 15  1  0  0  0  0
 15 16  2  0  0  0  0
 15 30  1  0  0  0  0
M  END
> <s_m_source_file>
AV-unprocessed.smi

> <i_m_source_file_index>
2922

> <i_lp_mmshare_version>
43012

> <i_f3d_flags>
0

> <s_epik_input>
W05IMl1DKD1PKVtDQEBIXTFbQ0gyXVtDSDJdW0NASF0oTzEpW0NIMl1bTkhdYzJuW2NIXWMoQ2wpW2NIXW4y

> <s_epik_cmdline>
J2VwaWtfcHl0aG9uJywgJy1waCcsICc3LjAnLCAnLXRuJywgJzgnLCAnLW1hJywgJzIwMCcsICctbWV0YWxfYmluZGluZycsICctaW1hZScsICc8aW5maWxlLm1hZT4nLCAnLW9tYWUnLCAnPG91dGZpbGUubWFlPic=

> <r_lp_tautomer_probability>
1

> <r_epik_Ionization_Penalty>
6.13883e-06

> <r_epik_Ionization_Penalty_Charging>
0

> <r_epik_Ionization_Penalty_Neutral>
6.13883e-06

> <r_epik_State_Penalty>
-0

> <r_epik_Charging_Adjusted_Penalty>
0

> <i_epik_Tot_Q>
0

> <i_epik_Tot_abs_Q>
0

> <r_epik_Metal_State_Penalty>
-0

> <b_epik_Metal_Only>
0

> <s_lp_Force_Field>
OPLS_2005

> <r_lp_Energy>
9.86342

> <b_lp_Chiralities_Consistent>
1

> <s_lp_Variant>
AV-unprocessed.smi:2922-3

> <Gold.Version>
5.8.1

> <Gold.Id.Protein>
6NUR|6NUR_protein|mol2

> <Gold.PLP.Fitness>
42.0300

> <Gold.PLP.PLP>
-27.9246

> <Gold.PLP.part.hbond>
-4.8872

> <Gold.PLP.part.metal>
0.0000

> <Gold.PLP.part.buried>
-1.7572

> <Gold.PLP.part.nonpolar>
-22.8830

> <Gold.PLP.part.repulsive>
1.5171

> <Gold.PLP.ligand.clash>
0.0000

> <Gold.PLP.ligand.torsion>
0.2562

> <Gold.PLP.Chemscore.Hbond>
2.8665

> <Gold.PLP.Chemscore.CHOScore>
2.0000

> <Gold.PLP.Chemscore.Metal>
0.0000

> <Gold.Chemscore.Hbonds>
donor molecule, donor type, donor heavy atom, donor atom, acceptor molecule, acceptor atom, score
      L1  H     1    19       P1  7948  0.78
      L1  H     9    28       P1  7948  0.93
      L1  C    12    29       P1  8028  0.90
      L1  C    15    30       P1 10175  0.62

> <Gold.PLP.Chemscore.Internal.Correction>
0.0182

> <Gold.Rescore>
     Score         DG    S(hbond)    S(metal)    S(lipo)     H(rot)  DE(clash)    DE(int)     intcor
     11.36     -11.67       1.61        0.00      48.76       1.91       0.16       0.15       ----

> <Gold.Chemscore.Fitness>
11.3648

> <Gold.Chemscore.DG>
-11.6706

> <Gold.Chemscore.ZeroCoef>
-5.4800

> <Gold.Chemscore.Hbond>
1.6125

> <Gold.Chemscore.Metal>
0.0000

> <Gold.Chemscore.Lipo>
48.7609

> <Gold.Chemscore.Internal_Hbond>
0.0000

> <Gold.Chemscore.DEClash>
0.1576

> <Gold.Chemscore.DEInternal>
0.1482

> <Gold.Chemscore.Rot>
1.9142

> <Gold.Chemscore.Internal.Correction>
   9.000000E+99

> <Gold.Chemscore.Hbonds>
donor molecule, donor type, donor heavy atom, donor atom, acceptor molecule, acceptor atom, score
      L1  H     1    19       P1  7948  0.56
      L1  H     9    28       P1  7948  0.84

> <Gold.Chemscore.Hbond.Weighted>
-5.3859

> <Gold.Chemscore.Metal.Weighted>
-0.0000

> <Gold.Chemscore.Lipo.Weighted>
-5.7050

> <Gold.Chemscore.Internal_Hbond.Weighted>
0.0000

> <Gold.Chemscore.DEClash.Weighted>
0.1576

> <Gold.Chemscore.DEInternal.Weighted>
0.1482

> <Gold.Chemscore.Rot.Weighted>
4.9002

> <Gold.Chemscore.Internal.Correction.Weighted>
   9.000000E+99

> <Gold.Protein.RotatedTorsions>
[ 6907 6896 6895 6894 ] final -149.88 input  -60.11 | X-H torsion
[ 7974 7965 7964 7962 ] final -167.22 input  175.53 | X-H torsion
[ 8008 7997 7996 7995 ] final -134.71 input   59.86 | X-H torsion
[ 10167 10162 10161 10158 ] final   77.97 input  -65.29 | X-H torsion
[ 10718 10713 10712 10709 ] final  -85.51 input   66.30 | X-H torsion
[ 10763 10752 10751 10750 ] final   38.08 input  -60.55 | X-H torsion
[ 11005 11000 10999 10996 ] final  174.79 input  -57.11 | X-H torsion

> <Gold.Protein.ActiveResidues>
 VAL166  LYS551  ARG553  GLY616  TRP617  ASP618  TYR619  PRO620  LYS621  CYS622 
 ASP623  PHE694  ASN695  SER759  ASP760  ASP761  ALA762  ILE779  LEU786  VAL792 
 PHE793  MET794  SER795  GLU796  ALA797  LYS798  CYS799  TRP800  GLU811  SER814 

> <Gold.Protein.RotatedAtoms>
  151.1905  133.4670  159.2594 H   0  0  0  0  0  0  0  0  0  0  0  0  # atno 6907 bound_to 6896
  151.1168  135.0057  159.8530 H   0  0  0  0  0  0  0  0  0  0  0  0  # atno 6908 bound_to 6896
  152.5454  134.1820  159.8692 H   0  0  0  0  0  0  0  0  0  0  0  0  # atno 6909 bound_to 6896
  144.7228  140.2550  143.6273 H   0  0  0  0  0  0  0  0  0  0  0  0  # atno 7974 bound_to 7965
  155.3665  140.0486  157.3046 H   0  0  0  0  0  0  0  0  0  0  0  0  # atno 8008 bound_to 7997
  154.5151  140.2205  155.9044 H   0  0  0  0  0  0  0  0  0  0  0  0  # atno 8009 bound_to 7997
  156.1627  140.3113  155.8841 H   0  0  0  0  0  0  0  0  0  0  0  0  # atno 8010 bound_to 7997
  139.9759  144.5861  150.7944 H   0  0  0  0  0  0  0  0  0  0  0  0  # atno 10167 bound_to 10162
  155.9996  130.4733  150.4573 H   0  0  0  0  0  0  0  0  0  0  0  0  # atno 10718 bound_to 10713
  153.0014  135.6259  154.2248 H   0  0  0  0  0  0  0  0  0  0  0  0  # atno 10763 bound_to 10752
  154.1991  135.2805  155.2998 H   0  0  0  0  0  0  0  0  0  0  0  0  # atno 10764 bound_to 10752
  154.5698  135.5680  153.7144 H   0  0  0  0  0  0  0  0  0  0  0  0  # atno 10765 bound_to 10752
  140.3551  134.7161  157.4294 H   0  0  0  0  0  0  0  0  0  0  0  0  # atno 11005 bound_to 11000
  145.8191  139.2036  143.1948 LP  0  0  0  0  0  0  0  0  0  0  0  0  # atno 17320 bound_to 7965
  146.0530  140.8050  142.9772 LP  0  0  0  0  0  0  0  0  0  0  0  0  # atno 17321 bound_to 7965
  140.7506  143.2958  151.3208 LP  0  0  0  0  0  0  0  0  0  0  0  0  # atno 17342 bound_to 10162
  139.6446  144.0475  152.2581 LP  0  0  0  0  0  0  0  0  0  0  0  0  # atno 17343 bound_to 10162
  157.2601  131.0565  151.2326 LP  0  0  0  0  0  0  0  0  0  0  0  0  # atno 17370 bound_to 10713
  157.3443  130.7049  149.6401 LP  0  0  0  0  0  0  0  0  0  0  0  0  # atno 17371 bound_to 10713
  140.0671  134.5914  155.8683 LP  0  0  0  0  0  0  0  0  0  0  0  0  # atno 17394 bound_to 11000
  141.2001  133.6610  156.5877 LP  0  0  0  0  0  0  0  0  0  0  0  0  # atno 17395 bound_to 11000

$$$$
