#       Name:                AV-unprocessed.smi:45
#       Creating user name   scv26
#       Creation time:       Thu Mar 26 16:28:35 2020


#       File generated by GOLD software.
#

@<TRIPOS>MOLECULE
AV-unprocessed.smi:45
    70    73     1
SMALL
NO_CHARGES


@<TRIPOS>ATOM
      1 ****        -7.9895  -0.0590   1.0205 C.3            1 S1                 0.0000
      2 ****        -7.0863   0.4071   2.0122 O.3            1 S1                 0.0000
      3 ****        -5.7681   0.6022   1.6550 C.ar           1 S1                 0.0000
      4 ****        -5.2545   0.3383   0.3596 C.ar           1 S1                 0.0000
      5 ****        -3.8955   0.5646   0.0686 C.ar           1 S1                 0.0000
      6 ****        -3.0279   1.0573   1.0633 C.ar           1 S1                 0.0000
      7 ****        -1.5662   1.3027   0.7476 C.3            1 S1                 0.0000
      8 ****        -0.8437   0.0851   0.4101 N.pl3          1 S1                 0.0000
      9 ****         0.5234   0.1073   0.0841 C.ar           1 S1                 0.0000
     10 ****         1.1442   1.3085   0.0514 N.ar           1 S1                 0.0000
     11 ****         2.4487   1.3927  -0.2409 C.ar           1 S1                 0.0000
     12 ****         3.0654   2.6430  -0.2580 N.pl3          1 S1                 0.0000
     13 ****         4.4889   2.7908   0.0250 C.3            1 S1                 0.0000
     14 ****         4.6424   4.1449   0.7157 C.3            1 S1                 0.0000
     15 ****         3.4900   4.9549   0.1365 C.3            1 S1                 0.0000
     16 ****         2.3736   3.9145  -0.0368 C.3            1 S1                 0.0000
     17 ****         1.3928   4.2814  -1.1708 C.3            1 S1                 0.0000
     18 ****         0.7006   5.4685  -0.8460 O.3            1 S1                 0.0000
     19 ****         3.1879   0.3047  -0.5071 N.pl3          1 S1                 1.0000
     20 ****         2.6155  -0.9234  -0.4870 C.ar           1 S1                 0.0000
     21 ****         1.2452  -1.0822  -0.1844 C.ar           1 S1                 0.0000
     22 ****         0.6100  -2.4498  -0.1948 C.2            1 S1                 0.0000
     23 ****        -0.4772  -2.5904  -0.7653 O.2            1 S1                 0.0000
     24 ****         1.3638  -3.3612   0.4809 N.pl3          1 S1                -1.0000
     25 ****         1.0057  -4.7728   0.6313 C.3            1 S1                 0.0000
     26 ****         1.3533  -5.5974  -0.6031 C.ar           1 S1                 0.0000
     27 ****         2.6384  -5.9399  -0.7594 N.ar           1 S1                 0.0000
     28 ****         2.9518  -6.6630  -1.8564 C.ar           1 S1                 0.0000
     29 ****         1.9749  -7.0444  -2.7980 C.ar           1 S1                 0.0000
     30 ****         0.6556  -6.6278  -2.5296 C.ar           1 S1                 0.0000
     31 ****         0.3472  -5.9053  -1.4308 N.ar           1 S1                 0.0000
     32 ****        -3.5301   1.3205   2.3526 C.ar           1 S1                 0.0000
     33 ****        -4.8890   1.0933   2.6463 C.ar           1 S1                 0.0000
     34 ****        -5.4719   1.4251   4.2383 Cl             1 S1                 0.0000
     35 ****         1.8262   3.8260   0.9032 H              1 S1                 0.0000
     36 ****        -8.9849  -0.1492   1.4552 H              1 S1                 0.0000
     37 ****        -7.7016  -1.0435   0.6496 H              1 S1                 0.0000
     38 ****        -8.0578   0.6378   0.1839 H              1 S1                 0.0000
     39 ****        -5.8835  -0.0402  -0.4317 H              1 S1                 0.0000
     40 ****        -3.5196   0.3582  -0.9231 H              1 S1                 0.0000
     41 ****        -1.5068   2.0010  -0.0882 H              1 S1                 0.0000
     42 ****        -1.0842   1.7821   1.6007 H              1 S1                 0.0000
     43 ****        -1.3292  -0.8003   0.4527 H              1 S1                 0.0000
     44 ****         4.8737   1.9872   0.6542 H              1 S1                 0.0000
     45 ****         5.0350   2.7751  -0.9187 H              1 S1                 0.0000
     46 ****         4.5061   4.0298   1.7921 H              1 S1                 0.0000
     47 ****         5.6173   4.6023   0.5447 H              1 S1                 0.0000
     48 ****         3.1950   5.7887   0.7744 H              1 S1                 0.0000
     49 ****         3.7875   5.3630  -0.8308 H              1 S1                 0.0000
     50 ****         1.9228   4.4199  -2.1139 H              1 S1                 0.0000
     51 ****         0.6525   3.4993  -1.3338 H              1 S1                 0.0000
     52 ****         0.1215   5.6862  -1.5608 H              1 S1                 0.0000
     53 ****         3.2776  -1.7449  -0.7209 H              1 S1                 0.0000
     54 ****         1.5253  -5.2140   1.4828 H              1 S1                 0.0000
     55 ****        -0.0540  -4.9023   0.8594 H              1 S1                 0.0000
     56 ****         3.9879  -6.9398  -1.9831 H              1 S1                 0.0000
     57 ****         2.2232  -7.6231  -3.6751 H              1 S1                 0.0000
     58 ****        -0.1554  -6.8763  -3.1979 H              1 S1                 0.0000
     59 ****        -2.8731   1.6967   3.1232 H              1 S1                 0.0000
     60 ****         4.1802   0.3886  -0.7270 H              1 S1                 0.0000
     61 ****        -7.0957  -0.2589   2.7580 LP             1 S1                 0.0000
     62 ****        -7.4363   1.2834   2.3434 LP             1 S1                 0.0000
     63 ****         0.6251   2.1405   0.2470 LP             1 S1                 0.0000
     64 ****         1.3546   6.2116  -0.7044 LP             1 S1                 0.0000
     65 ****         0.1677   5.3298  -0.0113 LP             1 S1                 0.0000
     66 ****        -0.9155  -1.8071  -1.2063 LP             1 S1                 0.0000
     67 ****        -0.9187  -3.4874  -0.7860 LP             1 S1                 0.0000
     68 ****         2.2151  -3.0464   0.9005 LP             1 S1                 0.0000
     69 ****         3.3349  -5.6723  -0.0937 LP             1 S1                 0.0000
     70 ****        -0.5908  -5.6134  -1.2440 LP             1 S1                 0.0000
@<TRIPOS>BOND
    1    1    2 1     
    2    1   36 1     
    3    1   37 1     
    4    1   38 1     
    5    2    3 1     
    6    3   33 ar    
    7    3    4 ar    
    8    4    5 ar    
    9    4   39 1     
   10    5    6 ar    
   11    5   40 1     
   12    6    7 1     
   13    6   32 ar    
   14    7    8 1     
   15    7   41 1     
   16    7   42 1     
   17    8    9 1     
   18    8   43 1     
   19    9   21 ar    
   20    9   10 ar    
   21   10   11 ar    
   22   11   12 1     
   23   11   19 ar    
   24   12   16 1     
   25   12   13 1     
   26   13   14 1     
   27   13   44 1     
   28   13   45 1     
   29   14   15 1     
   30   14   46 1     
   31   14   47 1     
   32   15   16 1     
   33   15   48 1     
   34   15   49 1     
   35   16   35 1     
   36   16   17 1     
   37   17   18 1     
   38   17   50 1     
   39   17   51 1     
   40   18   52 1     
   41   19   20 ar    
   42   19   60 1     
   43   20   21 ar    
   44   20   53 1     
   45   21   22 1     
   46   22   23 2     
   47   22   24 1     
   48   24   25 1     
   49   25   26 1     
   50   25   54 1     
   51   25   55 1     
   52   26   31 ar    
   53   26   27 ar    
   54   27   28 ar    
   55   28   29 ar    
   56   28   56 1     
   57   29   30 ar    
   58   29   57 1     
   59   30   31 ar    
   60   30   58 1     
   61   32   33 ar    
   62   32   59 1     
   63   33   34 1     
   64    2   61 1     
   65    2   62 1     
   66   10   63 1     
   67   18   64 1     
   68   18   65 1     
   69   23   66 1     
   70   23   67 1     
   71   24   68 1     
   72   27   69 1     
   73   31   70 1     
@<TRIPOS>SUBSTRUCTURE
      1 S1             1
@<TRIPOS>SET
LONE_PAIRS      STATIC     ATOMS    <user>   **** ""
10 61 62 63 64 65 66 67 68 69 70
DONOR_HYDROGENS      STATIC     ATOMS    <user>   **** ""
3 43 52 60
ATOM$BLUE        STATIC     ATOMS    COLORGROUP SYSTEM
10 61 62 63 64 65 66 67 68 69 70
ATOM$RED        STATIC     ATOMS    COLORGROUP SYSTEM
3 43 52 60
