#       Name:                AV-unprocessed.smi:178
#       Creating user name   scv26
#       Creation time:       Thu Mar 26 19:24:05 2020


#       File generated by GOLD software.
#

@<TRIPOS>MOLECULE
AV-unprocessed.smi:178
    60    62     1
SMALL
NO_CHARGES


@<TRIPOS>ATOM
      1 ****        -4.7453  -4.8917   0.7346 C.3            1 S1                 0.0000
      2 ****        -4.5067  -3.7435   1.5300 O.3            1 S1                 0.0000
      3 ****        -3.6509  -2.8104   0.8935 C.3            1 S1                 0.0000
      4 ****        -3.4381  -1.6152   1.8357 C.3            1 S1                 0.0000
      5 ****        -2.6050  -0.5673   1.2414 N.pl3          1 S1                 0.0000
      6 ****        -3.2545   0.6303   0.7150 C.3            1 S1                 0.0000
      7 ****        -3.9424   0.3839  -0.6342 C.3            1 S1                 0.0000
      8 ****        -4.4662   1.6222  -1.2281 C.1            1 S1                 0.0000
      9 ****        -4.8778   2.5970  -1.6955 N.1            1 S1                 0.0000
     10 ****        -1.2740  -0.7922   1.0412 C.ar           1 S1                 0.0000
     11 ****        -0.6513  -1.6877   1.8539 N.ar           1 S1                 0.0000
     12 ****         0.6494  -1.9535   1.7149 C.ar           1 S1                 0.0000
     13 ****         1.5132  -1.4448   0.8375 N.ar           1 S1                 0.0000
     14 ****         0.9058  -0.5464   0.0124 C.ar           1 S1                 0.0000
     15 ****        -0.4686  -0.1649   0.0393 C.ar           1 S1                 0.0000
     16 ****        -0.7059   0.7581  -0.9751 N.2            1 S1                 0.0000
     17 ****         0.4510   0.9181  -1.5544 C.2            1 S1                 0.0000
     18 ****         1.4790   0.1810  -1.0163 N.pl3          1 S1                 0.0000
     19 ****         2.8653   0.1707  -1.4564 C.3            1 S1                 0.0000
     20 ****         3.7583   1.1923  -0.7115 C.3            1 S1                 0.0000
     21 ****         3.8163   0.8283   0.6583 O.3            1 S1                 0.0000
     22 ****         5.1810   1.2188  -1.2512 C.3            1 S1                 0.0000
     23 ****         5.6513   2.6177  -0.8774 C.3            1 S1                 0.0000
     24 ****         4.5082   3.4301  -1.0971 O.3            1 S1                 0.0000
     25 ****         3.3207   2.6708  -0.8747 C.3            1 S1                 0.0000
     26 ****         2.5106   3.2860   0.2802 C.3            1 S1                 0.0000
     27 ****        -5.4133  -5.5711   1.2643 H              1 S1                 0.0000
     28 ****        -3.8178  -5.4263   0.5255 H              1 S1                 0.0000
     29 ****        -5.2172  -4.6256  -0.2121 H              1 S1                 0.0000
     30 ****        -2.6973  -3.2844   0.6565 H              1 S1                 0.0000
     31 ****        -4.0962  -2.4821  -0.0462 H              1 S1                 0.0000
     32 ****        -4.4091  -1.1889   2.0898 H              1 S1                 0.0000
     33 ****        -3.0096  -1.9489   2.7814 H              1 S1                 0.0000
     34 ****        -3.9993   0.9646   1.4379 H              1 S1                 0.0000
     35 ****        -2.5427   1.4522   0.6451 H              1 S1                 0.0000
     36 ****        -3.2521  -0.0598  -1.3512 H              1 S1                 0.0000
     37 ****        -4.7772  -0.3070  -0.5194 H              1 S1                 0.0000
     38 ****         1.0556  -2.6768   2.4064 H              1 S1                 0.0000
     39 ****         0.5865   1.5881  -2.3909 H              1 S1                 0.0000
     40 ****         3.2597  -0.8390  -1.3330 H              1 S1                 0.0000
     41 ****         2.8780   0.3727  -2.5284 H              1 S1                 0.0000
     42 ****         4.3558   1.4569   1.1130 H              1 S1                 0.0000
     43 ****         5.8185   0.4300  -0.8498 H              1 S1                 0.0000
     44 ****         5.1771   1.1230  -2.3381 H              1 S1                 0.0000
     45 ****         5.9297   2.6647   0.1763 H              1 S1                 0.0000
     46 ****         6.5018   2.9510  -1.4723 H              1 S1                 0.0000
     47 ****         2.7393   2.7704  -1.7918 H              1 S1                 0.0000
     48 ****         1.6060   2.7122   0.4813 H              1 S1                 0.0000
     49 ****         2.2082   4.3049   0.0375 H              1 S1                 0.0000
     50 ****         3.0928   3.3299   1.2009 H              1 S1                 0.0000
     51 ****        -4.0847  -4.0310   2.3898 LP             1 S1                 0.0000
     52 ****        -5.3815  -3.2981   1.7207 LP             1 S1                 0.0000
     53 ****        -5.2336   3.4397  -2.0995 LP             1 S1                 0.0000
     54 ****        -1.1759  -2.1539   2.5663 LP             1 S1                 0.0000
     55 ****         2.4814  -1.6903   0.7905 LP             1 S1                 0.0000
     56 ****        -1.5720   1.2005  -1.2079 LP             1 S1                 0.0000
     57 ****         4.2138  -0.0849   0.7481 LP             1 S1                 0.0000
     58 ****         2.8950   0.8306   1.0473 LP             1 S1                 0.0000
     59 ****         4.5158   3.7648  -2.0394 LP             1 S1                 0.0000
     60 ****         4.5277   4.2067  -0.4673 LP             1 S1                 0.0000
@<TRIPOS>BOND
    1    1    2 1     
    2    1   27 1     
    3    1   28 1     
    4    1   29 1     
    5    2    3 1     
    6    3    4 1     
    7    3   30 1     
    8    3   31 1     
    9    4    5 1     
   10    4   32 1     
   11    4   33 1     
   12    5    6 1     
   13    5   10 1     
   14    6    7 1     
   15    6   34 1     
   16    6   35 1     
   17    7    8 1     
   18    7   36 1     
   19    7   37 1     
   20    8    9 3     
   21   10   15 ar    
   22   10   11 ar    
   23   11   12 ar    
   24   12   13 ar    
   25   12   38 1     
   26   13   14 ar    
   27   14   18 1     
   28   14   15 ar    
   29   15   16 1     
   30   16   17 2     
   31   17   18 1     
   32   17   39 1     
   33   18   19 1     
   34   19   20 1     
   35   19   40 1     
   36   19   41 1     
   37   20   25 1     
   38   20   21 1     
   39   20   22 1     
   40   21   42 1     
   41   22   23 1     
   42   22   43 1     
   43   22   44 1     
   44   23   24 1     
   45   23   45 1     
   46   23   46 1     
   47   24   25 1     
   48   25   26 1     
   49   25   47 1     
   50   26   48 1     
   51   26   49 1     
   52   26   50 1     
   53    2   51 1     
   54    2   52 1     
   55    9   53 1     
   56   11   54 1     
   57   13   55 1     
   58   16   56 1     
   59   21   57 1     
   60   21   58 1     
   61   24   59 1     
   62   24   60 1     
@<TRIPOS>SUBSTRUCTURE
      1 S1             1
@<TRIPOS>SET
LONE_PAIRS      STATIC     ATOMS    <user>   **** ""
10 51 52 53 54 55 56 57 58 59 60
DONOR_HYDROGENS      STATIC     ATOMS    <user>   **** ""
1 42
ATOM$BLUE        STATIC     ATOMS    COLORGROUP SYSTEM
10 51 52 53 54 55 56 57 58 59 60
ATOM$RED        STATIC     ATOMS    COLORGROUP SYSTEM
1 42
