AV-unprocessed.smi:720|AV-procd|sdf|3495|dock4
  -GOLD-   22720 0493D 1   1.00000     0.00000
 Structure written by MMmdl.
 47 49  0  0  0  0  0  0  0  0  2 V2000
  145.5440  136.3411  151.2348 C   0  0  0  0  0  0  0  0  0  0  0  0
  146.3470  136.4212  152.4765 N   0  3  0  0  0  0  0  0  0  0  0  0
  146.1358  135.2362  153.3370 C   0  0  0  0  0  0  0  0  0  0  0  0
  146.1549  137.6906  153.2212 C   0  0  0  0  0  0  0  0  0  0  0  0
  147.0732  138.8193  152.7166 C   0  0  0  0  0  0  0  0  0  0  0  0
  147.1122  139.9332  153.6439 N   0  0  0  0  0  0  0  0  0  0  0  0
  146.0571  140.6396  154.1863 C   0  0  0  0  0  0  0  0  0  0  0  0
  146.5832  141.6020  155.0009 C   0  0  0  0  0  0  0  0  0  0  0  0
  147.9858  141.3984  154.8847 C   0  0  0  0  0  0  0  0  0  0  0  0
  148.8979  142.2151  155.5992 N   0  0  0  0  0  0  0  0  0  0  0  0
  149.9759  141.8247  156.3073 C   0  0  0  0  0  0  0  0  0  0  0  0
  150.3442  140.6578  156.4316 O   0  0  0  0  0  0  0  0  0  0  0  0
  150.6452  142.8337  156.8931 N   0  0  0  0  0  0  0  0  0  0  0  0
  151.8491  142.7511  157.7251 C   0  0  2  0  0  0  0  0  0  0  0  0
  151.5511  142.0615  159.0748 C   0  0  0  0  0  0  0  0  0  0  0  0
  151.9779  143.1190  160.1097 C   0  0  2  0  0  0  0  0  0  0  0  0
  150.9672  144.2814  160.1072 C   0  0  0  0  0  0  0  0  0  0  0  0
  151.2865  145.0075  158.7868 C   0  0  0  0  0  0  0  0  0  0  0  0
  152.4006  144.1281  158.1790 C   0  0  1  0  0  0  0  0  0  0  0  0
  153.1860  143.7493  159.4298 C   0  0  0  0  0  0  0  0  0  0  0  0
  148.3044  140.4029  154.0694 N   0  0  0  0  0  0  0  0  0  0  0  0
  144.4771  136.4043  151.4533 H   0  0  0  0  0  0  0  0  0  0  0  0
  145.7289  135.3981  150.7195 H   0  0  0  0  0  0  0  0  0  0  0  0
  145.8001  137.1412  150.5413 H   0  0  0  0  0  0  0  0  0  0  0  0
  145.1082  135.1954  153.7006 H   0  0  0  0  0  0  0  0  0  0  0  0
  146.8038  135.2585  154.1988 H   0  0  0  0  0  0  0  0  0  0  0  0
  146.3408  134.3170  152.7871 H   0  0  0  0  0  0  0  0  0  0  0  0
  145.1083  137.9956  153.1754 H   0  0  0  0  0  0  0  0  0  0  0  0
  146.3775  137.5102  154.2741 H   0  0  0  0  0  0  0  0  0  0  0  0
  148.0911  138.4514  152.5803 H   0  0  0  0  0  0  0  0  0  0  0  0
  146.7391  139.1956  151.7498 H   0  0  0  0  0  0  0  0  0  0  0  0
  145.0302  140.4012  153.9513 H   0  0  0  0  0  0  0  0  0  0  0  0
  146.0477  142.3346  155.5868 H   0  0  0  0  0  0  0  0  0  0  0  0
  148.7062  143.2060  155.5822 H   0  0  0  0  0  0  0  0  0  0  0  0
  150.2815  143.7634  156.7405 H   0  0  0  0  0  0  0  0  0  0  0  0
  152.6239  142.1862  157.2033 H   0  0  0  0  0  0  0  0  0  0  0  0
  150.5050  141.7752  159.1938 H   0  0  0  0  0  0  0  0  0  0  0  0
  152.1516  141.1570  159.1790 H   0  0  0  0  0  0  0  0  0  0  0  0
  152.1686  142.7075  161.1011 H   0  0  0  0  0  0  0  0  0  0  0  0
  149.9357  143.9301  160.1500 H   0  0  0  0  0  0  0  0  0  0  0  0
  151.1313  144.9441  160.9580 H   0  0  0  0  0  0  0  0  0  0  0  0
  150.4136  145.1156  158.1432 H   0  0  0  0  0  0  0  0  0  0  0  0
  151.6636  146.0107  158.9899 H   0  0  0  0  0  0  0  0  0  0  0  0
  152.9858  144.6391  157.4140 H   0  0  0  0  0  0  0  0  0  0  0  0
  153.5868  144.6102  159.9683 H   0  0  0  0  0  0  0  0  0  0  0  0
  153.9934  143.0407  159.2364 H   0  0  0  0  0  0  0  0  0  0  0  0
  147.3183  136.3944  152.2004 H   0  0  0  0  0  0  0  0  0  0  0  0
  1  2  1  0  0  0  0
  1 22  1  0  0  0  0
  1 23  1  0  0  0  0
  1 24  1  0  0  0  0
  2  3  1  0  0  0  0
  2  4  1  0  0  0  0
  2 47  1  0  0  0  0
  3 25  1  0  0  0  0
  3 26  1  0  0  0  0
  3 27  1  0  0  0  0
  4  5  1  0  0  0  0
  4 28  1  0  0  0  0
  4 29  1  0  0  0  0
  5  6  1  0  0  0  0
  5 30  1  0  0  0  0
  5 31  1  0  0  0  0
  6 21  1  0  0  0  0
  6  7  1  0  0  0  0
  7  8  2  0  0  0  0
  7 32  1  0  0  0  0
  8  9  1  0  0  0  0
  8 33  1  0  0  0  0
  9 10  1  0  0  0  0
  9 21  2  0  0  0  0
 10 11  1  0  0  0  0
 10 34  1  0  0  0  0
 11 12  2  0  0  0  0
 11 13  1  0  0  0  0
 13 14  1  0  0  0  0
 13 35  1  0  0  0  0
 14 19  1  0  0  0  0
 14 15  1  0  0  0  0
 14 36  1  0  0  0  0
 15 16  1  0  0  0  0
 15 37  1  0  0  0  0
 15 38  1  0  0  0  0
 16 20  1  0  0  0  0
 16 17  1  0  0  0  0
 16 39  1  0  0  0  0
 17 18  1  0  0  0  0
 17 40  1  0  0  0  0
 17 41  1  0  0  0  0
 18 19  1  0  0  0  0
 18 42  1  0  0  0  0
 18 43  1  0  0  0  0
 19 20  1  0  0  0  0
 19 44  1  0  0  0  0
 20 45  1  0  0  0  0
 20 46  1  0  0  0  0
M  CHG  1   2   1
M  END
> <s_m_source_file>
AV-unprocessed.smi

> <i_m_source_file_index>
720

> <i_lp_mmshare_version>
43012

> <i_f3d_flags>
0

> <s_epik_input>
W0NIM11OKFtDSDNdKVtDSDJdW0NIMl1uMVtjSF1bY0hdYyhuMSlbTkhdQyg9TylbTkhdW0NASF0oW0NIMl1bQ0BIXTIzKVtDQEhdKFtDSDJdMylbQ0gyXVtDSDJdMg==

> <s_epik_cmdline>
J2VwaWtfcHl0aG9uJywgJy1waCcsICc3LjAnLCAnLXRuJywgJzgnLCAnLW1hJywgJzIwMCcsICctbWV0YWxfYmluZGluZycsICctaW1hZScsICc8aW5maWxlLm1hZT4nLCAnLW9tYWUnLCAnPG91dGZpbGUubWFlPic=

> <r_lp_tautomer_probability>
1

> <r_epik_Ionization_Penalty>
0.0272832

> <r_epik_Ionization_Penalty_Charging>
0.027243

> <r_epik_Ionization_Penalty_Neutral>
4.01867e-05

> <r_epik_State_Penalty>
0.0222865

> <r_epik_Charging_Adjusted_Penalty>
0.0495295

> <i_epik_Tot_Q>
1

> <i_epik_Tot_abs_Q>
1

> <r_epik_Metal_State_Penalty>
0.0222866

> <b_epik_Metal_Only>
0

> <s_lp_Force_Field>
OPLS_2005

> <r_lp_Energy>
60.2388

> <b_lp_Chiralities_Consistent>
1

> <s_lp_Variant>
AV-unprocessed.smi:720-1

> <Gold.Version>
5.8.1

> <Gold.Id.Protein>
6NUR|6NUR_protein|mol2

> <Gold.PLP.Fitness>
50.4912

> <Gold.PLP.PLP>
-37.6838

> <Gold.PLP.part.hbond>
-2.9545

> <Gold.PLP.part.metal>
0.0000

> <Gold.PLP.part.buried>
-3.6777

> <Gold.PLP.part.nonpolar>
-31.8894

> <Gold.PLP.part.repulsive>
0.3481

> <Gold.PLP.ligand.clash>
0.0000

> <Gold.PLP.ligand.torsion>
0.8865

> <Gold.PLP.Chemscore.Hbond>
3.8480

> <Gold.PLP.Chemscore.CHOScore>
0.9902

> <Gold.PLP.Chemscore.Metal>
0.0000

> <Gold.Chemscore.Hbonds>
donor molecule, donor type, donor heavy atom, donor atom, acceptor molecule, acceptor atom, score
      L1  H     2    47       P1  7948  2.00
      L1  H    10    34       P1  8028  0.98
      L1  H    13    35       P1  8028  0.83
      L1  C     7    32       P1 10175  0.91

> <Gold.PLP.Chemscore.Internal.Correction>
0.0658

> <Gold.Rescore>
     Score         DG    S(hbond)    S(metal)    S(lipo)     H(rot)  DE(clash)    DE(int)     intcor
     21.53     -23.06       2.75        0.00     107.36       1.62       0.64       0.90       ----

> <Gold.Chemscore.Fitness>
21.5261

> <Gold.Chemscore.DG>
-23.0647

> <Gold.Chemscore.ZeroCoef>
-5.4800

> <Gold.Chemscore.Hbond>
2.7465

> <Gold.Chemscore.Metal>
0.0000

> <Gold.Chemscore.Lipo>
107.3635

> <Gold.Chemscore.Internal_Hbond>
0.0000

> <Gold.Chemscore.DEClash>
0.6403

> <Gold.Chemscore.DEInternal>
0.8983

> <Gold.Chemscore.Rot>
1.6212

> <Gold.Chemscore.Internal.Correction>
   9.000000E+99

> <Gold.Chemscore.Hbonds>
donor molecule, donor type, donor heavy atom, donor atom, acceptor molecule, acceptor atom, score
      L1  H     2    47       P1  7948  1.00
      L1  H    10    34       P1  8028  0.91
      L1  H    13    35       P1  8028  0.80

> <Gold.Chemscore.Hbond.Weighted>
-9.1734

> <Gold.Chemscore.Metal.Weighted>
-0.0000

> <Gold.Chemscore.Lipo.Weighted>
-12.5615

> <Gold.Chemscore.Internal_Hbond.Weighted>
0.0000

> <Gold.Chemscore.DEClash.Weighted>
0.6403

> <Gold.Chemscore.DEInternal.Weighted>
0.8983

> <Gold.Chemscore.Rot.Weighted>
4.1502

> <Gold.Chemscore.Internal.Correction.Weighted>
   9.000000E+99

> <Gold.Protein.RotatedTorsions>
[ 6907 6896 6895 6894 ] final  133.79 input  -60.11 | X-H torsion
[ 7974 7965 7964 7962 ] final  123.22 input  175.53 | X-H torsion
[ 8008 7997 7996 7995 ] final -119.60 input   59.86 | X-H torsion
[ 10167 10162 10161 10158 ] final   51.68 input  -65.29 | X-H torsion
[ 10718 10713 10712 10709 ] final   29.69 input   66.30 | X-H torsion
[ 10763 10752 10751 10750 ] final -125.60 input  -60.55 | X-H torsion
[ 11005 11000 10999 10996 ] final -114.12 input  -57.11 | X-H torsion

> <Gold.Protein.ActiveResidues>
 VAL166  LYS551  ARG553  GLY616  TRP617  ASP618  TYR619  PRO620  LYS621  CYS622 
 ASP623  PHE694  ASN695  SER759  ASP760  ASP761  ALA762  ILE779  LEU786  VAL792 
 PHE793  MET794  SER795  GLU796  ALA797  LYS798  CYS799  TRP800  GLU811  SER814 

> <Gold.Protein.RotatedAtoms>
  152.3182  133.5825  159.5726 H   0  0  0  0  0  0  0  0  0  0  0  0  # atno 6907 bound_to 6896
  150.7357  134.0051  159.3660 H   0  0  0  0  0  0  0  0  0  0  0  0  # atno 6908 bound_to 6896
  151.7938  135.0729  160.0442 H   0  0  0  0  0  0  0  0  0  0  0  0  # atno 6909 bound_to 6896
  145.0984  139.3536  143.4824 H   0  0  0  0  0  0  0  0  0  0  0  0  # atno 7974 bound_to 7965
  155.1184  140.0398  157.2743 H   0  0  0  0  0  0  0  0  0  0  0  0  # atno 8008 bound_to 7997
  154.6632  140.2595  155.7060 H   0  0  0  0  0  0  0  0  0  0  0  0  # atno 8009 bound_to 7997
  156.2628  140.2812  156.1112 H   0  0  0  0  0  0  0  0  0  0  0  0  # atno 8010 bound_to 7997
  140.2593  144.3391  150.6323 H   0  0  0  0  0  0  0  0  0  0  0  0  # atno 10167 bound_to 10162
  157.2499  130.7110  149.6400 H   0  0  0  0  0  0  0  0  0  0  0  0  # atno 10718 bound_to 10713
  154.8737  135.4024  154.3295 H   0  0  0  0  0  0  0  0  0  0  0  0  # atno 10763 bound_to 10752
  153.4110  135.7020  153.6364 H   0  0  0  0  0  0  0  0  0  0  0  0  # atno 10764 bound_to 10752
  153.5067  135.3716  155.2537 H   0  0  0  0  0  0  0  0  0  0  0  0  # atno 10765 bound_to 10752
  141.0572  133.9594  157.2733 H   0  0  0  0  0  0  0  0  0  0  0  0  # atno 11005 bound_to 11000
  146.3530  140.0851  142.8615 LP  0  0  0  0  0  0  0  0  0  0  0  0  # atno 17320 bound_to 7965
  145.0983  140.9329  143.4727 LP  0  0  0  0  0  0  0  0  0  0  0  0  # atno 17321 bound_to 7965
  140.5978  143.2167  151.7130 LP  0  0  0  0  0  0  0  0  0  0  0  0  # atno 17342 bound_to 10162
  139.5021  144.3840  152.0348 LP  0  0  0  0  0  0  0  0  0  0  0  0  # atno 17343 bound_to 10162
  155.9666  130.4431  150.5407 LP  0  0  0  0  0  0  0  0  0  0  0  0  # atno 17370 bound_to 10713
  157.3289  131.0696  151.1876 LP  0  0  0  0  0  0  0  0  0  0  0  0  # atno 17371 bound_to 10713
  139.9400  135.0192  156.8679 LP  0  0  0  0  0  0  0  0  0  0  0  0  # atno 17394 bound_to 11000
  140.5941  134.0234  155.7511 LP  0  0  0  0  0  0  0  0  0  0  0  0  # atno 17395 bound_to 11000

$$$$
