AV-unprocessed.smi:232|AV-procd|sdf|1775|dock7
  -GOLD-   2262020313D 1   1.00000     0.00000
 Structure written by MMmdl.
 52 55  0  0  0  0  0  0  0  0  1 V2000
  151.6320  138.4454  154.3161 C   0  0  0  0  0  0  0  0  0  0  0  0
  150.7909  139.2366  155.3266 C   0  0  0  0  0  0  0  0  0  0  0  0
  149.4512  139.7391  154.7570 C   0  0  2  0  0  0  0  0  0  0  0  0
  149.4639  141.2404  154.4263 C   0  0  0  0  0  0  0  0  0  0  0  0
  148.0343  141.6843  154.7151 C   0  0  0  0  0  0  0  0  0  0  0  0
  147.6944  140.8334  155.9351 C   0  0  1  0  0  0  0  0  0  0  0  0
  146.1954  140.8102  156.2980 C   0  0  0  0  0  0  0  0  0  0  0  0
  148.3353  139.5379  155.6896 N   0  0  0  0  0  0  0  0  0  0  0  0
  147.5402  138.4621  155.4749 C   0  0  0  0  0  0  0  0  0  0  0  0
  147.3381  137.5448  156.4577 N   0  0  0  0  0  0  0  0  0  0  0  0
  146.5671  136.4776  156.2265 C   0  0  0  0  0  0  0  0  0  0  0  0
  145.9214  136.1396  155.1077 N   0  0  0  0  0  0  0  0  0  0  0  0
  146.1310  137.0564  154.1197 C   0  0  0  0  0  0  0  0  0  0  0  0
  146.9207  138.2349  154.2182 C   0  0  0  0  0  0  0  0  0  0  0  0
  146.9056  138.9234  153.0118 N   0  0  0  0  0  0  0  0  0  0  0  0
  146.1485  138.1911  152.2407 C   0  0  0  0  0  0  0  0  0  0  0  0
  145.6437  137.0513  152.8256 N   0  0  0  0  0  0  0  0  0  0  0  0
  144.7844  136.0581  152.2065 C   0  0  0  0  0  0  0  0  0  0  0  0
  145.4965  135.2929  151.0735 C   0  0  2  0  0  0  0  0  0  0  0  0
  144.9161  135.6556  149.8345 O   0  0  0  0  0  0  0  0  0  0  0  0
  145.3968  133.7657  151.2431 C   0  0  1  0  0  0  0  0  0  0  0  0
  143.9953  133.1966  151.0066 C   0  0  0  0  0  0  0  0  0  0  0  0
  144.3023  131.7768  150.5909 C   0  0  0  0  0  0  0  0  0  0  0  0
  145.5480  131.9744  149.7351 C   0  0  0  0  0  0  0  0  0  0  0  0
  146.2226  133.1019  150.2868 O   0  0  0  0  0  0  0  0  0  0  0  0
  152.5972  138.1748  154.7446 H   0  0  0  0  0  0  0  0  0  0  0  0
  151.8200  139.0311  153.4158 H   0  0  0  0  0  0  0  0  0  0  0  0
  151.1358  137.5216  154.0190 H   0  0  0  0  0  0  0  0  0  0  0  0
  150.6138  138.6269  156.2135 H   0  0  0  0  0  0  0  0  0  0  0  0
  151.3754  140.0950  155.6592 H   0  0  0  0  0  0  0  0  0  0  0  0
  149.2640  139.2084  153.8230 H   0  0  0  0  0  0  0  0  0  0  0  0
  150.1470  141.7721  155.0908 H   0  0  0  0  0  0  0  0  0  0  0  0
  149.7715  141.4437  153.4003 H   0  0  0  0  0  0  0  0  0  0  0  0
  147.9511  142.7547  154.9057 H   0  0  0  0  0  0  0  0  0  0  0  0
  147.3839  141.4310  153.8764 H   0  0  0  0  0  0  0  0  0  0  0  0
  148.2202  141.2563  156.7925 H   0  0  0  0  0  0  0  0  0  0  0  0
  145.8366  141.8178  156.5088 H   0  0  0  0  0  0  0  0  0  0  0  0
  146.0109  140.2071  157.1875 H   0  0  0  0  0  0  0  0  0  0  0  0
  145.5860  140.4127  155.4859 H   0  0  0  0  0  0  0  0  0  0  0  0
  146.4538  135.7946  157.0554 H   0  0  0  0  0  0  0  0  0  0  0  0
  145.9404  138.4616  151.2157 H   0  0  0  0  0  0  0  0  0  0  0  0
  144.4555  135.3676  152.9840 H   0  0  0  0  0  0  0  0  0  0  0  0
  143.8881  136.5540  151.8313 H   0  0  0  0  0  0  0  0  0  0  0  0
  146.5481  135.5819  151.0504 H   0  0  0  0  0  0  0  0  0  0  0  0
  145.5151  135.4207  149.1427 H   0  0  0  0  0  0  0  0  0  0  0  0
  145.7410  133.4705  152.2358 H   0  0  0  0  0  0  0  0  0  0  0  0
  143.3576  133.2548  151.8890 H   0  0  0  0  0  0  0  0  0  0  0  0
  143.4976  133.7228  150.1906 H   0  0  0  0  0  0  0  0  0  0  0  0
  144.5375  131.1712  151.4672 H   0  0  0  0  0  0  0  0  0  0  0  0
  143.4843  131.2990  150.0512 H   0  0  0  0  0  0  0  0  0  0  0  0
  146.1884  131.0923  149.7204 H   0  0  0  0  0  0  0  0  0  0  0  0
  145.2700  132.2088  148.7068 H   0  0  0  0  0  0  0  0  0  0  0  0
  1  2  1  0  0  0  0
  1 26  1  0  0  0  0
  1 27  1  0  0  0  0
  1 28  1  0  0  0  0
  2  3  1  0  0  0  0
  2 29  1  0  0  0  0
  2 30  1  0  0  0  0
  3  8  1  0  0  0  0
  3  4  1  0  0  0  0
  3 31  1  0  0  0  0
  4  5  1  0  0  0  0
  4 32  1  0  0  0  0
  4 33  1  0  0  0  0
  5  6  1  0  0  0  0
  5 34  1  0  0  0  0
  5 35  1  0  0  0  0
  6  7  1  0  0  0  0
  6  8  1  0  0  0  0
  6 36  1  0  0  0  0
  7 37  1  0  0  0  0
  7 38  1  0  0  0  0
  7 39  1  0  0  0  0
  8  9  1  0  0  0  0
  9 14  1  0  0  0  0
  9 10  2  0  0  0  0
 10 11  1  0  0  0  0
 11 12  2  0  0  0  0
 11 40  1  0  0  0  0
 12 13  1  0  0  0  0
 13 17  1  0  0  0  0
 13 14  2  0  0  0  0
 14 15  1  0  0  0  0
 15 16  2  0  0  0  0
 16 17  1  0  0  0  0
 16 41  1  0  0  0  0
 17 18  1  0  0  0  0
 18 19  1  0  0  0  0
 18 42  1  0  0  0  0
 18 43  1  0  0  0  0
 19 20  1  0  0  0  0
 19 21  1  0  0  0  0
 19 44  1  0  0  0  0
 20 45  1  0  0  0  0
 21 25  1  0  0  0  0
 21 22  1  0  0  0  0
 21 46  1  0  0  0  0
 22 23  1  0  0  0  0
 22 47  1  0  0  0  0
 22 48  1  0  0  0  0
 23 24  1  0  0  0  0
 23 49  1  0  0  0  0
 23 50  1  0  0  0  0
 24 25  1  0  0  0  0
 24 51  1  0  0  0  0
 24 52  1  0  0  0  0
M  END
> <s_m_source_file>
AV-unprocessed.smi

> <i_m_source_file_index>
232

> <i_lp_mmshare_version>
43012

> <i_f3d_flags>
0

> <s_epik_input>
W0NIM11bQ0gyXVtDQEBIXTFbQ0gyXVtDSDJdW0NAQEhdKFtDSDNdKU4xYyhuW2NIXW4yKWMoYzIzKW5bY0hdbjNbQ0gyXVtDQEhdKFtPSF0pW0NAQEhdNFtDSDJdW0NIMl1bQ0gyXU80

> <s_epik_cmdline>
J2VwaWtfcHl0aG9uJywgJy1waCcsICc3LjAnLCAnLXRuJywgJzgnLCAnLW1hJywgJzIwMCcsICctbWV0YWxfYmluZGluZycsICctaW1hZScsICc8aW5maWxlLm1hZT4nLCAnLW9tYWUnLCAnPG91dGZpbGUubWFlPic=

> <r_lp_tautomer_probability>
1

> <r_epik_Ionization_Penalty>
0.00258048

> <r_epik_Ionization_Penalty_Charging>
0

> <r_epik_Ionization_Penalty_Neutral>
0.00258048

> <r_epik_State_Penalty>
0.00168551

> <r_epik_Charging_Adjusted_Penalty>
0.00168551

> <i_epik_Tot_Q>
0

> <i_epik_Tot_abs_Q>
0

> <r_epik_Metal_State_Penalty>
-0

> <b_epik_Metal_Only>
0

> <s_lp_Force_Field>
OPLS_2005

> <r_lp_Energy>
56.7631

> <b_lp_Chiralities_Consistent>
1

> <s_lp_Variant>
AV-unprocessed.smi:232-9

> <Gold.Version>
5.8.1

> <Gold.Id.Protein>
6NUR|6NUR_protein|mol2

> <Gold.PLP.Fitness>
40.8972

> <Gold.PLP.PLP>
-38.1885

> <Gold.PLP.part.hbond>
-1.6598

> <Gold.PLP.part.metal>
0.0000

> <Gold.PLP.part.buried>
-5.5088

> <Gold.PLP.part.nonpolar>
-32.3221

> <Gold.PLP.part.repulsive>
0.9057

> <Gold.PLP.ligand.clash>
0.0000

> <Gold.PLP.ligand.torsion>
1.7259

> <Gold.PLP.Chemscore.Hbond>
1.0000

> <Gold.PLP.Chemscore.CHOScore>
0.9776

> <Gold.PLP.Chemscore.Metal>
0.0000

> <Gold.Chemscore.Hbonds>
donor molecule, donor type, donor heavy atom, donor atom, acceptor molecule, acceptor atom, score
      L1  H    20    45       P1  7921  1.00
      L1  C    16    41       P1 10171  1.00

> <Gold.PLP.Chemscore.Internal.Correction>
0.2277

> <Gold.Rescore>
     Score         DG    S(hbond)    S(metal)    S(lipo)     H(rot)  DE(clash)    DE(int)     intcor
     11.06     -12.97       0.96        0.00      89.62       2.43       0.38       1.54       ----

> <Gold.Chemscore.Fitness>
11.0555

> <Gold.Chemscore.DG>
-12.9729

> <Gold.Chemscore.ZeroCoef>
-5.4800

> <Gold.Chemscore.Hbond>
0.9635

> <Gold.Chemscore.Metal>
0.0000

> <Gold.Chemscore.Lipo>
89.6192

> <Gold.Chemscore.Internal_Hbond>
0.0000

> <Gold.Chemscore.DEClash>
0.3766

> <Gold.Chemscore.DEInternal>
1.5408

> <Gold.Chemscore.Rot>
2.4260

> <Gold.Chemscore.Internal.Correction>
   9.000000E+99

> <Gold.Chemscore.Hbonds>
donor molecule, donor type, donor heavy atom, donor atom, acceptor molecule, acceptor atom, score
      L1  H    20    45       P1  7921  1.00

> <Gold.Chemscore.Hbond.Weighted>
-3.2181

> <Gold.Chemscore.Metal.Weighted>
-0.0000

> <Gold.Chemscore.Lipo.Weighted>
-10.4855

> <Gold.Chemscore.Internal_Hbond.Weighted>
0.0000

> <Gold.Chemscore.DEClash.Weighted>
0.3766

> <Gold.Chemscore.DEInternal.Weighted>
1.5408

> <Gold.Chemscore.Rot.Weighted>
6.2107

> <Gold.Chemscore.Internal.Correction.Weighted>
   9.000000E+99

> <Gold.Protein.RotatedTorsions>
[ 6907 6896 6895 6894 ] final   23.03 input  -60.11 | X-H torsion
[ 7974 7965 7964 7962 ] final  136.90 input  175.53 | X-H torsion
[ 8008 7997 7996 7995 ] final  -70.69 input   59.86 | X-H torsion
[ 10167 10162 10161 10158 ] final  176.69 input  -65.29 | X-H torsion
[ 10718 10713 10712 10709 ] final  -23.95 input   66.30 | X-H torsion
[ 10763 10752 10751 10750 ] final  138.45 input  -60.55 | X-H torsion
[ 11005 11000 10999 10996 ] final   21.13 input  -57.11 | X-H torsion

> <Gold.Protein.ActiveResidues>
 VAL166  LYS551  ARG553  GLY616  TRP617  ASP618  TYR619  PRO620  LYS621  CYS622 
 ASP623  PHE694  ASN695  SER759  ASP760  ASP761  ALA762  ILE779  LEU786  VAL792 
 PHE793  MET794  SER795  GLU796  ALA797  LYS798  CYS799  TRP800  GLU811  SER814 

> <Gold.Protein.RotatedAtoms>
  151.9362  135.0234  160.0532 H   0  0  0  0  0  0  0  0  0  0  0  0  # atno 6907 bound_to 6896
  152.2076  133.4882  159.5100 H   0  0  0  0  0  0  0  0  0  0  0  0  # atno 6908 bound_to 6896
  150.6968  134.1426  159.4153 H   0  0  0  0  0  0  0  0  0  0  0  0  # atno 6909 bound_to 6896
  144.9519  139.4808  143.5521 H   0  0  0  0  0  0  0  0  0  0  0  0  # atno 7974 bound_to 7965
  154.5031  140.0829  156.7838 H   0  0  0  0  0  0  0  0  0  0  0  0  # atno 8008 bound_to 7997
  155.3957  140.3434  155.4236 H   0  0  0  0  0  0  0  0  0  0  0  0  # atno 8009 bound_to 7997
  156.1481  140.1550  156.8802 H   0  0  0  0  0  0  0  0  0  0  0  0  # atno 8010 bound_to 7997
  139.5224  144.2885  152.0484 H   0  0  0  0  0  0  0  0  0  0  0  0  # atno 10167 bound_to 10162
  156.4842  130.4552  149.6793 H   0  0  0  0  0  0  0  0  0  0  0  0  # atno 10718 bound_to 10713
  153.8897  135.3034  155.3447 H   0  0  0  0  0  0  0  0  0  0  0  0  # atno 10763 bound_to 10752
  154.7722  135.4880  153.9675 H   0  0  0  0  0  0  0  0  0  0  0  0  # atno 10764 bound_to 10752
  153.1304  135.6802  153.9285 H   0  0  0  0  0  0  0  0  0  0  0  0  # atno 10765 bound_to 10752
  140.3950  134.1779  155.7663 H   0  0  0  0  0  0  0  0  0  0  0  0  # atno 11005 bound_to 11000
  146.3324  139.8611  142.8856 LP  0  0  0  0  0  0  0  0  0  0  0  0  # atno 17320 bound_to 7965
  145.2830  141.0144  143.3706 LP  0  0  0  0  0  0  0  0  0  0  0  0  # atno 17321 bound_to 7965
  140.2338  144.4341  150.6289 LP  0  0  0  0  0  0  0  0  0  0  0  0  # atno 17342 bound_to 10162
  140.6337  143.2191  151.6440 LP  0  0  0  0  0  0  0  0  0  0  0  0  # atno 17343 bound_to 10162
  156.3491  130.7422  151.2379 LP  0  0  0  0  0  0  0  0  0  0  0  0  # atno 17370 bound_to 10713
  157.7480  131.0382  150.4492 LP  0  0  0  0  0  0  0  0  0  0  0  0  # atno 17371 bound_to 10713
  141.1877  133.8275  157.1021 LP  0  0  0  0  0  0  0  0  0  0  0  0  # atno 17394 bound_to 11000
  140.0378  134.9869  157.0905 LP  0  0  0  0  0  0  0  0  0  0  0  0  # atno 17395 bound_to 11000

$$$$
