AV-unprocessed.smi:2675|AV-procd|sdf|10361|dock2
  -GOLD-   2272014383D 1   1.00000     0.00000
 Structure written by MMmdl.
 37 38  0  0  0  0  0  0  0  0  2 V2000
  144.0638  131.7906  150.7387 C   0  0  0  0  0  0  0  0  0  0  0  0
  144.4384  133.2318  150.8357 C   0  0  0  0  0  0  0  0  0  0  0  0
  143.5053  134.2273  150.7150 N   0  3  0  0  0  0  0  0  0  0  0  0
  144.0780  135.4254  150.8343 C   0  0  0  0  0  0  0  0  0  0  0  0
  145.3835  135.2118  151.0337 N   0  0  0  0  0  0  0  0  0  0  0  0
  146.3305  136.3237  151.1988 C   0  0  0  0  0  0  0  0  0  0  0  0
  146.1378  137.0175  152.5474 C   0  0  0  0  0  0  0  0  0  0  0  0
  145.1342  136.7795  153.2165 O   0  0  0  0  0  0  0  0  0  0  0  0
  147.1114  137.8647  152.9251 N   0  0  0  0  0  0  0  0  0  0  0  0
  147.2227  138.6280  154.1753 C   0  0  2  0  0  0  0  0  0  0  0  0
  148.7184  138.6393  154.5328 C   0  0  0  0  0  0  0  0  0  0  0  0
  146.5044  137.9681  155.2834 C   0  0  0  0  0  0  0  0  0  0  0  0
  145.9395  137.4526  156.1521 N   0  0  0  0  0  0  0  0  0  0  0  0
  146.7320  140.0754  154.1019 C   0  0  0  0  0  0  0  0  0  0  0  0
  147.5691  141.2321  153.6014 C   0  0  0  0  0  0  0  0  0  0  0  0
  147.2061  141.1389  155.0668 C   0  0  0  0  0  0  0  0  0  0  0  0
  145.6469  133.8591  151.0414 C   0  0  0  0  0  0  0  0  0  0  0  0
  147.0187  133.2986  151.2404 C   0  0  0  0  0  0  0  0  0  0  0  0
  144.9424  131.1532  150.8331 H   0  0  0  0  0  0  0  0  0  0  0  0
  143.5934  131.5883  149.7762 H   0  0  0  0  0  0  0  0  0  0  0  0
  143.3620  131.5300  151.5313 H   0  0  0  0  0  0  0  0  0  0  0  0
  143.5823  136.3781  150.7764 H   0  0  0  0  0  0  0  0  0  0  0  0
  147.3471  135.9378  151.1065 H   0  0  0  0  0  0  0  0  0  0  0  0
  146.1841  137.0336  150.3841 H   0  0  0  0  0  0  0  0  0  0  0  0
  147.8775  137.9870  152.2795 H   0  0  0  0  0  0  0  0  0  0  0  0
  148.8963  139.1586  155.4753 H   0  0  0  0  0  0  0  0  0  0  0  0
  149.3077  139.1420  153.7650 H   0  0  0  0  0  0  0  0  0  0  0  0
  149.1091  137.6265  154.6416 H   0  0  0  0  0  0  0  0  0  0  0  0
  145.6796  140.1392  153.8295 H   0  0  0  0  0  0  0  0  0  0  0  0
  148.6087  141.0610  153.3371 H   0  0  0  0  0  0  0  0  0  0  0  0
  147.0643  141.9925  153.0089 H   0  0  0  0  0  0  0  0  0  0  0  0
  146.4626  141.8367  155.4465 H   0  0  0  0  0  0  0  0  0  0  0  0
  148.0032  140.8873  155.7633 H   0  0  0  0  0  0  0  0  0  0  0  0
  146.9973  132.2093  151.2288 H   0  0  0  0  0  0  0  0  0  0  0  0
  147.4255  133.6213  152.1989 H   0  0  0  0  0  0  0  0  0  0  0  0
  147.6845  133.6340  150.4453 H   0  0  0  0  0  0  0  0  0  0  0  0
  142.5169  134.0768  150.5557 H   0  0  0  0  0  0  0  0  0  0  0  0
  1  2  1  0  0  0  0
  1 19  1  0  0  0  0
  1 20  1  0  0  0  0
  1 21  1  0  0  0  0
  2 17  2  0  0  0  0
  2  3  1  0  0  0  0
  3  4  2  0  0  0  0
  3 37  1  0  0  0  0
  4  5  1  0  0  0  0
  4 22  1  0  0  0  0
  5  6  1  0  0  0  0
  5 17  1  0  0  0  0
  6  7  1  0  0  0  0
  6 23  1  0  0  0  0
  6 24  1  0  0  0  0
  7  8  2  0  0  0  0
  7  9  1  0  0  0  0
  9 10  1  0  0  0  0
  9 25  1  0  0  0  0
 10 11  1  0  0  0  0
 10 12  1  0  0  0  0
 10 14  1  0  0  0  0
 11 26  1  0  0  0  0
 11 27  1  0  0  0  0
 11 28  1  0  0  0  0
 12 13  3  0  0  0  0
 14 16  1  0  0  0  0
 14 15  1  0  0  0  0
 14 29  1  0  0  0  0
 15 16  1  0  0  0  0
 15 30  1  0  0  0  0
 15 31  1  0  0  0  0
 16 32  1  0  0  0  0
 16 33  1  0  0  0  0
 17 18  1  0  0  0  0
 18 34  1  0  0  0  0
 18 35  1  0  0  0  0
 18 36  1  0  0  0  0
M  CHG  1   3   1
M  END
> <s_m_source_file>
AV-unprocessed.smi

> <i_m_source_file_index>
2675

> <i_lp_mmshare_version>
43012

> <i_f3d_flags>
0

> <s_epik_input>
W0NIM11jMW5bY0hdbihjMVtDSDNdKVtDSDJdQyg9TylbTkhdW0NAQF0oW0NIM10pKEMjTilbQ0hdMltDSDJdW0NIMl0y

> <s_epik_cmdline>
J2VwaWtfcHl0aG9uJywgJy1waCcsICc3LjAnLCAnLXRuJywgJzgnLCAnLW1hJywgJzIwMCcsICctbWV0YWxfYmluZGluZycsICctaW1hZScsICc8aW5maWxlLm1hZT4nLCAnLW9tYWUnLCAnPG91dGZpbGUubWFlPic=

> <r_lp_tautomer_probability>
1

> <r_epik_Ionization_Penalty>
0.153253

> <r_epik_Ionization_Penalty_Charging>
0

> <r_epik_Ionization_Penalty_Neutral>
0.153253

> <r_epik_State_Penalty>
0.14254

> <r_epik_Charging_Adjusted_Penalty>
0.14254

> <i_epik_Tot_Q>
1

> <i_epik_Tot_abs_Q>
1

> <r_epik_Metal_State_Penalty>
0.466899

> <b_epik_Metal_Only>
0

> <s_lp_Force_Field>
OPLS_2005

> <r_lp_Energy>
18.2942

> <b_lp_Chiralities_Consistent>
1

> <s_lp_Variant>
AV-unprocessed.smi:2675-2

> <Gold.Version>
5.8.1

> <Gold.Id.Protein>
6NUR|6NUR_protein|mol2

> <Gold.PLP.Fitness>
33.1964

> <Gold.PLP.PLP>
-24.9090

> <Gold.PLP.part.hbond>
-2.0000

> <Gold.PLP.part.metal>
0.0000

> <Gold.PLP.part.buried>
-1.0315

> <Gold.PLP.part.nonpolar>
-22.4326

> <Gold.PLP.part.repulsive>
0.2044

> <Gold.PLP.ligand.clash>
0.0000

> <Gold.PLP.ligand.torsion>
1.5138

> <Gold.PLP.Chemscore.Hbond>
2.2730

> <Gold.PLP.Chemscore.CHOScore>
1.0000

> <Gold.PLP.Chemscore.Metal>
0.0000

> <Gold.Chemscore.Hbonds>
donor molecule, donor type, donor heavy atom, donor atom, acceptor molecule, acceptor atom, score
      L1  H     3    37       P1 10186  1.95
      L1  H     9    25       P1  7948  0.28
      L1  C     4    22       P1 10171  1.00

> <Gold.PLP.Chemscore.Internal.Correction>
1.4962

> <Gold.Rescore>
     Score         DG    S(hbond)    S(metal)    S(lipo)     H(rot)  DE(clash)    DE(int)     intcor
      6.62     -12.26       1.19        0.00      63.24       1.80       1.52       4.12       ----

> <Gold.Chemscore.Fitness>
6.6188

> <Gold.Chemscore.DG>
-12.2571

> <Gold.Chemscore.ZeroCoef>
-5.4800

> <Gold.Chemscore.Hbond>
1.1900

> <Gold.Chemscore.Metal>
0.0000

> <Gold.Chemscore.Lipo>
63.2386

> <Gold.Chemscore.Internal_Hbond>
0.0000

> <Gold.Chemscore.DEClash>
1.5189

> <Gold.Chemscore.DEInternal>
4.1194

> <Gold.Chemscore.Rot>
1.7955

> <Gold.Chemscore.Internal.Correction>
   9.000000E+99

> <Gold.Chemscore.Hbonds>
donor molecule, donor type, donor heavy atom, donor atom, acceptor molecule, acceptor atom, score
      L1  H     3    37       P1 10186  0.69
      L1  H     9    25       P1  7948  0.27

> <Gold.Chemscore.Hbond.Weighted>
-3.9747

> <Gold.Chemscore.Metal.Weighted>
-0.0000

> <Gold.Chemscore.Lipo.Weighted>
-7.3989

> <Gold.Chemscore.Internal_Hbond.Weighted>
0.0000

> <Gold.Chemscore.DEClash.Weighted>
1.5189

> <Gold.Chemscore.DEInternal.Weighted>
4.1194

> <Gold.Chemscore.Rot.Weighted>
4.5965

> <Gold.Chemscore.Internal.Correction.Weighted>
   9.000000E+99

> <Gold.Protein.RotatedTorsions>
[ 6907 6896 6895 6894 ] final  -23.92 input  -60.11 | X-H torsion
[ 7974 7965 7964 7962 ] final  -51.29 input  175.53 | X-H torsion
[ 8008 7997 7996 7995 ] final  -25.87 input   59.86 | X-H torsion
[ 10167 10162 10161 10158 ] final  167.35 input  -65.29 | X-H torsion
[ 10718 10713 10712 10709 ] final  106.78 input   66.30 | X-H torsion
[ 10763 10752 10751 10750 ] final   29.02 input  -60.55 | X-H torsion
[ 11005 11000 10999 10996 ] final  129.07 input  -57.11 | X-H torsion

> <Gold.Protein.ActiveResidues>
 VAL166  LYS551  ARG553  GLY616  TRP617  ASP618  TYR619  PRO620  LYS621  CYS622 
 ASP623  PHE694  ASN695  SER759  ASP760  ASP761  ALA762  ILE779  LEU786  VAL792 
 PHE793  MET794  SER795  GLU796  ALA797  LYS798  CYS799  TRP800  GLU811  SER814 

> <Gold.Protein.RotatedAtoms>
  151.1971  135.0427  159.8856 H   0  0  0  0  0  0  0  0  0  0  0  0  # atno 6907 bound_to 6896
  152.5435  134.0892  159.8279 H   0  0  0  0  0  0  0  0  0  0  0  0  # atno 6908 bound_to 6896
  151.1027  133.5184  159.2641 H   0  0  0  0  0  0  0  0  0  0  0  0  # atno 6909 bound_to 6896
  145.9205  140.7837  142.9649 H   0  0  0  0  0  0  0  0  0  0  0  0  # atno 7974 bound_to 7965
  154.4454  140.1915  156.0687 H   0  0  0  0  0  0  0  0  0  0  0  0  # atno 8008 bound_to 7997
  156.0528  140.3306  155.7344 H   0  0  0  0  0  0  0  0  0  0  0  0  # atno 8009 bound_to 7997
  155.5531  140.0597  157.2836 H   0  0  0  0  0  0  0  0  0  0  0  0  # atno 8010 bound_to 7997
  139.4943  144.3931  151.9495 H   0  0  0  0  0  0  0  0  0  0  0  0  # atno 10167 bound_to 10162
  157.6655  131.0858  150.6058 H   0  0  0  0  0  0  0  0  0  0  0  0  # atno 10718 bound_to 10713
  153.0455  135.6499  154.0827 H   0  0  0  0  0  0  0  0  0  0  0  0  # atno 10763 bound_to 10752
  154.0526  135.2894  155.3339 H   0  0  0  0  0  0  0  0  0  0  0  0  # atno 10764 bound_to 10752
  154.6710  135.5356  153.8204 H   0  0  0  0  0  0  0  0  0  0  0  0  # atno 10765 bound_to 10752
  139.9595  134.9605  156.9095 H   0  0  0  0  0  0  0  0  0  0  0  0  # atno 11005 bound_to 11000
  144.6752  140.1969  143.7391 LP  0  0  0  0  0  0  0  0  0  0  0  0  # atno 17320 bound_to 7965
  145.8555  139.2197  143.1747 LP  0  0  0  0  0  0  0  0  0  0  0  0  # atno 17321 bound_to 7965
  140.3369  144.3250  150.5975 LP  0  0  0  0  0  0  0  0  0  0  0  0  # atno 17342 bound_to 10162
  140.5599  143.2193  151.7783 LP  0  0  0  0  0  0  0  0  0  0  0  0  # atno 17343 bound_to 10162
  156.6358  130.4445  149.5770 LP  0  0  0  0  0  0  0  0  0  0  0  0  # atno 17370 bound_to 10713
  156.2246  130.6758  151.1403 LP  0  0  0  0  0  0  0  0  0  0  0  0  # atno 17371 bound_to 10713
  140.5532  134.0607  155.7375 LP  0  0  0  0  0  0  0  0  0  0  0  0  # atno 17394 bound_to 11000
  141.1271  133.9365  157.2613 LP  0  0  0  0  0  0  0  0  0  0  0  0  # atno 17395 bound_to 11000

$$$$
