AV-unprocessed.smi:767|AV-procd|sdf|3663|dock5
  -GOLD-   22720 1 73D 1   1.00000     0.00000
 Structure written by MMmdl.
 47 49  0  0  0  0  0  0  0  0  1 V2000
  146.1607  129.8893  151.5647 C   0  0  0  0  0  0  0  0  0  0  0  0
  145.7590  131.3367  151.3708 C   0  0  0  0  0  0  0  0  0  0  0  0
  144.4768  131.6679  150.8852 C   0  0  0  0  0  0  0  0  0  0  0  0
  144.1560  133.0282  150.7114 C   0  0  0  0  0  0  0  0  0  0  0  0
  145.1270  134.0010  151.0248 C   0  0  0  0  0  0  0  0  0  0  0  0
  144.8418  135.4802  150.8277 C   0  0  0  0  0  0  0  0  0  0  0  0
  144.9367  136.3041  152.1283 C   0  0  0  0  0  0  0  0  0  0  0  0
  146.3044  136.4286  152.6240 N   0  0  0  0  0  0  0  0  0  0  0  0
  146.7048  136.1176  153.8639 C   0  0  0  0  0  0  0  0  0  0  0  0
  145.9528  135.7194  154.7533 O   0  0  0  0  0  0  0  0  0  0  0  0
  148.0270  136.2714  154.0108 N   0  0  0  0  0  0  0  0  0  0  0  0
  148.7651  135.9710  155.2417 C   0  0  2  0  0  0  0  0  0  0  0  0
  149.9477  136.9166  155.4676 C   0  0  2  0  0  0  0  0  0  0  0  0
  150.3650  138.2446  154.9473 C   0  0  0  0  0  0  0  0  0  0  0  0
  151.8744  137.9203  154.7785 C   0  0  0  0  0  0  0  0  0  0  0  0
  151.9993  136.4874  154.9694 O   0  0  0  0  0  0  0  0  0  0  0  0
  150.7390  135.9821  154.5760 C   0  0  1  0  0  0  0  0  0  0  0  0
  149.8584  134.8355  155.1195 C   0  0  0  0  0  0  0  0  0  0  0  0
  150.3144  134.1551  156.4226 C   0  0  0  0  0  0  0  0  0  0  0  0
  149.5802  133.6997  154.1291 C   0  0  0  0  0  0  0  0  0  0  0  0
  146.3778  133.5635  151.5103 C   0  0  0  0  0  0  0  0  0  0  0  0
  146.6947  132.2619  151.6786 N   0  0  0  0  0  0  0  0  0  0  0  0
  145.2903  129.2730  151.7923 H   0  0  0  0  0  0  0  0  0  0  0  0
  146.8710  129.7862  152.3857 H   0  0  0  0  0  0  0  0  0  0  0  0
  146.6263  129.5042  150.6573 H   0  0  0  0  0  0  0  0  0  0  0  0
  143.7563  130.8992  150.6471 H   0  0  0  0  0  0  0  0  0  0  0  0
  143.1857  133.3178  150.3355 H   0  0  0  0  0  0  0  0  0  0  0  0
  145.5367  135.8784  150.0879 H   0  0  0  0  0  0  0  0  0  0  0  0
  143.8465  135.5942  150.3961 H   0  0  0  0  0  0  0  0  0  0  0  0
  144.5715  137.3144  151.9422 H   0  0  0  0  0  0  0  0  0  0  0  0
  144.2898  135.8803  152.8978 H   0  0  0  0  0  0  0  0  0  0  0  0
  146.9996  136.7447  151.9639 H   0  0  0  0  0  0  0  0  0  0  0  0
  148.5634  136.6006  153.2217 H   0  0  0  0  0  0  0  0  0  0  0  0
  148.1313  135.8695  156.1243 H   0  0  0  0  0  0  0  0  0  0  0  0
  150.2420  136.8485  156.5178 H   0  0  0  0  0  0  0  0  0  0  0  0
  149.8891  138.4845  153.9956 H   0  0  0  0  0  0  0  0  0  0  0  0
  150.1852  139.0548  155.6543 H   0  0  0  0  0  0  0  0  0  0  0  0
  152.2228  138.2027  153.7843 H   0  0  0  0  0  0  0  0  0  0  0  0
  152.4887  138.4410  155.5134 H   0  0  0  0  0  0  0  0  0  0  0  0
  150.5817  136.1464  153.5050 H   0  0  0  0  0  0  0  0  0  0  0  0
  151.2482  133.6111  156.2773 H   0  0  0  0  0  0  0  0  0  0  0  0
  149.5717  133.4381  156.7740 H   0  0  0  0  0  0  0  0  0  0  0  0
  150.4829  134.8522  157.2415 H   0  0  0  0  0  0  0  0  0  0  0  0
  150.4244  133.0138  154.0537 H   0  0  0  0  0  0  0  0  0  0  0  0
  149.3943  134.0757  153.1234 H   0  0  0  0  0  0  0  0  0  0  0  0
  148.7065  133.1176  154.4239 H   0  0  0  0  0  0  0  0  0  0  0  0
  147.1516  134.2752  151.7582 H   0  0  0  0  0  0  0  0  0  0  0  0
  1  2  1  0  0  0  0
  1 23  1  0  0  0  0
  1 24  1  0  0  0  0
  1 25  1  0  0  0  0
  2 22  1  0  0  0  0
  2  3  2  0  0  0  0
  3  4  1  0  0  0  0
  3 26  1  0  0  0  0
  4  5  2  0  0  0  0
  4 27  1  0  0  0  0
  5  6  1  0  0  0  0
  5 21  1  0  0  0  0
  6  7  1  0  0  0  0
  6 28  1  0  0  0  0
  6 29  1  0  0  0  0
  7  8  1  0  0  0  0
  7 30  1  0  0  0  0
  7 31  1  0  0  0  0
  8  9  1  0  0  0  0
  8 32  1  0  0  0  0
  9 10  2  0  0  0  0
  9 11  1  0  0  0  0
 11 12  1  0  0  0  0
 11 33  1  0  0  0  0
 12 18  1  0  0  0  0
 12 13  1  0  0  0  0
 12 34  1  0  0  0  0
 13 17  1  0  0  0  0
 13 14  1  0  0  0  0
 13 35  1  0  0  0  0
 14 15  1  0  0  0  0
 14 36  1  0  0  0  0
 14 37  1  0  0  0  0
 15 16  1  0  0  0  0
 15 38  1  0  0  0  0
 15 39  1  0  0  0  0
 16 17  1  0  0  0  0
 17 18  1  0  0  0  0
 17 40  1  0  0  0  0
 18 19  1  0  0  0  0
 18 20  1  0  0  0  0
 19 41  1  0  0  0  0
 19 42  1  0  0  0  0
 19 43  1  0  0  0  0
 20 44  1  0  0  0  0
 20 45  1  0  0  0  0
 20 46  1  0  0  0  0
 21 22  2  0  0  0  0
 21 47  1  0  0  0  0
M  END
> <s_m_source_file>
AV-unprocessed.smi

> <i_m_source_file_index>
767

> <i_lp_mmshare_version>
43012

> <i_f3d_flags>
0

> <s_epik_input>
W0NIM11jMVtjSF1bY0hdYyhbY0hdbjEpW0NIMl1bQ0gyXVtOSF1DKD1PKVtOSF1bQ0BIXTJDKFtDSDNdKShbQ0gzXSlbQ0BIXShbQ0BASF0yMylPW0NIMl1bQ0gyXTM=

> <s_epik_cmdline>
J2VwaWtfcHl0aG9uJywgJy1waCcsICc3LjAnLCAnLXRuJywgJzgnLCAnLW1hJywgJzIwMCcsICctbWV0YWxfYmluZGluZycsICctaW1hZScsICc8aW5maWxlLm1hZT4nLCAnLW9tYWUnLCAnPG91dGZpbGUubWFlPic=

> <r_epik_Ionization_Penalty>
0.0567523

> <r_epik_Ionization_Penalty_Charging>
0

> <r_epik_Ionization_Penalty_Neutral>
0.0567523

> <r_epik_State_Penalty>
0.0489186

> <r_epik_Charging_Adjusted_Penalty>
0.0489186

> <i_epik_Tot_Q>
0

> <i_epik_Tot_abs_Q>
0

> <r_epik_Metal_State_Penalty>
0.044622

> <b_epik_Metal_Only>
0

> <s_lp_Force_Field>
OPLS_2005

> <r_lp_Energy>
58.7335

> <b_lp_Chiralities_Consistent>
1

> <s_lp_Variant>
AV-unprocessed.smi:767-7

> <Gold.Version>
5.8.1

> <Gold.Id.Protein>
6NUR|6NUR_protein|mol2

> <Gold.PLP.Fitness>
47.3603

> <Gold.PLP.PLP>
-37.7201

> <Gold.PLP.part.hbond>
-2.5889

> <Gold.PLP.part.metal>
0.0000

> <Gold.PLP.part.buried>
-4.8125

> <Gold.PLP.part.nonpolar>
-30.4594

> <Gold.PLP.part.repulsive>
0.7485

> <Gold.PLP.ligand.clash>
0.0000

> <Gold.PLP.ligand.torsion>
0.2286

> <Gold.PLP.Chemscore.Hbond>
2.4560

> <Gold.PLP.Chemscore.CHOScore>
0.8172

> <Gold.PLP.Chemscore.Metal>
0.0000

> <Gold.Chemscore.Hbonds>
donor molecule, donor type, donor heavy atom, donor atom, acceptor molecule, acceptor atom, score
      L1  H     8    32       P1  7948  0.59
      L1  H    11    33       P1  7948  0.69
      P1  H 10752 10763       L1    16  0.60
      L1  C    21    47       P1  7948  0.81

> <Gold.PLP.Chemscore.Internal.Correction>
0.2777

> <Gold.Rescore>
     Score         DG    S(hbond)    S(metal)    S(lipo)     H(rot)  DE(clash)    DE(int)     intcor
     19.87     -20.19       2.11        0.00      97.30       1.45       0.02       0.29       ----

> <Gold.Chemscore.Fitness>
19.8746

> <Gold.Chemscore.DG>
-20.1851

> <Gold.Chemscore.ZeroCoef>
-5.4800

> <Gold.Chemscore.Hbond>
2.1054

> <Gold.Chemscore.Metal>
0.0000

> <Gold.Chemscore.Lipo>
97.3016

> <Gold.Chemscore.Internal_Hbond>
0.0000

> <Gold.Chemscore.DEClash>
0.0222

> <Gold.Chemscore.DEInternal>
0.2883

> <Gold.Chemscore.Rot>
1.4497

> <Gold.Chemscore.Internal.Correction>
   9.000000E+99

> <Gold.Chemscore.Hbonds>
donor molecule, donor type, donor heavy atom, donor atom, acceptor molecule, acceptor atom, score
      L1  H     8    32       P1  7948  0.56
      L1  H    11    33       P1  7948  0.67
      P1  H 10752 10763       L1    16  0.33

> <Gold.Chemscore.Hbond.Weighted>
-7.0321

> <Gold.Chemscore.Metal.Weighted>
-0.0000

> <Gold.Chemscore.Lipo.Weighted>
-11.3843

> <Gold.Chemscore.Internal_Hbond.Weighted>
0.0000

> <Gold.Chemscore.DEClash.Weighted>
0.0222

> <Gold.Chemscore.DEInternal.Weighted>
0.2883

> <Gold.Chemscore.Rot.Weighted>
3.7112

> <Gold.Chemscore.Internal.Correction.Weighted>
   9.000000E+99

> <Gold.Protein.RotatedTorsions>
[ 6907 6896 6895 6894 ] final  177.33 input  -60.11 | X-H torsion
[ 7974 7965 7964 7962 ] final   92.51 input  175.53 | X-H torsion
[ 8008 7997 7996 7995 ] final    7.51 input   59.86 | X-H torsion
[ 10167 10162 10161 10158 ] final  105.85 input  -65.29 | X-H torsion
[ 10718 10713 10712 10709 ] final -156.10 input   66.30 | X-H torsion
[ 10763 10752 10751 10750 ] final   49.84 input  -60.55 | X-H torsion
[ 11005 11000 10999 10996 ] final  -62.28 input  -57.11 | X-H torsion

> <Gold.Protein.ActiveResidues>
 VAL166  LYS551  ARG553  GLY616  TRP617  ASP618  TYR619  PRO620  LYS621  CYS622 
 ASP623  PHE694  ASN695  SER759  ASP760  ASP761  ALA762  ILE779  LEU786  VAL792 
 PHE793  MET794  SER795  GLU796  ALA797  LYS798  CYS799  TRP800  GLU811  SER814 

> <Gold.Protein.RotatedAtoms>
  151.7058  133.3311  159.3277 H   0  0  0  0  0  0  0  0  0  0  0  0  # atno 6907 bound_to 6896
  150.7716  134.6576  159.6331 H   0  0  0  0  0  0  0  0  0  0  0  0  # atno 6908 bound_to 6896
  152.3742  134.6691  160.0217 H   0  0  0  0  0  0  0  0  0  0  0  0  # atno 6909 bound_to 6896
  145.4913  139.2276  143.2828 H   0  0  0  0  0  0  0  0  0  0  0  0  # atno 7974 bound_to 7965
  154.7548  140.2773  155.6263 H   0  0  0  0  0  0  0  0  0  0  0  0  # atno 8008 bound_to 7997
  156.2903  140.2671  156.2237 H   0  0  0  0  0  0  0  0  0  0  0  0  # atno 8009 bound_to 7997
  155.0092  140.0372  157.2382 H   0  0  0  0  0  0  0  0  0  0  0  0  # atno 8010 bound_to 7997
  139.7058  144.7086  151.1109 H   0  0  0  0  0  0  0  0  0  0  0  0  # atno 10167 bound_to 10162
  156.5219  130.8482  151.2685 H   0  0  0  0  0  0  0  0  0  0  0  0  # atno 10718 bound_to 10713
  152.9785  135.5898  154.4155 H   0  0  0  0  0  0  0  0  0  0  0  0  # atno 10763 bound_to 10752
  154.3785  135.2767  155.2227 H   0  0  0  0  0  0  0  0  0  0  0  0  # atno 10764 bound_to 10752
  154.4151  135.6072  153.6030 H   0  0  0  0  0  0  0  0  0  0  0  0  # atno 10765 bound_to 10752
  141.1354  133.6638  156.5504 H   0  0  0  0  0  0  0  0  0  0  0  0  # atno 11005 bound_to 11000
  146.2282  140.5708  142.8987 LP  0  0  0  0  0  0  0  0  0  0  0  0  # atno 17320 bound_to 7965
  144.7832  140.5883  143.6591 LP  0  0  0  0  0  0  0  0  0  0  0  0  # atno 17321 bound_to 7965
  140.7721  143.5361  150.9367 LP  0  0  0  0  0  0  0  0  0  0  0  0  # atno 17342 bound_to 10162
  139.9044  143.6796  152.3126 LP  0  0  0  0  0  0  0  0  0  0  0  0  # atno 17343 bound_to 10162
  157.7435  130.9914  150.2601 LP  0  0  0  0  0  0  0  0  0  0  0  0  # atno 17370 bound_to 10713
  156.3141  130.3776  149.7634 LP  0  0  0  0  0  0  0  0  0  0  0  0  # atno 17371 bound_to 10713
  140.4068  134.7307  157.4813 LP  0  0  0  0  0  0  0  0  0  0  0  0  # atno 17394 bound_to 11000
  140.0456  134.6205  155.8926 LP  0  0  0  0  0  0  0  0  0  0  0  0  # atno 17395 bound_to 11000

$$$$
